MODEL 1
REMARK minimizedAffinity -2.24644279
REMARK minimizedRMSD -1
REMARK  0 active torsions:
REMARK  status: ('A' for Active; 'I' for Inactive)
ROOT
ATOM      1  N1  IND d   1      -0.406  -1.925  -2.447  0.00  0.00    -0.196 N 
ATOM      2  C2  IND d   1      -0.632  -3.001  -1.636  0.00  0.00     0.054 A 
ATOM      3  C3  IND d   1      -0.596  -2.628  -0.337  0.00  0.00    -0.031 A 
ATOM      4  C4  IND d   1      -0.285  -0.284   0.682  0.00  0.00     0.051 A 
ATOM      5  C5  IND d   1      -0.008   1.010   0.342  0.00  0.00    -0.031 A 
ATOM      6  C6  IND d   1       0.151   1.401  -0.972  0.00  0.00     0.015 A 
ATOM      7  C7  IND d   1       0.027   0.510  -2.000  0.00  0.00    -0.016 A 
ATOM      8  C8  IND d   1      -0.247  -0.807  -1.658  0.00  0.00    -0.047 A 
ATOM      9  C9  IND d   1      -0.367  -1.218  -0.324  0.00  0.00    -0.096 A 
ATOM     10  HN1 IND d   1      -0.369  -1.942  -3.306  0.00  0.00     0.298 HD
ENDROOT
TORSDOF 0
ENDMDL
