MODEL 1
REMARK minimizedAffinity -3.70956707
REMARK minimizedRMSD -1
REMARK  0 active torsions:
REMARK  status: ('A' for Active; 'I' for Inactive)
ROOT
ATOM      1  N1  IND d   1       0.413  -1.963  -2.385  0.00  0.00    -0.196 N 
ATOM      2  C2  IND d   1       0.455  -3.026  -1.526  0.00  0.00     0.054 A 
ATOM      3  C3  IND d   1       0.523  -2.594  -0.246  0.00  0.00    -0.031 A 
ATOM      4  C4  IND d   1       0.474  -0.189   0.673  0.00  0.00     0.051 A 
ATOM      5  C5  IND d   1       0.479   1.117   0.272  0.00  0.00    -0.031 A 
ATOM      6  C6  IND d   1       0.458   1.471  -1.062  0.00  0.00     0.015 A 
ATOM      7  C7  IND d   1       0.421   0.527  -2.049  0.00  0.00    -0.016 A 
ATOM      8  C8  IND d   1       0.424  -0.801  -1.646  0.00  0.00    -0.047 A 
ATOM      9  C9  IND d   1       0.487  -1.166  -0.295  0.00  0.00    -0.096 A 
ATOM     10  HN1 IND d   1       0.385  -2.013  -3.243  0.00  0.00     0.298 HD
ENDROOT
TORSDOF 0
ENDMDL
