MODEL 1
REMARK minimizedAffinity -3.24057436
REMARK minimizedRMSD -1
REMARK  0 active torsions:
REMARK  status: ('A' for Active; 'I' for Inactive)
ROOT
ATOM      1  N1  IND d   1       0.063  -0.186  -1.674  0.00  0.00    -0.196 N 
ATOM      2  C2  IND d   1       0.018   1.072  -1.141  0.00  0.00     0.054 A 
ATOM      3  C3  IND d   1      -0.495   1.035   0.109  0.00  0.00    -0.031 A 
ATOM      4  C4  IND d   1      -1.233  -0.992   1.515  0.00  0.00     0.051 A 
ATOM      5  C5  IND d   1      -1.412  -2.345   1.444  0.00  0.00    -0.031 A 
ATOM      6  C6  IND d   1      -1.101  -3.062   0.307  0.00  0.00     0.015 A 
ATOM      7  C7  IND d   1      -0.585  -2.452  -0.801  0.00  0.00    -0.016 A 
ATOM      8  C8  IND d   1      -0.408  -1.078  -0.735  0.00  0.00    -0.047 A 
ATOM      9  C9  IND d   1      -0.762  -0.338   0.401  0.00  0.00    -0.096 A 
ATOM     10  HN1 IND d   1       0.338  -0.387  -2.463  0.00  0.00     0.298 HD
ENDROOT
TORSDOF 0
ENDMDL
