MODEL 1
REMARK minimizedAffinity -3.53880382
REMARK minimizedRMSD -1
REMARK  0 active torsions:
REMARK  status: ('A' for Active; 'I' for Inactive)
ROOT
ATOM      1  N1  IND d   1       0.108   0.277  -2.020  0.00  0.00    -0.196 N 
ATOM      2  C2  IND d   1       0.043   1.339  -1.162  0.00  0.00     0.054 A 
ATOM      3  C3  IND d   1      -0.373   0.933   0.059  0.00  0.00    -0.031 A 
ATOM      4  C4  IND d   1      -0.905  -1.441   0.899  0.00  0.00     0.051 A 
ATOM      5  C5  IND d   1      -1.025  -2.734   0.471  0.00  0.00    -0.031 A 
ATOM      6  C6  IND d   1      -0.765  -3.097  -0.835  0.00  0.00     0.015 A 
ATOM      7  C7  IND d   1      -0.363  -2.178  -1.763  0.00  0.00    -0.016 A 
ATOM      8  C8  IND d   1      -0.247  -0.863  -1.333  0.00  0.00    -0.047 A 
ATOM      9  C9  IND d   1      -0.551  -0.482  -0.020  0.00  0.00    -0.096 A 
ATOM     10  HN1 IND d   1       0.333   0.315  -2.849  0.00  0.00     0.298 HD
ENDROOT
TORSDOF 0
ENDMDL
