MODEL 1
REMARK minimizedAffinity -1.37825692
REMARK minimizedRMSD -1
REMARK  0 active torsions:
REMARK  status: ('A' for Active; 'I' for Inactive)
ROOT
ATOM      1  N1  IND d   1      -0.588  -2.016  -0.970  0.00  0.00    -0.196 N 
ATOM      2  C2  IND d   1      -0.889  -2.917   0.013  0.00  0.00     0.054 A 
ATOM      3  C3  IND d   1      -0.875  -2.314   1.223  0.00  0.00    -0.031 A 
ATOM      4  C4  IND d   1      -0.482   0.161   1.813  0.00  0.00     0.051 A 
ATOM      5  C5  IND d   1      -0.134   1.359   1.256  0.00  0.00    -0.031 A 
ATOM      6  C6  IND d   1       0.083   1.497  -0.100  0.00  0.00     0.015 A 
ATOM      7  C7  IND d   1      -0.053   0.439  -0.954  0.00  0.00    -0.016 A 
ATOM      8  C8  IND d   1      -0.399  -0.781  -0.391  0.00  0.00    -0.047 A 
ATOM      9  C9  IND d   1      -0.579  -0.936   0.990  0.00  0.00    -0.096 A 
ATOM     10  HN1 IND d   1      -0.526  -2.192  -1.810  0.00  0.00     0.298 HD
ENDROOT
TORSDOF 0
ENDMDL
