MODEL 1
REMARK minimizedAffinity -1.24618864
REMARK minimizedRMSD -1
REMARK  0 active torsions:
REMARK  status: ('A' for Active; 'I' for Inactive)
ROOT
ATOM      1  N1  IND d   1       0.527   0.292  -1.522  0.00  0.00    -0.196 N 
ATOM      2  C2  IND d   1       0.354   1.326  -0.645  0.00  0.00     0.054 A 
ATOM      3  C3  IND d   1      -0.185   0.877   0.511  0.00  0.00    -0.031 A 
ATOM      4  C4  IND d   1      -0.769  -1.529   1.216  0.00  0.00     0.051 A 
ATOM      5  C5  IND d   1      -0.823  -2.809   0.739  0.00  0.00    -0.031 A 
ATOM      6  C6  IND d   1      -0.419  -3.127  -0.542  0.00  0.00     0.015 A 
ATOM      7  C7  IND d   1       0.067  -2.175  -1.392  0.00  0.00    -0.016 A 
ATOM      8  C8  IND d   1       0.116  -0.873  -0.913  0.00  0.00    -0.047 A 
ATOM      9  C9  IND d   1      -0.332  -0.537   0.370  0.00  0.00    -0.096 A 
ATOM     10  HN1 IND d   1       0.839   0.359  -2.321  0.00  0.00     0.298 HD
ENDROOT
TORSDOF 0
ENDMDL
