MODEL 1
REMARK minimizedAffinity -4.70273161
REMARK minimizedRMSD -1
REMARK  0 active torsions:
REMARK  status: ('A' for Active; 'I' for Inactive)
ROOT
ATOM      1  N1  IND d   1       1.597   1.252   0.584  0.00  0.00    -0.196 N 
ATOM      2  C2  IND d   1       0.832   2.200  -0.035  0.00  0.00     0.054 A 
ATOM      3  C3  IND d   1      -0.423   1.737  -0.232  0.00  0.00    -0.031 A 
ATOM      4  C4  IND d   1      -1.467  -0.508   0.475  0.00  0.00     0.051 A 
ATOM      5  C5  IND d   1      -1.152  -1.713   1.036  0.00  0.00    -0.031 A 
ATOM      6  C6  IND d   1       0.121  -1.997   1.487  0.00  0.00     0.015 A 
ATOM      7  C7  IND d   1       1.128  -1.077   1.403  0.00  0.00    -0.016 A 
ATOM      8  C8  IND d   1       0.813   0.146   0.828  0.00  0.00    -0.047 A 
ATOM      9  C9  IND d   1      -0.467   0.424   0.329  0.00  0.00    -0.096 A 
ATOM     10  HN1 IND d   1       2.429   1.333   0.788  0.00  0.00     0.298 HD
ENDROOT
TORSDOF 0
ENDMDL
