MODEL 1
REMARK minimizedAffinity -3.24362707
REMARK minimizedRMSD -1
REMARK  0 active torsions:
REMARK  status: ('A' for Active; 'I' for Inactive)
ROOT
ATOM      1  N1  IND d   1      -0.179   0.634  -1.428  0.00  0.00    -0.196 N 
ATOM      2  C2  IND d   1       0.185  -0.137  -2.496  0.00  0.00     0.054 A 
ATOM      3  C3  IND d   1       0.051  -1.449  -2.196  0.00  0.00    -0.031 A 
ATOM      4  C4  IND d   1      -0.845  -2.553  -0.051  0.00  0.00     0.051 A 
ATOM      5  C5  IND d   1      -1.267  -2.260   1.216  0.00  0.00    -0.031 A 
ATOM      6  C6  IND d   1      -1.352  -0.961   1.674  0.00  0.00     0.015 A 
ATOM      7  C7  IND d   1      -1.028   0.099   0.876  0.00  0.00    -0.016 A 
ATOM      8  C8  IND d   1      -0.592  -0.195  -0.409  0.00  0.00    -0.047 A 
ATOM      9  C9  IND d   1      -0.463  -1.513  -0.865  0.00  0.00    -0.096 A 
ATOM     10  HN1 IND d   1      -0.154   1.493  -1.398  0.00  0.00     0.298 HD
ENDROOT
TORSDOF 0
ENDMDL
