MODEL 1
REMARK minimizedAffinity -4.6487999
REMARK minimizedRMSD -1
REMARK  0 active torsions:
REMARK  status: ('A' for Active; 'I' for Inactive)
ROOT
ATOM      1  N1  IND d   1       0.192  -0.612  -2.432  0.00  0.00    -0.196 N 
ATOM      2  C2  IND d   1      -0.013   0.713  -2.167  0.00  0.00     0.054 A 
ATOM      3  C3  IND d   1      -0.460   0.875  -0.901  0.00  0.00    -0.031 A 
ATOM      4  C4  IND d   1      -0.827  -0.884   0.942  0.00  0.00     0.051 A 
ATOM      5  C5  IND d   1      -0.809  -2.233   1.162  0.00  0.00    -0.031 A 
ATOM      6  C6  IND d   1      -0.446  -3.128   0.177  0.00  0.00     0.015 A 
ATOM      7  C7  IND d   1      -0.075  -2.705  -1.068  0.00  0.00    -0.016 A 
ATOM      8  C8  IND d   1      -0.099  -1.337  -1.298  0.00  0.00    -0.047 A 
ATOM      9  C9  IND d   1      -0.508  -0.427  -0.315  0.00  0.00    -0.096 A 
ATOM     10  HN1 IND d   1       0.459  -0.938  -3.182  0.00  0.00     0.298 HD
ENDROOT
TORSDOF 0
ENDMDL
