MODEL 1
REMARK minimizedAffinity -2.51228428
REMARK minimizedRMSD -1
REMARK  0 active torsions:
REMARK  status: ('A' for Active; 'I' for Inactive)
ROOT
ATOM      1  N1  IND d   1      -0.955  -2.825  -1.278  0.00  0.00    -0.196 N 
ATOM      2  C2  IND d   1      -1.376  -3.392  -0.108  0.00  0.00     0.054 A 
ATOM      3  C3  IND d   1      -1.340  -2.485   0.894  0.00  0.00    -0.031 A 
ATOM      4  C4  IND d   1      -0.721   0.013   0.818  0.00  0.00     0.051 A 
ATOM      5  C5  IND d   1      -0.237   0.977  -0.020  0.00  0.00    -0.031 A 
ATOM      6  C6  IND d   1       0.035   0.720  -1.348  0.00  0.00     0.015 A 
ATOM      7  C7  IND d   1      -0.178  -0.515  -1.893  0.00  0.00    -0.016 A 
ATOM      8  C8  IND d   1      -0.663  -1.499  -1.043  0.00  0.00    -0.047 A 
ATOM      9  C9  IND d   1      -0.901  -1.255   0.316  0.00  0.00    -0.096 A 
ATOM     10  HN1 IND d   1      -0.885  -3.228  -2.034  0.00  0.00     0.298 HD
ENDROOT
TORSDOF 0
ENDMDL
