MODEL 1
REMARK minimizedAffinity -2.58040214
REMARK minimizedRMSD -1
REMARK  0 active torsions:
REMARK  status: ('A' for Active; 'I' for Inactive)
ROOT
ATOM      1  N1  IND d   1      -1.402  -2.549   1.164  0.00  0.00    -0.196 N 
ATOM      2  C2  IND d   1      -0.929  -3.525   0.331  0.00  0.00     0.054 A 
ATOM      3  C3  IND d   1      -0.125  -2.987  -0.613  0.00  0.00    -0.031 A 
ATOM      4  C4  IND d   1       0.634  -0.547  -0.920  0.00  0.00     0.051 A 
ATOM      5  C5  IND d   1       0.437   0.713  -0.426  0.00  0.00    -0.031 A 
ATOM      6  C6  IND d   1      -0.398   0.953   0.646  0.00  0.00     0.015 A 
ATOM      7  C7  IND d   1      -1.061  -0.062   1.274  0.00  0.00    -0.016 A 
ATOM      8  C8  IND d   1      -0.869  -1.341   0.772  0.00  0.00    -0.047 A 
ATOM      9  C9  IND d   1      -0.056  -1.586  -0.343  0.00  0.00    -0.096 A 
ATOM     10  HN1 IND d   1      -1.942  -2.670   1.823  0.00  0.00     0.298 HD
ENDROOT
TORSDOF 0
ENDMDL
