MODEL 1
REMARK minimizedAffinity -2.94320297
REMARK minimizedRMSD -1
REMARK  0 active torsions:
REMARK  status: ('A' for Active; 'I' for Inactive)
ROOT
ATOM      1  N1  IND d   1      -0.070  -1.064  -2.481  0.00  0.00    -0.196 N 
ATOM      2  C2  IND d   1      -0.445  -2.352  -2.744  0.00  0.00     0.054 A 
ATOM      3  C3  IND d   1      -0.831  -2.972  -1.607  0.00  0.00    -0.031 A 
ATOM      4  C4  IND d   1      -1.023  -2.033   0.783  0.00  0.00     0.051 A 
ATOM      5  C5  IND d   1      -0.758  -0.918   1.527  0.00  0.00    -0.031 A 
ATOM      6  C6  IND d   1      -0.242   0.230   0.961  0.00  0.00     0.015 A 
ATOM      7  C7  IND d   1       0.018   0.309  -0.378  0.00  0.00    -0.016 A 
ATOM      8  C8  IND d   1      -0.243  -0.824  -1.135  0.00  0.00    -0.047 A 
ATOM      9  C9  IND d   1      -0.726  -2.006  -0.559  0.00  0.00    -0.096 A 
ATOM     10  HN1 IND d   1       0.225  -0.499  -3.058  0.00  0.00     0.298 HD
ENDROOT
TORSDOF 0
ENDMDL
