MODEL 1
REMARK minimizedAffinity -0.0557992421
REMARK minimizedRMSD -1
REMARK  0 active torsions:
REMARK  status: ('A' for Active; 'I' for Inactive)
ROOT
ATOM      1  N1  IND d   1       1.584   2.376   1.926  0.00  0.00    -0.196 N 
ATOM      2  C2  IND d   1       1.903   3.544   1.289  0.00  0.00     0.054 A 
ATOM      3  C3  IND d   1       1.414   3.541   0.029  0.00  0.00    -0.031 A 
ATOM      4  C4  IND d   1      -0.024   1.770  -1.164  0.00  0.00     0.051 A 
ATOM      5  C5  IND d   1      -0.542   0.516  -1.002  0.00  0.00    -0.031 A 
ATOM      6  C6  IND d   1      -0.377  -0.196   0.169  0.00  0.00     0.015 A 
ATOM      7  C7  IND d   1       0.306   0.328   1.230  0.00  0.00    -0.016 A 
ATOM      8  C8  IND d   1       0.840   1.598   1.067  0.00  0.00    -0.047 A 
ATOM      9  C9  IND d   1       0.711   2.308  -0.134  0.00  0.00    -0.096 A 
ATOM     10  HN1 IND d   1       1.811   2.164   2.727  0.00  0.00     0.298 HD
ENDROOT
TORSDOF 0
ENDMDL
