MODEL 1
REMARK minimizedAffinity -3.08907342
REMARK minimizedRMSD -1
REMARK  0 active torsions:
REMARK  status: ('A' for Active; 'I' for Inactive)
ROOT
ATOM      1  N1  IND d   1      -0.097   1.450  -1.158  0.00  0.00    -0.196 N 
ATOM      2  C2  IND d   1      -0.262   0.296  -0.444  0.00  0.00     0.054 A 
ATOM      3  C3  IND d   1       0.259   0.431   0.796  0.00  0.00    -0.031 A 
ATOM      4  C4  IND d   1       1.338   2.491   1.900  0.00  0.00     0.051 A 
ATOM      5  C5  IND d   1       1.744   3.769   1.632  0.00  0.00    -0.031 A 
ATOM      6  C6  IND d   1       1.550   4.351   0.396  0.00  0.00     0.015 A 
ATOM      7  C7  IND d   1       0.931   3.678  -0.619  0.00  0.00    -0.016 A 
ATOM      8  C8  IND d   1       0.524   2.379  -0.353  0.00  0.00    -0.047 A 
ATOM      9  C9  IND d   1       0.756   1.768   0.886  0.00  0.00    -0.096 A 
ATOM     10  HN1 IND d   1      -0.340   1.574  -1.974  0.00  0.00     0.298 HD
ENDROOT
TORSDOF 0
ENDMDL
