MODEL 1
REMARK minimizedAffinity -1.77426887
REMARK minimizedRMSD -1
REMARK  1 active torsions:
REMARK  status: ('A' for Active; 'I' for Inactive)
REMARK    1  A    between atoms: N_2  and  C1_3 
ROOT
ATOM      1  C1  UNL d   1       2.300   0.963   1.385  0.00  0.00     0.143 A 
ATOM      2  C2  UNL d   1       2.982   0.836   2.599  0.00  0.00    -0.057 A 
ATOM      3  C3  UNL d   1       2.754  -0.252   3.450  0.00  0.00     0.033 A 
ATOM      4  C4  UNL d   1       1.814  -1.220   3.114  0.00  0.00    -0.042 A 
ATOM      5  C5  UNL d   1       1.105  -1.101   1.924  0.00  0.00     0.033 A 
ATOM      6  C6  UNL d   1       1.343  -0.016   1.075  0.00  0.00    -0.057 A 
ENDROOT
BRANCH   1   7
ATOM      7  N   UNL d   1       2.411   2.072   0.542  0.00  0.00    -0.732 N 
ATOM      8  C   UNL d   1       1.254   2.887   0.239  0.00  0.00     0.284 C 
ATOM      9  H3  UNL d   1       3.261   2.605   0.711  0.00  0.00     0.395 HD
ENDBRANCH   1   7
TORSDOF 1
ENDMDL
