MODEL 1
REMARK minimizedAffinity 4.39350462
REMARK minimizedRMSD -1
REMARK  1 active torsions:
REMARK  status: ('A' for Active; 'I' for Inactive)
REMARK    1  A    between atoms: N_2  and  C1_3 
ROOT
ATOM      1  C1  UNL d   1       1.866   1.789   1.110  0.00  0.00     0.143 A 
ATOM      2  C2  UNL d   1       2.063   2.704   2.149  0.00  0.00    -0.057 A 
ATOM      3  C3  UNL d   1       2.602   2.303   3.378  0.00  0.00     0.033 A 
ATOM      4  C4  UNL d   1       2.927   0.969   3.599  0.00  0.00    -0.042 A 
ATOM      5  C5  UNL d   1       2.717   0.037   2.588  0.00  0.00     0.033 A 
ATOM      6  C6  UNL d   1       2.185   0.445   1.361  0.00  0.00    -0.057 A 
ENDROOT
BRANCH   1   7
ATOM      7  N   UNL d   1       1.244   2.107  -0.100  0.00  0.00    -0.732 N 
ATOM      8  C   UNL d   1      -0.014   2.823  -0.115  0.00  0.00     0.284 C 
ATOM      9  H3  UNL d   1       1.906   2.415  -0.808  0.00  0.00     0.395 HD
ENDBRANCH   1   7
TORSDOF 1
ENDMDL
