MODEL 1
REMARK minimizedAffinity 6.19444227
REMARK minimizedRMSD -1
REMARK  1 active torsions:
REMARK  status: ('A' for Active; 'I' for Inactive)
REMARK    1  A    between atoms: N_2  and  C1_3 
ROOT
ATOM      1  C1  UNL d   1       1.818   0.183   2.000  0.00  0.00     0.143 A 
ATOM      2  C2  UNL d   1       0.856  -0.196   1.058  0.00  0.00    -0.057 A 
ATOM      3  C3  UNL d   1       0.144  -1.395   1.189  0.00  0.00     0.033 A 
ATOM      4  C4  UNL d   1       0.403  -2.252   2.253  0.00  0.00    -0.042 A 
ATOM      5  C5  UNL d   1       1.372  -1.907   3.189  0.00  0.00     0.033 A 
ATOM      6  C6  UNL d   1       2.075  -0.705   3.056  0.00  0.00    -0.057 A 
ENDROOT
BRANCH   1   7
ATOM      7  N   UNL d   1       2.628   1.314   1.873  0.00  0.00    -0.732 N 
ATOM      8  C   UNL d   1       2.688   2.301   2.929  0.00  0.00     0.284 C 
ATOM      9  H3  UNL d   1       3.529   1.101   1.451  0.00  0.00     0.395 HD
ENDBRANCH   1   7
TORSDOF 1
ENDMDL
