MODEL 1
REMARK minimizedAffinity 10.7566328
REMARK minimizedRMSD -1
REMARK  1 active torsions:
REMARK  status: ('A' for Active; 'I' for Inactive)
REMARK    1  A    between atoms: N_2  and  C1_3 
ROOT
ATOM      1  C1  UNL d   1      -0.604  -2.460  -0.448  0.00  0.00     0.143 A 
ATOM      2  C2  UNL d   1      -0.787  -2.311  -1.827  0.00  0.00    -0.057 A 
ATOM      3  C3  UNL d   1       0.089  -2.905  -2.744  0.00  0.00     0.033 A 
ATOM      4  C4  UNL d   1       1.183  -3.638  -2.295  0.00  0.00    -0.042 A 
ATOM      5  C5  UNL d   1       1.398  -3.778  -0.929  0.00  0.00     0.033 A 
ATOM      6  C6  UNL d   1       0.517  -3.188  -0.018  0.00  0.00    -0.057 A 
ENDROOT
BRANCH   1   7
ATOM      7  N   UNL d   1      -1.383  -1.813   0.514  0.00  0.00    -0.732 N 
ATOM      8  C   UNL d   1      -1.549  -0.376   0.483  0.00  0.00     0.284 C 
ATOM      9  H3  UNL d   1      -2.234  -2.325   0.734  0.00  0.00     0.395 HD
ENDBRANCH   1   7
TORSDOF 1
ENDMDL
