MODEL 1
REMARK minimizedAffinity 6.7026825
REMARK minimizedRMSD -1
REMARK  1 active torsions:
REMARK  status: ('A' for Active; 'I' for Inactive)
REMARK    1  A    between atoms: N_2  and  C1_3 
ROOT
ATOM      1  C1  UNL d   1       3.794  -3.027   4.128  0.00  0.00     0.143 A 
ATOM      2  C2  UNL d   1       3.281  -2.061   3.256  0.00  0.00    -0.057 A 
ATOM      3  C3  UNL d   1       1.902  -1.861   3.123  0.00  0.00     0.033 A 
ATOM      4  C4  UNL d   1       1.007  -2.645   3.843  0.00  0.00    -0.042 A 
ATOM      5  C5  UNL d   1       1.493  -3.628   4.697  0.00  0.00     0.033 A 
ATOM      6  C6  UNL d   1       2.872  -3.819   4.830  0.00  0.00    -0.057 A 
ENDROOT
BRANCH   1   7
ATOM      7  N   UNL d   1       5.151  -3.341   4.231  0.00  0.00    -0.732 N 
ATOM      8  C   UNL d   1       5.990  -3.375   3.052  0.00  0.00     0.284 C 
ATOM      9  H3  UNL d   1       5.590  -2.910   5.041  0.00  0.00     0.395 HD
ENDBRANCH   1   7
TORSDOF 1
ENDMDL
