MODEL 1
REMARK minimizedAffinity 1.98940933
REMARK minimizedRMSD -1
REMARK  1 active torsions:
REMARK  status: ('A' for Active; 'I' for Inactive)
REMARK    1  A    between atoms: N_2  and  C1_3 
ROOT
ATOM      1  C1  UNL d   1       4.760  -1.774  -5.567  0.00  0.00     0.143 A 
ATOM      2  C2  UNL d   1       3.889  -1.228  -4.617  0.00  0.00    -0.057 A 
ATOM      3  C3  UNL d   1       4.051   0.082  -4.152  0.00  0.00     0.033 A 
ATOM      4  C4  UNL d   1       5.108   0.863  -4.609  0.00  0.00    -0.042 A 
ATOM      5  C5  UNL d   1       6.000   0.333  -5.534  0.00  0.00     0.033 A 
ATOM      6  C6  UNL d   1       5.829  -0.974  -6.000  0.00  0.00    -0.057 A 
ENDROOT
BRANCH   1   7
ATOM      7  N   UNL d   1       4.710  -3.103  -5.995  0.00  0.00    -0.732 N 
ATOM      8  C   UNL d   1       3.779  -4.035  -5.398  0.00  0.00     0.284 C 
ATOM      9  H3  UNL d   1       4.794  -3.189  -7.006  0.00  0.00     0.395 HD
ENDBRANCH   1   7
TORSDOF 1
ENDMDL
