MODEL 1
REMARK minimizedAffinity 4.41317701
REMARK minimizedRMSD -1
REMARK  1 active torsions:
REMARK  status: ('A' for Active; 'I' for Inactive)
REMARK    1  A    between atoms: N_2  and  C1_3 
ROOT
ATOM      1  C1  UNL d   1       0.403  -0.148   0.437  0.00  0.00     0.143 A 
ATOM      2  C2  UNL d   1      -0.677   0.741   0.400  0.00  0.00    -0.057 A 
ATOM      3  C3  UNL d   1      -0.481   2.114   0.214  0.00  0.00     0.033 A 
ATOM      4  C4  UNL d   1       0.805   2.629   0.090  0.00  0.00    -0.042 A 
ATOM      5  C5  UNL d   1       1.895   1.768   0.148  0.00  0.00     0.033 A 
ATOM      6  C6  UNL d   1       1.692   0.396   0.327  0.00  0.00    -0.057 A 
ENDROOT
BRANCH   1   7
ATOM      7  N   UNL d   1       0.280  -1.511   0.717  0.00  0.00    -0.732 N 
ATOM      8  C   UNL d   1       0.599  -2.502  -0.288  0.00  0.00     0.284 C 
ATOM      9  H3  UNL d   1       0.606  -1.746   1.651  0.00  0.00     0.395 HD
ENDBRANCH   1   7
TORSDOF 1
ENDMDL
