MODEL 1
REMARK minimizedAffinity -1.51477253
REMARK minimizedRMSD -1
REMARK  1 active torsions:
REMARK  status: ('A' for Active; 'I' for Inactive)
REMARK    1  A    between atoms: C3_4  and  O_7 
ROOT
ATOM      1  C   UNL d   1       2.730  -1.120   2.457  0.00  0.00    -0.033 A 
ATOM      2  C1  UNL d   1       1.876  -2.046   1.854  0.00  0.00     0.039 A 
ATOM      3  C2  UNL d   1       0.497  -1.829   1.855  0.00  0.00    -0.080 A 
ATOM      4  C3  UNL d   1      -0.015  -0.684   2.459  0.00  0.00     0.150 A 
ATOM      5  C4  UNL d   1       0.831   0.244   3.058  0.00  0.00    -0.007 A 
ATOM      6  C5  UNL d   1       2.208   0.025   3.057  0.00  0.00     0.039 A 
ENDROOT
BRANCH   4   7
ATOM      7  O   UNL d   1      -1.354  -0.432   2.488  0.00  0.00    -0.526 OA
ATOM      8  H5  UNL d   1      -1.816  -1.173   2.062  0.00  0.00     0.418 HD
ENDBRANCH   4   7
TORSDOF 1
ENDMDL
