MODEL 1
REMARK minimizedAffinity 7.91703415
REMARK minimizedRMSD -1
REMARK  1 active torsions:
REMARK  status: ('A' for Active; 'I' for Inactive)
REMARK    1  A    between atoms: C3_4  and  O_7 
ROOT
ATOM      1  C   UNL d   1       2.609  -2.039   0.901  0.00  0.00    -0.033 A 
ATOM      2  C1  UNL d   1       2.896  -2.497   2.189  0.00  0.00     0.039 A 
ATOM      3  C2  UNL d   1       2.103  -2.098   3.266  0.00  0.00    -0.080 A 
ATOM      4  C3  UNL d   1       1.027  -1.244   3.043  0.00  0.00     0.150 A 
ATOM      5  C4  UNL d   1       0.733  -0.786   1.763  0.00  0.00    -0.007 A 
ATOM      6  C5  UNL d   1       1.527  -1.185   0.688  0.00  0.00     0.039 A 
ENDROOT
BRANCH   4   7
ATOM      7  O   UNL d   1       0.227  -0.824   4.064  0.00  0.00    -0.526 OA
ATOM      8  H5  UNL d   1       0.567  -1.197   4.895  0.00  0.00     0.418 HD
ENDBRANCH   4   7
TORSDOF 1
ENDMDL
