MODEL 1
REMARK minimizedAffinity 1.70486498
REMARK minimizedRMSD -1
REMARK  1 active torsions:
REMARK  status: ('A' for Active; 'I' for Inactive)
REMARK    1  A    between atoms: C3_4  and  O_7 
ROOT
ATOM      1  C   UNL d   1       2.816  -2.634   0.803  0.00  0.00    -0.033 A 
ATOM      2  C1  UNL d   1       1.854  -1.759   0.293  0.00  0.00     0.039 A 
ATOM      3  C2  UNL d   1       0.985  -1.093   1.160  0.00  0.00    -0.080 A 
ATOM      4  C3  UNL d   1       1.089  -1.309   2.531  0.00  0.00     0.150 A 
ATOM      5  C4  UNL d   1       2.047  -2.176   3.046  0.00  0.00    -0.007 A 
ATOM      6  C5  UNL d   1       2.914  -2.841   2.179  0.00  0.00     0.039 A 
ENDROOT
BRANCH   4   7
ATOM      7  O   UNL d   1       0.260  -0.686   3.416  0.00  0.00    -0.526 OA
ATOM      8  H5  UNL d   1      -0.370  -0.140   2.915  0.00  0.00     0.418 HD
ENDBRANCH   4   7
TORSDOF 1
ENDMDL
