MODEL 1
REMARK minimizedAffinity 8.10347748
REMARK minimizedRMSD -1
REMARK  1 active torsions:
REMARK  status: ('A' for Active; 'I' for Inactive)
REMARK    1  A    between atoms: C3_4  and  O_7 
ROOT
ATOM      1  C   UNL d   1       3.003  -2.260  -0.103  0.00  0.00    -0.033 A 
ATOM      2  C1  UNL d   1       2.154  -1.160  -0.241  0.00  0.00     0.039 A 
ATOM      3  C2  UNL d   1       1.195  -0.889   0.737  0.00  0.00    -0.080 A 
ATOM      4  C3  UNL d   1       1.096  -1.724   1.847  0.00  0.00     0.150 A 
ATOM      5  C4  UNL d   1       1.942  -2.819   1.992  0.00  0.00    -0.007 A 
ATOM      6  C5  UNL d   1       2.898  -3.089   1.014  0.00  0.00     0.039 A 
ENDROOT
BRANCH   4   7
ATOM      7  O   UNL d   1       0.173  -1.503   2.825  0.00  0.00    -0.526 OA
ATOM      8  H5  UNL d   1      -0.359  -0.729   2.577  0.00  0.00     0.418 HD
ENDBRANCH   4   7
TORSDOF 1
ENDMDL
