MODEL 1
REMARK minimizedAffinity 0.93699497
REMARK minimizedRMSD -1
REMARK  1 active torsions:
REMARK  status: ('A' for Active; 'I' for Inactive)
REMARK    1  A    between atoms: C3_4  and  O_7 
ROOT
ATOM      1  C   UNL d   1       2.064  -0.368  -2.288  0.00  0.00    -0.033 A 
ATOM      2  C1  UNL d   1       2.107   0.914  -2.841  0.00  0.00     0.039 A 
ATOM      3  C2  UNL d   1       2.556   1.992  -2.076  0.00  0.00    -0.080 A 
ATOM      4  C3  UNL d   1       2.959   1.775  -0.761  0.00  0.00     0.150 A 
ATOM      5  C4  UNL d   1       2.923   0.501  -0.205  0.00  0.00    -0.007 A 
ATOM      6  C5  UNL d   1       2.474  -0.574  -0.971  0.00  0.00     0.039 A 
ENDROOT
BRANCH   4   7
ATOM      7  O   UNL d   1       3.400   2.797   0.026  0.00  0.00    -0.526 OA
ATOM      8  H5  UNL d   1       3.343   3.624  -0.481  0.00  0.00     0.418 HD
ENDBRANCH   4   7
TORSDOF 1
ENDMDL
