MODEL 1
REMARK minimizedAffinity 1.39832759
REMARK minimizedRMSD -1
REMARK  1 active torsions:
REMARK  status: ('A' for Active; 'I' for Inactive)
REMARK    1  A    between atoms: C3_4  and  O_7 
ROOT
ATOM      1  C   UNL d   1       1.161  -1.381   1.064  0.00  0.00    -0.033 A 
ATOM      2  C1  UNL d   1       1.585  -0.793   2.257  0.00  0.00     0.039 A 
ATOM      3  C2  UNL d   1       0.658  -0.188   3.107  0.00  0.00    -0.080 A 
ATOM      4  C3  UNL d   1      -0.689  -0.179   2.754  0.00  0.00     0.150 A 
ATOM      5  C4  UNL d   1      -1.119  -0.767   1.569  0.00  0.00    -0.007 A 
ATOM      6  C5  UNL d   1      -0.191  -1.369   0.721  0.00  0.00     0.039 A 
ENDROOT
BRANCH   4   7
ATOM      7  O   UNL d   1      -1.630   0.404   3.549  0.00  0.00    -0.526 OA
ATOM      8  H5  UNL d   1      -1.184   0.793   4.320  0.00  0.00     0.418 HD
ENDBRANCH   4   7
TORSDOF 1
ENDMDL
