MODEL 1
REMARK minimizedAffinity -1.76806819
REMARK minimizedRMSD -1
REMARK  1 active torsions:
REMARK  status: ('A' for Active; 'I' for Inactive)
REMARK    1  A    between atoms: C3_4  and  O_7 
ROOT
ATOM      1  C   UNL d   1       1.230  -1.406   2.996  0.00  0.00    -0.033 A 
ATOM      2  C1  UNL d   1       2.364  -2.049   2.497  0.00  0.00     0.039 A 
ATOM      3  C2  UNL d   1       2.587  -2.107   1.120  0.00  0.00    -0.080 A 
ATOM      4  C3  UNL d   1       1.670  -1.518   0.254  0.00  0.00     0.150 A 
ATOM      5  C4  UNL d   1       0.540  -0.872   0.745  0.00  0.00    -0.007 A 
ATOM      6  C5  UNL d   1       0.318  -0.816   2.120  0.00  0.00     0.039 A 
ENDROOT
BRANCH   4   7
ATOM      7  O   UNL d   1       1.842  -1.553  -1.098  0.00  0.00    -0.526 OA
ATOM      8  H5  UNL d   1       2.650  -2.056  -1.292  0.00  0.00     0.418 HD
ENDBRANCH   4   7
TORSDOF 1
ENDMDL
