MODEL 1
REMARK minimizedAffinity 1.40573347
REMARK minimizedRMSD -1
REMARK  1 active torsions:
REMARK  status: ('A' for Active; 'I' for Inactive)
REMARK    1  A    between atoms: C3_4  and  O_7 
ROOT
ATOM      1  C   UNL d   1       3.187  -2.100   0.727  0.00  0.00    -0.033 A 
ATOM      2  C1  UNL d   1       2.046  -1.488   0.204  0.00  0.00     0.039 A 
ATOM      3  C2  UNL d   1       1.004  -1.110   1.052  0.00  0.00    -0.080 A 
ATOM      4  C3  UNL d   1       1.115  -1.347   2.420  0.00  0.00     0.150 A 
ATOM      5  C4  UNL d   1       2.251  -1.953   2.948  0.00  0.00    -0.007 A 
ATOM      6  C5  UNL d   1       3.290  -2.331   2.099  0.00  0.00     0.039 A 
ENDROOT
BRANCH   4   7
ATOM      7  O   UNL d   1       0.122  -1.000   3.286  0.00  0.00    -0.526 OA
ATOM      8  H5  UNL d   1      -0.612  -0.618   2.777  0.00  0.00     0.418 HD
ENDBRANCH   4   7
TORSDOF 1
ENDMDL
