MODEL 1
REMARK minimizedAffinity -1.59169233
REMARK minimizedRMSD -1
REMARK  1 active torsions:
REMARK  status: ('A' for Active; 'I' for Inactive)
REMARK    1  A    between atoms: C3_4  and  O_7 
ROOT
ATOM      1  C   UNL d   1       2.447   2.530  -1.444  0.00  0.00    -0.033 A 
ATOM      2  C1  UNL d   1       2.385   1.840  -2.657  0.00  0.00     0.039 A 
ATOM      3  C2  UNL d   1       2.454   0.445  -2.673  0.00  0.00    -0.080 A 
ATOM      4  C3  UNL d   1       2.583  -0.246  -1.472  0.00  0.00     0.150 A 
ATOM      5  C4  UNL d   1       2.641   0.434  -0.260  0.00  0.00    -0.007 A 
ATOM      6  C5  UNL d   1       2.573   1.827  -0.246  0.00  0.00     0.039 A 
ENDROOT
BRANCH   4   7
ATOM      7  O   UNL d   1       2.659  -1.607  -1.437  0.00  0.00    -0.526 OA
ATOM      8  H5  UNL d   1       2.635  -1.940  -2.350  0.00  0.00     0.418 HD
ENDBRANCH   4   7
TORSDOF 1
ENDMDL
