MODEL 1
REMARK minimizedAffinity 2.94782829
REMARK minimizedRMSD -1
REMARK  1 active torsions:
REMARK  status: ('A' for Active; 'I' for Inactive)
REMARK    1  A    between atoms: C3_4  and  O_7 
ROOT
ATOM      1  C   UNL d   1       3.137  -2.081   1.728  0.00  0.00    -0.033 A 
ATOM      2  C1  UNL d   1       3.223  -2.615   0.440  0.00  0.00     0.039 A 
ATOM      3  C2  UNL d   1       2.416  -2.111  -0.582  0.00  0.00    -0.080 A 
ATOM      4  C3  UNL d   1       1.529  -1.075  -0.304  0.00  0.00     0.150 A 
ATOM      5  C4  UNL d   1       1.441  -0.535   0.975  0.00  0.00    -0.007 A 
ATOM      6  C5  UNL d   1       2.247  -1.040   1.995  0.00  0.00     0.039 A 
ENDROOT
BRANCH   4   7
ATOM      7  O   UNL d   1       0.718  -0.553  -1.268  0.00  0.00    -0.526 OA
ATOM      8  H5  UNL d   1       0.868  -1.043  -2.094  0.00  0.00     0.418 HD
ENDBRANCH   4   7
TORSDOF 1
ENDMDL
