MODEL 1
REMARK minimizedAffinity 4.6540494
REMARK minimizedRMSD -1
REMARK  1 active torsions:
REMARK  status: ('A' for Active; 'I' for Inactive)
REMARK    1  A    between atoms: C3_4  and  O_7 
ROOT
ATOM      1  C   UNL d   1       3.031  -1.802   1.934  0.00  0.00    -0.033 A 
ATOM      2  C1  UNL d   1       1.912  -2.143   1.171  0.00  0.00     0.039 A 
ATOM      3  C2  UNL d   1       0.634  -1.790   1.608  0.00  0.00    -0.080 A 
ATOM      4  C3  UNL d   1       0.488  -1.097   2.806  0.00  0.00     0.150 A 
ATOM      5  C4  UNL d   1       1.598  -0.751   3.569  0.00  0.00    -0.007 A 
ATOM      6  C5  UNL d   1       2.874  -1.105   3.132  0.00  0.00     0.039 A 
ENDROOT
BRANCH   4   7
ATOM      7  O   UNL d   1      -0.740  -0.736   3.276  0.00  0.00    -0.526 OA
ATOM      8  H5  UNL d   1      -1.414  -1.067   2.659  0.00  0.00     0.418 HD
ENDBRANCH   4   7
TORSDOF 1
ENDMDL
