MODEL 1
REMARK minimizedAffinity 3.13756132
REMARK minimizedRMSD -1
REMARK  2 active torsions:
REMARK  status: ('A' for Active; 'I' for Inactive)
REMARK    1  A    between atoms: C2'_3  and  C1'_4 
REMARK    2  A    between atoms: C1'_4  and  C1_5 
ROOT
ATOM      1  C1  I4B d   1      -1.519  -1.398  -1.882  0.00  0.00    -0.075 A 
ATOM      2  C2  I4B d   1      -1.685  -1.365  -0.520  0.00  0.00     0.003 A 
ATOM      3  C3  I4B d   1      -0.623  -1.743   0.337  0.00  0.00     0.002 A 
ATOM      4  C4  I4B d   1       0.563  -2.192  -0.208  0.00  0.00    -0.004 A 
ATOM      5  C5  I4B d   1       0.737  -2.203  -1.589  0.00  0.00     0.002 A 
ATOM      6  C6  I4B d   1      -0.305  -1.791  -2.432  0.00  0.00     0.003 A 
ENDROOT
BRANCH   1   7
ATOM      7  C1' I4B d   1      -2.672  -1.023  -2.758  0.00  0.00     0.060 C 
BRANCH   7   8
ATOM      8  C2' I4B d   1      -3.412   0.119  -2.093  0.00  0.00    -0.013 C 
ATOM      9  C4' I4B d   1      -3.449   1.335  -2.980  0.00  0.00     0.013 C 
ATOM     10  C3' I4B d   1      -4.797  -0.354  -1.765  0.00  0.00     0.013 C 
ENDBRANCH   7   8
ENDBRANCH   1   7
TORSDOF 2
ENDMDL
