MODEL 1
REMARK minimizedAffinity 2.11596727
REMARK minimizedRMSD -1
REMARK  2 active torsions:
REMARK  status: ('A' for Active; 'I' for Inactive)
REMARK    1  A    between atoms: C2'_3  and  C1'_4 
REMARK    2  A    between atoms: C1'_4  and  C1_5 
ROOT
ATOM      1  C1  I4B d   1      -1.778  -2.029  -1.346  0.00  0.00    -0.075 A 
ATOM      2  C2  I4B d   1      -1.631  -2.229   0.004  0.00  0.00     0.003 A 
ATOM      3  C3  I4B d   1      -0.373  -2.602   0.536  0.00  0.00     0.002 A 
ATOM      4  C4  I4B d   1       0.691  -2.811  -0.317  0.00  0.00    -0.004 A 
ATOM      5  C5  I4B d   1       0.546  -2.585  -1.683  0.00  0.00     0.002 A 
ATOM      6  C6  I4B d   1      -0.693  -2.179  -2.200  0.00  0.00     0.003 A 
ENDROOT
BRANCH   1   7
ATOM      7  C1' I4B d   1      -3.128  -1.668  -1.878  0.00  0.00     0.060 C 
BRANCH   7   8
ATOM      8  C2' I4B d   1      -2.944  -0.591  -2.928  0.00  0.00    -0.013 C 
ATOM      9  C4' I4B d   1      -3.594  -0.980  -4.229  0.00  0.00     0.013 C 
ATOM     10  C3' I4B d   1      -3.527   0.683  -2.391  0.00  0.00     0.013 C 
ENDBRANCH   7   8
ENDBRANCH   1   7
TORSDOF 2
ENDMDL
