MODEL 1
REMARK minimizedAffinity 10.7273855
REMARK minimizedRMSD -1
REMARK  2 active torsions:
REMARK  status: ('A' for Active; 'I' for Inactive)
REMARK    1  A    between atoms: C2'_3  and  C1'_4 
REMARK    2  A    between atoms: C1'_4  and  C1_5 
ROOT
ATOM      1  C1  I4B d   1       2.149   0.242   2.202  0.00  0.00    -0.075 A 
ATOM      2  C2  I4B d   1       1.174  -0.417   1.496  0.00  0.00     0.003 A 
ATOM      3  C3  I4B d   1       0.745  -1.703   1.904  0.00  0.00     0.002 A 
ATOM      4  C4  I4B d   1       1.350  -2.310   2.985  0.00  0.00    -0.004 A 
ATOM      5  C5  I4B d   1       2.323  -1.631   3.713  0.00  0.00     0.002 A 
ATOM      6  C6  I4B d   1       2.716  -0.342   3.327  0.00  0.00     0.003 A 
ENDROOT
BRANCH   1   7
ATOM      7  C1' I4B d   1       2.601   1.586   1.724  0.00  0.00     0.060 C 
BRANCH   7   8
ATOM      8  C2' I4B d   1       2.105   1.767   0.304  0.00  0.00    -0.013 C 
ATOM      9  C4' I4B d   1       2.150   3.215  -0.108  0.00  0.00     0.013 C 
ATOM     10  C3' I4B d   1       2.956   0.922  -0.595  0.00  0.00     0.013 C 
ENDBRANCH   7   8
ENDBRANCH   1   7
TORSDOF 2
ENDMDL
