MODEL 1
REMARK minimizedAffinity 2.64319921
REMARK minimizedRMSD -1
REMARK  2 active torsions:
REMARK  status: ('A' for Active; 'I' for Inactive)
REMARK    1  A    between atoms: C2'_3  and  C1'_4 
REMARK    2  A    between atoms: C1'_4  and  C1_5 
ROOT
ATOM      1  C1  I4B d   1       1.706   0.777   1.212  0.00  0.00    -0.075 A 
ATOM      2  C2  I4B d   1       0.536   0.337   0.646  0.00  0.00     0.003 A 
ATOM      3  C3  I4B d   1      -0.051  -0.878   1.074  0.00  0.00     0.002 A 
ATOM      4  C4  I4B d   1       0.588  -1.642   2.029  0.00  0.00    -0.004 A 
ATOM      5  C5  I4B d   1       1.763  -1.184   2.619  0.00  0.00     0.002 A 
ATOM      6  C6  I4B d   1       2.320   0.039   2.217  0.00  0.00     0.003 A 
ENDROOT
BRANCH   1   7
ATOM      7  C1' I4B d   1       2.316   2.048   0.713  0.00  0.00     0.060 C 
BRANCH   7   8
ATOM      8  C2' I4B d   1       1.699   2.363  -0.635  0.00  0.00    -0.013 C 
ATOM      9  C4' I4B d   1       2.052   3.757  -1.083  0.00  0.00     0.013 C 
ATOM     10  C3' I4B d   1       2.186   1.340  -1.617  0.00  0.00     0.013 C 
ENDBRANCH   7   8
ENDBRANCH   1   7
TORSDOF 2
ENDMDL
