MODEL 1
REMARK minimizedAffinity 1.06361687
REMARK minimizedRMSD -1
REMARK  2 active torsions:
REMARK  status: ('A' for Active; 'I' for Inactive)
REMARK    1  A    between atoms: C2'_3  and  C1'_4 
REMARK    2  A    between atoms: C1'_4  and  C1_5 
ROOT
ATOM      1  C1  I4B d   1       1.222   0.646   1.389  0.00  0.00    -0.075 A 
ATOM      2  C2  I4B d   1      -0.108   0.698   1.054  0.00  0.00     0.003 A 
ATOM      3  C3  I4B d   1      -0.966  -0.383   1.371  0.00  0.00     0.002 A 
ATOM      4  C4  I4B d   1      -0.445  -1.509   1.974  0.00  0.00    -0.004 A 
ATOM      5  C5  I4B d   1       0.899  -1.551   2.334  0.00  0.00     0.002 A 
ATOM      6  C6  I4B d   1       1.736  -0.461   2.051  0.00  0.00     0.003 A 
ENDROOT
BRANCH   1   7
ATOM      7  C1' I4B d   1       2.107   1.791   1.010  0.00  0.00     0.060 C 
BRANCH   7   8
ATOM      8  C2' I4B d   1       1.791   2.170  -0.423  0.00  0.00    -0.013 C 
ATOM      9  C4' I4B d   1       2.362   3.520  -0.768  0.00  0.00     0.013 C 
ATOM     10  C3' I4B d   1       2.346   1.102  -1.317  0.00  0.00     0.013 C 
ENDBRANCH   7   8
ENDBRANCH   1   7
TORSDOF 2
ENDMDL
