MODEL 1
REMARK minimizedAffinity 7.16139507
REMARK minimizedRMSD -1
REMARK  2 active torsions:
REMARK  status: ('A' for Active; 'I' for Inactive)
REMARK    1  A    between atoms: C2'_3  and  C1'_4 
REMARK    2  A    between atoms: C1'_4  and  C1_5 
ROOT
ATOM      1  C1  I4B d   1      -3.653   1.729   1.116  0.00  0.00    -0.075 A 
ATOM      2  C2  I4B d   1      -4.810   1.094   1.493  0.00  0.00     0.003 A 
ATOM      3  C3  I4B d   1      -6.000   1.278   0.748  0.00  0.00     0.002 A 
ATOM      4  C4  I4B d   1      -6.000   2.140  -0.330  0.00  0.00    -0.004 A 
ATOM      5  C5  I4B d   1      -4.820   2.766  -0.724  0.00  0.00     0.002 A 
ATOM      6  C6  I4B d   1      -3.636   2.549  -0.004  0.00  0.00     0.003 A 
ENDROOT
BRANCH   1   7
ATOM      7  C1' I4B d   1      -2.422   1.538   1.945  0.00  0.00     0.060 C 
BRANCH   7   8
ATOM      8  C2' I4B d   1      -1.388   0.835   1.090  0.00  0.00    -0.013 C 
ATOM      9  C4' I4B d   1      -0.053   1.529   1.169  0.00  0.00     0.013 C 
ATOM     10  C3' I4B d   1      -1.288  -0.586   1.557  0.00  0.00     0.013 C 
ENDBRANCH   7   8
ENDBRANCH   1   7
TORSDOF 2
ENDMDL
