MODEL 1
REMARK minimizedAffinity 9.12017822
REMARK minimizedRMSD -1
REMARK  2 active torsions:
REMARK  status: ('A' for Active; 'I' for Inactive)
REMARK    1  A    between atoms: C2'_3  and  C1'_4 
REMARK    2  A    between atoms: C1'_4  and  C1_5 
ROOT
ATOM      1  C1  I4B d   1       0.488   0.855   0.943  0.00  0.00    -0.075 A 
ATOM      2  C2  I4B d   1      -0.853   0.738   0.677  0.00  0.00     0.003 A 
ATOM      3  C3  I4B d   1      -1.486  -0.527   0.743  0.00  0.00     0.002 A 
ATOM      4  C4  I4B d   1      -0.735  -1.648   1.028  0.00  0.00    -0.004 A 
ATOM      5  C5  I4B d   1       0.621  -1.525   1.320  0.00  0.00     0.002 A 
ATOM      6  C6  I4B d   1       1.234  -0.265   1.290  0.00  0.00     0.003 A 
ENDROOT
BRANCH   1   7
ATOM      7  C1' I4B d   1       1.131   2.201   0.832  0.00  0.00     0.060 C 
BRANCH   7   8
ATOM      8  C2' I4B d   1       2.013   2.196  -0.401  0.00  0.00    -0.013 C 
ATOM      9  C4' I4B d   1       1.929   3.508  -1.136  0.00  0.00     0.013 C 
ATOM     10  C3' I4B d   1       3.419   1.909   0.037  0.00  0.00     0.013 C 
ENDBRANCH   7   8
ENDBRANCH   1   7
TORSDOF 2
ENDMDL
