MODEL 1
REMARK minimizedAffinity 1.24541724
REMARK minimizedRMSD -1
REMARK  2 active torsions:
REMARK  status: ('A' for Active; 'I' for Inactive)
REMARK    1  A    between atoms: C2'_3  and  C1'_4 
REMARK    2  A    between atoms: C1'_4  and  C1_5 
ROOT
ATOM      1  C1  I4B d   1       1.472  -2.063   3.119  0.00  0.00    -0.075 A 
ATOM      2  C2  I4B d   1       0.716  -3.155   3.467  0.00  0.00     0.003 A 
ATOM      3  C3  I4B d   1       1.304  -4.234   4.171  0.00  0.00     0.002 A 
ATOM      4  C4  I4B d   1       2.653  -4.202   4.461  0.00  0.00    -0.004 A 
ATOM      5  C5  I4B d   1       3.413  -3.084   4.128  0.00  0.00     0.002 A 
ATOM      6  C6  I4B d   1       2.816  -2.002   3.463  0.00  0.00     0.003 A 
ENDROOT
BRANCH   1   7
ATOM      7  C1' I4B d   1       0.827  -0.957   2.346  0.00  0.00     0.060 C 
BRANCH   7   8
ATOM      8  C2' I4B d   1       1.924  -0.055   1.817  0.00  0.00    -0.013 C 
ATOM      9  C4' I4B d   1       1.982  -0.092   0.313  0.00  0.00     0.013 C 
ATOM     10  C3' I4B d   1       1.663   1.334   2.316  0.00  0.00     0.013 C 
ENDBRANCH   7   8
ENDBRANCH   1   7
TORSDOF 2
ENDMDL
