MODEL 1
REMARK minimizedAffinity 3.45084071
REMARK minimizedRMSD -1
REMARK  2 active torsions:
REMARK  status: ('A' for Active; 'I' for Inactive)
REMARK    1  A    between atoms: C2'_3  and  C1'_4 
REMARK    2  A    between atoms: C1'_4  and  C1_5 
ROOT
ATOM      1  C1  I4B d   1       1.589  -0.915   2.251  0.00  0.00    -0.075 A 
ATOM      2  C2  I4B d   1       0.818  -0.642   1.149  0.00  0.00     0.003 A 
ATOM      3  C3  I4B d   1      -0.150  -1.577   0.708  0.00  0.00     0.002 A 
ATOM      4  C4  I4B d   1      -0.277  -2.785   1.363  0.00  0.00    -0.004 A 
ATOM      5  C5  I4B d   1       0.490  -3.049   2.495  0.00  0.00     0.002 A 
ATOM      6  C6  I4B d   1       1.420  -2.104   2.949  0.00  0.00     0.003 A 
ENDROOT
BRANCH   1   7
ATOM      7  C1' I4B d   1       2.625   0.080   2.670  0.00  0.00     0.060 C 
BRANCH   7   8
ATOM      8  C2' I4B d   1       1.958   1.092   3.580  0.00  0.00    -0.013 C 
ATOM      9  C4' I4B d   1       2.106   0.705   5.028  0.00  0.00     0.013 C 
ATOM     10  C3' I4B d   1       2.576   2.433   3.313  0.00  0.00     0.013 C 
ENDBRANCH   7   8
ENDBRANCH   1   7
TORSDOF 2
ENDMDL
