MODEL 1
REMARK minimizedAffinity -2.89039564
REMARK minimizedRMSD -1
REMARK  0 active torsions:
REMARK  status: ('A' for Active; 'I' for Inactive)
ROOT
ATOM      1  O1  BZF d   1       0.435  -1.860   0.302  0.00  0.00    -0.204 OA
ATOM      2  C2  BZF d   1      -0.396  -1.355   1.283  0.00  0.00     0.174 A 
ATOM      3  C3  BZF d   1      -0.415  -0.007   1.246  0.00  0.00    -0.012 A 
ATOM      4  C3A BZF d   1       0.386   0.350   0.116  0.00  0.00    -0.107 A 
ATOM      5  C4  BZF d   1       0.734   1.544  -0.448  0.00  0.00     0.055 A 
ATOM      6  C5  BZF d   1       1.591   1.551  -1.503  0.00  0.00    -0.016 A 
ATOM      7  C6  BZF d   1       2.123   0.385  -2.014  0.00  0.00     0.022 A 
ATOM      8  C7  BZF d   1       1.803  -0.823  -1.491  0.00  0.00     0.029 A 
ATOM      9  C7A BZF d   1       0.912  -0.836  -0.446  0.00  0.00     0.058 A 
ENDROOT
TORSDOF 0
ENDMDL
