MODEL 1
REMARK minimizedAffinity -2.741395
REMARK minimizedRMSD -1
REMARK  0 active torsions:
REMARK  status: ('A' for Active; 'I' for Inactive)
ROOT
ATOM      1  O1  BZF d   1      -4.132   3.643   3.710  0.00  0.00    -0.204 OA
ATOM      2  C2  BZF d   1      -3.247   3.804   4.758  0.00  0.00     0.174 A 
ATOM      3  C3  BZF d   1      -2.476   2.707   4.905  0.00  0.00    -0.012 A 
ATOM      4  C3A BZF d   1      -2.843   1.841   3.827  0.00  0.00    -0.107 A 
ATOM      5  C4  BZF d   1      -2.417   0.606   3.428  0.00  0.00     0.055 A 
ATOM      6  C5  BZF d   1      -3.033   0.004   2.376  0.00  0.00    -0.016 A 
ATOM      7  C6  BZF d   1      -4.079   0.603   1.706  0.00  0.00     0.022 A 
ATOM      8  C7  BZF d   1      -4.533   1.829   2.063  0.00  0.00     0.029 A 
ATOM      9  C7A BZF d   1      -3.892   2.455   3.104  0.00  0.00     0.058 A 
ENDROOT
TORSDOF 0
ENDMDL
