MODEL 1
REMARK minimizedAffinity -4.07142401
REMARK minimizedRMSD -1
REMARK  0 active torsions:
REMARK  status: ('A' for Active; 'I' for Inactive)
ROOT
ATOM      1  O1  BZF d   1      -0.749  -0.150   0.082  0.00  0.00    -0.204 OA
ATOM      2  C2  BZF d   1      -0.455   0.882   0.951  0.00  0.00     0.174 A 
ATOM      3  C3  BZF d   1       0.724   1.455   0.632  0.00  0.00    -0.012 A 
ATOM      4  C3A BZF d   1       1.151   0.795  -0.564  0.00  0.00    -0.107 A 
ATOM      5  C4  BZF d   1       2.241   0.933  -1.374  0.00  0.00     0.055 A 
ATOM      6  C5  BZF d   1       2.396   0.084  -2.423  0.00  0.00    -0.016 A 
ATOM      7  C6  BZF d   1       1.485  -0.917  -2.688  0.00  0.00     0.022 A 
ATOM      8  C7  BZF d   1       0.385  -1.090  -1.916  0.00  0.00     0.029 A 
ATOM      9  C7A BZF d   1       0.208  -0.212  -0.874  0.00  0.00     0.058 A 
ENDROOT
TORSDOF 0
ENDMDL
