MODEL 1
REMARK minimizedAffinity -4.56380272
REMARK minimizedRMSD -1
REMARK  0 active torsions:
REMARK  status: ('A' for Active; 'I' for Inactive)
ROOT
ATOM      1  O1  BZF d   1       2.625   1.891  -1.915  0.00  0.00    -0.204 OA
ATOM      2  C2  BZF d   1       2.642   2.595  -0.726  0.00  0.00     0.174 A 
ATOM      3  C3  BZF d   1       1.603   2.237   0.057  0.00  0.00    -0.012 A 
ATOM      4  C3A BZF d   1       0.945   1.182  -0.651  0.00  0.00    -0.107 A 
ATOM      5  C4  BZF d   1      -0.146   0.407  -0.379  0.00  0.00     0.055 A 
ATOM      6  C5  BZF d   1      -0.572  -0.485  -1.311  0.00  0.00    -0.016 A 
ATOM      7  C6  BZF d   1       0.065  -0.624  -2.527  0.00  0.00     0.022 A 
ATOM      8  C7  BZF d   1       1.154   0.120  -2.841  0.00  0.00     0.029 A 
ATOM      9  C7A BZF d   1       1.607   0.999  -1.887  0.00  0.00     0.058 A 
ENDROOT
TORSDOF 0
ENDMDL
