MODEL 1
REMARK minimizedAffinity -5.16975021
REMARK minimizedRMSD -1
REMARK  0 active torsions:
REMARK  status: ('A' for Active; 'I' for Inactive)
ROOT
ATOM      1  O1  BZF d   1       0.848   0.942   1.031  0.00  0.00    -0.204 OA
ATOM      2  C2  BZF d   1      -0.032   0.026   1.572  0.00  0.00     0.174 A 
ATOM      3  C3  BZF d   1      -0.436  -0.859   0.637  0.00  0.00    -0.012 A 
ATOM      4  C3A BZF d   1       0.306  -0.527  -0.540  0.00  0.00    -0.107 A 
ATOM      5  C4  BZF d   1       0.356  -1.055  -1.799  0.00  0.00     0.055 A 
ATOM      6  C5  BZF d   1       1.130  -0.452  -2.738  0.00  0.00    -0.016 A 
ATOM      7  C6  BZF d   1       1.863   0.683  -2.456  0.00  0.00     0.022 A 
ATOM      8  C7  BZF d   1       1.849   1.240  -1.220  0.00  0.00     0.029 A 
ATOM      9  C7A BZF d   1       1.094   0.614  -0.260  0.00  0.00     0.058 A 
ENDROOT
TORSDOF 0
ENDMDL
