MODEL 1
REMARK minimizedAffinity -1.71578932
REMARK minimizedRMSD -1
REMARK  0 active torsions:
REMARK  status: ('A' for Active; 'I' for Inactive)
ROOT
ATOM      1  O1  BZF d   1       0.963   1.308   0.621  0.00  0.00    -0.204 OA
ATOM      2  C2  BZF d   1      -0.250   0.756   0.982  0.00  0.00     0.174 A 
ATOM      3  C3  BZF d   1      -0.621  -0.199   0.105  0.00  0.00    -0.012 A 
ATOM      4  C3A BZF d   1       0.470  -0.310  -0.814  0.00  0.00    -0.107 A 
ATOM      5  C4  BZF d   1       0.703  -1.100  -1.903  0.00  0.00     0.055 A 
ATOM      6  C5  BZF d   1       1.837  -0.909  -2.627  0.00  0.00    -0.016 A 
ATOM      7  C6  BZF d   1       2.755   0.065  -2.294  0.00  0.00     0.022 A 
ATOM      8  C7  BZF d   1       2.570   0.870  -1.220  0.00  0.00     0.029 A 
ATOM      9  C7A BZF d   1       1.441   0.657  -0.467  0.00  0.00     0.058 A 
ENDROOT
TORSDOF 0
ENDMDL
