MODEL 1
REMARK minimizedAffinity -1.56177902
REMARK minimizedRMSD -1
REMARK  0 active torsions:
REMARK  status: ('A' for Active; 'I' for Inactive)
ROOT
ATOM      1  O1  BZF d   1      -0.740  -0.891  -0.249  0.00  0.00    -0.204 OA
ATOM      2  C2  BZF d   1      -1.201  -0.237   0.877  0.00  0.00     0.174 A 
ATOM      3  C3  BZF d   1      -0.386   0.787   1.202  0.00  0.00    -0.012 A 
ATOM      4  C3A BZF d   1       0.598   0.830   0.164  0.00  0.00    -0.107 A 
ATOM      5  C4  BZF d   1       1.670   1.639  -0.081  0.00  0.00     0.055 A 
ATOM      6  C5  BZF d   1       2.474   1.368  -1.143  0.00  0.00    -0.016 A 
ATOM      7  C6  BZF d   1       2.238   0.294  -1.976  0.00  0.00     0.022 A 
ATOM      8  C7  BZF d   1       1.184  -0.534  -1.776  0.00  0.00     0.029 A 
ATOM      9  C7A BZF d   1       0.351  -0.243  -0.723  0.00  0.00     0.058 A 
ENDROOT
TORSDOF 0
ENDMDL
