MODEL 1
REMARK minimizedAffinity -2.95905447
REMARK minimizedRMSD -1
REMARK  0 active torsions:
REMARK  status: ('A' for Active; 'I' for Inactive)
ROOT
ATOM      1  O1  BZF d   1      -0.278  -0.550   1.905  0.00  0.00    -0.204 OA
ATOM      2  C2  BZF d   1      -1.649  -0.436   2.033  0.00  0.00     0.174 A 
ATOM      3  C3  BZF d   1      -2.145   0.420   1.117  0.00  0.00    -0.012 A 
ATOM      4  C3A BZF d   1      -1.026   0.799   0.310  0.00  0.00    -0.107 A 
ATOM      5  C4  BZF d   1      -0.884   1.617  -0.774  0.00  0.00     0.055 A 
ATOM      6  C5  BZF d   1       0.358   1.830  -1.283  0.00  0.00    -0.016 A 
ATOM      7  C6  BZF d   1       1.479   1.247  -0.730  0.00  0.00     0.022 A 
ATOM      8  C7  BZF d   1       1.388   0.424   0.343  0.00  0.00     0.029 A 
ATOM      9  C7A BZF d   1       0.130   0.180   0.839  0.00  0.00     0.058 A 
ENDROOT
TORSDOF 0
ENDMDL
