MODEL 1
REMARK minimizedAffinity -3.32708406
REMARK minimizedRMSD -1
REMARK  0 active torsions:
REMARK  status: ('A' for Active; 'I' for Inactive)
ROOT
ATOM      1  O1  BZF d   1      -0.751   0.044  -0.562  0.00  0.00    -0.204 OA
ATOM      2  C2  BZF d   1      -0.761  -0.969  -1.502  0.00  0.00     0.174 A 
ATOM      3  C3  BZF d   1       0.381  -0.967  -2.219  0.00  0.00    -0.012 A 
ATOM      4  C3A BZF d   1       1.191   0.056  -1.634  0.00  0.00    -0.107 A 
ATOM      5  C4  BZF d   1       2.446   0.526  -1.898  0.00  0.00     0.055 A 
ATOM      6  C5  BZF d   1       2.918   1.584  -1.188  0.00  0.00    -0.016 A 
ATOM      7  C6  BZF d   1       2.162   2.200  -0.212  0.00  0.00     0.022 A 
ATOM      8  C7  BZF d   1       0.913   1.766   0.089  0.00  0.00     0.029 A 
ATOM      9  C7A BZF d   1       0.446   0.676  -0.604  0.00  0.00     0.058 A 
ENDROOT
TORSDOF 0
ENDMDL
