MODEL 1
REMARK minimizedAffinity -6.56722307
REMARK minimizedRMSD -1
REMARK  0 active torsions:
REMARK  status: ('A' for Active; 'I' for Inactive)
ROOT
ATOM      1  O1  BZF d   1       0.287  -1.279   0.766  0.00  0.00    -0.204 OA
ATOM      2  C2  BZF d   1       0.025  -0.001   1.222  0.00  0.00     0.174 A 
ATOM      3  C3  BZF d   1       0.416   0.919   0.317  0.00  0.00    -0.012 A 
ATOM      4  C3A BZF d   1       0.872   0.168  -0.812  0.00  0.00    -0.107 A 
ATOM      5  C4  BZF d   1       1.369   0.519  -2.034  0.00  0.00     0.055 A 
ATOM      6  C5  BZF d   1       1.791  -0.457  -2.881  0.00  0.00    -0.016 A 
ATOM      7  C6  BZF d   1       1.734  -1.792  -2.536  0.00  0.00     0.022 A 
ATOM      8  C7  BZF d   1       1.244  -2.189  -1.336  0.00  0.00     0.029 A 
ATOM      9  C7A BZF d   1       0.787  -1.207  -0.492  0.00  0.00     0.058 A 
ENDROOT
TORSDOF 0
ENDMDL
