MODEL 1
REMARK minimizedAffinity -0.269769937
REMARK minimizedRMSD -1
REMARK  0 active torsions:
REMARK  status: ('A' for Active; 'I' for Inactive)
ROOT
ATOM      1  O1  BZF d   1       1.479  -1.709  -0.727  0.00  0.00    -0.204 OA
ATOM      2  C2  BZF d   1       0.418  -1.915   0.134  0.00  0.00     0.174 A 
ATOM      3  C3  BZF d   1       0.028  -0.754   0.699  0.00  0.00    -0.012 A 
ATOM      4  C3A BZF d   1       0.840   0.254   0.087  0.00  0.00    -0.107 A 
ATOM      5  C4  BZF d   1       0.911   1.611   0.220  0.00  0.00     0.055 A 
ATOM      6  C5  BZF d   1       1.863   2.293  -0.469  0.00  0.00    -0.016 A 
ATOM      7  C6  BZF d   1       2.762   1.650  -1.296  0.00  0.00     0.022 A 
ATOM      8  C7  BZF d   1       2.727   0.306  -1.464  0.00  0.00     0.029 A 
ATOM      9  C7A BZF d   1       1.745  -0.383  -0.794  0.00  0.00     0.058 A 
ENDROOT
TORSDOF 0
ENDMDL
