MODEL 1
REMARK minimizedAffinity -2.99610782
REMARK minimizedRMSD -1
REMARK  0 active torsions:
REMARK  status: ('A' for Active; 'I' for Inactive)
ROOT
ATOM      1  O1  BZF d   1      -1.051   1.163   0.905  0.00  0.00    -0.204 OA
ATOM      2  C2  BZF d   1      -1.555  -0.050   1.335  0.00  0.00     0.174 A 
ATOM      3  C3  BZF d   1      -0.918  -1.074   0.732  0.00  0.00    -0.012 A 
ATOM      4  C3A BZF d   1       0.107  -0.465  -0.060  0.00  0.00    -0.107 A 
ATOM      5  C4  BZF d   1       1.081  -0.962  -0.878  0.00  0.00     0.055 A 
ATOM      6  C5  BZF d   1       1.874  -0.096  -1.562  0.00  0.00    -0.016 A 
ATOM      7  C6  BZF d   1       1.718   1.271  -1.456  0.00  0.00     0.022 A 
ATOM      8  C7  BZF d   1       0.769   1.810  -0.653  0.00  0.00     0.029 A 
ATOM      9  C7A BZF d   1      -0.013   0.938   0.065  0.00  0.00     0.058 A 
ENDROOT
TORSDOF 0
ENDMDL
