MODEL 1
REMARK minimizedAffinity -4.2218132
REMARK minimizedRMSD -1
REMARK  0 active torsions:
REMARK  status: ('A' for Active; 'I' for Inactive)
ROOT
ATOM      1  O1  BZF d   1       1.001  -1.989  -0.270  0.00  0.00    -0.204 OA
ATOM      2  C2  BZF d   1       1.915  -2.424  -1.211  0.00  0.00     0.174 A 
ATOM      3  C3  BZF d   1       2.472  -1.378  -1.854  0.00  0.00    -0.012 A 
ATOM      4  C3A BZF d   1       1.937  -0.214  -1.216  0.00  0.00    -0.107 A 
ATOM      5  C4  BZF d   1       2.123   1.126  -1.399  0.00  0.00     0.055 A 
ATOM      6  C5  BZF d   1       1.394   2.001  -0.658  0.00  0.00    -0.016 A 
ATOM      7  C6  BZF d   1       0.467   1.571   0.268  0.00  0.00     0.022 A 
ATOM      8  C7  BZF d   1       0.251   0.252   0.489  0.00  0.00     0.029 A 
ATOM      9  C7A BZF d   1       1.010  -0.635  -0.235  0.00  0.00     0.058 A 
ENDROOT
TORSDOF 0
ENDMDL
