MODEL 1
REMARK minimizedAffinity -3.31466818
REMARK minimizedRMSD -1
REMARK  0 active torsions:
REMARK  status: ('A' for Active; 'I' for Inactive)
ROOT
ATOM      1  O1  BZF d   1      -0.735   0.755  -1.113  0.00  0.00    -0.204 OA
ATOM      2  C2  BZF d   1       0.590   0.497  -0.820  0.00  0.00     0.174 A 
ATOM      3  C3  BZF d   1       0.737   0.168   0.480  0.00  0.00    -0.012 A 
ATOM      4  C3A BZF d   1      -0.591   0.135   1.012  0.00  0.00    -0.107 A 
ATOM      5  C4  BZF d   1      -1.101  -0.145   2.247  0.00  0.00     0.055 A 
ATOM      6  C5  BZF d   1      -2.437  -0.016   2.456  0.00  0.00    -0.016 A 
ATOM      7  C6  BZF d   1      -3.292   0.395   1.454  0.00  0.00     0.022 A 
ATOM      8  C7  BZF d   1      -2.834   0.680   0.210  0.00  0.00     0.029 A 
ATOM      9  C7A BZF d   1      -1.488   0.518  -0.012  0.00  0.00     0.058 A 
ENDROOT
TORSDOF 0
ENDMDL
