MODEL 1
REMARK minimizedAffinity -1.51083744
REMARK minimizedRMSD -1
REMARK  0 active torsions:
REMARK  status: ('A' for Active; 'I' for Inactive)
ROOT
ATOM      1  O1  BZF d   1      -0.569   0.034  -1.022  0.00  0.00    -0.204 OA
ATOM      2  C2  BZF d   1       0.666  -0.278  -0.487  0.00  0.00     0.174 A 
ATOM      3  C3  BZF d   1       0.638  -0.196   0.859  0.00  0.00    -0.012 A 
ATOM      4  C3A BZF d   1      -0.722   0.100   1.190  0.00  0.00    -0.107 A 
ATOM      5  C4  BZF d   1      -1.382   0.287   2.371  0.00  0.00     0.055 A 
ATOM      6  C5  BZF d   1      -2.695   0.635   2.346  0.00  0.00    -0.016 A 
ATOM      7  C6  BZF d   1      -3.378   0.811   1.160  0.00  0.00     0.022 A 
ATOM      8  C7  BZF d   1      -2.767   0.632  -0.037  0.00  0.00     0.029 A 
ATOM      9  C7A BZF d   1      -1.448   0.248  -0.014  0.00  0.00     0.058 A 
ENDROOT
TORSDOF 0
ENDMDL
