MODEL 1
REMARK minimizedAffinity -2.14158535
REMARK minimizedRMSD -1
REMARK  0 active torsions:
REMARK  status: ('A' for Active; 'I' for Inactive)
ROOT
ATOM      1  O1  BZF d   1       1.501   1.906  -1.207  0.00  0.00    -0.204 OA
ATOM      2  C2  BZF d   1       2.374   1.454  -2.177  0.00  0.00     0.174 A 
ATOM      3  C3  BZF d   1       2.372   0.106  -2.232  0.00  0.00    -0.012 A 
ATOM      4  C3A BZF d   1       1.371  -0.307  -1.296  0.00  0.00    -0.107 A 
ATOM      5  C4  BZF d   1       0.892  -1.526  -0.911  0.00  0.00     0.055 A 
ATOM      6  C5  BZF d   1      -0.036  -1.588   0.080  0.00  0.00    -0.016 A 
ATOM      7  C6  BZF d   1      -0.503  -0.453   0.710  0.00  0.00     0.022 A 
ATOM      8  C7  BZF d   1      -0.060   0.779   0.359  0.00  0.00     0.029 A 
ATOM      9  C7A BZF d   1       0.853   0.847  -0.664  0.00  0.00     0.058 A 
ENDROOT
TORSDOF 0
ENDMDL
