MODEL 1
REMARK minimizedAffinity -1.91730642
REMARK minimizedRMSD -1
REMARK  0 active torsions:
REMARK  status: ('A' for Active; 'I' for Inactive)
ROOT
ATOM      1  O1  BZF d   1      -1.741  -1.499   1.390  0.00  0.00    -0.204 OA
ATOM      2  C2  BZF d   1      -0.454  -1.225   1.810  0.00  0.00     0.174 A 
ATOM      3  C3  BZF d   1      -0.344   0.058   2.209  0.00  0.00    -0.012 A 
ATOM      4  C3A BZF d   1      -1.667   0.597   2.113  0.00  0.00    -0.107 A 
ATOM      5  C4  BZF d   1      -2.203   1.822   2.387  0.00  0.00     0.055 A 
ATOM      6  C5  BZF d   1      -3.516   2.044   2.116  0.00  0.00    -0.016 A 
ATOM      7  C6  BZF d   1      -4.319   1.065   1.567  0.00  0.00     0.022 A 
ATOM      8  C7  BZF d   1      -3.833  -0.168   1.283  0.00  0.00     0.029 A 
ATOM      9  C7A BZF d   1      -2.515  -0.405   1.587  0.00  0.00     0.058 A 
ENDROOT
TORSDOF 0
ENDMDL
