MODEL 1
REMARK minimizedAffinity 6.6084013
REMARK minimizedRMSD -1
REMARK  1 active torsions:
REMARK  status: ('A' for Active; 'I' for Inactive)
REMARK    1  A    between atoms: C1_2  and  C2_3 
ROOT
ATOM      1  C2  UNL d   1      -2.013  -2.558   0.240  0.00  0.00    -0.073 A 
ATOM      2  C3  UNL d   1      -1.411  -1.725   1.190  0.00  0.00    -0.002 A 
ATOM      3  C4  UNL d   1      -0.796  -2.271   2.317  0.00  0.00     0.004 A 
ATOM      4  C5  UNL d   1      -0.770  -3.653   2.502  0.00  0.00    -0.004 A 
ATOM      5  C6  UNL d   1      -1.355  -4.503   1.558  0.00  0.00    -0.075 A 
ATOM      6  C7  UNL d   1      -1.338  -5.992   1.743  0.00  0.00     0.076 C 
ATOM      7  C8  UNL d   1      -1.973  -3.947   0.430  0.00  0.00     0.001 A 
ENDROOT
BRANCH   1   8
ATOM      8  C1  UNL d   1      -2.673  -1.973  -0.982  0.00  0.00     0.053 C 
ATOM      9  C   UNL d   1      -3.100  -3.048  -1.969  0.00  0.00     0.018 C 
ENDBRANCH   1   8
TORSDOF 1
ENDMDL
