MODEL 1
REMARK minimizedAffinity 15.3351011
REMARK minimizedRMSD -1
REMARK  1 active torsions:
REMARK  status: ('A' for Active; 'I' for Inactive)
REMARK    1  A    between atoms: C1_2  and  C2_3 
ROOT
ATOM      1  C2  UNL d   1      -1.817  -2.777   0.021  0.00  0.00    -0.073 A 
ATOM      2  C3  UNL d   1      -0.749  -2.618   0.911  0.00  0.00    -0.002 A 
ATOM      3  C4  UNL d   1      -0.539  -3.545   1.933  0.00  0.00     0.004 A 
ATOM      4  C5  UNL d   1      -1.388  -4.643   2.070  0.00  0.00    -0.004 A 
ATOM      5  C6  UNL d   1      -2.454  -4.825   1.183  0.00  0.00    -0.075 A 
ATOM      6  C7  UNL d   1      -3.378  -6.000   1.319  0.00  0.00     0.076 C 
ATOM      7  C8  UNL d   1      -2.660  -3.888   0.162  0.00  0.00     0.001 A 
ENDROOT
BRANCH   1   8
ATOM      8  C1  UNL d   1      -2.044  -1.782  -1.088  0.00  0.00     0.053 C 
ATOM      9  C   UNL d   1      -2.760  -2.405  -2.275  0.00  0.00     0.018 C 
ENDBRANCH   1   8
TORSDOF 1
ENDMDL
