MODEL 1
REMARK minimizedAffinity 21.3993034
REMARK minimizedRMSD -1
REMARK  1 active torsions:
REMARK  status: ('A' for Active; 'I' for Inactive)
REMARK    1  A    between atoms: C1_2  and  C2_3 
ROOT
ATOM      1  C2  UNL d   1      -3.073  -3.783  -1.172  0.00  0.00    -0.073 A 
ATOM      2  C3  UNL d   1      -3.005  -2.701  -2.057  0.00  0.00    -0.002 A 
ATOM      3  C4  UNL d   1      -3.778  -2.692  -3.219  0.00  0.00     0.004 A 
ATOM      4  C5  UNL d   1      -4.631  -3.759  -3.504  0.00  0.00    -0.004 A 
ATOM      5  C6  UNL d   1      -4.721  -4.843  -2.625  0.00  0.00    -0.075 A 
ATOM      6  C7  UNL d   1      -5.631  -6.000  -2.918  0.00  0.00     0.076 C 
ATOM      7  C8  UNL d   1      -3.939  -4.846  -1.462  0.00  0.00     0.001 A 
ENDROOT
BRANCH   1   8
ATOM      8  C1  UNL d   1      -2.245  -3.794   0.087  0.00  0.00     0.053 C 
ATOM      9  C   UNL d   1      -2.239  -2.439   0.778  0.00  0.00     0.018 C 
ENDBRANCH   1   8
TORSDOF 1
ENDMDL
