MODEL 1
REMARK minimizedAffinity 3.65779257
REMARK minimizedRMSD -1
REMARK  1 active torsions:
REMARK  status: ('A' for Active; 'I' for Inactive)
REMARK    1  A    between atoms: C1_2  and  C2_3 
ROOT
ATOM      1  C2  UNL d   1       3.800   1.597  -0.549  0.00  0.00    -0.073 A 
ATOM      2  C3  UNL d   1       4.626   0.482  -0.367  0.00  0.00    -0.002 A 
ATOM      3  C4  UNL d   1       4.397  -0.400   0.690  0.00  0.00     0.004 A 
ATOM      4  C5  UNL d   1       3.337  -0.182   1.570  0.00  0.00    -0.004 A 
ATOM      5  C6  UNL d   1       2.493   0.920   1.397  0.00  0.00    -0.075 A 
ATOM      6  C7  UNL d   1       1.350   1.170   2.336  0.00  0.00     0.076 C 
ATOM      7  C8  UNL d   1       2.731   1.803   0.335  0.00  0.00     0.001 A 
ENDROOT
BRANCH   1   8
ATOM      8  C1  UNL d   1       4.039   2.549  -1.692  0.00  0.00     0.053 C 
ATOM      9  C   UNL d   1       3.981   1.848  -3.040  0.00  0.00     0.018 C 
ENDBRANCH   1   8
TORSDOF 1
ENDMDL
