MODEL 1
REMARK minimizedAffinity 13.7376041
REMARK minimizedRMSD -1
REMARK  1 active torsions:
REMARK  status: ('A' for Active; 'I' for Inactive)
REMARK    1  A    between atoms: C1_2  and  C2_3 
ROOT
ATOM      1  C2  UNL d   1       3.161   1.161  -0.918  0.00  0.00    -0.073 A 
ATOM      2  C3  UNL d   1       3.230  -0.050  -0.221  0.00  0.00    -0.002 A 
ATOM      3  C4  UNL d   1       2.609  -0.185   1.022  0.00  0.00     0.004 A 
ATOM      4  C5  UNL d   1       1.908   0.886   1.576  0.00  0.00    -0.004 A 
ATOM      5  C6  UNL d   1       1.818   2.101   0.889  0.00  0.00    -0.075 A 
ATOM      6  C7  UNL d   1       1.069   3.264   1.472  0.00  0.00     0.076 C 
ATOM      7  C8  UNL d   1       2.446   2.229  -0.357  0.00  0.00     0.001 A 
ENDROOT
BRANCH   1   8
ATOM      8  C1  UNL d   1       3.825   1.310  -2.263  0.00  0.00     0.053 C 
ATOM      9  C   UNL d   1       3.074   2.276  -3.165  0.00  0.00     0.018 C 
ENDBRANCH   1   8
TORSDOF 1
ENDMDL
