MODEL 1
REMARK minimizedAffinity 12.4350643
REMARK minimizedRMSD -1
REMARK  1 active torsions:
REMARK  status: ('A' for Active; 'I' for Inactive)
REMARK    1  A    between atoms: C1_2  and  C2_3 
ROOT
ATOM      1  C2  UNL d   1       3.335   3.121  -4.516  0.00  0.00    -0.073 A 
ATOM      2  C3  UNL d   1       2.039   3.470  -4.913  0.00  0.00    -0.002 A 
ATOM      3  C4  UNL d   1       1.817   4.636  -5.647  0.00  0.00     0.004 A 
ATOM      4  C5  UNL d   1       2.886   5.460  -5.997  0.00  0.00    -0.004 A 
ATOM      5  C6  UNL d   1       4.190   5.122  -5.620  0.00  0.00    -0.075 A 
ATOM      6  C7  UNL d   1       5.351   5.999  -5.987  0.00  0.00     0.076 C 
ATOM      7  C8  UNL d   1       4.405   3.951  -4.881  0.00  0.00     0.001 A 
ENDROOT
BRANCH   1   8
ATOM      8  C1  UNL d   1       3.581   1.860  -3.729  0.00  0.00     0.053 C 
ATOM      9  C   UNL d   1       4.785   1.090  -4.248  0.00  0.00     0.018 C 
ENDBRANCH   1   8
TORSDOF 1
ENDMDL
