MODEL 1
REMARK minimizedAffinity 9.20396328
REMARK minimizedRMSD -1
REMARK  1 active torsions:
REMARK  status: ('A' for Active; 'I' for Inactive)
REMARK    1  A    between atoms: C1_2  and  C2_3 
ROOT
ATOM      1  C2  UNL d   1      -4.950  -3.942  -3.108  0.00  0.00    -0.073 A 
ATOM      2  C3  UNL d   1      -5.317  -5.143  -2.490  0.00  0.00    -0.002 A 
ATOM      3  C4  UNL d   1      -4.342  -5.998  -1.975  0.00  0.00     0.004 A 
ATOM      4  C5  UNL d   1      -2.992  -5.658  -2.065  0.00  0.00    -0.004 A 
ATOM      5  C6  UNL d   1      -2.606  -4.457  -2.668  0.00  0.00    -0.075 A 
ATOM      6  C7  UNL d   1      -1.158  -4.078  -2.775  0.00  0.00     0.076 C 
ATOM      7  C8  UNL d   1      -3.591  -3.605  -3.185  0.00  0.00     0.001 A 
ENDROOT
BRANCH   1   8
ATOM      8  C1  UNL d   1      -6.000  -3.013  -3.660  0.00  0.00     0.053 C 
ATOM      9  C   UNL d   1      -6.000  -2.992  -5.180  0.00  0.00     0.018 C 
ENDBRANCH   1   8
TORSDOF 1
ENDMDL
