MODEL 1
REMARK minimizedAffinity 17.89324
REMARK minimizedRMSD -1
REMARK  1 active torsions:
REMARK  status: ('A' for Active; 'I' for Inactive)
REMARK    1  A    between atoms: C1_2  and  C2_3 
ROOT
ATOM      1  C2  UNL d   1      -4.792  -4.067  -3.055  0.00  0.00    -0.073 A 
ATOM      2  C3  UNL d   1      -4.958  -5.159  -2.196  0.00  0.00    -0.002 A 
ATOM      3  C4  UNL d   1      -3.861  -5.936  -1.824  0.00  0.00     0.004 A 
ATOM      4  C5  UNL d   1      -2.587  -5.627  -2.300  0.00  0.00    -0.004 A 
ATOM      5  C6  UNL d   1      -2.398  -4.532  -3.150  0.00  0.00    -0.075 A 
ATOM      6  C7  UNL d   1      -1.035  -4.187  -3.673  0.00  0.00     0.076 C 
ATOM      7  C8  UNL d   1      -3.506  -3.758  -3.522  0.00  0.00     0.001 A 
ENDROOT
BRANCH   1   8
ATOM      8  C1  UNL d   1      -5.972  -3.220  -3.455  0.00  0.00     0.053 C 
ATOM      9  C   UNL d   1      -5.994  -2.941  -4.949  0.00  0.00     0.018 C 
ENDBRANCH   1   8
TORSDOF 1
ENDMDL
