MODEL 1
REMARK minimizedAffinity 8.01260471
REMARK minimizedRMSD -1
REMARK  1 active torsions:
REMARK  status: ('A' for Active; 'I' for Inactive)
REMARK    1  A    between atoms: C1_2  and  C2_3 
ROOT
ATOM      1  C2  UNL d   1       3.937   2.023  -2.702  0.00  0.00    -0.073 A 
ATOM      2  C3  UNL d   1       5.188   2.355  -3.235  0.00  0.00    -0.002 A 
ATOM      3  C4  UNL d   1       5.286   3.271  -4.284  0.00  0.00     0.004 A 
ATOM      4  C5  UNL d   1       4.138   3.868  -4.804  0.00  0.00    -0.004 A 
ATOM      5  C6  UNL d   1       2.880   3.558  -4.276  0.00  0.00    -0.075 A 
ATOM      6  C7  UNL d   1       1.636   4.190  -4.827  0.00  0.00     0.076 C 
ATOM      7  C8  UNL d   1       2.790   2.636  -3.225  0.00  0.00     0.001 A 
ENDROOT
BRANCH   1   8
ATOM      8  C1  UNL d   1       3.826   1.040  -1.565  0.00  0.00     0.053 C 
ATOM      9  C   UNL d   1       3.297   1.691  -0.298  0.00  0.00     0.018 C 
ENDBRANCH   1   8
TORSDOF 1
ENDMDL
