MODEL 1
REMARK minimizedAffinity 10.4906359
REMARK minimizedRMSD -1
REMARK  1 active torsions:
REMARK  status: ('A' for Active; 'I' for Inactive)
REMARK    1  A    between atoms: C1_2  and  C2_3 
ROOT
ATOM      1  C2  UNL d   1       2.690   3.620  -4.220  0.00  0.00    -0.073 A 
ATOM      2  C3  UNL d   1       3.070   2.659  -3.277  0.00  0.00    -0.002 A 
ATOM      3  C4  UNL d   1       4.390   2.209  -3.220  0.00  0.00     0.004 A 
ATOM      4  C5  UNL d   1       5.343   2.719  -4.101  0.00  0.00    -0.004 A 
ATOM      5  C6  UNL d   1       4.986   3.689  -5.043  0.00  0.00    -0.075 A 
ATOM      6  C7  UNL d   1       6.000   4.247  -5.999  0.00  0.00     0.076 C 
ATOM      7  C8  UNL d   1       3.658   4.134  -5.095  0.00  0.00     0.001 A 
ENDROOT
BRANCH   1   8
ATOM      8  C1  UNL d   1       1.268   4.114  -4.281  0.00  0.00     0.053 C 
ATOM      9  C   UNL d   1       0.972   4.843  -5.582  0.00  0.00     0.018 C 
ENDBRANCH   1   8
TORSDOF 1
ENDMDL
