MODEL 1
REMARK minimizedAffinity -2.24418116
REMARK minimizedRMSD -1
REMARK  1 active torsions:
REMARK  status: ('A' for Active; 'I' for Inactive)
REMARK    1  A    between atoms: C1_2  and  C2_3 
ROOT
ATOM      1  C2  UNL d   1      -4.471   1.735  -0.695  0.00  0.00    -0.081 A 
ATOM      2  C3  UNL d   1      -3.455   1.535  -1.637  0.00  0.00     0.006 A 
ATOM      3  C4  UNL d   1      -3.709   1.708  -3.000  0.00  0.00     0.002 A 
ATOM      4  C5  UNL d   1      -4.980   2.090  -3.442  0.00  0.00    -0.080 A 
ATOM      5  C6  UNL d   1      -5.257   2.308  -4.900  0.00  0.00     0.076 C 
ATOM      6  C7  UNL d   1      -6.000   2.272  -2.503  0.00  0.00     0.002 A 
ATOM      7  C8  UNL d   1      -5.747   2.099  -1.140  0.00  0.00     0.006 A 
ENDROOT
BRANCH   1   8
ATOM      8  C1  UNL d   1      -4.184   1.613   0.780  0.00  0.00     0.054 C 
ATOM      9  C   UNL d   1      -4.438   2.927   1.504  0.00  0.00     0.018 C 
ENDBRANCH   1   8
TORSDOF 1
ENDMDL
