MODEL 1
REMARK minimizedAffinity 7.76445961
REMARK minimizedRMSD -1
REMARK  1 active torsions:
REMARK  status: ('A' for Active; 'I' for Inactive)
REMARK    1  A    between atoms: C1_2  and  C2_3 
ROOT
ATOM      1  C2  UNL d   1       1.254  -1.467   3.111  0.00  0.00    -0.081 A 
ATOM      2  C3  UNL d   1       1.618  -0.773   1.950  0.00  0.00     0.006 A 
ATOM      3  C4  UNL d   1       1.724   0.620   1.962  0.00  0.00     0.002 A 
ATOM      4  C5  UNL d   1       1.476   1.341   3.135  0.00  0.00    -0.080 A 
ATOM      5  C6  UNL d   1       1.615   2.834   3.169  0.00  0.00     0.076 C 
ATOM      6  C7  UNL d   1       1.095   0.649   4.290  0.00  0.00     0.002 A 
ATOM      7  C8  UNL d   1       0.988  -0.744   4.278  0.00  0.00     0.006 A 
ENDROOT
BRANCH   1   8
ATOM      8  C1  UNL d   1       1.202  -2.973   3.118  0.00  0.00     0.054 C 
ATOM      9  C   UNL d   1       2.387  -3.564   3.868  0.00  0.00     0.018 C 
ENDBRANCH   1   8
TORSDOF 1
ENDMDL
