MODEL 1
REMARK minimizedAffinity -0.0928075388
REMARK minimizedRMSD -1
REMARK  1 active torsions:
REMARK  status: ('A' for Active; 'I' for Inactive)
REMARK    1  A    between atoms: C1_2  and  C2_3 
ROOT
ATOM      1  C2  UNL d   1      -3.118   1.965  -0.279  0.00  0.00    -0.081 A 
ATOM      2  C3  UNL d   1      -3.571   2.141  -1.592  0.00  0.00     0.006 A 
ATOM      3  C4  UNL d   1      -3.392   1.134  -2.544  0.00  0.00     0.002 A 
ATOM      4  C5  UNL d   1      -2.763  -0.066  -2.198  0.00  0.00    -0.080 A 
ATOM      5  C6  UNL d   1      -2.591  -1.167  -3.202  0.00  0.00     0.076 C 
ATOM      6  C7  UNL d   1      -2.294  -0.235  -0.890  0.00  0.00     0.002 A 
ATOM      7  C8  UNL d   1      -2.473   0.771   0.062  0.00  0.00     0.006 A 
ENDROOT
BRANCH   1   8
ATOM      8  C1  UNL d   1      -3.368   3.021   0.767  0.00  0.00     0.054 C 
ATOM      9  C   UNL d   1      -4.854   3.171   1.057  0.00  0.00     0.018 C 
ENDBRANCH   1   8
TORSDOF 1
ENDMDL
