MODEL 1
REMARK minimizedAffinity 11.3743982
REMARK minimizedRMSD -1
REMARK  1 active torsions:
REMARK  status: ('A' for Active; 'I' for Inactive)
REMARK    1  A    between atoms: C1_2  and  C2_3 
ROOT
ATOM      1  C2  UNL d   1       4.355  -5.679  -2.132  0.00  0.00    -0.081 A 
ATOM      2  C3  UNL d   1       5.129  -5.694  -3.298  0.00  0.00     0.006 A 
ATOM      3  C4  UNL d   1       4.521  -5.804  -4.551  0.00  0.00     0.002 A 
ATOM      4  C5  UNL d   1       3.129  -5.894  -4.659  0.00  0.00    -0.080 A 
ATOM      5  C6  UNL d   1       2.462  -5.982  -5.999  0.00  0.00     0.076 C 
ATOM      6  C7  UNL d   1       2.356  -5.897  -3.492  0.00  0.00     0.002 A 
ATOM      7  C8  UNL d   1       2.964  -5.787  -2.240  0.00  0.00     0.006 A 
ENDROOT
BRANCH   1   8
ATOM      8  C1  UNL d   1       5.003  -5.496  -0.783  0.00  0.00     0.054 C 
ATOM      9  C   UNL d   1       3.968  -5.199   0.292  0.00  0.00     0.018 C 
ENDBRANCH   1   8
TORSDOF 1
ENDMDL
