MODEL 1
REMARK minimizedAffinity 7.83085966
REMARK minimizedRMSD -1
REMARK  1 active torsions:
REMARK  status: ('A' for Active; 'I' for Inactive)
REMARK    1  A    between atoms: C1_2  and  C2_3 
ROOT
ATOM      1  C2  UNL d   1       1.449  -4.248   4.496  0.00  0.00    -0.081 A 
ATOM      2  C3  UNL d   1       0.868  -3.030   4.872  0.00  0.00     0.006 A 
ATOM      3  C4  UNL d   1       1.115  -1.871   4.133  0.00  0.00     0.002 A 
ATOM      4  C5  UNL d   1       1.939  -1.911   3.003  0.00  0.00    -0.080 A 
ATOM      5  C6  UNL d   1       2.188  -0.679   2.184  0.00  0.00     0.076 C 
ATOM      6  C7  UNL d   1       2.533  -3.124   2.638  0.00  0.00     0.002 A 
ATOM      7  C8  UNL d   1       2.287  -4.283   3.377  0.00  0.00     0.006 A 
ENDROOT
BRANCH   1   8
ATOM      8  C1  UNL d   1       1.133  -5.513   5.253  0.00  0.00     0.054 C 
ATOM      9  C   UNL d   1      -0.188  -5.396   6.000  0.00  0.00     0.018 C 
ENDBRANCH   1   8
TORSDOF 1
ENDMDL
