MODEL 1
REMARK minimizedAffinity 1.45876861
REMARK minimizedRMSD -1
REMARK  1 active torsions:
REMARK  status: ('A' for Active; 'I' for Inactive)
REMARK    1  A    between atoms: C1_2  and  C2_3 
ROOT
ATOM      1  C2  UNL d   1       2.135  -0.898   3.310  0.00  0.00    -0.081 A 
ATOM      2  C3  UNL d   1       1.443  -1.955   2.707  0.00  0.00     0.006 A 
ATOM      3  C4  UNL d   1       1.533  -3.248   3.228  0.00  0.00     0.002 A 
ATOM      4  C5  UNL d   1       2.309  -3.504   4.363  0.00  0.00    -0.080 A 
ATOM      5  C6  UNL d   1       2.390  -4.882   4.950  0.00  0.00     0.076 C 
ATOM      6  C7  UNL d   1       3.014  -2.451   4.955  0.00  0.00     0.002 A 
ATOM      7  C8  UNL d   1       2.925  -1.158   4.435  0.00  0.00     0.006 A 
ENDROOT
BRANCH   1   8
ATOM      8  C1  UNL d   1       1.988   0.509   2.790  0.00  0.00     0.054 C 
ATOM      9  C   UNL d   1       3.189   0.915   1.947  0.00  0.00     0.018 C 
ENDBRANCH   1   8
TORSDOF 1
ENDMDL
