MODEL 1
REMARK minimizedAffinity 0.646193922
REMARK minimizedRMSD -1
REMARK  1 active torsions:
REMARK  status: ('A' for Active; 'I' for Inactive)
REMARK    1  A    between atoms: C1_2  and  C2_3 
ROOT
ATOM      1  C2  UNL d   1      -0.926  -3.077  -3.908  0.00  0.00    -0.081 A 
ATOM      2  C3  UNL d   1       0.286  -2.378  -3.848  0.00  0.00     0.006 A 
ATOM      3  C4  UNL d   1       0.392  -1.097  -4.395  0.00  0.00     0.002 A 
ATOM      4  C5  UNL d   1      -0.712  -0.491  -5.003  0.00  0.00    -0.080 A 
ATOM      5  C6  UNL d   1      -0.620   0.895  -5.567  0.00  0.00     0.076 C 
ATOM      6  C7  UNL d   1      -1.918  -1.197  -5.078  0.00  0.00     0.002 A 
ATOM      7  C8  UNL d   1      -2.025  -2.478  -4.532  0.00  0.00     0.006 A 
ENDROOT
BRANCH   1   8
ATOM      8  C1  UNL d   1      -1.061  -4.432  -3.262  0.00  0.00     0.054 C 
ATOM      9  C   UNL d   1      -0.285  -4.502  -1.955  0.00  0.00     0.018 C 
ENDBRANCH   1   8
TORSDOF 1
ENDMDL
