MODEL 1
REMARK minimizedAffinity 2.3561964
REMARK minimizedRMSD -1
REMARK  1 active torsions:
REMARK  status: ('A' for Active; 'I' for Inactive)
REMARK    1  A    between atoms: C1_2  and  C2_3 
ROOT
ATOM      1  C2  UNL d   1      -1.218  -1.719  -3.184  0.00  0.00    -0.081 A 
ATOM      2  C3  UNL d   1      -2.466  -1.181  -2.844  0.00  0.00     0.006 A 
ATOM      3  C4  UNL d   1      -2.628   0.199  -2.707  0.00  0.00     0.002 A 
ATOM      4  C5  UNL d   1      -1.549   1.065  -2.915  0.00  0.00    -0.080 A 
ATOM      5  C6  UNL d   1      -1.717   2.551  -2.800  0.00  0.00     0.076 C 
ATOM      6  C7  UNL d   1      -0.299   0.527  -3.237  0.00  0.00     0.002 A 
ATOM      7  C8  UNL d   1      -0.135  -0.853  -3.374  0.00  0.00     0.006 A 
ENDROOT
BRANCH   1   8
ATOM      8  C1  UNL d   1      -1.055  -3.202  -3.397  0.00  0.00     0.054 C 
ATOM      9  C   UNL d   1      -0.354  -3.857  -2.215  0.00  0.00     0.018 C 
ENDBRANCH   1   8
TORSDOF 1
ENDMDL
