MODEL 1
REMARK minimizedAffinity 13.1234436
REMARK minimizedRMSD -1
REMARK  1 active torsions:
REMARK  status: ('A' for Active; 'I' for Inactive)
REMARK    1  A    between atoms: C1_2  and  C2_3 
ROOT
ATOM      1  C2  UNL d   1      -2.756   1.875  -1.749  0.00  0.00    -0.081 A 
ATOM      2  C3  UNL d   1      -3.877   1.039  -1.678  0.00  0.00     0.006 A 
ATOM      3  C4  UNL d   1      -3.847  -0.236  -2.247  0.00  0.00     0.002 A 
ATOM      4  C5  UNL d   1      -2.695  -0.699  -2.890  0.00  0.00    -0.080 A 
ATOM      5  C6  UNL d   1      -2.639  -2.078  -3.479  0.00  0.00     0.076 C 
ATOM      6  C7  UNL d   1      -1.580   0.142  -2.977  0.00  0.00     0.002 A 
ATOM      7  C8  UNL d   1      -1.609   1.417  -2.408  0.00  0.00     0.006 A 
ENDROOT
BRANCH   1   8
ATOM      8  C1  UNL d   1      -2.762   3.225  -1.080  0.00  0.00     0.054 C 
ATOM      9  C   UNL d   1      -1.843   4.203  -1.797  0.00  0.00     0.018 C 
ENDBRANCH   1   8
TORSDOF 1
ENDMDL
