MODEL 1
REMARK minimizedAffinity 5.96891022
REMARK minimizedRMSD -1
REMARK  1 active torsions:
REMARK  status: ('A' for Active; 'I' for Inactive)
REMARK    1  A    between atoms: C1_2  and  C2_3 
ROOT
ATOM      1  C2  UNL d   1       4.781  -5.078  -1.161  0.00  0.00    -0.081 A 
ATOM      2  C3  UNL d   1       4.404  -5.392  -2.472  0.00  0.00     0.006 A 
ATOM      3  C4  UNL d   1       4.786  -4.570  -3.535  0.00  0.00     0.002 A 
ATOM      4  C5  UNL d   1       5.556  -3.425  -3.305  0.00  0.00    -0.080 A 
ATOM      5  C6  UNL d   1       5.998  -2.550  -4.441  0.00  0.00     0.076 C 
ATOM      6  C7  UNL d   1       5.918  -3.101  -1.993  0.00  0.00     0.002 A 
ATOM      7  C8  UNL d   1       5.536  -3.923  -0.930  0.00  0.00     0.006 A 
ENDROOT
BRANCH   1   8
ATOM      8  C1  UNL d   1       4.425  -5.997  -0.020  0.00  0.00     0.054 C 
ATOM      9  C   UNL d   1       5.440  -5.894   1.110  0.00  0.00     0.018 C 
ENDBRANCH   1   8
TORSDOF 1
ENDMDL
