MODEL 1
REMARK minimizedAffinity 7.13733959
REMARK minimizedRMSD -1
REMARK  1 active torsions:
REMARK  status: ('A' for Active; 'I' for Inactive)
REMARK    1  A    between atoms: C1_2  and  C2_3 
ROOT
ATOM      1  C2  UNL d   1       0.163   2.119  -0.967  0.00  0.00    -0.081 A 
ATOM      2  C3  UNL d   1       1.145   1.190  -1.336  0.00  0.00     0.006 A 
ATOM      3  C4  UNL d   1       0.996   0.424  -2.494  0.00  0.00     0.002 A 
ATOM      4  C5  UNL d   1      -0.132   0.579  -3.307  0.00  0.00    -0.080 A 
ATOM      5  C6  UNL d   1      -0.290  -0.215  -4.570  0.00  0.00     0.076 C 
ATOM      6  C7  UNL d   1      -1.121   1.494  -2.930  0.00  0.00     0.002 A 
ATOM      7  C8  UNL d   1      -0.973   2.260  -1.771  0.00  0.00     0.006 A 
ENDROOT
BRANCH   1   8
ATOM      8  C1  UNL d   1       0.351   2.992   0.247  0.00  0.00     0.054 C 
ATOM      9  C   UNL d   1       1.252   4.180  -0.061  0.00  0.00     0.018 C 
ENDBRANCH   1   8
TORSDOF 1
ENDMDL
