MODEL 1
REMARK minimizedAffinity 5.99467754
REMARK minimizedRMSD -1
REMARK  1 active torsions:
REMARK  status: ('A' for Active; 'I' for Inactive)
REMARK    1  A    between atoms: C1_2  and  C2_3 
ROOT
ATOM      1  C2  UNL d   1       1.129  -1.120  -1.793  0.00  0.00    -0.081 A 
ATOM      2  C3  UNL d   1       1.600  -0.885  -0.495  0.00  0.00     0.006 A 
ATOM      3  C4  UNL d   1       1.514   0.390   0.069  0.00  0.00     0.002 A 
ATOM      4  C5  UNL d   1       0.949   1.449  -0.651  0.00  0.00    -0.080 A 
ATOM      5  C6  UNL d   1       0.823   2.815  -0.045  0.00  0.00     0.076 C 
ATOM      6  C7  UNL d   1       0.494   1.218  -1.953  0.00  0.00     0.002 A 
ATOM      7  C8  UNL d   1       0.580  -0.057  -2.518  0.00  0.00     0.006 A 
ENDROOT
BRANCH   1   8
ATOM      8  C1  UNL d   1       1.161  -2.508  -2.380  0.00  0.00     0.054 C 
ATOM      9  C   UNL d   1       0.101  -3.400  -1.750  0.00  0.00     0.018 C 
ENDBRANCH   1   8
TORSDOF 1
ENDMDL
