MODEL 1
REMARK minimizedAffinity -0.168986917
REMARK minimizedRMSD -1
REMARK  0 active torsions:
REMARK  status: ('A' for Active; 'I' for Inactive)
ROOT
ATOM      1  C2' OXE d   1      -0.733  -1.470   2.676  0.00  0.00     0.078 C 
ATOM      2  C1' OXE d   1       0.354   0.455   0.945  0.00  0.00     0.078 C 
ATOM      3  C1  OXE d   1       0.740  -0.987   0.727  0.00  0.00    -0.078 A 
ATOM      4  C2  OXE d   1       0.241  -1.916   1.607  0.00  0.00    -0.078 A 
ATOM      5  C3  OXE d   1       0.522  -3.266   1.418  0.00  0.00     0.003 A 
ATOM      6  C4  OXE d   1       1.432  -3.669   0.433  0.00  0.00    -0.002 A 
ATOM      7  C5  OXE d   1       1.984  -2.734  -0.450  0.00  0.00    -0.002 A 
ATOM      8  C6  OXE d   1       1.616  -1.397  -0.343  0.00  0.00     0.003 A 
ENDROOT
TORSDOF 0
ENDMDL
