MODEL 1
REMARK minimizedAffinity -3.65586185
REMARK minimizedRMSD -1
REMARK  0 active torsions:
REMARK  status: ('A' for Active; 'I' for Inactive)
ROOT
ATOM      1  C2' OXE d   1       2.300  -4.423  -0.108  0.00  0.00     0.078 C 
ATOM      2  C1' OXE d   1       3.602  -1.937  -0.182  0.00  0.00     0.078 C 
ATOM      3  C1  OXE d   1       2.132  -1.952   0.156  0.00  0.00    -0.078 A 
ATOM      4  C2  OXE d   1       1.493  -3.169   0.144  0.00  0.00    -0.078 A 
ATOM      5  C3  OXE d   1       0.150  -3.245   0.502  0.00  0.00     0.003 A 
ATOM      6  C4  OXE d   1      -0.592  -2.079   0.724  0.00  0.00    -0.002 A 
ATOM      7  C5  OXE d   1       0.030  -0.826   0.702  0.00  0.00    -0.002 A 
ATOM      8  C6  OXE d   1       1.398  -0.749   0.462  0.00  0.00     0.003 A 
ENDROOT
TORSDOF 0
ENDMDL
