MODEL 1
REMARK minimizedAffinity -4.10738945
REMARK minimizedRMSD -1
REMARK  0 active torsions:
REMARK  status: ('A' for Active; 'I' for Inactive)
ROOT
ATOM      1  C2' OXE d   1       3.828  -1.205   0.219  0.00  0.00     0.078 C 
ATOM      2  C1' OXE d   1       2.965  -3.876   0.261  0.00  0.00     0.078 C 
ATOM      3  C1  OXE d   1       1.941  -2.801   0.529  0.00  0.00    -0.078 A 
ATOM      4  C2  OXE d   1       2.382  -1.500   0.552  0.00  0.00    -0.078 A 
ATOM      5  C3  OXE d   1       1.469  -0.466   0.740  0.00  0.00     0.003 A 
ATOM      6  C4  OXE d   1       0.134  -0.747   1.057  0.00  0.00    -0.002 A 
ATOM      7  C5  OXE d   1      -0.327  -2.068   1.078  0.00  0.00    -0.002 A 
ATOM      8  C6  OXE d   1       0.552  -3.102   0.774  0.00  0.00     0.003 A 
ENDROOT
TORSDOF 0
ENDMDL
