MODEL 1
REMARK minimizedAffinity -4.14330673
REMARK minimizedRMSD -1
REMARK  0 active torsions:
REMARK  status: ('A' for Active; 'I' for Inactive)
ROOT
ATOM      1  C2' OXE d   1      -1.094  -0.586   0.807  0.00  0.00     0.078 C 
ATOM      2  C1' OXE d   1       1.505   0.459   0.993  0.00  0.00     0.078 C 
ATOM      3  C1  OXE d   1       1.358  -1.024   0.758  0.00  0.00    -0.078 A 
ATOM      4  C2  OXE d   1       0.083  -1.534   0.715  0.00  0.00    -0.078 A 
ATOM      5  C3  OXE d   1      -0.111  -2.886   0.446  0.00  0.00     0.003 A 
ATOM      6  C4  OXE d   1       0.983  -3.757   0.372  0.00  0.00    -0.002 A 
ATOM      7  C5  OXE d   1       2.290  -3.265   0.453  0.00  0.00    -0.002 A 
ATOM      8  C6  OXE d   1       2.495  -1.898   0.602  0.00  0.00     0.003 A 
ENDROOT
TORSDOF 0
ENDMDL
