MODEL 1
REMARK minimizedAffinity 0.930329382
REMARK minimizedRMSD -1
REMARK  0 active torsions:
REMARK  status: ('A' for Active; 'I' for Inactive)
ROOT
ATOM      1  C2' OXE d   1       3.170  -4.275  -0.054  0.00  0.00     0.078 C 
ATOM      2  C1' OXE d   1       3.816  -1.562   0.263  0.00  0.00     0.078 C 
ATOM      3  C1  OXE d   1       2.369  -1.962   0.406  0.00  0.00    -0.078 A 
ATOM      4  C2  OXE d   1       2.055  -3.284   0.203  0.00  0.00    -0.078 A 
ATOM      5  C3  OXE d   1       0.743  -3.716   0.376  0.00  0.00     0.003 A 
ATOM      6  C4  OXE d   1      -0.283  -2.791   0.604  0.00  0.00    -0.002 A 
ATOM      7  C5  OXE d   1       0.009  -1.434   0.775  0.00  0.00    -0.002 A 
ATOM      8  C6  OXE d   1       1.333  -1.010   0.721  0.00  0.00     0.003 A 
ENDROOT
TORSDOF 0
ENDMDL
