MODEL 1
REMARK minimizedAffinity -3.42090321
REMARK minimizedRMSD -1
REMARK  0 active torsions:
REMARK  status: ('A' for Active; 'I' for Inactive)
ROOT
ATOM      1  C2' OXE d   1      -0.493  -0.838   0.808  0.00  0.00     0.078 C 
ATOM      2  C1' OXE d   1       2.091   0.252   0.939  0.00  0.00     0.078 C 
ATOM      3  C1  OXE d   1       1.961  -1.211   0.598  0.00  0.00    -0.078 A 
ATOM      4  C2  OXE d   1       0.696  -1.747   0.582  0.00  0.00    -0.078 A 
ATOM      5  C3  OXE d   1       0.515  -3.079   0.220  0.00  0.00     0.003 A 
ATOM      6  C4  OXE d   1       1.620  -3.915   0.022  0.00  0.00    -0.002 A 
ATOM      7  C5  OXE d   1       2.920  -3.399   0.073  0.00  0.00    -0.002 A 
ATOM      8  C6  OXE d   1       3.105  -2.043   0.317  0.00  0.00     0.003 A 
ENDROOT
TORSDOF 0
ENDMDL
