MODEL 1
REMARK minimizedAffinity -3.45536065
REMARK minimizedRMSD -1
REMARK  0 active torsions:
REMARK  status: ('A' for Active; 'I' for Inactive)
ROOT
ATOM      1  C2' OXE d   1      -0.746  -1.123   0.680  0.00  0.00     0.078 C 
ATOM      2  C1' OXE d   1       1.716   0.133   1.174  0.00  0.00     0.078 C 
ATOM      3  C1  OXE d   1       1.738  -1.305   0.717  0.00  0.00    -0.078 A 
ATOM      4  C2  OXE d   1       0.528  -1.925   0.523  0.00  0.00    -0.078 A 
ATOM      5  C3  OXE d   1       0.492  -3.234   0.049  0.00  0.00     0.003 A 
ATOM      6  C4  OXE d   1       1.675  -3.972  -0.084  0.00  0.00    -0.002 A 
ATOM      7  C5  OXE d   1       2.917  -3.371   0.148  0.00  0.00    -0.002 A 
ATOM      8  C6  OXE d   1       2.968  -2.029   0.507  0.00  0.00     0.003 A 
ENDROOT
TORSDOF 0
ENDMDL
