MODEL 1
REMARK minimizedAffinity 0.0571407713
REMARK minimizedRMSD -1
REMARK  0 active torsions:
REMARK  status: ('A' for Active; 'I' for Inactive)
ROOT
ATOM      1  C2' OXE d   1      -5.347  -3.201   5.999  0.00  0.00     0.078 C 
ATOM      2  C1' OXE d   1      -4.991  -5.986   5.997  0.00  0.00     0.078 C 
ATOM      3  C1  OXE d   1      -5.024  -5.280   4.665  0.00  0.00    -0.078 A 
ATOM      4  C2  OXE d   1      -5.246  -3.924   4.673  0.00  0.00    -0.078 A 
ATOM      5  C3  OXE d   1      -5.232  -3.215   3.475  0.00  0.00     0.003 A 
ATOM      6  C4  OXE d   1      -5.148  -3.892   2.252  0.00  0.00    -0.002 A 
ATOM      7  C5  OXE d   1      -4.962  -5.278   2.220  0.00  0.00    -0.002 A 
ATOM      8  C6  OXE d   1      -4.855  -5.980   3.415  0.00  0.00     0.003 A 
ENDROOT
TORSDOF 0
ENDMDL
