MODEL 1
REMARK minimizedAffinity 0.72735703
REMARK minimizedRMSD -1
REMARK  0 active torsions:
REMARK  status: ('A' for Active; 'I' for Inactive)
ROOT
ATOM      1  C2' OXE d   1      -0.672  -0.972   0.700  0.00  0.00     0.078 C 
ATOM      2  C1' OXE d   1       2.011  -0.293   1.171  0.00  0.00     0.078 C 
ATOM      3  C1  OXE d   1       1.714  -1.688   0.680  0.00  0.00    -0.078 A 
ATOM      4  C2  OXE d   1       0.395  -2.026   0.497  0.00  0.00    -0.078 A 
ATOM      5  C3  OXE d   1       0.070  -3.282  -0.008  0.00  0.00     0.003 A 
ATOM      6  C4  OXE d   1       1.062  -4.254  -0.184  0.00  0.00    -0.002 A 
ATOM      7  C5  OXE d   1       2.408  -3.943   0.036  0.00  0.00    -0.002 A 
ATOM      8  C6  OXE d   1       2.754  -2.654   0.426  0.00  0.00     0.003 A 
ENDROOT
TORSDOF 0
ENDMDL
