MODEL 1
REMARK minimizedAffinity 0.477418721
REMARK minimizedRMSD -1
REMARK  0 active torsions:
REMARK  status: ('A' for Active; 'I' for Inactive)
ROOT
ATOM      1  C2' OXE d   1       2.060  -3.862  -0.217  0.00  0.00     0.078 C 
ATOM      2  C1' OXE d   1       3.561  -1.502   0.024  0.00  0.00     0.078 C 
ATOM      3  C1  OXE d   1       2.110  -1.458   0.433  0.00  0.00    -0.078 A 
ATOM      4  C2  OXE d   1       1.371  -2.605   0.268  0.00  0.00    -0.078 A 
ATOM      5  C3  OXE d   1       0.042  -2.634   0.681  0.00  0.00     0.003 A 
ATOM      6  C4  OXE d   1      -0.590  -1.464   1.120  0.00  0.00    -0.002 A 
ATOM      7  C5  OXE d   1       0.134  -0.276   1.258  0.00  0.00    -0.002 A 
ATOM      8  C6  OXE d   1       1.492  -0.266   0.960  0.00  0.00     0.003 A 
ENDROOT
TORSDOF 0
ENDMDL
