MODEL 1
REMARK minimizedAffinity -1.69698083
REMARK minimizedRMSD -1
REMARK  0 active torsions:
REMARK  status: ('A' for Active; 'I' for Inactive)
ROOT
ATOM      1  C2' OXE d   1       3.717  -4.979  -0.018  0.00  0.00     0.078 C 
ATOM      2  C1' OXE d   1       4.644  -2.364   0.405  0.00  0.00     0.078 C 
ATOM      3  C1  OXE d   1       3.153  -2.592   0.415  0.00  0.00    -0.078 A 
ATOM      4  C2  OXE d   1       2.707  -3.866   0.161  0.00  0.00    -0.078 A 
ATOM      5  C3  OXE d   1       1.344  -4.143   0.212  0.00  0.00     0.003 A 
ATOM      6  C4  OXE d   1       0.416  -3.106   0.368  0.00  0.00    -0.002 A 
ATOM      7  C5  OXE d   1       0.848  -1.794   0.589  0.00  0.00    -0.002 A 
ATOM      8  C6  OXE d   1       2.211  -1.528   0.658  0.00  0.00     0.003 A 
ENDROOT
TORSDOF 0
ENDMDL
