MODEL 1
REMARK minimizedAffinity -4.39398527
REMARK minimizedRMSD -1
REMARK  0 active torsions:
REMARK  status: ('A' for Active; 'I' for Inactive)
ROOT
ATOM      1  C2' OXE d   1       2.657  -4.024  -0.157  0.00  0.00     0.078 C 
ATOM      2  C1' OXE d   1       3.751  -1.484   0.321  0.00  0.00     0.078 C 
ATOM      3  C1  OXE d   1       2.251  -1.626   0.382  0.00  0.00    -0.078 A 
ATOM      4  C2  OXE d   1       1.721  -2.863   0.101  0.00  0.00    -0.078 A 
ATOM      5  C3  OXE d   1       0.347  -3.062   0.197  0.00  0.00     0.003 A 
ATOM      6  C4  OXE d   1      -0.512  -1.981   0.426  0.00  0.00    -0.002 A 
ATOM      7  C5  OXE d   1       0.004  -0.705   0.676  0.00  0.00    -0.002 A 
ATOM      8  C6  OXE d   1       1.382  -0.520   0.700  0.00  0.00     0.003 A 
ENDROOT
TORSDOF 0
ENDMDL
