MODEL 1
REMARK minimizedAffinity -1.58230233
REMARK minimizedRMSD -1
REMARK  0 active torsions:
REMARK  status: ('A' for Active; 'I' for Inactive)
ROOT
ATOM      1  C2' OXE d   1       3.104   3.767  -3.195  0.00  0.00     0.078 C 
ATOM      2  C1' OXE d   1       3.218   3.955  -5.993  0.00  0.00     0.078 C 
ATOM      3  C1  OXE d   1       2.067   4.630  -5.289  0.00  0.00    -0.078 A 
ATOM      4  C2  OXE d   1       1.994   4.493  -3.924  0.00  0.00    -0.078 A 
ATOM      5  C3  OXE d   1       0.984   5.141  -3.219  0.00  0.00     0.003 A 
ATOM      6  C4  OXE d   1      -0.044   5.803  -3.901  0.00  0.00    -0.002 A 
ATOM      7  C5  OXE d   1      -0.010   5.920  -5.295  0.00  0.00    -0.002 A 
ATOM      8  C6  OXE d   1       1.059   5.377  -5.999  0.00  0.00     0.003 A 
ENDROOT
TORSDOF 0
ENDMDL
