MODEL 1
REMARK minimizedAffinity 0.0410812199
REMARK minimizedRMSD -1
REMARK  0 active torsions:
REMARK  status: ('A' for Active; 'I' for Inactive)
ROOT
ATOM      1  C2' OXE d   1       2.704  -3.911  -0.315  0.00  0.00     0.078 C 
ATOM      2  C1' OXE d   1      -0.050  -4.455  -0.266  0.00  0.00     0.078 C 
ATOM      3  C1  OXE d   1       0.404  -3.085   0.171  0.00  0.00    -0.078 A 
ATOM      4  C2  OXE d   1       1.757  -2.843   0.189  0.00  0.00    -0.078 A 
ATOM      5  C3  OXE d   1       2.226  -1.578   0.531  0.00  0.00     0.003 A 
ATOM      6  C4  OXE d   1       1.344  -0.599   1.005  0.00  0.00    -0.002 A 
ATOM      7  C5  OXE d   1      -0.034  -0.838   1.033  0.00  0.00    -0.002 A 
ATOM      8  C6  OXE d   1      -0.523  -2.059   0.580  0.00  0.00     0.003 A 
ENDROOT
TORSDOF 0
ENDMDL
