MODEL 1
REMARK minimizedAffinity -0.422216654
REMARK minimizedRMSD -1
REMARK  0 active torsions:
REMARK  status: ('A' for Active; 'I' for Inactive)
ROOT
ATOM      1  C2' OXE d   1       3.974  -4.838  -0.289  0.00  0.00     0.078 C 
ATOM      2  C1' OXE d   1       4.682  -2.152   0.114  0.00  0.00     0.078 C 
ATOM      3  C1  OXE d   1       3.215  -2.501   0.120  0.00  0.00    -0.078 A 
ATOM      4  C2  OXE d   1       2.875  -3.810  -0.125  0.00  0.00    -0.078 A 
ATOM      5  C3  OXE d   1       1.539  -4.196  -0.077  0.00  0.00     0.003 A 
ATOM      6  C4  OXE d   1       0.528  -3.237   0.066  0.00  0.00    -0.002 A 
ATOM      7  C5  OXE d   1       0.851  -1.892   0.276  0.00  0.00    -0.002 A 
ATOM      8  C6  OXE d   1       2.187  -1.515   0.349  0.00  0.00     0.003 A 
ENDROOT
TORSDOF 0
ENDMDL
