MODEL 1
REMARK minimizedAffinity 4.43020153
REMARK minimizedRMSD -1
REMARK  0 active torsions:
REMARK  status: ('A' for Active; 'I' for Inactive)
ROOT
ATOM      1  C2' OXE d   1       2.460  -4.059   0.230  0.00  0.00     0.078 C 
ATOM      2  C1' OXE d   1      -0.151  -4.232  -0.788  0.00  0.00     0.078 C 
ATOM      3  C1  OXE d   1       0.209  -3.012   0.022  0.00  0.00    -0.078 A 
ATOM      4  C2  OXE d   1       1.474  -2.958   0.556  0.00  0.00    -0.078 A 
ATOM      5  C3  OXE d   1       1.875  -1.829   1.266  0.00  0.00     0.003 A 
ATOM      6  C4  OXE d   1       0.954  -0.820   1.571  0.00  0.00    -0.002 A 
ATOM      7  C5  OXE d   1      -0.351  -0.874   1.071  0.00  0.00    -0.002 A 
ATOM      8  C6  OXE d   1      -0.726  -1.940   0.261  0.00  0.00     0.003 A 
ENDROOT
TORSDOF 0
ENDMDL
