MODEL 1
REMARK minimizedAffinity -1.50711
REMARK minimizedRMSD -1
REMARK  1 active torsions:
REMARK  status: ('A' for Active; 'I' for Inactive)
REMARK    1  A    between atoms: C3_4  and  O_7 
ROOT
ATOM      1  C   UNL d   1      -0.591  -0.704   2.239  0.00  0.00    -0.033 A 
ATOM      2  C1  UNL d   1       0.312  -1.742   2.474  0.00  0.00     0.039 A 
ATOM      3  C2  UNL d   1       1.164  -2.173   1.455  0.00  0.00    -0.080 A 
ATOM      4  C3  UNL d   1       1.104  -1.556   0.208  0.00  0.00     0.150 A 
ATOM      5  C4  UNL d   1       0.210  -0.518  -0.031  0.00  0.00    -0.007 A 
ATOM      6  C5  UNL d   1      -0.641  -0.091   0.987  0.00  0.00     0.039 A 
ENDROOT
BRANCH   4   7
ATOM      7  O   UNL d   1       1.912  -1.945  -0.819  0.00  0.00    -0.526 OA
ATOM      8  H5  UNL d   1       2.457  -2.691  -0.516  0.00  0.00     0.418 HD
ENDBRANCH   4   7
TORSDOF 1
ENDMDL
