MODEL 1
REMARK minimizedAffinity -0.0289649237
REMARK minimizedRMSD -1
REMARK  1 active torsions:
REMARK  status: ('A' for Active; 'I' for Inactive)
REMARK    1  A    between atoms: C3_4  and  O_7 
ROOT
ATOM      1  C   UNL d   1      -0.721  -0.193   2.128  0.00  0.00    -0.033 A 
ATOM      2  C1  UNL d   1      -0.105   0.072   0.903  0.00  0.00     0.039 A 
ATOM      3  C2  UNL d   1       0.731  -0.881   0.320  0.00  0.00    -0.080 A 
ATOM      4  C3  UNL d   1       0.943  -2.094   0.970  0.00  0.00     0.150 A 
ATOM      5  C4  UNL d   1       0.330  -2.366   2.188  0.00  0.00    -0.007 A 
ATOM      6  C5  UNL d   1      -0.505  -1.413   2.770  0.00  0.00     0.039 A 
ENDROOT
BRANCH   4   7
ATOM      7  O   UNL d   1       1.755  -3.053   0.442  0.00  0.00    -0.526 OA
ATOM      8  H5  UNL d   1       2.132  -2.715  -0.387  0.00  0.00     0.418 HD
ENDBRANCH   4   7
TORSDOF 1
ENDMDL
