MODEL 1
REMARK minimizedAffinity -0.524794519
REMARK minimizedRMSD -1
REMARK  1 active torsions:
REMARK  status: ('A' for Active; 'I' for Inactive)
REMARK    1  A    between atoms: C3_4  and  O_7 
ROOT
ATOM      1  C   UNL d   1      -1.612  -0.638   2.037  0.00  0.00    -0.033 A 
ATOM      2  C1  UNL d   1      -0.746  -1.480   2.738  0.00  0.00     0.039 A 
ATOM      3  C2  UNL d   1       0.332  -2.078   2.083  0.00  0.00    -0.080 A 
ATOM      4  C3  UNL d   1       0.534  -1.825   0.729  0.00  0.00     0.150 A 
ATOM      5  C4  UNL d   1      -0.322  -0.985   0.025  0.00  0.00    -0.007 A 
ATOM      6  C5  UNL d   1      -1.399  -0.389   0.681  0.00  0.00     0.039 A 
ENDROOT
BRANCH   4   7
ATOM      7  O   UNL d   1       1.570  -2.390   0.046  0.00  0.00    -0.526 OA
ATOM      8  H5  UNL d   1       2.060  -2.969   0.653  0.00  0.00     0.418 HD
ENDBRANCH   4   7
TORSDOF 1
ENDMDL
