MODEL 1
REMARK minimizedAffinity -2.28304529
REMARK minimizedRMSD -1
REMARK  1 active torsions:
REMARK  status: ('A' for Active; 'I' for Inactive)
REMARK    1  A    between atoms: C3_4  and  O_7 
ROOT
ATOM      1  C   UNL d   1      -0.127  -0.317   0.176  0.00  0.00    -0.033 A 
ATOM      2  C1  UNL d   1       1.038   0.413   0.420  0.00  0.00     0.039 A 
ATOM      3  C2  UNL d   1       1.719   0.260   1.629  0.00  0.00    -0.080 A 
ATOM      4  C3  UNL d   1       1.227  -0.625   2.583  0.00  0.00     0.150 A 
ATOM      5  C4  UNL d   1       0.069  -1.359   2.345  0.00  0.00    -0.007 A 
ATOM      6  C5  UNL d   1      -0.611  -1.204   1.138  0.00  0.00     0.039 A 
ENDROOT
BRANCH   4   7
ATOM      7  O   UNL d   1       1.855  -0.805   3.780  0.00  0.00    -0.526 OA
ATOM      8  H5  UNL d   1       2.624  -0.212   3.816  0.00  0.00     0.418 HD
ENDBRANCH   4   7
TORSDOF 1
ENDMDL
