MODEL 1
REMARK minimizedAffinity 10.9123135
REMARK minimizedRMSD -1
REMARK  1 active torsions:
REMARK  status: ('A' for Active; 'I' for Inactive)
REMARK    1  A    between atoms: C1_2  and  C2_3 
ROOT
ATOM      1  C2  UNL d   1      -4.849   1.445   3.871  0.00  0.00    -0.076 A 
ATOM      2  C3  UNL d   1      -5.987   0.623   3.944  0.00  0.00     0.004 A 
ATOM      3  C4  UNL d   1      -5.961  -0.682   3.454  0.00  0.00    -0.003 A 
ATOM      4  C5  UNL d   1      -4.797  -1.186   2.885  0.00  0.00     0.000 A 
ATOM      5  C6  UNL d   1      -3.654  -0.391   2.822  0.00  0.00     0.000 A 
ATOM      6  C7  UNL d   1      -3.658   0.921   3.325  0.00  0.00    -0.073 A 
ATOM      7  C8  UNL d   1      -2.398   1.737   3.225  0.00  0.00     0.078 C 
ENDROOT
BRANCH   1   8
ATOM      8  C1  UNL d   1      -4.944   2.861   4.394  0.00  0.00     0.053 C 
ATOM      9  C   UNL d   1      -4.989   2.919   5.913  0.00  0.00     0.018 C 
ENDBRANCH   1   8
TORSDOF 1
ENDMDL
