MODEL 1
REMARK minimizedAffinity 15.4991436
REMARK minimizedRMSD -1
REMARK  1 active torsions:
REMARK  status: ('A' for Active; 'I' for Inactive)
REMARK    1  A    between atoms: C1_2  and  C2_3 
ROOT
ATOM      1  C2  UNL d   1       2.428  -3.705  -1.567  0.00  0.00    -0.076 A 
ATOM      2  C3  UNL d   1       1.553  -3.266  -2.576  0.00  0.00     0.004 A 
ATOM      3  C4  UNL d   1       0.867  -4.177  -3.378  0.00  0.00    -0.003 A 
ATOM      4  C5  UNL d   1       1.044  -5.542  -3.183  0.00  0.00     0.000 A 
ATOM      5  C6  UNL d   1       1.894  -5.996  -2.175  0.00  0.00     0.000 A 
ATOM      6  C7  UNL d   1       2.581  -5.091  -1.347  0.00  0.00    -0.073 A 
ATOM      7  C8  UNL d   1       3.490  -5.636  -0.280  0.00  0.00     0.078 C 
ENDROOT
BRANCH   1   8
ATOM      8  C1  UNL d   1       3.165  -2.671  -0.747  0.00  0.00     0.053 C 
ATOM      9  C   UNL d   1       2.649  -1.261  -0.987  0.00  0.00     0.018 C 
ENDBRANCH   1   8
TORSDOF 1
ENDMDL
