MODEL 1
REMARK minimizedAffinity 10.7486124
REMARK minimizedRMSD -1
REMARK  1 active torsions:
REMARK  status: ('A' for Active; 'I' for Inactive)
REMARK    1  A    between atoms: C1_2  and  C2_3 
ROOT
ATOM      1  C2  UNL d   1      -1.913  -4.044  -2.765  0.00  0.00    -0.076 A 
ATOM      2  C3  UNL d   1      -2.688  -2.959  -3.212  0.00  0.00     0.004 A 
ATOM      3  C4  UNL d   1      -2.090  -1.758  -3.590  0.00  0.00    -0.003 A 
ATOM      4  C5  UNL d   1      -0.707  -1.622  -3.526  0.00  0.00     0.000 A 
ATOM      5  C6  UNL d   1       0.078  -2.693  -3.102  0.00  0.00     0.000 A 
ATOM      6  C7  UNL d   1      -0.508  -3.917  -2.733  0.00  0.00    -0.073 A 
ATOM      7  C8  UNL d   1       0.386  -5.037  -2.277  0.00  0.00     0.078 C 
ENDROOT
BRANCH   1   8
ATOM      8  C1  UNL d   1      -2.619  -5.313  -2.342  0.00  0.00     0.053 C 
ATOM      9  C   UNL d   1      -2.369  -5.660  -0.883  0.00  0.00     0.018 C 
ENDBRANCH   1   8
TORSDOF 1
ENDMDL
