MODEL 1
REMARK minimizedAffinity 11.4624386
REMARK minimizedRMSD -1
REMARK  1 active torsions:
REMARK  status: ('A' for Active; 'I' for Inactive)
REMARK    1  A    between atoms: C1_2  and  C2_3 
ROOT
ATOM      1  C2  UNL d   1      -2.560  -0.579   3.349  0.00  0.00    -0.076 A 
ATOM      2  C3  UNL d   1      -1.261  -1.054   3.098  0.00  0.00     0.004 A 
ATOM      3  C4  UNL d   1      -0.242  -0.186   2.707  0.00  0.00    -0.003 A 
ATOM      4  C5  UNL d   1      -0.506   1.171   2.561  0.00  0.00     0.000 A 
ATOM      5  C6  UNL d   1      -1.785   1.663   2.823  0.00  0.00     0.000 A 
ATOM      6  C7  UNL d   1      -2.819   0.804   3.234  0.00  0.00    -0.073 A 
ATOM      7  C8  UNL d   1      -4.180   1.387   3.497  0.00  0.00     0.078 C 
ENDROOT
BRANCH   1   8
ATOM      8  C1  UNL d   1      -3.630  -1.571   3.743  0.00  0.00     0.053 C 
ATOM      9  C   UNL d   1      -3.582  -1.923   5.222  0.00  0.00     0.018 C 
ENDBRANCH   1   8
TORSDOF 1
ENDMDL
