MODEL 1
REMARK minimizedAffinity 14.6675234
REMARK minimizedRMSD -1
REMARK  1 active torsions:
REMARK  status: ('A' for Active; 'I' for Inactive)
REMARK    1  A    between atoms: C1_2  and  C2_3 
ROOT
ATOM      1  C2  UNL d   1      -3.254  -3.720  -4.071  0.00  0.00    -0.076 A 
ATOM      2  C3  UNL d   1      -3.142  -4.481  -2.894  0.00  0.00     0.004 A 
ATOM      3  C4  UNL d   1      -1.895  -4.866  -2.405  0.00  0.00    -0.003 A 
ATOM      4  C5  UNL d   1      -0.740  -4.497  -3.085  0.00  0.00     0.000 A 
ATOM      5  C6  UNL d   1      -0.832  -3.728  -4.244  0.00  0.00     0.000 A 
ATOM      6  C7  UNL d   1      -2.080  -3.317  -4.742  0.00  0.00    -0.073 A 
ATOM      7  C8  UNL d   1      -2.121  -2.493  -6.000  0.00  0.00     0.078 C 
ENDROOT
BRANCH   1   8
ATOM      8  C1  UNL d   1      -4.635  -3.354  -4.568  0.00  0.00     0.053 C 
ATOM      9  C   UNL d   1      -4.877  -3.806  -5.999  0.00  0.00     0.018 C 
ENDBRANCH   1   8
TORSDOF 1
ENDMDL
