MODEL 1
REMARK minimizedAffinity 18.9253063
REMARK minimizedRMSD -1
REMARK  1 active torsions:
REMARK  status: ('A' for Active; 'I' for Inactive)
REMARK    1  A    between atoms: C1_2  and  C2_3 
ROOT
ATOM      1  C2  UNL d   1       3.602   0.480  -0.582  0.00  0.00    -0.076 A 
ATOM      2  C3  UNL d   1       3.811  -0.771   0.024  0.00  0.00     0.004 A 
ATOM      3  C4  UNL d   1       3.049  -1.880  -0.339  0.00  0.00    -0.003 A 
ATOM      4  C5  UNL d   1       2.066  -1.757  -1.315  0.00  0.00     0.000 A 
ATOM      5  C6  UNL d   1       1.857  -0.527  -1.939  0.00  0.00     0.000 A 
ATOM      6  C7  UNL d   1       2.628   0.597  -1.596  0.00  0.00    -0.073 A 
ATOM      7  C8  UNL d   1       2.355   1.900  -2.297  0.00  0.00     0.078 C 
ENDROOT
BRANCH   1   8
ATOM      8  C1  UNL d   1       4.440   1.654  -0.128  0.00  0.00     0.053 C 
ATOM      9  C   UNL d   1       3.769   2.457   0.975  0.00  0.00     0.018 C 
ENDBRANCH   1   8
TORSDOF 1
ENDMDL
