MODEL 1
REMARK minimizedAffinity 0.195748568
REMARK minimizedRMSD -1
REMARK  1 active torsions:
REMARK  status: ('A' for Active; 'I' for Inactive)
REMARK    1  A    between atoms: C1_2  and  C2_3 
ROOT
ATOM      1  C2  UNL d   1      -2.447  -4.470  -3.839  0.00  0.00    -0.076 A 
ATOM      2  C3  UNL d   1      -2.287  -3.763  -5.044  0.00  0.00     0.004 A 
ATOM      3  C4  UNL d   1      -3.304  -3.731  -5.997  0.00  0.00    -0.003 A 
ATOM      4  C5  UNL d   1      -4.497  -4.404  -5.760  0.00  0.00     0.000 A 
ATOM      5  C6  UNL d   1      -4.680  -5.095  -4.563  0.00  0.00     0.000 A 
ATOM      6  C7  UNL d   1      -3.672  -5.124  -3.585  0.00  0.00    -0.073 A 
ATOM      7  C8  UNL d   1      -3.920  -5.890  -2.314  0.00  0.00     0.078 C 
ENDROOT
BRANCH   1   8
ATOM      8  C1  UNL d   1      -1.300  -4.492  -2.854  0.00  0.00     0.053 C 
ATOM      9  C   UNL d   1       0.033  -4.156  -3.505  0.00  0.00     0.018 C 
ENDBRANCH   1   8
TORSDOF 1
ENDMDL
