MODEL 1
REMARK minimizedAffinity 16.794405
REMARK minimizedRMSD -1
REMARK  1 active torsions:
REMARK  status: ('A' for Active; 'I' for Inactive)
REMARK    1  A    between atoms: C1_2  and  C2_3 
ROOT
ATOM      1  C2  UNL d   1      -2.442  -3.221  -3.941  0.00  0.00    -0.076 A 
ATOM      2  C3  UNL d   1      -2.553  -2.468  -5.122  0.00  0.00     0.004 A 
ATOM      3  C4  UNL d   1      -3.622  -2.658  -5.997  0.00  0.00    -0.003 A 
ATOM      4  C5  UNL d   1      -4.598  -3.605  -5.703  0.00  0.00     0.000 A 
ATOM      5  C6  UNL d   1      -4.513  -4.348  -4.527  0.00  0.00     0.000 A 
ATOM      6  C7  UNL d   1      -3.450  -4.158  -3.626  0.00  0.00    -0.073 A 
ATOM      7  C8  UNL d   1      -3.405  -4.992  -2.376  0.00  0.00     0.078 C 
ENDROOT
BRANCH   1   8
ATOM      8  C1  UNL d   1      -1.246  -2.990  -3.045  0.00  0.00     0.053 C 
ATOM      9  C   UNL d   1      -0.125  -3.984  -3.302  0.00  0.00     0.018 C 
ENDBRANCH   1   8
TORSDOF 1
ENDMDL
