MODEL 1
REMARK minimizedAffinity 13.9117918
REMARK minimizedRMSD -1
REMARK  1 active torsions:
REMARK  status: ('A' for Active; 'I' for Inactive)
REMARK    1  A    between atoms: C1_2  and  C2_3 
ROOT
ATOM      1  C2  UNL d   1      -2.266  -0.244   3.206  0.00  0.00    -0.076 A 
ATOM      2  C3  UNL d   1      -1.036  -0.922   3.145  0.00  0.00     0.004 A 
ATOM      3  C4  UNL d   1       0.152  -0.233   2.908  0.00  0.00    -0.003 A 
ATOM      4  C5  UNL d   1       0.130   1.146   2.730  0.00  0.00     0.000 A 
ATOM      5  C6  UNL d   1      -1.079   1.837   2.805  0.00  0.00     0.000 A 
ATOM      6  C7  UNL d   1      -2.283   1.160   3.060  0.00  0.00    -0.073 A 
ATOM      7  C8  UNL d   1      -3.559   1.954   3.125  0.00  0.00     0.078 C 
ENDROOT
BRANCH   1   8
ATOM      8  C1  UNL d   1      -3.525  -1.048   3.439  0.00  0.00     0.053 C 
ATOM      9  C   UNL d   1      -3.362  -2.079   4.545  0.00  0.00     0.018 C 
ENDBRANCH   1   8
TORSDOF 1
ENDMDL
