MODEL 1
REMARK minimizedAffinity 2.47583508
REMARK minimizedRMSD -1
REMARK  1 active torsions:
REMARK  status: ('A' for Active; 'I' for Inactive)
REMARK    1  A    between atoms: C1_2  and  C2_3 
ROOT
ATOM      1  C2  UNL d   1      -3.514  -4.331  -4.230  0.00  0.00    -0.076 A 
ATOM      2  C3  UNL d   1      -3.231  -5.198  -3.160  0.00  0.00     0.004 A 
ATOM      3  C4  UNL d   1      -1.921  -5.410  -2.735  0.00  0.00    -0.003 A 
ATOM      4  C5  UNL d   1      -0.871  -4.758  -3.373  0.00  0.00     0.000 A 
ATOM      5  C6  UNL d   1      -1.134  -3.881  -4.425  0.00  0.00     0.000 A 
ATOM      6  C7  UNL d   1      -2.451  -3.644  -4.855  0.00  0.00    -0.073 A 
ATOM      7  C8  UNL d   1      -2.677  -2.693  -5.999  0.00  0.00     0.078 C 
ENDROOT
BRANCH   1   8
ATOM      8  C1  UNL d   1      -4.952  -4.161  -4.665  0.00  0.00     0.053 C 
ATOM      9  C   UNL d   1      -5.240  -4.830  -6.000  0.00  0.00     0.018 C 
ENDBRANCH   1   8
TORSDOF 1
ENDMDL
