MODEL 1
REMARK minimizedAffinity 8.14908314
REMARK minimizedRMSD -1
REMARK  1 active torsions:
REMARK  status: ('A' for Active; 'I' for Inactive)
REMARK    1  A    between atoms: C1_2  and  C2_3 
ROOT
ATOM      1  C2  UNL d   1      -4.018  -4.464  -4.945  0.00  0.00    -0.076 A 
ATOM      2  C3  UNL d   1      -3.987  -5.513  -4.009  0.00  0.00     0.004 A 
ATOM      3  C4  UNL d   1      -2.874  -5.716  -3.196  0.00  0.00    -0.003 A 
ATOM      4  C5  UNL d   1      -1.773  -4.873  -3.304  0.00  0.00     0.000 A 
ATOM      5  C6  UNL d   1      -1.794  -3.817  -4.215  0.00  0.00     0.000 A 
ATOM      6  C7  UNL d   1      -2.915  -3.588  -5.031  0.00  0.00    -0.073 A 
ATOM      7  C8  UNL d   1      -2.880  -2.438  -5.999  0.00  0.00     0.078 C 
ENDROOT
BRANCH   1   8
ATOM      8  C1  UNL d   1      -5.242  -4.309  -5.819  0.00  0.00     0.053 C 
ATOM      9  C   UNL d   1      -6.000  -5.616  -5.997  0.00  0.00     0.018 C 
ENDBRANCH   1   8
TORSDOF 1
ENDMDL
