MODEL 1
REMARK minimizedAffinity 5.22311211
REMARK minimizedRMSD -1
REMARK  1 active torsions:
REMARK  status: ('A' for Active; 'I' for Inactive)
REMARK    1  A    between atoms: C1_2  and  C2_3 
ROOT
ATOM      1  C2  UNL d   1      -2.466  -5.018  -3.004  0.00  0.00    -0.076 A 
ATOM      2  C3  UNL d   1      -3.774  -4.825  -3.479  0.00  0.00     0.004 A 
ATOM      3  C4  UNL d   1      -4.040  -3.914  -4.501  0.00  0.00    -0.003 A 
ATOM      4  C5  UNL d   1      -3.000  -3.183  -5.064  0.00  0.00     0.000 A 
ATOM      5  C6  UNL d   1      -1.693  -3.375  -4.617  0.00  0.00     0.000 A 
ATOM      6  C7  UNL d   1      -1.406  -4.300  -3.599  0.00  0.00    -0.073 A 
ATOM      7  C8  UNL d   1       0.020  -4.463  -3.151  0.00  0.00     0.078 C 
ENDROOT
BRANCH   1   8
ATOM      8  C1  UNL d   1      -2.243  -6.000  -1.875  0.00  0.00     0.053 C 
ATOM      9  C   UNL d   1      -3.013  -5.626  -0.618  0.00  0.00     0.018 C 
ENDBRANCH   1   8
TORSDOF 1
ENDMDL
