MODEL 1
REMARK minimizedAffinity 21.2960739
REMARK minimizedRMSD -1
REMARK  1 active torsions:
REMARK  status: ('A' for Active; 'I' for Inactive)
REMARK    1  A    between atoms: C1_2  and  C2_3 
ROOT
ATOM      1  C2  UNL d   1      -4.429  -0.915   2.701  0.00  0.00    -0.076 A 
ATOM      2  C3  UNL d   1      -4.151  -0.251   1.493  0.00  0.00     0.004 A 
ATOM      3  C4  UNL d   1      -3.104   0.665   1.403  0.00  0.00    -0.003 A 
ATOM      4  C5  UNL d   1      -2.319   0.932   2.519  0.00  0.00     0.000 A 
ATOM      5  C6  UNL d   1      -2.570   0.270   3.720  0.00  0.00     0.000 A 
ATOM      6  C7  UNL d   1      -3.611  -0.669   3.824  0.00  0.00    -0.073 A 
ATOM      7  C8  UNL d   1      -3.841  -1.349   5.146  0.00  0.00     0.078 C 
ENDROOT
BRANCH   1   8
ATOM      8  C1  UNL d   1      -5.594  -1.878   2.746  0.00  0.00     0.053 C 
ATOM      9  C   UNL d   1      -5.997  -2.371   1.365  0.00  0.00     0.018 C 
ENDBRANCH   1   8
TORSDOF 1
ENDMDL
