MODEL 1
REMARK minimizedAffinity 5.99633694
REMARK minimizedRMSD -1
REMARK  1 active torsions:
REMARK  status: ('A' for Active; 'I' for Inactive)
REMARK    1  A    between atoms: C1_2  and  C2_3 
ROOT
ATOM      1  C2  UNL d   1      -2.380   0.435   2.156  0.00  0.00    -0.076 A 
ATOM      2  C3  UNL d   1      -1.227  -0.039   1.507  0.00  0.00     0.004 A 
ATOM      3  C4  UNL d   1       0.039   0.417   1.869  0.00  0.00    -0.003 A 
ATOM      4  C5  UNL d   1       0.173   1.356   2.886  0.00  0.00     0.000 A 
ATOM      5  C6  UNL d   1      -0.958   1.824   3.553  0.00  0.00     0.000 A 
ATOM      6  C7  UNL d   1      -2.241   1.362   3.212  0.00  0.00    -0.073 A 
ATOM      7  C8  UNL d   1      -3.427   1.906   3.960  0.00  0.00     0.078 C 
ENDROOT
BRANCH   1   8
ATOM      8  C1  UNL d   1      -3.729  -0.076   1.703  0.00  0.00     0.053 C 
ATOM      9  C   UNL d   1      -4.245  -1.211   2.574  0.00  0.00     0.018 C 
ENDBRANCH   1   8
TORSDOF 1
ENDMDL
