MODEL 1
REMARK minimizedAffinity 13.4668083
REMARK minimizedRMSD -1
REMARK  1 active torsions:
REMARK  status: ('A' for Active; 'I' for Inactive)
REMARK    1  A    between atoms: C1_2  and  C2_3 
ROOT
ATOM      1  C2  UNL d   1      -4.265  -5.144  -3.980  0.00  0.00    -0.076 A 
ATOM      2  C3  UNL d   1      -5.155  -6.000  -4.653  0.00  0.00     0.004 A 
ATOM      3  C4  UNL d   1      -5.996  -5.517  -5.654  0.00  0.00    -0.003 A 
ATOM      4  C5  UNL d   1      -5.960  -4.171  -6.000  0.00  0.00     0.000 A 
ATOM      5  C6  UNL d   1      -5.072  -3.311  -5.356  0.00  0.00     0.000 A 
ATOM      6  C7  UNL d   1      -4.205  -3.784  -4.355  0.00  0.00    -0.073 A 
ATOM      7  C8  UNL d   1      -3.272  -2.811  -3.689  0.00  0.00     0.078 C 
ENDROOT
BRANCH   1   8
ATOM      8  C1  UNL d   1      -3.396  -5.718  -2.884  0.00  0.00     0.053 C 
ATOM      9  C   UNL d   1      -4.059  -5.646  -1.517  0.00  0.00     0.018 C 
ENDBRANCH   1   8
TORSDOF 1
ENDMDL
