MODEL 1
REMARK minimizedAffinity 16.2980499
REMARK minimizedRMSD -1
REMARK  1 active torsions:
REMARK  status: ('A' for Active; 'I' for Inactive)
REMARK    1  A    between atoms: C1_2  and  C2_3 
ROOT
ATOM      1  C2  UNL d   1      -0.032   1.824   3.558  0.00  0.00    -0.076 A 
ATOM      2  C3  UNL d   1      -0.091   2.536   4.769  0.00  0.00     0.004 A 
ATOM      3  C4  UNL d   1       0.220   1.919   5.979  0.00  0.00    -0.003 A 
ATOM      4  C5  UNL d   1       0.596   0.581   5.998  0.00  0.00     0.000 A 
ATOM      5  C6  UNL d   1       0.677  -0.136   4.805  0.00  0.00     0.000 A 
ATOM      6  C7  UNL d   1       0.382   0.475   3.574  0.00  0.00    -0.073 A 
ATOM      7  C8  UNL d   1       0.480  -0.346   2.318  0.00  0.00     0.078 C 
ENDROOT
BRANCH   1   8
ATOM      8  C1  UNL d   1      -0.407   2.539   2.279  0.00  0.00     0.053 C 
ATOM      9  C   UNL d   1       0.389   3.818   2.071  0.00  0.00     0.018 C 
ENDBRANCH   1   8
TORSDOF 1
ENDMDL
