MODEL 1
REMARK minimizedAffinity 0.319390565
REMARK minimizedRMSD -1
REMARK  1 active torsions:
REMARK  status: ('A' for Active; 'I' for Inactive)
REMARK    1  A    between atoms: C1_2  and  C2_3 
ROOT
ATOM      1  C2  UNL d   1       1.943  -4.120  -2.348  0.00  0.00    -0.076 A 
ATOM      2  C3  UNL d   1       1.513  -2.840  -1.956  0.00  0.00     0.004 A 
ATOM      3  C4  UNL d   1       2.225  -2.102  -1.012  0.00  0.00    -0.003 A 
ATOM      4  C5  UNL d   1       3.380  -2.631  -0.446  0.00  0.00     0.000 A 
ATOM      5  C6  UNL d   1       3.831  -3.892  -0.836  0.00  0.00     0.000 A 
ATOM      6  C7  UNL d   1       3.133  -4.642  -1.798  0.00  0.00    -0.073 A 
ATOM      7  C8  UNL d   1       3.662  -5.999  -2.177  0.00  0.00     0.078 C 
ENDROOT
BRANCH   1   8
ATOM      8  C1  UNL d   1       1.115  -4.885  -3.355  0.00  0.00     0.053 C 
ATOM      9  C   UNL d   1      -0.357  -4.508  -3.306  0.00  0.00     0.018 C 
ENDBRANCH   1   8
TORSDOF 1
ENDMDL
