MODEL 1
REMARK minimizedAffinity -1.58146131
REMARK minimizedRMSD -1
REMARK  0 active torsions:
REMARK  status: ('A' for Active; 'I' for Inactive)
ROOT
ATOM      1  C   UNL d   1       0.435  -0.923  -3.556  0.00  0.00     0.023 A 
ATOM      2  C1  UNL d   1       1.360  -1.617  -2.775  0.00  0.00     0.003 A 
ATOM      3  C2  UNL d   1       1.490  -1.321  -1.417  0.00  0.00     0.048 A 
ATOM      4  C3  UNL d   1       0.691  -0.331  -0.845  0.00  0.00     0.023 A 
ATOM      5  C4  UNL d   1      -0.236   0.365  -1.622  0.00  0.00     0.048 A 
ATOM      6  C5  UNL d   1      -0.362   0.067  -2.981  0.00  0.00     0.003 A 
ATOM      7  I   UNL d   1       0.882   0.111   1.177  0.00  0.00    -0.146 I 
ENDROOT
TORSDOF 0
ENDMDL
