MODEL 1
REMARK minimizedAffinity -2.32600689
REMARK minimizedRMSD -1
REMARK  0 active torsions:
REMARK  status: ('A' for Active; 'I' for Inactive)
ROOT
ATOM      1  C   UNL d   1      -0.536   0.520   2.222  0.00  0.00     0.023 A 
ATOM      2  C1  UNL d   1       0.748   0.062   1.925  0.00  0.00     0.003 A 
ATOM      3  C2  UNL d   1       1.064  -0.341   0.626  0.00  0.00     0.048 A 
ATOM      4  C3  UNL d   1       0.091  -0.284  -0.371  0.00  0.00     0.023 A 
ATOM      5  C4  UNL d   1      -1.195   0.173  -0.079  0.00  0.00     0.048 A 
ATOM      6  C5  UNL d   1      -1.506   0.575   1.222  0.00  0.00     0.003 A 
ATOM      7  I   UNL d   1       0.559  -0.884  -2.305  0.00  0.00    -0.146 I 
ENDROOT
TORSDOF 0
ENDMDL
