MODEL 1
REMARK minimizedAffinity -2.48479962
REMARK minimizedRMSD -1
REMARK  0 active torsions:
REMARK  status: ('A' for Active; 'I' for Inactive)
ROOT
ATOM      1  C   UNL d   1       0.692  -0.312  -3.450  0.00  0.00     0.023 A 
ATOM      2  C1  UNL d   1       0.947  -1.464  -2.705  0.00  0.00     0.003 A 
ATOM      3  C2  UNL d   1       0.884  -1.424  -1.311  0.00  0.00     0.048 A 
ATOM      4  C3  UNL d   1       0.566  -0.229  -0.667  0.00  0.00     0.023 A 
ATOM      5  C4  UNL d   1       0.309   0.926  -1.408  0.00  0.00     0.048 A 
ATOM      6  C5  UNL d   1       0.374   0.881  -2.802  0.00  0.00     0.003 A 
ATOM      7  I   UNL d   1       0.472  -0.167   1.408  0.00  0.00    -0.146 I 
ENDROOT
TORSDOF 0
ENDMDL
