MODEL 1
REMARK minimizedAffinity -2.3107965
REMARK minimizedRMSD -1
REMARK  0 active torsions:
REMARK  status: ('A' for Active; 'I' for Inactive)
ROOT
ATOM      1  C   UNL d   1      -1.672   0.612   2.606  0.00  0.00     0.023 A 
ATOM      2  C1  UNL d   1      -0.304   0.367   2.493  0.00  0.00     0.003 A 
ATOM      3  C2  UNL d   1       0.270   0.170   1.235  0.00  0.00     0.048 A 
ATOM      4  C3  UNL d   1      -0.530   0.222   0.094  0.00  0.00     0.023 A 
ATOM      5  C4  UNL d   1      -1.900   0.468   0.202  0.00  0.00     0.048 A 
ATOM      6  C5  UNL d   1      -2.469   0.663   1.462  0.00  0.00     0.003 A 
ATOM      7  I   UNL d   1       0.321  -0.070  -1.779  0.00  0.00    -0.146 I 
ENDROOT
TORSDOF 0
ENDMDL
