MODEL 1
REMARK minimizedAffinity -1.1637181
REMARK minimizedRMSD -1
REMARK  0 active torsions:
REMARK  status: ('A' for Active; 'I' for Inactive)
ROOT
ATOM      1  C   UNL d   1      -0.841   0.475   2.786  0.00  0.00     0.023 A 
ATOM      2  C1  UNL d   1       0.440   0.205   2.305  0.00  0.00     0.003 A 
ATOM      3  C2  UNL d   1       0.669   0.130   0.930  0.00  0.00     0.048 A 
ATOM      4  C3  UNL d   1      -0.387   0.328   0.041  0.00  0.00     0.023 A 
ATOM      5  C4  UNL d   1      -1.670   0.599   0.518  0.00  0.00     0.048 A 
ATOM      6  C5  UNL d   1      -1.895   0.672   1.894  0.00  0.00     0.003 A 
ATOM      7  I   UNL d   1      -0.049   0.217  -2.007  0.00  0.00    -0.146 I 
ENDROOT
TORSDOF 0
ENDMDL
