MODEL 1
REMARK minimizedAffinity -2.79779363
REMARK minimizedRMSD -1
REMARK  0 active torsions:
REMARK  status: ('A' for Active; 'I' for Inactive)
ROOT
ATOM      1  C   UNL d   1      -2.025   0.633   3.254  0.00  0.00     0.023 A 
ATOM      2  C1  UNL d   1      -0.669   0.304   3.249  0.00  0.00     0.003 A 
ATOM      3  C2  UNL d   1      -0.006   0.087   2.040  0.00  0.00     0.048 A 
ATOM      4  C3  UNL d   1      -0.705   0.202   0.838  0.00  0.00     0.023 A 
ATOM      5  C4  UNL d   1      -2.061   0.531   0.838  0.00  0.00     0.048 A 
ATOM      6  C5  UNL d   1      -2.720   0.746   2.050  0.00  0.00     0.003 A 
ATOM      7  I   UNL d   1       0.280  -0.120  -0.964  0.00  0.00    -0.146 I 
ENDROOT
TORSDOF 0
ENDMDL
