MODEL 1
REMARK minimizedAffinity -3.12407494
REMARK minimizedRMSD -1
REMARK  0 active torsions:
REMARK  status: ('A' for Active; 'I' for Inactive)
ROOT
ATOM      1  C   UNL d   1       0.980  -0.019   1.273  0.00  0.00     0.023 A 
ATOM      2  C1  UNL d   1      -0.102   0.357   0.478  0.00  0.00     0.003 A 
ATOM      3  C2  UNL d   1      -0.148  -0.021  -0.865  0.00  0.00     0.048 A 
ATOM      4  C3  UNL d   1       0.893  -0.775  -1.407  0.00  0.00     0.023 A 
ATOM      5  C4  UNL d   1       1.978  -1.154  -0.615  0.00  0.00     0.048 A 
ATOM      6  C5  UNL d   1       2.019  -0.774   0.727  0.00  0.00     0.003 A 
ATOM      7  I   UNL d   1       0.827  -1.338  -3.407  0.00  0.00    -0.146 I 
ENDROOT
TORSDOF 0
ENDMDL
