MODEL 1
REMARK minimizedAffinity 0.850325942
REMARK minimizedRMSD -1
REMARK  0 active torsions:
REMARK  status: ('A' for Active; 'I' for Inactive)
ROOT
ATOM      1  C   UNL d   1       0.837   0.264   1.611  0.00  0.00     0.023 A 
ATOM      2  C1  UNL d   1       1.761  -0.708   1.226  0.00  0.00     0.003 A 
ATOM      3  C2  UNL d   1       1.826  -1.123  -0.105  0.00  0.00     0.048 A 
ATOM      4  C3  UNL d   1       0.964  -0.562  -1.047  0.00  0.00     0.023 A 
ATOM      5  C4  UNL d   1       0.039   0.412  -0.667  0.00  0.00     0.048 A 
ATOM      6  C5  UNL d   1      -0.023   0.823   0.666  0.00  0.00     0.003 A 
ATOM      7  I   UNL d   1       1.058  -1.178  -3.030  0.00  0.00    -0.146 I 
ENDROOT
TORSDOF 0
ENDMDL
