MODEL 1
REMARK minimizedAffinity -3.76289201
REMARK minimizedRMSD -1
REMARK  0 active torsions:
REMARK  status: ('A' for Active; 'I' for Inactive)
ROOT
ATOM      1  C   UNL d   1      -0.029  -0.477  -2.981  0.00  0.00     0.023 A 
ATOM      2  C1  UNL d   1       0.374  -1.573  -2.217  0.00  0.00     0.003 A 
ATOM      3  C2  UNL d   1       0.414  -1.478  -0.825  0.00  0.00     0.048 A 
ATOM      4  C3  UNL d   1       0.050  -0.284  -0.202  0.00  0.00     0.023 A 
ATOM      5  C4  UNL d   1      -0.355   0.814  -0.962  0.00  0.00     0.048 A 
ATOM      6  C5  UNL d   1      -0.393   0.715  -2.354  0.00  0.00     0.003 A 
ATOM      7  I   UNL d   1       0.109  -0.141   1.871  0.00  0.00    -0.146 I 
ENDROOT
TORSDOF 0
ENDMDL
