MODEL 1
REMARK minimizedAffinity -3.08556271
REMARK minimizedRMSD -1
REMARK  0 active torsions:
REMARK  status: ('A' for Active; 'I' for Inactive)
ROOT
ATOM      1  C   UNL d   1      -1.363   0.633   2.745  0.00  0.00     0.023 A 
ATOM      2  C1  UNL d   1       0.014   0.466   2.603  0.00  0.00     0.003 A 
ATOM      3  C2  UNL d   1       0.578   0.358   1.330  0.00  0.00     0.048 A 
ATOM      4  C3  UNL d   1      -0.241   0.419   0.203  0.00  0.00     0.023 A 
ATOM      5  C4  UNL d   1      -1.620   0.587   0.341  0.00  0.00     0.048 A 
ATOM      6  C5  UNL d   1      -2.179   0.694   1.615  0.00  0.00     0.003 A 
ATOM      7  I   UNL d   1       0.596   0.259  -1.692  0.00  0.00    -0.146 I 
ENDROOT
TORSDOF 0
ENDMDL
