MODEL 1
REMARK minimizedAffinity 0.368311107
REMARK minimizedRMSD -1
REMARK  0 active torsions:
REMARK  status: ('A' for Active; 'I' for Inactive)
ROOT
ATOM      1  C   UNL d   1      -0.608   0.416   3.247  0.00  0.00     0.023 A 
ATOM      2  C1  UNL d   1       0.680   0.172   2.770  0.00  0.00     0.003 A 
ATOM      3  C2  UNL d   1       0.913   0.087   1.396  0.00  0.00     0.048 A 
ATOM      4  C3  UNL d   1      -0.147   0.249   0.504  0.00  0.00     0.023 A 
ATOM      5  C4  UNL d   1      -1.437   0.495   0.977  0.00  0.00     0.048 A 
ATOM      6  C5  UNL d   1      -1.665   0.577   2.352  0.00  0.00     0.003 A 
ATOM      7  I   UNL d   1       0.197   0.125  -1.542  0.00  0.00    -0.146 I 
ENDROOT
TORSDOF 0
ENDMDL
