MODEL 1
REMARK minimizedAffinity -0.107323356
REMARK minimizedRMSD -1
REMARK  0 active torsions:
REMARK  status: ('A' for Active; 'I' for Inactive)
ROOT
ATOM      1  C   UNL d   1       0.616   0.342   2.243  0.00  0.00     0.023 A 
ATOM      2  C1  UNL d   1      -0.108   1.087   1.312  0.00  0.00     0.003 A 
ATOM      3  C2  UNL d   1      -0.071   0.743  -0.041  0.00  0.00     0.048 A 
ATOM      4  C3  UNL d   1       0.690  -0.349  -0.456  0.00  0.00     0.023 A 
ATOM      5  C4  UNL d   1       1.415  -1.099   0.472  0.00  0.00     0.048 A 
ATOM      6  C5  UNL d   1       1.377  -0.750   1.823  0.00  0.00     0.003 A 
ATOM      7  I   UNL d   1       0.746  -0.864  -2.469  0.00  0.00    -0.146 I 
ENDROOT
TORSDOF 0
ENDMDL
