MODEL 1
REMARK minimizedAffinity -2.45108008
REMARK minimizedRMSD -1
REMARK  0 active torsions:
REMARK  status: ('A' for Active; 'I' for Inactive)
ROOT
ATOM      1  C   UNL d   1       0.943  -1.636  -4.458  0.00  0.00     0.023 A 
ATOM      2  C1  UNL d   1       0.170  -2.293  -3.501  0.00  0.00     0.003 A 
ATOM      3  C2  UNL d   1      -0.002  -1.731  -2.234  0.00  0.00     0.048 A 
ATOM      4  C3  UNL d   1       0.602  -0.510  -1.932  0.00  0.00     0.023 A 
ATOM      5  C4  UNL d   1       1.375   0.151  -2.887  0.00  0.00     0.048 A 
ATOM      6  C5  UNL d   1       1.545  -0.415  -4.152  0.00  0.00     0.003 A 
ATOM      7  I   UNL d   1       0.348   0.329  -0.048  0.00  0.00    -0.146 I 
ENDROOT
TORSDOF 0
ENDMDL
