MODEL 1
REMARK minimizedAffinity -1.12599874
REMARK minimizedRMSD -1
REMARK  0 active torsions:
REMARK  status: ('A' for Active; 'I' for Inactive)
ROOT
ATOM      1  C   UNL d   1      -0.385   0.406   2.861  0.00  0.00     0.023 A 
ATOM      2  C1  UNL d   1      -1.309   0.653   1.845  0.00  0.00     0.003 A 
ATOM      3  C2  UNL d   1      -0.937   0.495   0.509  0.00  0.00     0.048 A 
ATOM      4  C3  UNL d   1       0.360   0.089   0.195  0.00  0.00     0.023 A 
ATOM      5  C4  UNL d   1       1.287  -0.160   1.209  0.00  0.00     0.048 A 
ATOM      6  C5  UNL d   1       0.911   0.001   2.543  0.00  0.00     0.003 A 
ATOM      7  I   UNL d   1       0.916  -0.147  -1.794  0.00  0.00    -0.146 I 
ENDROOT
TORSDOF 0
ENDMDL
