MODEL 1
REMARK minimizedAffinity -2.93182302
REMARK minimizedRMSD -1
REMARK  0 active torsions:
REMARK  status: ('A' for Active; 'I' for Inactive)
ROOT
ATOM      1  C   UNL d   1      -1.306   0.483   2.701  0.00  0.00     0.023 A 
ATOM      2  C1  UNL d   1       0.068   0.304   2.536  0.00  0.00     0.003 A 
ATOM      3  C2  UNL d   1       0.594   0.066   1.265  0.00  0.00     0.048 A 
ATOM      4  C3  UNL d   1      -0.258   0.010   0.162  0.00  0.00     0.023 A 
ATOM      5  C4  UNL d   1      -1.633   0.190   0.323  0.00  0.00     0.048 A 
ATOM      6  C5  UNL d   1      -2.155   0.426   1.596  0.00  0.00     0.003 A 
ATOM      7  I   UNL d   1       0.524  -0.343  -1.731  0.00  0.00    -0.146 I 
ENDROOT
TORSDOF 0
ENDMDL
