MODEL 1
REMARK minimizedAffinity -3.86914968
REMARK minimizedRMSD -1
REMARK  0 active torsions:
REMARK  status: ('A' for Active; 'I' for Inactive)
ROOT
ATOM      1  C   UNL d   1       0.240  -0.285   1.337  0.00  0.00     0.023 A 
ATOM      2  C1  UNL d   1      -0.650   0.253   0.407  0.00  0.00     0.003 A 
ATOM      3  C2  UNL d   1      -0.351   0.206  -0.956  0.00  0.00     0.048 A 
ATOM      4  C3  UNL d   1       0.839  -0.383  -1.383  0.00  0.00     0.023 A 
ATOM      5  C4  UNL d   1       1.732  -0.924  -0.457  0.00  0.00     0.048 A 
ATOM      6  C5  UNL d   1       1.429  -0.873   0.905  0.00  0.00     0.003 A 
ATOM      7  I   UNL d   1       1.286  -0.455  -3.411  0.00  0.00    -0.146 I 
ENDROOT
TORSDOF 0
ENDMDL
