MODEL 1
REMARK minimizedAffinity -2.94418359
REMARK minimizedRMSD -1
REMARK  1 active torsions:
REMARK  status: ('A' for Active; 'I' for Inactive)
REMARK    1  A    between atoms: C3_4  and  O_7 
ROOT
ATOM      1  C   UNL d   1       0.507  -0.406  -0.565  0.00  0.00    -0.033 A 
ATOM      2  C1  UNL d   1       1.216  -0.067   0.589  0.00  0.00     0.039 A 
ATOM      3  C2  UNL d   1       0.545   0.461   1.693  0.00  0.00    -0.080 A 
ATOM      4  C3  UNL d   1      -0.833   0.644   1.632  0.00  0.00     0.150 A 
ATOM      5  C4  UNL d   1      -1.547   0.305   0.487  0.00  0.00    -0.007 A 
ATOM      6  C5  UNL d   1      -0.875  -0.221  -0.615  0.00  0.00     0.039 A 
ENDROOT
BRANCH   4   7
ATOM      7  O   UNL d   1      -1.531   1.161   2.683  0.00  0.00    -0.526 OA
ATOM      8  H5  UNL d   1      -0.903   1.375   3.393  0.00  0.00     0.418 HD
ENDBRANCH   4   7
TORSDOF 1
ENDMDL
