MODEL 1
REMARK minimizedAffinity -4.73611927
REMARK minimizedRMSD -1
REMARK  1 active torsions:
REMARK  status: ('A' for Active; 'I' for Inactive)
REMARK    1  A    between atoms: C3_4  and  O_7 
ROOT
ATOM      1  C   UNL d   1      -0.360  -0.290  -0.128  0.00  0.00    -0.033 A 
ATOM      2  C1  UNL d   1       0.715   0.446   0.374  0.00  0.00     0.039 A 
ATOM      3  C2  UNL d   1       0.564   1.201   1.539  0.00  0.00    -0.080 A 
ATOM      4  C3  UNL d   1      -0.665   1.210   2.193  0.00  0.00     0.150 A 
ATOM      5  C4  UNL d   1      -1.739   0.476   1.701  0.00  0.00    -0.007 A 
ATOM      6  C5  UNL d   1      -1.587  -0.277   0.537  0.00  0.00     0.039 A 
ENDROOT
BRANCH   4   7
ATOM      7  O   UNL d   1      -0.861   1.935   3.330  0.00  0.00    -0.526 OA
ATOM      8  H5  UNL d   1      -0.041   2.414   3.535  0.00  0.00     0.418 HD
ENDBRANCH   4   7
TORSDOF 1
ENDMDL
