MODEL 1
REMARK minimizedAffinity -3.54430532
REMARK minimizedRMSD -1
REMARK  1 active torsions:
REMARK  status: ('A' for Active; 'I' for Inactive)
REMARK    1  A    between atoms: C3_4  and  O_7 
ROOT
ATOM      1  C   UNL d   1      -1.305   0.653   2.163  0.00  0.00    -0.033 A 
ATOM      2  C1  UNL d   1       0.091   0.632   2.166  0.00  0.00     0.039 A 
ATOM      3  C2  UNL d   1       0.790   0.349   0.990  0.00  0.00    -0.080 A 
ATOM      4  C3  UNL d   1       0.082   0.090  -0.180  0.00  0.00     0.150 A 
ATOM      5  C4  UNL d   1      -1.309   0.114  -0.191  0.00  0.00    -0.007 A 
ATOM      6  C5  UNL d   1      -2.005   0.396   0.984  0.00  0.00     0.039 A 
ENDROOT
BRANCH   4   7
ATOM      7  O   UNL d   1       0.719  -0.196  -1.350  0.00  0.00    -0.526 OA
ATOM      8  H5  UNL d   1       1.677  -0.205  -1.185  0.00  0.00     0.418 HD
ENDBRANCH   4   7
TORSDOF 1
ENDMDL
