MODEL 1
REMARK minimizedAffinity -0.275011301
REMARK minimizedRMSD -1
REMARK  1 active torsions:
REMARK  status: ('A' for Active; 'I' for Inactive)
REMARK    1  A    between atoms: C3_4  and  O_7 
ROOT
ATOM      1  C   UNL d   1       0.290  -0.574  -1.582  0.00  0.00    -0.033 A 
ATOM      2  C1  UNL d   1      -1.092  -0.404  -1.472  0.00  0.00     0.039 A 
ATOM      3  C2  UNL d   1      -1.657  -0.042  -0.248  0.00  0.00    -0.080 A 
ATOM      4  C3  UNL d   1      -0.832   0.149   0.856  0.00  0.00     0.150 A 
ATOM      5  C4  UNL d   1       0.546  -0.015   0.753  0.00  0.00    -0.007 A 
ATOM      6  C5  UNL d   1       1.109  -0.378  -0.469  0.00  0.00     0.039 A 
ENDROOT
BRANCH   4   7
ATOM      7  O   UNL d   1      -1.338   0.499   2.073  0.00  0.00    -0.526 OA
ATOM      8  H5  UNL d   1      -2.306   0.548   2.001  0.00  0.00     0.418 HD
ENDBRANCH   4   7
TORSDOF 1
ENDMDL
