MODEL 1
REMARK minimizedAffinity -2.8415575
REMARK minimizedRMSD -1
REMARK  1 active torsions:
REMARK  status: ('A' for Active; 'I' for Inactive)
REMARK    1  A    between atoms: C3_4  and  O_7 
ROOT
ATOM      1  C   UNL d   1      -0.384  -0.582  -0.915  0.00  0.00    -0.033 A 
ATOM      2  C1  UNL d   1       0.744  -0.132  -0.227  0.00  0.00     0.039 A 
ATOM      3  C2  UNL d   1       0.598   0.660   0.914  0.00  0.00    -0.080 A 
ATOM      4  C3  UNL d   1      -0.679   0.993   1.355  0.00  0.00     0.150 A 
ATOM      5  C4  UNL d   1      -1.808   0.545   0.677  0.00  0.00    -0.007 A 
ATOM      6  C5  UNL d   1      -1.660  -0.245  -0.462  0.00  0.00     0.039 A 
ENDROOT
BRANCH   4   7
ATOM      7  O   UNL d   1      -0.871   1.768   2.461  0.00  0.00    -0.526 OA
ATOM      8  H5  UNL d   1      -0.002   2.028   2.809  0.00  0.00     0.418 HD
ENDBRANCH   4   7
TORSDOF 1
ENDMDL
