MODEL 1
REMARK minimizedAffinity -3.64924765
REMARK minimizedRMSD -1
REMARK  1 active torsions:
REMARK  status: ('A' for Active; 'I' for Inactive)
REMARK    1  A    between atoms: C3_4  and  O_7 
ROOT
ATOM      1  C   UNL d   1      -0.452  -0.742  -1.077  0.00  0.00    -0.033 A 
ATOM      2  C1  UNL d   1       0.780  -0.587  -0.438  0.00  0.00     0.039 A 
ATOM      3  C2  UNL d   1       0.833  -0.111   0.874  0.00  0.00    -0.080 A 
ATOM      4  C3  UNL d   1      -0.350   0.204   1.535  0.00  0.00     0.150 A 
ATOM      5  C4  UNL d   1      -1.581   0.048   0.906  0.00  0.00    -0.007 A 
ATOM      6  C5  UNL d   1      -1.633  -0.426  -0.404  0.00  0.00     0.039 A 
ENDROOT
BRANCH   4   7
ATOM      7  O   UNL d   1      -0.348   0.675   2.814  0.00  0.00    -0.526 OA
ATOM      8  H5  UNL d   1       0.574   0.758   3.110  0.00  0.00     0.418 HD
ENDBRANCH   4   7
TORSDOF 1
ENDMDL
