MODEL 1
REMARK minimizedAffinity -2.9574573
REMARK minimizedRMSD -1
REMARK  1 active torsions:
REMARK  status: ('A' for Active; 'I' for Inactive)
REMARK    1  A    between atoms: C3_4  and  O_7 
ROOT
ATOM      1  C   UNL d   1      -1.607  -0.127   0.311  0.00  0.00    -0.033 A 
ATOM      2  C1  UNL d   1      -0.582   0.809   0.455  0.00  0.00     0.039 A 
ATOM      3  C2  UNL d   1      -0.340   1.397   1.698  0.00  0.00    -0.080 A 
ATOM      4  C3  UNL d   1      -1.129   1.040   2.788  0.00  0.00     0.150 A 
ATOM      5  C4  UNL d   1      -2.150   0.105   2.653  0.00  0.00    -0.007 A 
ATOM      6  C5  UNL d   1      -2.391  -0.480   1.410  0.00  0.00     0.039 A 
ENDROOT
BRANCH   4   7
ATOM      7  O   UNL d   1      -0.934   1.591   4.020  0.00  0.00    -0.526 OA
ATOM      8  H5  UNL d   1      -0.214   2.240   3.956  0.00  0.00     0.418 HD
ENDBRANCH   4   7
TORSDOF 1
ENDMDL
