MODEL 1
REMARK minimizedAffinity -3.84042621
REMARK minimizedRMSD -1
REMARK  1 active torsions:
REMARK  status: ('A' for Active; 'I' for Inactive)
REMARK    1  A    between atoms: C3_4  and  O_7 
ROOT
ATOM      1  C   UNL d   1      -0.629  -0.106  -0.286  0.00  0.00    -0.033 A 
ATOM      2  C1  UNL d   1       0.379   0.757   0.146  0.00  0.00     0.039 A 
ATOM      3  C2  UNL d   1       0.243   1.442   1.355  0.00  0.00    -0.080 A 
ATOM      4  C3  UNL d   1      -0.904   1.255   2.122  0.00  0.00     0.150 A 
ATOM      5  C4  UNL d   1      -1.911   0.393   1.699  0.00  0.00    -0.007 A 
ATOM      6  C5  UNL d   1      -1.774  -0.290   0.491  0.00  0.00     0.039 A 
ENDROOT
BRANCH   4   7
ATOM      7  O   UNL d   1      -1.084   1.905   3.306  0.00  0.00    -0.526 OA
ATOM      8  H5  UNL d   1      -0.321   2.488   3.456  0.00  0.00     0.418 HD
ENDBRANCH   4   7
TORSDOF 1
ENDMDL
