MODEL 1
REMARK minimizedAffinity -4.78039694
REMARK minimizedRMSD -1
REMARK  1 active torsions:
REMARK  status: ('A' for Active; 'I' for Inactive)
REMARK    1  A    between atoms: C3_4  and  O_7 
ROOT
ATOM      1  C   UNL d   1       0.322  -0.158  -0.317  0.00  0.00    -0.033 A 
ATOM      2  C1  UNL d   1      -1.069  -0.078  -0.231  0.00  0.00     0.039 A 
ATOM      3  C2  UNL d   1      -1.667   0.594   0.837  0.00  0.00    -0.080 A 
ATOM      4  C3  UNL d   1      -0.864   1.180   1.811  0.00  0.00     0.150 A 
ATOM      5  C4  UNL d   1       0.523   1.107   1.730  0.00  0.00    -0.007 A 
ATOM      6  C5  UNL d   1       1.118   0.436   0.663  0.00  0.00     0.039 A 
ENDROOT
BRANCH   4   7
ATOM      7  O   UNL d   1      -1.402   1.842   2.875  0.00  0.00    -0.526 OA
ATOM      8  H5  UNL d   1      -2.370   1.786   2.814  0.00  0.00     0.418 HD
ENDBRANCH   4   7
TORSDOF 1
ENDMDL
