MODEL 1
REMARK minimizedAffinity 6.06884861
REMARK minimizedRMSD -1
REMARK  1 active torsions:
REMARK  status: ('A' for Active; 'I' for Inactive)
REMARK    1  A    between atoms: C1_2  and  C2_3 
ROOT
ATOM      1  C2  UNL d   1      -2.663   0.046  -0.251  0.00  0.00    -0.081 A 
ATOM      2  C3  UNL d   1      -1.887   1.201  -0.097  0.00  0.00     0.006 A 
ATOM      3  C4  UNL d   1      -0.799   1.212   0.779  0.00  0.00     0.002 A 
ATOM      4  C5  UNL d   1      -0.464   0.066   1.509  0.00  0.00    -0.080 A 
ATOM      5  C6  UNL d   1       0.719   0.055   2.430  0.00  0.00     0.076 C 
ATOM      6  C7  UNL d   1      -1.250  -1.083   1.368  0.00  0.00     0.002 A 
ATOM      7  C8  UNL d   1      -2.338  -1.094   0.493  0.00  0.00     0.006 A 
ENDROOT
BRANCH   1   8
ATOM      8  C1  UNL d   1      -3.798   0.011  -1.243  0.00  0.00     0.054 C 
ATOM      9  C   UNL d   1      -3.300  -0.327  -2.641  0.00  0.00     0.018 C 
ENDBRANCH   1   8
TORSDOF 1
ENDMDL
