MODEL 1
REMARK minimizedAffinity -0.62565434
REMARK minimizedRMSD -1
REMARK  1 active torsions:
REMARK  status: ('A' for Active; 'I' for Inactive)
REMARK    1  A    between atoms: C1_2  and  C2_3 
ROOT
ATOM      1  C2  UNL d   1      -1.717  -2.641   0.641  0.00  0.00    -0.081 A 
ATOM      2  C3  UNL d   1      -0.448  -3.231   0.690  0.00  0.00     0.006 A 
ATOM      3  C4  UNL d   1       0.617  -2.571   1.306  0.00  0.00     0.002 A 
ATOM      4  C5  UNL d   1       0.430  -1.313   1.891  0.00  0.00    -0.080 A 
ATOM      5  C6  UNL d   1       1.558  -0.607   2.582  0.00  0.00     0.076 C 
ATOM      6  C7  UNL d   1      -0.833  -0.716   1.826  0.00  0.00     0.002 A 
ATOM      7  C8  UNL d   1      -1.898  -1.376   1.209  0.00  0.00     0.006 A 
ENDROOT
BRANCH   1   8
ATOM      8  C1  UNL d   1      -2.882  -3.379   0.034  0.00  0.00     0.054 C 
ATOM      9  C   UNL d   1      -2.741  -3.490  -1.478  0.00  0.00     0.018 C 
ENDBRANCH   1   8
TORSDOF 1
ENDMDL
