MODEL 1
REMARK minimizedAffinity 8.61171246
REMARK minimizedRMSD -1
REMARK  1 active torsions:
REMARK  status: ('A' for Active; 'I' for Inactive)
REMARK    1  A    between atoms: C1_2  and  C2_3 
ROOT
ATOM      1  C2  UNL d   1      -5.554   5.153  -2.051  0.00  0.00    -0.081 A 
ATOM      2  C3  UNL d   1      -5.692   5.619  -3.364  0.00  0.00     0.006 A 
ATOM      3  C4  UNL d   1      -5.334   4.809  -4.444  0.00  0.00     0.002 A 
ATOM      4  C5  UNL d   1      -4.839   3.518  -4.230  0.00  0.00    -0.080 A 
ATOM      5  C6  UNL d   1      -4.479   2.628  -5.382  0.00  0.00     0.076 C 
ATOM      6  C7  UNL d   1      -4.684   3.059  -2.918  0.00  0.00     0.002 A 
ATOM      7  C8  UNL d   1      -5.041   3.869  -1.837  0.00  0.00     0.006 A 
ENDROOT
BRANCH   1   8
ATOM      8  C1  UNL d   1      -6.000   6.000  -0.886  0.00  0.00     0.054 C 
ATOM      9  C   UNL d   1      -6.000   5.202   0.410  0.00  0.00     0.018 C 
ENDBRANCH   1   8
TORSDOF 1
ENDMDL
