MODEL 1
REMARK minimizedAffinity 3.96162748
REMARK minimizedRMSD -1
REMARK  1 active torsions:
REMARK  status: ('A' for Active; 'I' for Inactive)
REMARK    1  A    between atoms: C1_2  and  C2_3 
ROOT
ATOM      1  C2  UNL d   1       4.748   3.445  -2.929  0.00  0.00    -0.081 A 
ATOM      2  C3  UNL d   1       5.865   4.254  -2.690  0.00  0.00     0.006 A 
ATOM      3  C4  UNL d   1       5.999   4.937  -1.479  0.00  0.00     0.002 A 
ATOM      4  C5  UNL d   1       5.023   4.815  -0.484  0.00  0.00    -0.080 A 
ATOM      5  C6  UNL d   1       5.169   5.519   0.833  0.00  0.00     0.076 C 
ATOM      6  C7  UNL d   1       3.898   4.020  -0.730  0.00  0.00     0.002 A 
ATOM      7  C8  UNL d   1       3.763   3.338  -1.941  0.00  0.00     0.006 A 
ENDROOT
BRANCH   1   8
ATOM      8  C1  UNL d   1       4.632   2.656  -4.209  0.00  0.00     0.054 C 
ATOM      9  C   UNL d   1       5.996   2.432  -4.846  0.00  0.00     0.018 C 
ENDBRANCH   1   8
TORSDOF 1
ENDMDL
