MODEL 1
REMARK minimizedAffinity -3.48418665
REMARK minimizedRMSD -1
REMARK  0 active torsions:
REMARK  status: ('A' for Active; 'I' for Inactive)
ROOT
ATOM      1  C   UNL d   1       2.668  -1.187   1.154  0.00  0.00     0.172 C 
ATOM      2  N   UNL d   1       1.655  -0.377   0.518  0.00  0.00    -0.070 N 
ATOM      3  C1  UNL d   1       0.662  -0.840  -0.303  0.00  0.00    -0.004 A 
ATOM      4  C2  UNL d   1      -0.094   0.242  -0.701  0.00  0.00    -0.047 A 
ATOM      5  C3  UNL d   1       0.465   1.394  -0.100  0.00  0.00    -0.047 A 
ATOM      6  C4  UNL d   1       1.546   0.983   0.650  0.00  0.00    -0.004 A 
ENDROOT
TORSDOF 0
ENDMDL
