MODEL 1
REMARK minimizedAffinity -3.75872302
REMARK minimizedRMSD -1
REMARK  0 active torsions:
REMARK  status: ('A' for Active; 'I' for Inactive)
ROOT
ATOM      1  C   UNL d   1      -0.291   0.612  -0.072  0.00  0.00     0.172 C 
ATOM      2  N   UNL d   1       0.846  -0.277  -0.082  0.00  0.00    -0.070 N 
ATOM      3  C1  UNL d   1       2.012  -0.090   0.612  0.00  0.00    -0.004 A 
ATOM      4  C2  UNL d   1       2.842  -1.155   0.338  0.00  0.00    -0.047 A 
ATOM      5  C3  UNL d   1       2.152  -2.012  -0.552  0.00  0.00    -0.047 A 
ATOM      6  C4  UNL d   1       0.919  -1.444  -0.796  0.00  0.00    -0.004 A 
ENDROOT
TORSDOF 0
ENDMDL
