MODEL 1
REMARK minimizedAffinity -2.42256308
REMARK minimizedRMSD -1
REMARK  0 active torsions:
REMARK  status: ('A' for Active; 'I' for Inactive)
ROOT
ATOM      1  C   UNL d   1      -1.282  -0.458  -2.557  0.00  0.00     0.172 C 
ATOM      2  N   UNL d   1      -0.410  -0.333  -1.413  0.00  0.00    -0.070 N 
ATOM      3  C1  UNL d   1      -0.361   0.737  -0.560  0.00  0.00    -0.004 A 
ATOM      4  C2  UNL d   1       0.595   0.471   0.396  0.00  0.00    -0.047 A 
ATOM      5  C3  UNL d   1       1.140  -0.803   0.108  0.00  0.00    -0.047 A 
ATOM      6  C4  UNL d   1       0.500  -1.278  -1.017  0.00  0.00    -0.004 A 
ENDROOT
TORSDOF 0
ENDMDL
