MODEL 1
REMARK minimizedAffinity -3.0572691
REMARK minimizedRMSD -1
REMARK  0 active torsions:
REMARK  status: ('A' for Active; 'I' for Inactive)
ROOT
ATOM      1  C   UNL d   1       0.554   0.764  -0.058  0.00  0.00     0.172 C 
ATOM      2  N   UNL d   1       1.805   0.086   0.187  0.00  0.00    -0.070 N 
ATOM      3  C1  UNL d   1       2.973   0.292  -0.499  0.00  0.00    -0.004 A 
ATOM      4  C2  UNL d   1       3.929  -0.544   0.035  0.00  0.00    -0.047 A 
ATOM      5  C3  UNL d   1       3.315  -1.278   1.078  0.00  0.00    -0.047 A 
ATOM      6  C4  UNL d   1       2.001  -0.868   1.150  0.00  0.00    -0.004 A 
ENDROOT
TORSDOF 0
ENDMDL
