MODEL 1
REMARK minimizedAffinity 0.360078722
REMARK minimizedRMSD -1
REMARK  0 active torsions:
REMARK  status: ('A' for Active; 'I' for Inactive)
ROOT
ATOM      1  C   UNL d   1      -1.285   0.182   0.382  0.00  0.00     0.172 C 
ATOM      2  N   UNL d   1      -2.537   0.475   1.040  0.00  0.00    -0.070 N 
ATOM      3  C1  UNL d   1      -3.707  -0.215   0.873  0.00  0.00    -0.004 A 
ATOM      4  C2  UNL d   1      -4.663   0.375   1.671  0.00  0.00    -0.047 A 
ATOM      5  C3  UNL d   1      -4.046   1.458   2.341  0.00  0.00    -0.047 A 
ATOM      6  C4  UNL d   1      -2.729   1.497   1.932  0.00  0.00    -0.004 A 
ENDROOT
TORSDOF 0
ENDMDL
