MODEL 1
REMARK minimizedAffinity -2.93049693
REMARK minimizedRMSD -1
REMARK  0 active torsions:
REMARK  status: ('A' for Active; 'I' for Inactive)
ROOT
ATOM      1  C   UNL d   1      -0.238  -0.709  -0.404  0.00  0.00     0.172 C 
ATOM      2  N   UNL d   1       1.142  -0.447  -0.069  0.00  0.00    -0.070 N 
ATOM      3  C1  UNL d   1       1.609   0.667   0.576  0.00  0.00    -0.004 A 
ATOM      4  C2  UNL d   1       2.975   0.538   0.707  0.00  0.00    -0.047 A 
ATOM      5  C3  UNL d   1       3.341  -0.696   0.119  0.00  0.00    -0.047 A 
ATOM      6  C4  UNL d   1       2.188  -1.285  -0.353  0.00  0.00    -0.004 A 
ENDROOT
TORSDOF 0
ENDMDL
