MODEL 1
REMARK minimizedAffinity 1.87937307
REMARK minimizedRMSD -1
REMARK  0 active torsions:
REMARK  status: ('A' for Active; 'I' for Inactive)
ROOT
ATOM      1  C   UNL d   1       2.546  -0.953  -0.068  0.00  0.00     0.172 C 
ATOM      2  N   UNL d   1       1.433  -0.033  -0.040  0.00  0.00    -0.070 N 
ATOM      3  C1  UNL d   1       0.126  -0.353  -0.293  0.00  0.00    -0.004 A 
ATOM      4  C2  UNL d   1      -0.622   0.797  -0.166  0.00  0.00    -0.047 A 
ATOM      5  C3  UNL d   1       0.266   1.844   0.176  0.00  0.00    -0.047 A 
ATOM      6  C4  UNL d   1       1.532   1.303   0.247  0.00  0.00    -0.004 A 
ENDROOT
TORSDOF 0
ENDMDL
