MODEL 1
REMARK minimizedAffinity -2.51648068
REMARK minimizedRMSD -1
REMARK  0 active torsions:
REMARK  status: ('A' for Active; 'I' for Inactive)
ROOT
ATOM      1  C   UNL d   1       0.522  -0.922  -1.176  0.00  0.00     0.172 C 
ATOM      2  N   UNL d   1       1.281  -0.198  -0.183  0.00  0.00    -0.070 N 
ATOM      3  C1  UNL d   1       1.427   1.162  -0.127  0.00  0.00    -0.004 A 
ATOM      4  C2  UNL d   1       2.219   1.457   0.962  0.00  0.00    -0.047 A 
ATOM      5  C3  UNL d   1       2.562   0.231   1.580  0.00  0.00    -0.047 A 
ATOM      6  C4  UNL d   1       1.967  -0.777   0.851  0.00  0.00    -0.004 A 
ENDROOT
TORSDOF 0
ENDMDL
