MODEL 1
REMARK minimizedAffinity -1.49001026
REMARK minimizedRMSD -1
REMARK  0 active torsions:
REMARK  status: ('A' for Active; 'I' for Inactive)
ROOT
ATOM      1  C   UNL d   1      -2.429   1.039   0.654  0.00  0.00     0.172 C 
ATOM      2  N   UNL d   1      -1.015   0.793   0.500  0.00  0.00    -0.070 N 
ATOM      3  C1  UNL d   1      -0.070   1.734   0.191  0.00  0.00    -0.004 A 
ATOM      4  C2  UNL d   1       1.154   1.101   0.136  0.00  0.00    -0.047 A 
ATOM      5  C3  UNL d   1       0.936  -0.268   0.420  0.00  0.00    -0.047 A 
ATOM      6  C4  UNL d   1      -0.416  -0.431   0.642  0.00  0.00    -0.004 A 
ENDROOT
TORSDOF 0
ENDMDL
