MODEL 1
REMARK minimizedAffinity -3.34463239
REMARK minimizedRMSD -1
REMARK  0 active torsions:
REMARK  status: ('A' for Active; 'I' for Inactive)
ROOT
ATOM      1  C4' PXY d   1       1.506   2.125  -1.788  0.00  0.00     0.077 C 
ATOM      2  C1' PXY d   1      -0.356  -2.299   1.432  0.00  0.00     0.077 C 
ATOM      3  C1  PXY d   1       0.120  -1.136   0.585  0.00  0.00    -0.082 A 
ATOM      4  C2  PXY d   1       1.326  -1.171   0.043  0.00  0.00     0.003 A 
ATOM      5  C3  PXY d   1       1.785  -0.114  -0.699  0.00  0.00     0.003 A 
ATOM      6  C4  PXY d   1       0.980   0.969  -0.933  0.00  0.00    -0.082 A 
ATOM      7  C5  PXY d   1      -0.257   1.008  -0.393  0.00  0.00     0.003 A 
ATOM      8  C6  PXY d   1      -0.688  -0.058   0.392  0.00  0.00     0.003 A 
ENDROOT
TORSDOF 0
ENDMDL
