MODEL 1
REMARK minimizedAffinity -5.21428394
REMARK minimizedRMSD -1
REMARK  0 active torsions:
REMARK  status: ('A' for Active; 'I' for Inactive)
ROOT
ATOM      1  C4' PXY d   1       1.213   1.422  -0.591  0.00  0.00     0.077 C 
ATOM      2  C1' PXY d   1      -2.391  -2.327   1.934  0.00  0.00     0.077 C 
ATOM      3  C1  PXY d   1      -1.436  -1.352   1.275  0.00  0.00    -0.082 A 
ATOM      4  C2  PXY d   1      -1.786  -0.083   1.141  0.00  0.00     0.003 A 
ATOM      5  C3  PXY d   1      -0.948   0.806   0.519  0.00  0.00     0.003 A 
ATOM      6  C4  PXY d   1       0.284   0.403   0.076  0.00  0.00    -0.082 A 
ATOM      7  C5  PXY d   1       0.653  -0.887   0.219  0.00  0.00     0.003 A 
ATOM      8  C6  PXY d   1      -0.230  -1.783   0.816  0.00  0.00     0.003 A 
ENDROOT
TORSDOF 0
ENDMDL
