MODEL 1
REMARK minimizedAffinity -5.61143541
REMARK minimizedRMSD -1
REMARK  0 active torsions:
REMARK  status: ('A' for Active; 'I' for Inactive)
ROOT
ATOM      1  C4' PXY d   1       0.753   1.356  -0.339  0.00  0.00     0.077 C 
ATOM      2  C1' PXY d   1      -2.394  -3.053   1.678  0.00  0.00     0.077 C 
ATOM      3  C1  PXY d   1      -1.558  -1.903   1.154  0.00  0.00    -0.082 A 
ATOM      4  C2  PXY d   1      -2.117  -0.718   0.971  0.00  0.00     0.003 A 
ATOM      5  C3  PXY d   1      -1.384   0.326   0.467  0.00  0.00     0.003 A 
ATOM      6  C4  PXY d   1      -0.050   0.168   0.198  0.00  0.00    -0.082 A 
ATOM      7  C5  PXY d   1       0.530  -1.035   0.392  0.00  0.00     0.003 A 
ATOM      8  C6  PXY d   1      -0.242  -2.092   0.865  0.00  0.00     0.003 A 
ENDROOT
TORSDOF 0
ENDMDL
