MODEL 1
REMARK minimizedAffinity -2.59630966
REMARK minimizedRMSD -1
REMARK  0 active torsions:
REMARK  status: ('A' for Active; 'I' for Inactive)
ROOT
ATOM      1  C4' PXY d   1       1.809   2.010  -1.018  0.00  0.00     0.077 C 
ATOM      2  C1' PXY d   1      -0.814  -2.509   1.456  0.00  0.00     0.077 C 
ATOM      3  C1  PXY d   1      -0.137  -1.319   0.804  0.00  0.00    -0.082 A 
ATOM      4  C2  PXY d   1       1.112  -1.426   0.384  0.00  0.00     0.003 A 
ATOM      5  C3  PXY d   1       1.750  -0.351  -0.179  0.00  0.00     0.003 A 
ATOM      6  C4  PXY d   1       1.084   0.832  -0.362  0.00  0.00    -0.082 A 
ATOM      7  C5  PXY d   1      -0.195   0.946   0.055  0.00  0.00     0.003 A 
ATOM      8  C6  PXY d   1      -0.811  -0.145   0.661  0.00  0.00     0.003 A 
ENDROOT
TORSDOF 0
ENDMDL
