MODEL 1
REMARK minimizedAffinity -3.18046021
REMARK minimizedRMSD -1
REMARK  0 active torsions:
REMARK  status: ('A' for Active; 'I' for Inactive)
ROOT
ATOM      1  C4' PXY d   1      -2.748   0.305   0.556  0.00  0.00     0.077 C 
ATOM      2  C1' PXY d   1       2.622  -1.797   0.155  0.00  0.00     0.077 C 
ATOM      3  C1  PXY d   1       1.209  -1.258   0.259  0.00  0.00    -0.082 A 
ATOM      4  C2  PXY d   1       0.967   0.006  -0.049  0.00  0.00     0.003 A 
ATOM      5  C3  PXY d   1      -0.299   0.519   0.070  0.00  0.00     0.003 A 
ATOM      6  C4  PXY d   1      -1.338  -0.284   0.457  0.00  0.00    -0.082 A 
ATOM      7  C5  PXY d   1      -1.101  -1.578   0.762  0.00  0.00     0.003 A 
ATOM      8  C6  PXY d   1       0.199  -2.068   0.675  0.00  0.00     0.003 A 
ENDROOT
TORSDOF 0
ENDMDL
