MODEL 1
REMARK minimizedAffinity -1.16128588
REMARK minimizedRMSD -1
REMARK  0 active torsions:
REMARK  status: ('A' for Active; 'I' for Inactive)
ROOT
ATOM      1  C4' PXY d   1      -2.367  -3.287   1.503  0.00  0.00     0.077 C 
ATOM      2  C1' PXY d   1       1.123   1.004  -0.174  0.00  0.00     0.077 C 
ATOM      3  C1  PXY d   1       0.217  -0.130   0.261  0.00  0.00    -0.082 A 
ATOM      4  C2  PXY d   1      -1.087   0.074   0.354  0.00  0.00     0.003 A 
ATOM      5  C3  PXY d   1      -1.918  -0.932   0.777  0.00  0.00     0.003 A 
ATOM      6  C4  PXY d   1      -1.415  -2.174   1.058  0.00  0.00    -0.082 A 
ATOM      7  C5  PXY d   1      -0.087  -2.393   0.955  0.00  0.00     0.003 A 
ATOM      8  C6  PXY d   1       0.744  -1.347   0.564  0.00  0.00     0.003 A 
ENDROOT
TORSDOF 0
ENDMDL
