MODEL 1
REMARK minimizedAffinity -2.79104424
REMARK minimizedRMSD -1
REMARK  0 active torsions:
REMARK  status: ('A' for Active; 'I' for Inactive)
ROOT
ATOM      1  C4' PXY d   1      -1.123  -2.360   1.968  0.00  0.00     0.077 C 
ATOM      2  C1' PXY d   1       0.316   2.081  -1.443  0.00  0.00     0.077 C 
ATOM      3  C1  PXY d   1      -0.073   0.921  -0.546  0.00  0.00    -0.082 A 
ATOM      4  C2  PXY d   1       0.870   0.219   0.061  0.00  0.00     0.003 A 
ATOM      5  C3  PXY d   1       0.537  -0.852   0.849  0.00  0.00     0.003 A 
ATOM      6  C4  PXY d   1      -0.777  -1.175   1.061  0.00  0.00    -0.082 A 
ATOM      7  C5  PXY d   1      -1.745  -0.457   0.454  0.00  0.00     0.003 A 
ATOM      8  C6  PXY d   1      -1.385   0.601  -0.376  0.00  0.00     0.003 A 
ENDROOT
TORSDOF 0
ENDMDL
