MODEL 1
REMARK minimizedAffinity -1.46386576
REMARK minimizedRMSD -1
REMARK  0 active torsions:
REMARK  status: ('A' for Active; 'I' for Inactive)
ROOT
ATOM      1  C4' PXY d   1      -1.677  -2.558   1.659  0.00  0.00     0.077 C 
ATOM      2  C1' PXY d   1       1.609   1.508  -0.807  0.00  0.00     0.077 C 
ATOM      3  C1  PXY d   1       0.756   0.433  -0.165  0.00  0.00    -0.082 A 
ATOM      4  C2  PXY d   1      -0.522   0.673   0.083  0.00  0.00     0.003 A 
ATOM      5  C3  PXY d   1      -1.301  -0.277   0.692  0.00  0.00     0.003 A 
ATOM      6  C4  PXY d   1      -0.780  -1.505   1.003  0.00  0.00    -0.082 A 
ATOM      7  C5  PXY d   1       0.520  -1.761   0.744  0.00  0.00     0.003 A 
ATOM      8  C6  PXY d   1       1.304  -0.769   0.163  0.00  0.00     0.003 A 
ENDROOT
TORSDOF 0
ENDMDL
