MODEL 1
REMARK minimizedAffinity -5.36793613
REMARK minimizedRMSD -1
REMARK  0 active torsions:
REMARK  status: ('A' for Active; 'I' for Inactive)
ROOT
ATOM      1  C4' PXY d   1       1.781   1.291  -0.575  0.00  0.00     0.077 C 
ATOM      2  C1' PXY d   1      -1.801  -2.830   1.323  0.00  0.00     0.077 C 
ATOM      3  C1  PXY d   1      -0.852  -1.756   0.830  0.00  0.00    -0.082 A 
ATOM      4  C2  PXY d   1      -1.298  -0.525   0.640  0.00  0.00     0.003 A 
ATOM      5  C3  PXY d   1      -0.461   0.451   0.165  0.00  0.00     0.003 A 
ATOM      6  C4  PXY d   1       0.860   0.177  -0.069  0.00  0.00    -0.082 A 
ATOM      7  C5  PXY d   1       1.326  -1.074   0.132  0.00  0.00     0.003 A 
ATOM      8  C6  PXY d   1       0.450  -2.061   0.576  0.00  0.00     0.003 A 
ENDROOT
TORSDOF 0
ENDMDL
