MODEL 1
REMARK minimizedAffinity -2.57461548
REMARK minimizedRMSD -1
REMARK  0 active torsions:
REMARK  status: ('A' for Active; 'I' for Inactive)
ROOT
ATOM      1  C4' PXY d   1      -2.179   0.273   1.867  0.00  0.00     0.077 C 
ATOM      2  C1' PXY d   1       1.989   2.458  -1.491  0.00  0.00     0.077 C 
ATOM      3  C1  PXY d   1       0.896   1.874  -0.618  0.00  0.00    -0.082 A 
ATOM      4  C2  PXY d   1       0.106   2.683   0.070  0.00  0.00     0.003 A 
ATOM      5  C3  PXY d   1      -0.867   2.171   0.889  0.00  0.00     0.003 A 
ATOM      6  C4  PXY d   1      -1.068   0.819   0.965  0.00  0.00    -0.082 A 
ATOM      7  C5  PXY d   1      -0.273  -0.013   0.258  0.00  0.00     0.003 A 
ATOM      8  C6  PXY d   1       0.736   0.526  -0.536  0.00  0.00     0.003 A 
ENDROOT
TORSDOF 0
ENDMDL
