MODEL 1
REMARK minimizedAffinity -3.83385134
REMARK minimizedRMSD -1
REMARK  0 active torsions:
REMARK  status: ('A' for Active; 'I' for Inactive)
ROOT
ATOM      1  C4' PXY d   1       1.499  -2.620   0.206  0.00  0.00     0.077 C 
ATOM      2  C1' PXY d   1      -2.118   1.828   0.944  0.00  0.00     0.077 C 
ATOM      3  C1  PXY d   1      -1.178   0.654   0.757  0.00  0.00    -0.082 A 
ATOM      4  C2  PXY d   1       0.118   0.872   0.599  0.00  0.00     0.003 A 
ATOM      5  C3  PXY d   1       0.978  -0.177   0.397  0.00  0.00     0.003 A 
ATOM      6  C4  PXY d   1       0.514  -1.465   0.408  0.00  0.00    -0.082 A 
ATOM      7  C5  PXY d   1      -0.805  -1.696   0.579  0.00  0.00     0.003 A 
ATOM      8  C6  PXY d   1      -1.667  -0.616   0.742  0.00  0.00     0.003 A 
ENDROOT
TORSDOF 0
ENDMDL
