MODEL 1
REMARK minimizedAffinity -4.75086927
REMARK minimizedRMSD -1
REMARK  0 active torsions:
REMARK  status: ('A' for Active; 'I' for Inactive)
ROOT
ATOM      1  C4' PXY d   1       1.506  -1.110  -0.117  0.00  0.00     0.077 C 
ATOM      2  C1' PXY d   1      -3.809  -0.992   2.152  0.00  0.00     0.077 C 
ATOM      3  C1  PXY d   1      -2.419  -1.014   1.548  0.00  0.00    -0.082 A 
ATOM      4  C2  PXY d   1      -1.665  -2.093   1.680  0.00  0.00     0.003 A 
ATOM      5  C3  PXY d   1      -0.394  -2.118   1.168  0.00  0.00     0.003 A 
ATOM      6  C4  PXY d   1       0.093  -1.047   0.468  0.00  0.00    -0.082 A 
ATOM      7  C5  PXY d   1      -0.674   0.054   0.320  0.00  0.00     0.003 A 
ATOM      8  C6  PXY d   1      -1.946   0.075   0.883  0.00  0.00     0.003 A 
ENDROOT
TORSDOF 0
ENDMDL
