MODEL 1
REMARK minimizedAffinity -1.70219243
REMARK minimizedRMSD -1
REMARK  0 active torsions:
REMARK  status: ('A' for Active; 'I' for Inactive)
ROOT
ATOM      1  C4' PXY d   1      -1.443   2.402   0.370  0.00  0.00     0.077 C 
ATOM      2  C1' PXY d   1       2.817   1.570  -3.448  0.00  0.00     0.077 C 
ATOM      3  C1  PXY d   1       1.695   1.798  -2.454  0.00  0.00    -0.082 A 
ATOM      4  C2  PXY d   1       1.863   1.454  -1.187  0.00  0.00     0.003 A 
ATOM      5  C3  PXY d   1       0.847   1.623  -0.282  0.00  0.00     0.003 A 
ATOM      6  C4  PXY d   1      -0.334   2.200  -0.666  0.00  0.00    -0.082 A 
ATOM      7  C5  PXY d   1      -0.510   2.563  -1.954  0.00  0.00     0.003 A 
ATOM      8  C6  PXY d   1       0.519   2.345  -2.866  0.00  0.00     0.003 A 
ENDROOT
TORSDOF 0
ENDMDL
