MODEL 1
REMARK minimizedAffinity -4.36576366
REMARK minimizedRMSD -1
REMARK  0 active torsions:
REMARK  status: ('A' for Active; 'I' for Inactive)
ROOT
ATOM      1  C4' PXY d   1      -0.782  -2.792   1.351  0.00  0.00     0.077 C 
ATOM      2  C1' PXY d   1       0.877   2.192  -1.062  0.00  0.00     0.077 C 
ATOM      3  C1  PXY d   1       0.452   0.879  -0.434  0.00  0.00    -0.082 A 
ATOM      4  C2  PXY d   1      -0.821   0.679  -0.134  0.00  0.00     0.003 A 
ATOM      5  C3  PXY d   1      -1.217  -0.490   0.464  0.00  0.00     0.003 A 
ATOM      6  C4  PXY d   1      -0.310  -1.485   0.708  0.00  0.00    -0.082 A 
ATOM      7  C5  PXY d   1       0.989  -1.293   0.394  0.00  0.00     0.003 A 
ATOM      8  C6  PXY d   1       1.378  -0.084  -0.174  0.00  0.00     0.003 A 
ENDROOT
TORSDOF 0
ENDMDL
