MODEL 1
REMARK minimizedAffinity -3.61604953
REMARK minimizedRMSD -1
REMARK  0 active torsions:
REMARK  status: ('A' for Active; 'I' for Inactive)
ROOT
ATOM      1  C4' PXY d   1       1.462   1.190  -0.986  0.00  0.00     0.077 C 
ATOM      2  C1' PXY d   1      -1.778  -2.968   1.387  0.00  0.00     0.077 C 
ATOM      3  C1  PXY d   1      -0.919  -1.881   0.772  0.00  0.00    -0.082 A 
ATOM      4  C2  PXY d   1      -1.494  -0.821   0.229  0.00  0.00     0.003 A 
ATOM      5  C3  PXY d   1      -0.733   0.156  -0.360  0.00  0.00     0.003 A 
ATOM      6  C4  PXY d   1       0.634   0.072  -0.345  0.00  0.00    -0.082 A 
ATOM      7  C5  PXY d   1       1.229  -1.001   0.216  0.00  0.00     0.003 A 
ATOM      8  C6  PXY d   1       0.437  -2.002   0.772  0.00  0.00     0.003 A 
ENDROOT
TORSDOF 0
ENDMDL
