MODEL 1
REMARK minimizedAffinity 1.12445223
REMARK minimizedRMSD -1
REMARK  0 active torsions:
REMARK  status: ('A' for Active; 'I' for Inactive)
ROOT
ATOM      1  C4' PXY d   1       0.798   1.933  -1.822  0.00  0.00     0.077 C 
ATOM      2  C1' PXY d   1      -0.789  -2.333   1.742  0.00  0.00     0.077 C 
ATOM      3  C1  PXY d   1      -0.386  -1.211   0.805  0.00  0.00    -0.082 A 
ATOM      4  C2  PXY d   1       0.799  -1.246   0.216  0.00  0.00     0.003 A 
ATOM      5  C3  PXY d   1       1.193  -0.224  -0.609  0.00  0.00     0.003 A 
ATOM      6  C4  PXY d   1       0.345   0.818  -0.876  0.00  0.00    -0.082 A 
ATOM      7  C5  PXY d   1      -0.869   0.854  -0.287  0.00  0.00     0.003 A 
ATOM      8  C6  PXY d   1      -1.234  -0.172   0.580  0.00  0.00     0.003 A 
ENDROOT
TORSDOF 0
ENDMDL
