MODEL 1
REMARK minimizedAffinity -6.15898371
REMARK minimizedRMSD -1
REMARK  0 active torsions:
REMARK  status: ('A' for Active; 'I' for Inactive)
ROOT
ATOM      1  C4' PXY d   1       1.356   1.384  -0.476  0.00  0.00     0.077 C 
ATOM      2  C1' PXY d   1      -2.122  -2.961   1.087  0.00  0.00     0.077 C 
ATOM      3  C1  PXY d   1      -1.200  -1.827   0.684  0.00  0.00    -0.082 A 
ATOM      4  C2  PXY d   1      -1.715  -0.668   0.308  0.00  0.00     0.003 A 
ATOM      5  C3  PXY d   1      -0.897   0.358  -0.090  0.00  0.00     0.003 A 
ATOM      6  C4  PXY d   1       0.464   0.214  -0.052  0.00  0.00    -0.082 A 
ATOM      7  C5  PXY d   1       0.997  -0.962   0.341  0.00  0.00     0.003 A 
ATOM      8  C6  PXY d   1       0.149  -2.005   0.702  0.00  0.00     0.003 A 
ENDROOT
TORSDOF 0
ENDMDL
