MODEL 1
REMARK minimizedAffinity -3.96617818
REMARK minimizedRMSD -1
REMARK  0 active torsions:
REMARK  status: ('A' for Active; 'I' for Inactive)
ROOT
ATOM      1  C4' PXY d   1       1.248   1.366  -0.799  0.00  0.00     0.077 C 
ATOM      2  C1' PXY d   1      -2.070  -2.802   1.443  0.00  0.00     0.077 C 
ATOM      3  C1  PXY d   1      -1.189  -1.715   0.860  0.00  0.00    -0.082 A 
ATOM      4  C2  PXY d   1      -1.703  -0.522   0.608  0.00  0.00     0.003 A 
ATOM      5  C3  PXY d   1      -0.929   0.463   0.051  0.00  0.00     0.003 A 
ATOM      6  C4  PXY d   1       0.399   0.241  -0.201  0.00  0.00    -0.082 A 
ATOM      7  C5  PXY d   1       0.933  -0.970   0.063  0.00  0.00     0.003 A 
ATOM      8  C6  PXY d   1       0.120  -1.969   0.590  0.00  0.00     0.003 A 
ENDROOT
TORSDOF 0
ENDMDL
