MODEL 1
REMARK minimizedAffinity -4.02737904
REMARK minimizedRMSD -1
REMARK  0 active torsions:
REMARK  status: ('A' for Active; 'I' for Inactive)
ROOT
ATOM      1  C4' PXY d   1      -2.534  -3.262   1.236  0.00  0.00     0.077 C 
ATOM      2  C1' PXY d   1       1.735   0.334  -0.268  0.00  0.00     0.077 C 
ATOM      3  C1  PXY d   1       0.607  -0.600   0.124  0.00  0.00    -0.082 A 
ATOM      4  C2  PXY d   1       0.853  -1.622   0.926  0.00  0.00     0.003 A 
ATOM      5  C3  PXY d   1      -0.149  -2.495   1.266  0.00  0.00     0.003 A 
ATOM      6  C4  PXY d   1      -1.427  -2.288   0.821  0.00  0.00    -0.082 A 
ATOM      7  C5  PXY d   1      -1.689  -1.241   0.011  0.00  0.00     0.003 A 
ATOM      8  C6  PXY d   1      -0.650  -0.390  -0.355  0.00  0.00     0.003 A 
ENDROOT
TORSDOF 0
ENDMDL
