MODEL 1
REMARK minimizedAffinity -5.47762585
REMARK minimizedRMSD -1
REMARK  0 active torsions:
REMARK  status: ('A' for Active; 'I' for Inactive)
ROOT
ATOM      1  C4' PXY d   1       0.878   1.489  -0.747  0.00  0.00     0.077 C 
ATOM      2  C1' PXY d   1      -2.169  -3.008   1.231  0.00  0.00     0.077 C 
ATOM      3  C1  PXY d   1      -1.359  -1.834   0.717  0.00  0.00    -0.082 A 
ATOM      4  C2  PXY d   1      -1.958  -0.676   0.489  0.00  0.00     0.003 A 
ATOM      5  C3  PXY d   1      -1.247   0.387  -0.006  0.00  0.00     0.003 A 
ATOM      6  C4  PXY d   1       0.102   0.279  -0.219  0.00  0.00    -0.082 A 
ATOM      7  C5  PXY d   1       0.721  -0.896   0.021  0.00  0.00     0.003 A 
ATOM      8  C6  PXY d   1      -0.026  -1.975   0.484  0.00  0.00     0.003 A 
ENDROOT
TORSDOF 0
ENDMDL
