MODEL 1
REMARK minimizedAffinity 1.72318864
REMARK minimizedRMSD -1
REMARK  0 active torsions:
REMARK  status: ('A' for Active; 'I' for Inactive)
ROOT
ATOM      1  N1  IND d   1      -1.950  -4.831  -6.000  0.00  0.00    -0.196 N 
ATOM      2  C2  IND d   1      -1.163  -3.727  -5.826  0.00  0.00     0.054 A 
ATOM      3  C3  IND d   1      -1.927  -2.631  -5.625  0.00  0.00    -0.031 A 
ATOM      4  C4  IND d   1      -4.487  -2.434  -5.440  0.00  0.00     0.051 A 
ATOM      5  C5  IND d   1      -5.636  -3.164  -5.566  0.00  0.00    -0.031 A 
ATOM      6  C6  IND d   1      -5.614  -4.515  -5.845  0.00  0.00     0.015 A 
ATOM      7  C7  IND d   1      -4.437  -5.191  -5.999  0.00  0.00    -0.016 A 
ATOM      8  C8  IND d   1      -3.269  -4.452  -5.879  0.00  0.00    -0.047 A 
ATOM      9  C9  IND d   1      -3.286  -3.072  -5.638  0.00  0.00    -0.096 A 
ATOM     10  HN1 IND d   1      -1.669  -5.628  -6.158  0.00  0.00     0.298 HD
ENDROOT
TORSDOF 0
ENDMDL
