MODEL 1
REMARK minimizedAffinity 2.76046419
REMARK minimizedRMSD -1
REMARK  0 active torsions:
REMARK  status: ('A' for Active; 'I' for Inactive)
ROOT
ATOM      1  N1  IND d   1       5.319  -4.545   3.939  0.00  0.00    -0.196 N 
ATOM      2  C2  IND d   1       5.679  -5.035   5.163  0.00  0.00     0.054 A 
ATOM      3  C3  IND d   1       6.000  -4.023   6.000  0.00  0.00    -0.031 A 
ATOM      4  C4  IND d   1       5.908  -1.481   5.602  0.00  0.00     0.051 A 
ATOM      5  C5  IND d   1       5.675  -0.551   4.628  0.00  0.00    -0.031 A 
ATOM      6  C6  IND d   1       5.301  -0.912   3.349  0.00  0.00     0.015 A 
ATOM      7  C7  IND d   1       5.135  -2.222   2.999  0.00  0.00    -0.016 A 
ATOM      8  C8  IND d   1       5.378  -3.169   3.983  0.00  0.00    -0.047 A 
ATOM      9  C9  IND d   1       5.798  -2.811   5.271  0.00  0.00    -0.096 A 
ATOM     10  HN1 IND d   1       5.095  -5.016   3.256  0.00  0.00     0.298 HD
ENDROOT
TORSDOF 0
ENDMDL
