MODEL 1
REMARK minimizedAffinity 16.1680336
REMARK minimizedRMSD -1
REMARK  0 active torsions:
REMARK  status: ('A' for Active; 'I' for Inactive)
ROOT
ATOM      1  N1  IND d   1       2.348   4.129  -1.284  0.00  0.00    -0.196 N 
ATOM      2  C2  IND d   1       2.444   2.805  -0.960  0.00  0.00     0.054 A 
ATOM      3  C3  IND d   1       3.215   2.155  -1.861  0.00  0.00    -0.031 A 
ATOM      4  C4  IND d   1       4.501   3.087  -3.887  0.00  0.00     0.051 A 
ATOM      5  C5  IND d   1       4.692   4.232  -4.608  0.00  0.00    -0.031 A 
ATOM      6  C6  IND d   1       4.101   5.426  -4.249  0.00  0.00     0.015 A 
ATOM      7  C7  IND d   1       3.303   5.523  -3.144  0.00  0.00    -0.016 A 
ATOM      8  C8  IND d   1       3.102   4.360  -2.414  0.00  0.00    -0.047 A 
ATOM      9  C9  IND d   1       3.664   3.136  -2.797  0.00  0.00    -0.096 A 
ATOM     10  HN1 IND d   1       1.893   4.719  -0.855  0.00  0.00     0.298 HD
ENDROOT
TORSDOF 0
ENDMDL
