MODEL 1
REMARK minimizedAffinity 0.724811196
REMARK minimizedRMSD -1
REMARK  0 active torsions:
REMARK  status: ('A' for Active; 'I' for Inactive)
ROOT
ATOM      1  N1  IND d   1      -5.921  -4.648   1.388  0.00  0.00    -0.196 N 
ATOM      2  C2  IND d   1      -5.930  -5.693   0.506  0.00  0.00     0.054 A 
ATOM      3  C3  IND d   1      -5.982  -5.236  -0.765  0.00  0.00    -0.031 A 
ATOM      4  C4  IND d   1      -5.957  -2.812  -1.633  0.00  0.00     0.051 A 
ATOM      5  C5  IND d   1      -5.990  -1.515  -1.206  0.00  0.00    -0.031 A 
ATOM      6  C6  IND d   1      -6.000  -1.188   0.134  0.00  0.00     0.015 A 
ATOM      7  C7  IND d   1      -5.965  -2.152   1.102  0.00  0.00    -0.016 A 
ATOM      8  C8  IND d   1      -5.938  -3.471   0.672  0.00  0.00    -0.047 A 
ATOM      9  C9  IND d   1      -5.971  -3.809  -0.687  0.00  0.00    -0.096 A 
ATOM     10  HN1 IND d   1      -5.908  -4.715   2.245  0.00  0.00     0.298 HD
ENDROOT
TORSDOF 0
ENDMDL
