MODEL 1
REMARK minimizedAffinity -1.20434093
REMARK minimizedRMSD -1
REMARK  0 active torsions:
REMARK  status: ('A' for Active; 'I' for Inactive)
ROOT
ATOM      1  N1  IND d   1       4.003  -0.777   2.690  0.00  0.00    -0.196 N 
ATOM      2  C2  IND d   1       4.713   0.086   1.903  0.00  0.00     0.054 A 
ATOM      3  C3  IND d   1       3.894   1.024   1.376  0.00  0.00    -0.031 A 
ATOM      4  C4  IND d   1       1.374   1.393   1.752  0.00  0.00     0.051 A 
ATOM      5  C5  IND d   1       0.284   0.839   2.361  0.00  0.00    -0.031 A 
ATOM      6  C6  IND d   1       0.379  -0.304   3.129  0.00  0.00     0.015 A 
ATOM      7  C7  IND d   1       1.577  -0.931   3.326  0.00  0.00    -0.016 A 
ATOM      8  C8  IND d   1       2.685  -0.375   2.703  0.00  0.00    -0.047 A 
ATOM      9  C9  IND d   1       2.587   0.760   1.889  0.00  0.00    -0.096 A 
ATOM     10  HN1 IND d   1       4.325  -1.456   3.107  0.00  0.00     0.298 HD
ENDROOT
TORSDOF 0
ENDMDL
