MODEL 1
REMARK minimizedAffinity 14.2495909
REMARK minimizedRMSD -1
REMARK  0 active torsions:
REMARK  status: ('A' for Active; 'I' for Inactive)
ROOT
ATOM      1  N1  IND d   1      -4.791  -2.451   1.912  0.00  0.00    -0.196 N 
ATOM      2  C2  IND d   1      -5.135  -1.738   0.797  0.00  0.00     0.054 A 
ATOM      3  C3  IND d   1      -4.961  -2.489  -0.313  0.00  0.00    -0.031 A 
ATOM      4  C4  IND d   1      -4.219  -4.944  -0.528  0.00  0.00     0.051 A 
ATOM      5  C5  IND d   1      -3.761  -6.000   0.210  0.00  0.00    -0.031 A 
ATOM      6  C6  IND d   1      -3.623  -5.926   1.581  0.00  0.00     0.015 A 
ATOM      7  C7  IND d   1      -3.950  -4.792   2.269  0.00  0.00    -0.016 A 
ATOM      8  C8  IND d   1      -4.408  -3.716   1.523  0.00  0.00    -0.047 A 
ATOM      9  C9  IND d   1      -4.510  -3.771   0.126  0.00  0.00    -0.096 A 
ATOM     10  HN1 IND d   1      -4.810  -2.159   2.720  0.00  0.00     0.298 HD
ENDROOT
TORSDOF 0
ENDMDL
