MODEL 1
REMARK minimizedAffinity 15.5740309
REMARK minimizedRMSD -1
REMARK  0 active torsions:
REMARK  status: ('A' for Active; 'I' for Inactive)
ROOT
ATOM      1  N1  IND d   1       0.105   2.068  -2.325  0.00  0.00    -0.196 N 
ATOM      2  C2  IND d   1       1.135   2.065  -1.427  0.00  0.00     0.054 A 
ATOM      3  C3  IND d   1       1.993   1.055  -1.698  0.00  0.00    -0.031 A 
ATOM      4  C4  IND d   1       1.955  -0.649  -3.627  0.00  0.00     0.051 A 
ATOM      5  C5  IND d   1       1.192  -1.066  -4.681  0.00  0.00    -0.031 A 
ATOM      6  C6  IND d   1       0.005  -0.446  -5.012  0.00  0.00     0.015 A 
ATOM      7  C7  IND d   1      -0.460   0.627  -4.305  0.00  0.00    -0.016 A 
ATOM      8  C8  IND d   1       0.309   1.049  -3.230  0.00  0.00    -0.047 A 
ATOM      9  C9  IND d   1       1.493   0.397  -2.863  0.00  0.00    -0.096 A 
ATOM     10  HN1 IND d   1      -0.559   2.614  -2.326  0.00  0.00     0.298 HD
ENDROOT
TORSDOF 0
ENDMDL
