MODEL 1
REMARK minimizedAffinity 12.182972
REMARK minimizedRMSD -1
REMARK  0 active torsions:
REMARK  status: ('A' for Active; 'I' for Inactive)
ROOT
ATOM      1  N1  IND d   1      -4.337  -5.876  -5.997  0.00  0.00    -0.196 N 
ATOM      2  C2  IND d   1      -5.558  -5.262  -5.963  0.00  0.00     0.054 A 
ATOM      3  C3  IND d   1      -5.407  -3.919  -5.913  0.00  0.00    -0.031 A 
ATOM      4  C4  IND d   1      -3.253  -2.511  -5.980  0.00  0.00     0.051 A 
ATOM      5  C5  IND d   1      -1.891  -2.625  -5.974  0.00  0.00    -0.031 A 
ATOM      6  C6  IND d   1      -1.262  -3.854  -5.978  0.00  0.00     0.015 A 
ATOM      7  C7  IND d   1      -1.975  -5.019  -6.000  0.00  0.00    -0.016 A 
ATOM      8  C8  IND d   1      -3.358  -4.907  -5.999  0.00  0.00    -0.047 A 
ATOM      9  C9  IND d   1      -4.002  -3.664  -5.952  0.00  0.00    -0.096 A 
ATOM     10  HN1 IND d   1      -4.204  -6.725  -6.014  0.00  0.00     0.298 HD
ENDROOT
TORSDOF 0
ENDMDL
