MODEL 1
REMARK minimizedAffinity 5.32792187
REMARK minimizedRMSD -1
REMARK  0 active torsions:
REMARK  status: ('A' for Active; 'I' for Inactive)
ROOT
ATOM      1  N1  IND d   1      -5.997  -4.963  -3.344  0.00  0.00    -0.196 N 
ATOM      2  C2  IND d   1      -5.977  -5.509  -2.090  0.00  0.00     0.054 A 
ATOM      3  C3  IND d   1      -5.936  -4.534  -1.154  0.00  0.00    -0.031 A 
ATOM      4  C4  IND d   1      -5.999  -1.978  -1.450  0.00  0.00     0.051 A 
ATOM      5  C5  IND d   1      -5.982  -1.004  -2.409  0.00  0.00    -0.031 A 
ATOM      6  C6  IND d   1      -5.972  -1.306  -3.755  0.00  0.00     0.015 A 
ATOM      7  C7  IND d   1      -5.990  -2.599  -4.195  0.00  0.00    -0.016 A 
ATOM      8  C8  IND d   1      -6.000  -3.591  -3.224  0.00  0.00    -0.047 A 
ATOM      9  C9  IND d   1      -5.967  -3.291  -1.857  0.00  0.00    -0.096 A 
ATOM     10  HN1 IND d   1      -6.007  -5.404  -4.082  0.00  0.00     0.298 HD
ENDROOT
TORSDOF 0
ENDMDL
