MODEL 1
REMARK minimizedAffinity 15.1108027
REMARK minimizedRMSD -1
REMARK  0 active torsions:
REMARK  status: ('A' for Active; 'I' for Inactive)
ROOT
ATOM      1  N1  IND d   1      -0.881  -3.467  -4.702  0.00  0.00    -0.196 N 
ATOM      2  C2  IND d   1      -1.664  -3.148  -5.776  0.00  0.00     0.054 A 
ATOM      3  C3  IND d   1      -1.636  -1.815  -5.999  0.00  0.00    -0.031 A 
ATOM      4  C4  IND d   1      -0.292   0.018  -4.790  0.00  0.00     0.051 A 
ATOM      5  C5  IND d   1       0.537   0.218  -3.722  0.00  0.00    -0.031 A 
ATOM      6  C6  IND d   1       0.947  -0.821  -2.912  0.00  0.00     0.015 A 
ATOM      7  C7  IND d   1       0.549  -2.107  -3.147  0.00  0.00    -0.016 A 
ATOM      8  C8  IND d   1      -0.298  -2.313  -4.226  0.00  0.00    -0.047 A 
ATOM      9  C9  IND d   1      -0.752  -1.256  -5.026  0.00  0.00    -0.096 A 
ATOM     10  HN1 IND d   1      -0.770  -4.256  -4.379  0.00  0.00     0.298 HD
ENDROOT
TORSDOF 0
ENDMDL
