MODEL 1
REMARK minimizedAffinity 3.52601075
REMARK minimizedRMSD -1
REMARK  0 active torsions:
REMARK  status: ('A' for Active; 'I' for Inactive)
ROOT
ATOM      1  N1  IND d   1       1.377   3.689  -5.472  0.00  0.00    -0.196 N 
ATOM      2  C2  IND d   1       1.144   4.865  -4.815  0.00  0.00     0.054 A 
ATOM      3  C3  IND d   1       2.306   5.394  -4.371  0.00  0.00    -0.031 A 
ATOM      4  C4  IND d   1       4.717   4.550  -4.696  0.00  0.00     0.051 A 
ATOM      5  C5  IND d   1       5.432   3.499  -5.197  0.00  0.00    -0.031 A 
ATOM      6  C6  IND d   1       4.820   2.437  -5.832  0.00  0.00     0.015 A 
ATOM      7  C7  IND d   1       3.464   2.393  -5.998  0.00  0.00    -0.016 A 
ATOM      8  C8  IND d   1       2.734   3.455  -5.484  0.00  0.00    -0.047 A 
ATOM      9  C9  IND d   1       3.346   4.515  -4.802  0.00  0.00    -0.096 A 
ATOM     10  HN1 IND d   1       0.777   3.181  -5.820  0.00  0.00     0.298 HD
ENDROOT
TORSDOF 0
ENDMDL
