MODEL 1
REMARK minimizedAffinity 9.98352146
REMARK minimizedRMSD -1
REMARK  0 active torsions:
REMARK  status: ('A' for Active; 'I' for Inactive)
ROOT
ATOM      1  N1  IND d   1      -0.116  -1.525   4.537  0.00  0.00    -0.196 N 
ATOM      2  C2  IND d   1      -1.422  -1.123   4.501  0.00  0.00     0.054 A 
ATOM      3  C3  IND d   1      -1.523   0.094   3.922  0.00  0.00    -0.031 A 
ATOM      4  C4  IND d   1       0.310   1.563   2.870  0.00  0.00     0.051 A 
ATOM      5  C5  IND d   1       1.664   1.636   2.694  0.00  0.00    -0.031 A 
ATOM      6  C6  IND d   1       2.510   0.637   3.130  0.00  0.00     0.015 A 
ATOM      7  C7  IND d   1       2.031  -0.482   3.751  0.00  0.00    -0.016 A 
ATOM      8  C8  IND d   1       0.658  -0.556   3.937  0.00  0.00    -0.047 A 
ATOM      9  C9  IND d   1      -0.202   0.474   3.535  0.00  0.00    -0.096 A 
ATOM     10  HN1 IND d   1       0.174  -2.260   4.877  0.00  0.00     0.298 HD
ENDROOT
TORSDOF 0
ENDMDL
