MODEL 1
REMARK minimizedAffinity 12.754055
REMARK minimizedRMSD -1
REMARK  0 active torsions:
REMARK  status: ('A' for Active; 'I' for Inactive)
ROOT
ATOM      1  N1  IND d   1       2.312   4.079  -1.230  0.00  0.00    -0.196 N 
ATOM      2  C2  IND d   1       2.298   2.749  -0.916  0.00  0.00     0.054 A 
ATOM      3  C3  IND d   1       2.961   2.037  -1.856  0.00  0.00    -0.031 A 
ATOM      4  C4  IND d   1       4.233   2.862  -3.937  0.00  0.00     0.051 A 
ATOM      5  C5  IND d   1       4.496   3.991  -4.661  0.00  0.00    -0.031 A 
ATOM      6  C6  IND d   1       4.038   5.232  -4.269  0.00  0.00     0.015 A 
ATOM      7  C7  IND d   1       3.306   5.393  -3.127  0.00  0.00    -0.016 A 
ATOM      8  C8  IND d   1       3.030   4.248  -2.393  0.00  0.00    -0.047 A 
ATOM      9  C9  IND d   1       3.457   2.980  -2.808  0.00  0.00    -0.096 A 
ATOM     10  HN1 IND d   1       1.935   4.705  -0.776  0.00  0.00     0.298 HD
ENDROOT
TORSDOF 0
ENDMDL
