MODEL 1
REMARK minimizedAffinity 9.86725426
REMARK minimizedRMSD -1
REMARK  0 active torsions:
REMARK  status: ('A' for Active; 'I' for Inactive)
ROOT
ATOM      1  N1  IND d   1       0.719  -1.043  -3.185  0.00  0.00    -0.196 N 
ATOM      2  C2  IND d   1       1.729  -1.330  -4.061  0.00  0.00     0.054 A 
ATOM      3  C3  IND d   1       2.728  -0.427  -3.938  0.00  0.00    -0.031 A 
ATOM      4  C4  IND d   1       2.962   1.540  -2.294  0.00  0.00     0.051 A 
ATOM      5  C5  IND d   1       2.279   2.222  -1.326  0.00  0.00    -0.031 A 
ATOM      6  C6  IND d   1       1.017   1.841  -0.919  0.00  0.00     0.015 A 
ATOM      7  C7  IND d   1       0.392   0.752  -1.458  0.00  0.00    -0.016 A 
ATOM      8  C8  IND d   1       1.080   0.062  -2.446  0.00  0.00    -0.047 A 
ATOM      9  C9  IND d   1       2.343   0.469  -2.894  0.00  0.00    -0.096 A 
ATOM     10  HN1 IND d   1      -0.018  -1.480  -3.109  0.00  0.00     0.298 HD
ENDROOT
TORSDOF 0
ENDMDL
