MODEL 1
REMARK minimizedAffinity 13.084177
REMARK minimizedRMSD -1
REMARK  0 active torsions:
REMARK  status: ('A' for Active; 'I' for Inactive)
ROOT
ATOM      1  N1  IND d   1      -5.999  -2.488  -3.829  0.00  0.00    -0.196 N 
ATOM      2  C2  IND d   1      -5.952  -1.561  -2.825  0.00  0.00     0.054 A 
ATOM      3  C3  IND d   1      -5.586  -2.146  -1.662  0.00  0.00    -0.031 A 
ATOM      4  C4  IND d   1      -4.918  -4.588  -1.199  0.00  0.00     0.051 A 
ATOM      5  C5  IND d   1      -4.842  -5.816  -1.795  0.00  0.00    -0.031 A 
ATOM      6  C6  IND d   1      -5.151  -6.000  -3.127  0.00  0.00     0.015 A 
ATOM      7  C7  IND d   1      -5.538  -4.957  -3.919  0.00  0.00    -0.016 A 
ATOM      8  C8  IND d   1      -5.624  -3.710  -3.316  0.00  0.00    -0.047 A 
ATOM      9  C9  IND d   1      -5.353  -3.525  -1.954  0.00  0.00    -0.096 A 
ATOM     10  HN1 IND d   1      -6.224  -2.333  -4.644  0.00  0.00     0.298 HD
ENDROOT
TORSDOF 0
ENDMDL
