MODEL 1
REMARK minimizedAffinity 11.5361042
REMARK minimizedRMSD -1
REMARK  0 active torsions:
REMARK  status: ('A' for Active; 'I' for Inactive)
ROOT
ATOM      1  N1  IND d   1       3.032   0.179  -3.864  0.00  0.00    -0.196 N 
ATOM      2  C2  IND d   1       2.042  -0.696  -4.215  0.00  0.00     0.054 A 
ATOM      3  C3  IND d   1       1.081  -0.725  -3.264  0.00  0.00    -0.031 A 
ATOM      4  C4  IND d   1       0.881   0.656  -1.100  0.00  0.00     0.051 A 
ATOM      5  C5  IND d   1       1.559   1.560  -0.332  0.00  0.00    -0.031 A 
ATOM      6  C6  IND d   1       2.787   2.062  -0.711  0.00  0.00     0.015 A 
ATOM      7  C7  IND d   1       3.380   1.685  -1.884  0.00  0.00    -0.016 A 
ATOM      8  C8  IND d   1       2.697   0.762  -2.662  0.00  0.00    -0.047 A 
ATOM      9  C9  IND d   1       1.470   0.217  -2.262  0.00  0.00    -0.096 A 
ATOM     10  HN1 IND d   1       3.745   0.337  -4.318  0.00  0.00     0.298 HD
ENDROOT
TORSDOF 0
ENDMDL
