MODEL 1
REMARK minimizedAffinity 21.1927242
REMARK minimizedRMSD -1
REMARK  0 active torsions:
REMARK  status: ('A' for Active; 'I' for Inactive)
ROOT
ATOM      1  N1  IND d   1      -2.287  -0.892  -5.998  0.00  0.00    -0.196 N 
ATOM      2  C2  IND d   1      -2.540  -2.235  -6.000  0.00  0.00     0.054 A 
ATOM      3  C3  IND d   1      -1.493  -2.912  -5.477  0.00  0.00    -0.031 A 
ATOM      4  C4  IND d   1       0.696  -2.010  -4.465  0.00  0.00     0.051 A 
ATOM      5  C5  IND d   1       1.397  -0.853  -4.272  0.00  0.00    -0.031 A 
ATOM      6  C6  IND d   1       0.895   0.376  -4.651  0.00  0.00     0.015 A 
ATOM      7  C7  IND d   1      -0.337   0.494  -5.228  0.00  0.00    -0.016 A 
ATOM      8  C8  IND d   1      -1.050  -0.679  -5.431  0.00  0.00    -0.047 A 
ATOM      9  C9  IND d   1      -0.527  -1.933  -5.088  0.00  0.00    -0.096 A 
ATOM     10  HN1 IND d   1      -2.812  -0.282  -6.301  0.00  0.00     0.298 HD
ENDROOT
TORSDOF 0
ENDMDL
