MODEL 1
REMARK minimizedAffinity 12.7854738
REMARK minimizedRMSD -1
REMARK  0 active torsions:
REMARK  status: ('A' for Active; 'I' for Inactive)
ROOT
ATOM      1  N1  IND d   1       0.496  -1.700  -1.736  0.00  0.00    -0.196 N 
ATOM      2  C2  IND d   1       0.954  -0.598  -2.402  0.00  0.00     0.054 A 
ATOM      3  C3  IND d   1       0.613   0.529  -1.737  0.00  0.00    -0.031 A 
ATOM      4  C4  IND d   1      -0.606   0.793   0.515  0.00  0.00     0.051 A 
ATOM      5  C5  IND d   1      -1.249   0.074   1.483  0.00  0.00    -0.031 A 
ATOM      6  C6  IND d   1      -1.344  -1.302   1.427  0.00  0.00     0.015 A 
ATOM      7  C7  IND d   1      -0.785  -2.013   0.403  0.00  0.00    -0.016 A 
ATOM      8  C8  IND d   1      -0.137  -1.285  -0.585  0.00  0.00    -0.047 A 
ATOM      9  C9  IND d   1      -0.075   0.114  -0.556  0.00  0.00    -0.096 A 
ATOM     10  HN1 IND d   1       0.588  -2.516  -1.992  0.00  0.00     0.298 HD
ENDROOT
TORSDOF 0
ENDMDL
