MODEL 1
REMARK minimizedAffinity 10.7961731
REMARK minimizedRMSD -1
REMARK  0 active torsions:
REMARK  status: ('A' for Active; 'I' for Inactive)
ROOT
ATOM      1  C   UNL d   1       2.606   1.177   0.996  0.00  0.00     0.124 A 
ATOM      2  C1  UNL d   1       2.128   0.137   0.212  0.00  0.00     0.062 A 
ATOM      3  C2  UNL d   1       0.759  -0.020   0.015  0.00  0.00     0.162 A 
ATOM      4  C3  UNL d   1      -0.142   0.867   0.603  0.00  0.00    -0.034 A 
ATOM      5  C4  UNL d   1       0.346   1.911   1.391  0.00  0.00     0.162 A 
ATOM      6  C5  UNL d   1       1.715   2.063   1.585  0.00  0.00     0.062 A 
ATOM      7  F   UNL d   1       2.175   3.069   2.343  0.00  0.00    -0.097 F 
ATOM      8  F1  UNL d   1      -0.493   2.782   1.971  0.00  0.00    -0.096 F 
ATOM      9  I   UNL d   1      -2.190   0.636   0.311  0.00  0.00    -0.060 I 
ATOM     10  F2  UNL d   1       0.326  -1.035  -0.748  0.00  0.00    -0.096 F 
ATOM     11  F3  UNL d   1       2.987  -0.721  -0.358  0.00  0.00    -0.097 F 
ATOM     12  F4  UNL d   1       3.924   1.325   1.184  0.00  0.00    -0.092 F 
ENDROOT
TORSDOF 0
ENDMDL
