MODEL 1
REMARK minimizedAffinity -4.5680294
REMARK minimizedRMSD -1
REMARK  0 active torsions:
REMARK  status: ('A' for Active; 'I' for Inactive)
ROOT
ATOM      1  C   UNL d   1       1.002   2.927   0.340  0.00  0.00     0.124 A 
ATOM      2  C1  UNL d   1      -0.301   2.450   0.384  0.00  0.00     0.062 A 
ATOM      3  C2  UNL d   1      -0.544   1.080   0.414  0.00  0.00     0.162 A 
ATOM      4  C3  UNL d   1       0.518   0.176   0.400  0.00  0.00    -0.034 A 
ATOM      5  C4  UNL d   1       1.825   0.663   0.355  0.00  0.00     0.162 A 
ATOM      6  C5  UNL d   1       2.063   2.034   0.325  0.00  0.00     0.062 A 
ATOM      7  F   UNL d   1       3.323   2.492   0.282  0.00  0.00    -0.097 F 
ATOM      8  F1  UNL d   1       2.870  -0.178   0.341  0.00  0.00    -0.096 F 
ATOM      9  I   UNL d   1       0.158  -1.873   0.445  0.00  0.00    -0.060 I 
ATOM     10  F2  UNL d   1      -1.813   0.647   0.456  0.00  0.00    -0.096 F 
ATOM     11  F3  UNL d   1      -1.329   3.311   0.397  0.00  0.00    -0.097 F 
ATOM     12  F4  UNL d   1       1.233   4.246   0.310  0.00  0.00    -0.092 F 
ENDROOT
TORSDOF 0
ENDMDL
