MODEL 1
REMARK minimizedAffinity 4.3638463
REMARK minimizedRMSD -1
REMARK  0 active torsions:
REMARK  status: ('A' for Active; 'I' for Inactive)
ROOT
ATOM      1  C   UNL d   1       1.076   2.203   1.510  0.00  0.00     0.124 A 
ATOM      2  C1  UNL d   1       2.005   1.270   1.071  0.00  0.00     0.062 A 
ATOM      3  C2  UNL d   1       1.582   0.100   0.446  0.00  0.00     0.162 A 
ATOM      4  C3  UNL d   1       0.222  -0.142   0.255  0.00  0.00    -0.034 A 
ATOM      5  C4  UNL d   1      -0.707   0.800   0.700  0.00  0.00     0.162 A 
ATOM      6  C5  UNL d   1      -0.279   1.967   1.324  0.00  0.00     0.062 A 
ATOM      7  F   UNL d   1      -1.178   2.867   1.748  0.00  0.00    -0.097 F 
ATOM      8  F1  UNL d   1      -2.022   0.599   0.533  0.00  0.00    -0.096 F 
ATOM      9  I   UNL d   1      -0.416  -1.889  -0.679  0.00  0.00    -0.060 I 
ATOM     10  F2  UNL d   1       2.502  -0.783   0.032  0.00  0.00    -0.096 F 
ATOM     11  F3  UNL d   1       3.315   1.494   1.250  0.00  0.00    -0.097 F 
ATOM     12  F4  UNL d   1       1.487   3.326   2.112  0.00  0.00    -0.092 F 
ENDROOT
TORSDOF 0
ENDMDL
