MODEL 1
REMARK minimizedAffinity 1.33769488
REMARK minimizedRMSD -1
REMARK  0 active torsions:
REMARK  status: ('A' for Active; 'I' for Inactive)
ROOT
ATOM      1  C   UNL d   1       0.746   1.534   1.068  0.00  0.00     0.124 A 
ATOM      2  C1  UNL d   1      -0.630   1.378   0.986  0.00  0.00     0.062 A 
ATOM      3  C2  UNL d   1      -1.172   0.202   0.474  0.00  0.00     0.162 A 
ATOM      4  C3  UNL d   1      -0.337  -0.827   0.040  0.00  0.00    -0.034 A 
ATOM      5  C4  UNL d   1       1.047  -0.662   0.125  0.00  0.00     0.162 A 
ATOM      6  C5  UNL d   1       1.583   0.514   0.637  0.00  0.00     0.062 A 
ATOM      7  F   UNL d   1       2.914   0.664   0.716  0.00  0.00    -0.097 F 
ATOM      8  F1  UNL d   1       1.879  -1.632  -0.283  0.00  0.00    -0.096 F 
ATOM      9  I   UNL d   1      -1.143  -2.586  -0.726  0.00  0.00    -0.060 I 
ATOM     10  F2  UNL d   1      -2.506   0.078   0.407  0.00  0.00    -0.096 F 
ATOM     11  F3  UNL d   1      -1.441   2.362   1.400  0.00  0.00    -0.097 F 
ATOM     12  F4  UNL d   1       1.265   2.666   1.560  0.00  0.00    -0.092 F 
ENDROOT
TORSDOF 0
ENDMDL
