MODEL 1
REMARK minimizedAffinity -4.1065855
REMARK minimizedRMSD -1
REMARK  0 active torsions:
REMARK  status: ('A' for Active; 'I' for Inactive)
ROOT
ATOM      1  C   UNL d   1       0.994   2.569   0.458  0.00  0.00     0.124 A 
ATOM      2  C1  UNL d   1      -0.348   2.217   0.420  0.00  0.00     0.062 A 
ATOM      3  C2  UNL d   1      -0.718   0.882   0.279  0.00  0.00     0.162 A 
ATOM      4  C3  UNL d   1       0.256  -0.111   0.176  0.00  0.00    -0.034 A 
ATOM      5  C4  UNL d   1       1.604   0.251   0.214  0.00  0.00     0.162 A 
ATOM      6  C5  UNL d   1       1.969   1.586   0.356  0.00  0.00     0.062 A 
ATOM      7  F   UNL d   1       3.266   1.924   0.392  0.00  0.00    -0.097 F 
ATOM      8  F1  UNL d   1       2.566  -0.679   0.118  0.00  0.00    -0.096 F 
ATOM      9  I   UNL d   1      -0.293  -2.107  -0.035  0.00  0.00    -0.060 I 
ATOM     10  F2  UNL d   1      -2.022   0.571   0.245  0.00  0.00    -0.096 F 
ATOM     11  F3  UNL d   1      -1.291   3.164   0.518  0.00  0.00    -0.097 F 
ATOM     12  F4  UNL d   1       1.348   3.853   0.593  0.00  0.00    -0.092 F 
ENDROOT
TORSDOF 0
ENDMDL
