MODEL 1
REMARK minimizedAffinity -1.56313396
REMARK minimizedRMSD -1
REMARK  0 active torsions:
REMARK  status: ('A' for Active; 'I' for Inactive)
ROOT
ATOM      1  C   UNL d   1      -0.567  -0.519   0.443  0.00  0.00     0.124 A 
ATOM      2  C1  UNL d   1      -1.049   0.481   1.278  0.00  0.00     0.062 A 
ATOM      3  C2  UNL d   1      -0.459   1.741   1.273  0.00  0.00     0.162 A 
ATOM      4  C3  UNL d   1       0.619   2.011   0.430  0.00  0.00    -0.034 A 
ATOM      5  C4  UNL d   1       1.099   1.000  -0.406  0.00  0.00     0.162 A 
ATOM      6  C5  UNL d   1       0.506  -0.258  -0.397  0.00  0.00     0.062 A 
ATOM      7  F   UNL d   1       0.972  -1.222  -1.204  0.00  0.00    -0.097 F 
ATOM      8  F1  UNL d   1       2.134   1.225  -1.229  0.00  0.00    -0.096 F 
ATOM      9  I   UNL d   1       1.504   3.894   0.420  0.00  0.00    -0.060 I 
ATOM     10  F2  UNL d   1      -0.945   2.688   2.090  0.00  0.00    -0.096 F 
ATOM     11  F3  UNL d   1      -2.085   0.231   2.092  0.00  0.00    -0.097 F 
ATOM     12  F4  UNL d   1      -1.136  -1.731   0.451  0.00  0.00    -0.092 F 
ENDROOT
TORSDOF 0
ENDMDL
