MODEL 1
REMARK minimizedAffinity -4.29762602
REMARK minimizedRMSD -1
REMARK  0 active torsions:
REMARK  status: ('A' for Active; 'I' for Inactive)
ROOT
ATOM      1  C   UNL d   1       2.383   1.887   0.239  0.00  0.00     0.124 A 
ATOM      2  C1  UNL d   1       1.483   2.936   0.116  0.00  0.00     0.062 A 
ATOM      3  C2  UNL d   1       0.118   2.680   0.030  0.00  0.00     0.162 A 
ATOM      4  C3  UNL d   1      -0.356   1.369   0.067  0.00  0.00    -0.034 A 
ATOM      5  C4  UNL d   1       0.555   0.319   0.190  0.00  0.00     0.162 A 
ATOM      6  C5  UNL d   1       1.919   0.580   0.276  0.00  0.00     0.062 A 
ATOM      7  F   UNL d   1       2.787  -0.435   0.395  0.00  0.00    -0.097 F 
ATOM      8  F1  UNL d   1       0.134  -0.954   0.229  0.00  0.00    -0.096 F 
ATOM      9  I   UNL d   1      -2.397   0.982  -0.062  0.00  0.00    -0.060 I 
ATOM     10  F2  UNL d   1      -0.729   3.714  -0.089  0.00  0.00    -0.096 F 
ATOM     11  F3  UNL d   1       1.929   4.200   0.079  0.00  0.00    -0.097 F 
ATOM     12  F4  UNL d   1       3.697   2.136   0.321  0.00  0.00    -0.092 F 
ENDROOT
TORSDOF 0
ENDMDL
