MODEL 1
REMARK minimizedAffinity -6.69701099
REMARK minimizedRMSD -1
REMARK  0 active torsions:
REMARK  status: ('A' for Active; 'I' for Inactive)
ROOT
ATOM      1  C   UNL d   1       1.197   2.666   0.521  0.00  0.00     0.124 A 
ATOM      2  C1  UNL d   1      -0.152   2.349   0.448  0.00  0.00     0.062 A 
ATOM      3  C2  UNL d   1      -0.551   1.064   0.095  0.00  0.00     0.162 A 
ATOM      4  C3  UNL d   1       0.401   0.084  -0.187  0.00  0.00    -0.034 A 
ATOM      5  C4  UNL d   1       1.756   0.410  -0.112  0.00  0.00     0.162 A 
ATOM      6  C5  UNL d   1       2.150   1.697   0.242  0.00  0.00     0.062 A 
ATOM      7  F   UNL d   1       3.454   2.001   0.312  0.00  0.00    -0.097 F 
ATOM      8  F1  UNL d   1       2.698  -0.508  -0.376  0.00  0.00    -0.096 F 
ATOM      9  I   UNL d   1      -0.191  -1.840  -0.715  0.00  0.00    -0.060 I 
ATOM     10  F2  UNL d   1      -1.862   0.785   0.032  0.00  0.00    -0.096 F 
ATOM     11  F3  UNL d   1      -1.075   3.285   0.717  0.00  0.00    -0.097 F 
ATOM     12  F4  UNL d   1       1.578   3.905   0.860  0.00  0.00    -0.092 F 
ENDROOT
TORSDOF 0
ENDMDL
