MODEL 1
REMARK minimizedAffinity 0.39032194
REMARK minimizedRMSD -1
REMARK  0 active torsions:
REMARK  status: ('A' for Active; 'I' for Inactive)
ROOT
ATOM      1  C   UNL d   1       1.218   2.109   0.699  0.00  0.00     0.124 A 
ATOM      2  C1  UNL d   1       1.974   0.984   1.000  0.00  0.00     0.062 A 
ATOM      3  C2  UNL d   1       1.421  -0.286   0.867  0.00  0.00     0.162 A 
ATOM      4  C3  UNL d   1       0.105  -0.439   0.430  0.00  0.00    -0.034 A 
ATOM      5  C4  UNL d   1      -0.649   0.697   0.130  0.00  0.00     0.162 A 
ATOM      6  C5  UNL d   1      -0.092   1.965   0.264  0.00  0.00     0.062 A 
ATOM      7  F   UNL d   1      -0.823   3.050  -0.027  0.00  0.00    -0.097 F 
ATOM      8  F1  UNL d   1      -1.917   0.586  -0.293  0.00  0.00    -0.096 F 
ATOM      9  I   UNL d   1      -0.725  -2.337   0.230  0.00  0.00    -0.060 I 
ATOM     10  F2  UNL d   1       2.174  -1.355   1.165  0.00  0.00    -0.096 F 
ATOM     11  F3  UNL d   1       3.239   1.122   1.420  0.00  0.00    -0.097 F 
ATOM     12  F4  UNL d   1       1.752   3.331   0.828  0.00  0.00    -0.092 F 
ENDROOT
TORSDOF 0
ENDMDL
