MODEL 1
REMARK minimizedAffinity 5.3359189
REMARK minimizedRMSD -1
REMARK  0 active torsions:
REMARK  status: ('A' for Active; 'I' for Inactive)
ROOT
ATOM      1  C   UNL d   1      -0.804   2.075   1.191  0.00  0.00     0.124 A 
ATOM      2  C1  UNL d   1       0.256   1.180   1.227  0.00  0.00     0.062 A 
ATOM      3  C2  UNL d   1       0.141  -0.066   0.618  0.00  0.00     0.162 A 
ATOM      4  C3  UNL d   1      -1.039  -0.425  -0.033  0.00  0.00    -0.034 A 
ATOM      5  C4  UNL d   1      -2.102   0.480  -0.064  0.00  0.00     0.162 A 
ATOM      6  C5  UNL d   1      -1.981   1.725   0.546  0.00  0.00     0.062 A 
ATOM      7  F   UNL d   1      -3.007   2.588   0.510  0.00  0.00    -0.097 F 
ATOM      8  F1  UNL d   1      -3.251   0.168  -0.682  0.00  0.00    -0.096 F 
ATOM      9  I   UNL d   1      -1.216  -2.288  -0.945  0.00  0.00    -0.060 I 
ATOM     10  F2  UNL d   1       1.181  -0.912   0.668  0.00  0.00    -0.096 F 
ATOM     11  F3  UNL d   1       1.395   1.516   1.850  0.00  0.00    -0.097 F 
ATOM     12  F4  UNL d   1      -0.690   3.273   1.779  0.00  0.00    -0.092 F 
ENDROOT
TORSDOF 0
ENDMDL
