MODEL 1
REMARK minimizedAffinity -4.5062952
REMARK minimizedRMSD -1
REMARK  0 active torsions:
REMARK  status: ('A' for Active; 'I' for Inactive)
ROOT
ATOM      1  C   UNL d   1       2.443   2.154   0.298  0.00  0.00     0.124 A 
ATOM      2  C1  UNL d   1       2.277   0.789   0.485  0.00  0.00     0.062 A 
ATOM      3  C2  UNL d   1       1.004   0.256   0.660  0.00  0.00     0.162 A 
ATOM      4  C3  UNL d   1      -0.115   1.089   0.648  0.00  0.00    -0.034 A 
ATOM      5  C4  UNL d   1       0.060   2.461   0.460  0.00  0.00     0.162 A 
ATOM      6  C5  UNL d   1       1.335   2.989   0.285  0.00  0.00     0.062 A 
ATOM      7  F   UNL d   1       1.493   4.308   0.105  0.00  0.00    -0.097 F 
ATOM      8  F1  UNL d   1      -0.994   3.291   0.443  0.00  0.00    -0.096 F 
ATOM      9  I   UNL d   1      -2.022   0.296   0.910  0.00  0.00    -0.060 I 
ATOM     10  F2  UNL d   1       0.873  -1.067   0.839  0.00  0.00    -0.096 F 
ATOM     11  F3  UNL d   1       3.347  -0.020   0.498  0.00  0.00    -0.097 F 
ATOM     12  F4  UNL d   1       3.670   2.664   0.130  0.00  0.00    -0.092 F 
ENDROOT
TORSDOF 0
ENDMDL
