MODEL 1
REMARK minimizedAffinity 4.9345479
REMARK minimizedRMSD -1
REMARK  0 active torsions:
REMARK  status: ('A' for Active; 'I' for Inactive)
ROOT
ATOM      1  C1  DEN d   1      -0.386  -2.549  -2.036  0.00  0.00     0.130 A 
ATOM      2  C2  DEN d   1      -0.668  -3.973  -1.882  0.00  0.00    -0.031 A 
ATOM      3  C3  DEN d   1      -1.207  -4.473  -3.163  0.00  0.00     0.027 A 
ATOM      4  C4  DEN d   1      -1.624  -3.188  -5.360  0.00  0.00     0.027 A 
ATOM      5  C5  DEN d   1      -1.549  -1.956  -5.971  0.00  0.00    -0.003 A 
ATOM      6  C6  DEN d   1      -1.117  -0.837  -5.309  0.00  0.00     0.001 A 
ATOM      7  C7  DEN d   1      -0.700  -0.938  -4.008  0.00  0.00     0.017 A 
ATOM      8  C8  DEN d   1      -0.779  -2.175  -3.383  0.00  0.00    -0.094 A 
ATOM      9  C9  DEN d   1      -1.208  -3.296  -4.073  0.00  0.00    -0.072 A 
ENDROOT
TORSDOF 0
ENDMDL
