MODEL 1
REMARK minimizedAffinity -3.94302654
REMARK minimizedRMSD -1
REMARK  0 active torsions:
REMARK  status: ('A' for Active; 'I' for Inactive)
ROOT
ATOM      1  C1  DEN d   1      -0.154  -1.260  -1.401  0.00  0.00     0.130 A 
ATOM      2  C2  DEN d   1      -1.116  -0.161  -1.409  0.00  0.00    -0.031 A 
ATOM      3  C3  DEN d   1      -0.637   0.871  -0.467  0.00  0.00     0.027 A 
ATOM      4  C4  DEN d   1       1.492   0.877   0.989  0.00  0.00     0.027 A 
ATOM      5  C5  DEN d   1       2.611   0.157   1.343  0.00  0.00    -0.003 A 
ATOM      6  C6  DEN d   1       2.868  -1.090   0.838  0.00  0.00     0.001 A 
ATOM      7  C7  DEN d   1       2.016  -1.637  -0.086  0.00  0.00     0.017 A 
ATOM      8  C8  DEN d   1       0.881  -0.920  -0.442  0.00  0.00    -0.094 A 
ATOM      9  C9  DEN d   1       0.646   0.344   0.070  0.00  0.00    -0.072 A 
ENDROOT
TORSDOF 0
ENDMDL
