MODEL 1
REMARK minimizedAffinity -2.65643668
REMARK minimizedRMSD -1
REMARK  0 active torsions:
REMARK  status: ('A' for Active; 'I' for Inactive)
ROOT
ATOM      1  C1  DEN d   1      -2.094   0.149  -2.572  0.00  0.00     0.130 A 
ATOM      2  C2  DEN d   1      -1.846  -0.833  -3.624  0.00  0.00    -0.031 A 
ATOM      3  C3  DEN d   1      -0.677  -1.643  -3.226  0.00  0.00     0.027 A 
ATOM      4  C4  DEN d   1       0.763  -1.476  -1.093  0.00  0.00     0.027 A 
ATOM      5  C5  DEN d   1       0.946  -0.789   0.087  0.00  0.00    -0.003 A 
ATOM      6  C6  DEN d   1       0.156   0.271   0.445  0.00  0.00     0.001 A 
ATOM      7  C7  DEN d   1      -0.882   0.648  -0.365  0.00  0.00     0.017 A 
ATOM      8  C8  DEN d   1      -1.068  -0.035  -1.560  0.00  0.00    -0.094 A 
ATOM      9  C9  DEN d   1      -0.267  -1.113  -1.898  0.00  0.00    -0.072 A 
ENDROOT
TORSDOF 0
ENDMDL
