MODEL 1
REMARK minimizedAffinity -3.27182341
REMARK minimizedRMSD -1
REMARK  0 active torsions:
REMARK  status: ('A' for Active; 'I' for Inactive)
ROOT
ATOM      1  C1  DEN d   1       2.777  -2.726  -1.524  0.00  0.00     0.130 A 
ATOM      2  C2  DEN d   1       3.507  -2.521  -2.772  0.00  0.00    -0.031 A 
ATOM      3  C3  DEN d   1       4.127  -1.182  -2.724  0.00  0.00     0.027 A 
ATOM      4  C4  DEN d   1       4.033   0.583  -0.846  0.00  0.00     0.027 A 
ATOM      5  C5  DEN d   1       3.526   0.868   0.402  0.00  0.00    -0.003 A 
ATOM      6  C6  DEN d   1       2.712  -0.004   1.076  0.00  0.00     0.001 A 
ATOM      7  C7  DEN d   1       2.418  -1.222   0.524  0.00  0.00     0.017 A 
ATOM      8  C8  DEN d   1       2.920  -1.514  -0.738  0.00  0.00    -0.094 A 
ATOM      9  C9  DEN d   1       3.751  -0.624  -1.397  0.00  0.00    -0.072 A 
ENDROOT
TORSDOF 0
ENDMDL
