MODEL 1
REMARK minimizedAffinity 7.98816204
REMARK minimizedRMSD -1
REMARK  0 active torsions:
REMARK  status: ('A' for Active; 'I' for Inactive)
ROOT
ATOM      1  C1  DEN d   1       1.787   2.149   0.575  0.00  0.00     0.130 A 
ATOM      2  C2  DEN d   1       0.577   2.966   0.615  0.00  0.00    -0.031 A 
ATOM      3  C3  DEN d   1      -0.558   2.123   0.188  0.00  0.00     0.027 A 
ATOM      4  C4  DEN d   1      -0.560  -0.356  -0.522  0.00  0.00     0.027 A 
ATOM      5  C5  DEN d   1       0.229  -1.466  -0.726  0.00  0.00    -0.003 A 
ATOM      6  C6  DEN d   1       1.586  -1.440  -0.545  0.00  0.00     0.001 A 
ATOM      7  C7  DEN d   1       2.190  -0.293  -0.104  0.00  0.00     0.017 A 
ATOM      8  C8  DEN d   1       1.402   0.833   0.096  0.00  0.00    -0.094 A 
ATOM      9  C9  DEN d   1       0.030   0.783  -0.081  0.00  0.00    -0.072 A 
ENDROOT
TORSDOF 0
ENDMDL
