MODEL 1
REMARK minimizedAffinity -1.13532102
REMARK minimizedRMSD -1
REMARK  0 active torsions:
REMARK  status: ('A' for Active; 'I' for Inactive)
ROOT
ATOM      1  C1  DEN d   1      -2.174  -0.404   0.699  0.00  0.00     0.130 A 
ATOM      2  C2  DEN d   1      -2.966   0.821   0.764  0.00  0.00    -0.031 A 
ATOM      3  C3  DEN d   1      -2.049   1.967   0.607  0.00  0.00     0.027 A 
ATOM      4  C4  DEN d   1       0.508   1.965   0.268  0.00  0.00     0.027 A 
ATOM      5  C5  DEN d   1       1.625   1.166   0.158  0.00  0.00    -0.003 A 
ATOM      6  C6  DEN d   1       1.559  -0.199   0.254  0.00  0.00     0.001 A 
ATOM      7  C7  DEN d   1       0.344  -0.810   0.421  0.00  0.00     0.017 A 
ATOM      8  C8  DEN d   1      -0.785  -0.011   0.540  0.00  0.00    -0.094 A 
ATOM      9  C9  DEN d   1      -0.700   1.367   0.428  0.00  0.00    -0.072 A 
ENDROOT
TORSDOF 0
ENDMDL
