MODEL 1
REMARK minimizedAffinity -2.12406945
REMARK minimizedRMSD -1
REMARK  0 active torsions:
REMARK  status: ('A' for Active; 'I' for Inactive)
ROOT
ATOM      1  C1  DEN d   1       3.255  -0.575   0.492  0.00  0.00     0.130 A 
ATOM      2  C2  DEN d   1       2.801   0.583   1.257  0.00  0.00    -0.031 A 
ATOM      3  C3  DEN d   1       1.353   0.749   1.017  0.00  0.00     0.027 A 
ATOM      4  C4  DEN d   1      -0.221  -0.670  -0.453  0.00  0.00     0.027 A 
ATOM      5  C5  DEN d   1      -0.291  -1.749  -1.306  0.00  0.00    -0.003 A 
ATOM      6  C6  DEN d   1       0.813  -2.486  -1.643  0.00  0.00     0.001 A 
ATOM      7  C7  DEN d   1       2.028  -2.181  -1.089  0.00  0.00     0.017 A 
ATOM      8  C8  DEN d   1       2.108  -1.089  -0.234  0.00  0.00    -0.094 A 
ATOM      9  C9  DEN d   1       0.978  -0.364   0.104  0.00  0.00    -0.072 A 
ENDROOT
TORSDOF 0
ENDMDL
