MODEL 1
REMARK minimizedAffinity 12.987359
REMARK minimizedRMSD -1
REMARK  1 active torsions:
REMARK  status: ('A' for Active; 'I' for Inactive)
REMARK    1  A    between atoms: C1_2  and  C2_3 
ROOT
ATOM      1  C2  UNL d   1      -1.914   4.005   0.110  0.00  0.00    -0.077 A 
ATOM      2  C3  UNL d   1      -1.586   3.025   1.057  0.00  0.00     0.002 A 
ATOM      3  C4  UNL d   1      -0.504   2.169   0.843  0.00  0.00     0.002 A 
ATOM      4  C5  UNL d   1       0.261   2.287  -0.316  0.00  0.00    -0.004 A 
ATOM      5  C6  UNL d   1      -0.059   3.257  -1.265  0.00  0.00     0.002 A 
ATOM      6  C7  UNL d   1      -1.140   4.113  -1.053  0.00  0.00     0.002 A 
ENDROOT
BRANCH   1   7
ATOM      7  C1  UNL d   1      -3.050   4.962   0.363  0.00  0.00     0.055 C 
ATOM      8  C   UNL d   1      -3.032   5.476   1.795  0.00  0.00     0.019 C 
ENDBRANCH   1   7
TORSDOF 1
ENDMDL
