MODEL 1
REMARK minimizedAffinity 10.3188
REMARK minimizedRMSD -1
REMARK  1 active torsions:
REMARK  status: ('A' for Active; 'I' for Inactive)
REMARK    1  A    between atoms: C1_2  and  C2_3 
ROOT
ATOM      1  C2  UNL d   1       0.190   4.188  -0.863  0.00  0.00    -0.077 A 
ATOM      2  C3  UNL d   1      -0.838   4.232   0.089  0.00  0.00     0.002 A 
ATOM      3  C4  UNL d   1      -1.206   3.078   0.784  0.00  0.00     0.002 A 
ATOM      4  C5  UNL d   1      -0.549   1.874   0.537  0.00  0.00    -0.004 A 
ATOM      5  C6  UNL d   1       0.474   1.821  -0.410  0.00  0.00     0.002 A 
ATOM      6  C7  UNL d   1       0.842   2.973  -1.106  0.00  0.00     0.002 A 
ENDROOT
BRANCH   1   7
ATOM      7  C1  UNL d   1       0.622   5.442  -1.578  0.00  0.00     0.055 C 
ATOM      8  C   UNL d   1      -0.445   5.919  -2.553  0.00  0.00     0.019 C 
ENDBRANCH   1   7
TORSDOF 1
ENDMDL
