MODEL 1
REMARK minimizedAffinity 10.5301561
REMARK minimizedRMSD -1
REMARK  1 active torsions:
REMARK  status: ('A' for Active; 'I' for Inactive)
REMARK    1  A    between atoms: C1_2  and  C2_3 
ROOT
ATOM      1  C2  UNL d   1       2.943  -5.171  -2.974  0.00  0.00    -0.077 A 
ATOM      2  C3  UNL d   1       2.103  -4.497  -3.872  0.00  0.00     0.002 A 
ATOM      3  C4  UNL d   1       0.845  -4.051  -3.462  0.00  0.00     0.002 A 
ATOM      4  C5  UNL d   1       0.417  -4.271  -2.155  0.00  0.00    -0.004 A 
ATOM      5  C6  UNL d   1       1.245  -4.942  -1.255  0.00  0.00     0.002 A 
ATOM      6  C7  UNL d   1       2.502  -5.389  -1.663  0.00  0.00     0.002 A 
ENDROOT
BRANCH   1   7
ATOM      7  C1  UNL d   1       4.320  -5.609  -3.399  0.00  0.00     0.055 C 
ATOM      8  C   UNL d   1       5.320  -5.478  -2.259  0.00  0.00     0.019 C 
ENDBRANCH   1   7
TORSDOF 1
ENDMDL
