MODEL 1
REMARK minimizedAffinity 16.0306416
REMARK minimizedRMSD -1
REMARK  1 active torsions:
REMARK  status: ('A' for Active; 'I' for Inactive)
REMARK    1  A    between atoms: C1_2  and  C2_3 
ROOT
ATOM      1  C2  UNL d   1       3.406  -5.219  -2.806  0.00  0.00    -0.077 A 
ATOM      2  C3  UNL d   1       3.690  -5.610  -1.490  0.00  0.00     0.002 A 
ATOM      3  C4  UNL d   1       4.982  -6.000  -1.132  0.00  0.00     0.002 A 
ATOM      4  C5  UNL d   1       6.000  -5.999  -2.083  0.00  0.00    -0.004 A 
ATOM      5  C6  UNL d   1       5.727  -5.614  -3.395  0.00  0.00     0.002 A 
ATOM      6  C7  UNL d   1       4.436  -5.226  -3.755  0.00  0.00     0.002 A 
ENDROOT
BRANCH   1   7
ATOM      7  C1  UNL d   1       2.024  -4.752  -3.183  0.00  0.00     0.055 C 
ATOM      8  C   UNL d   1       1.161  -4.526  -1.950  0.00  0.00     0.019 C 
ENDBRANCH   1   7
TORSDOF 1
ENDMDL
