MODEL 1
REMARK minimizedAffinity 8.61057854
REMARK minimizedRMSD -1
REMARK  1 active torsions:
REMARK  status: ('A' for Active; 'I' for Inactive)
REMARK    1  A    between atoms: C1_2  and  C2_3 
ROOT
ATOM      1  C2  UNL d   1       1.163  -4.770  -2.467  0.00  0.00    -0.077 A 
ATOM      2  C3  UNL d   1       2.336  -5.169  -3.124  0.00  0.00     0.002 A 
ATOM      3  C4  UNL d   1       2.476  -4.973  -4.499  0.00  0.00     0.002 A 
ATOM      4  C5  UNL d   1       1.450  -4.375  -5.228  0.00  0.00    -0.004 A 
ATOM      5  C6  UNL d   1       0.279  -3.978  -4.584  0.00  0.00     0.002 A 
ATOM      6  C7  UNL d   1       0.136  -4.174  -3.210  0.00  0.00     0.002 A 
ENDROOT
BRANCH   1   7
ATOM      7  C1  UNL d   1       1.030  -4.936  -0.976  0.00  0.00     0.055 C 
ATOM      8  C   UNL d   1       1.525  -3.702  -0.235  0.00  0.00     0.019 C 
ENDBRANCH   1   7
TORSDOF 1
ENDMDL
