MODEL 1
REMARK minimizedAffinity -4.48229742
REMARK minimizedRMSD -1
REMARK  0 active torsions:
REMARK  status: ('A' for Active; 'I' for Inactive)
ROOT
ATOM      1  C4' PXY d   1      -0.008  -0.432  -0.325  0.00  0.00     0.077 C 
ATOM      2  C1' PXY d   1       2.205  -0.135  -5.657  0.00  0.00     0.077 C 
ATOM      3  C1  PXY d   1       1.635  -0.221  -4.255  0.00  0.00    -0.082 A 
ATOM      4  C2  PXY d   1       0.341  -0.022  -4.062  0.00  0.00     0.003 A 
ATOM      5  C3  PXY d   1      -0.186  -0.064  -2.797  0.00  0.00     0.003 A 
ATOM      6  C4  PXY d   1       0.610  -0.365  -1.724  0.00  0.00    -0.082 A 
ATOM      7  C5  PXY d   1       1.929  -0.580  -1.914  0.00  0.00     0.003 A 
ATOM      8  C6  PXY d   1       2.452  -0.492  -3.201  0.00  0.00     0.003 A 
ENDROOT
TORSDOF 0
ENDMDL
