MODEL 1
REMARK minimizedAffinity 0.775702238
REMARK minimizedRMSD -1
REMARK  0 active torsions:
REMARK  status: ('A' for Active; 'I' for Inactive)
ROOT
ATOM      1  C4' PXY d   1      -2.927  -2.912  -4.001  0.00  0.00     0.077 C 
ATOM      2  C1' PXY d   1      -0.866  -0.671   0.912  0.00  0.00     0.077 C 
ATOM      3  C1  PXY d   1      -1.405  -1.270  -0.371  0.00  0.00    -0.082 A 
ATOM      4  C2  PXY d   1      -1.301  -0.594  -1.504  0.00  0.00     0.003 A 
ATOM      5  C3  PXY d   1      -1.812  -1.108  -2.668  0.00  0.00     0.003 A 
ATOM      6  C4  PXY d   1      -2.388  -2.349  -2.683  0.00  0.00    -0.082 A 
ATOM      7  C5  PXY d   1      -2.489  -3.050  -1.534  0.00  0.00     0.003 A 
ATOM      8  C6  PXY d   1      -2.001  -2.493  -0.355  0.00  0.00     0.003 A 
ENDROOT
TORSDOF 0
ENDMDL
