MODEL 1
REMARK minimizedAffinity -3.30021501
REMARK minimizedRMSD -1
REMARK  0 active torsions:
REMARK  status: ('A' for Active; 'I' for Inactive)
ROOT
ATOM      1  C4' PXY d   1      -5.994   6.000  -1.125  0.00  0.00     0.077 C 
ATOM      2  C1' PXY d   1      -4.381   2.654   3.304  0.00  0.00     0.077 C 
ATOM      3  C1  PXY d   1      -4.810   3.539   2.151  0.00  0.00    -0.082 A 
ATOM      4  C2  PXY d   1      -4.866   3.038   0.927  0.00  0.00     0.003 A 
ATOM      5  C3  PXY d   1      -5.222   3.833  -0.132  0.00  0.00     0.003 A 
ATOM      6  C4  PXY d   1      -5.575   5.140   0.071  0.00  0.00    -0.082 A 
ATOM      7  C5  PXY d   1      -5.530   5.656   1.318  0.00  0.00     0.003 A 
ATOM      8  C6  PXY d   1      -5.127   4.843   2.373  0.00  0.00     0.003 A 
ENDROOT
TORSDOF 0
ENDMDL
