MODEL 1
REMARK minimizedAffinity -4.49348783
REMARK minimizedRMSD -1
REMARK  0 active torsions:
REMARK  status: ('A' for Active; 'I' for Inactive)
ROOT
ATOM      1  C4' PXY d   1      -2.979  -3.742  -4.275  0.00  0.00     0.077 C 
ATOM      2  C1' PXY d   1      -0.960  -1.159   0.487  0.00  0.00     0.077 C 
ATOM      3  C1  PXY d   1      -1.481  -1.847  -0.760  0.00  0.00    -0.082 A 
ATOM      4  C2  PXY d   1      -2.015  -1.123  -1.731  0.00  0.00     0.003 A 
ATOM      5  C3  PXY d   1      -2.521  -1.732  -2.851  0.00  0.00     0.003 A 
ATOM      6  C4  PXY d   1      -2.431  -3.089  -3.002  0.00  0.00    -0.082 A 
ATOM      7  C5  PXY d   1      -1.878  -3.833  -2.021  0.00  0.00     0.003 A 
ATOM      8  C6  PXY d   1      -1.408  -3.201  -0.874  0.00  0.00     0.003 A 
ENDROOT
TORSDOF 0
ENDMDL
