MODEL 1
REMARK minimizedAffinity -3.49170613
REMARK minimizedRMSD -1
REMARK  0 active torsions:
REMARK  status: ('A' for Active; 'I' for Inactive)
ROOT
ATOM      1  C4' PXY d   1      -2.782  -3.796  -3.553  0.00  0.00     0.077 C 
ATOM      2  C1' PXY d   1      -1.468  -0.722   1.163  0.00  0.00     0.077 C 
ATOM      3  C1  PXY d   1      -1.803  -1.537  -0.071  0.00  0.00    -0.082 A 
ATOM      4  C2  PXY d   1      -2.389  -0.951  -1.103  0.00  0.00     0.003 A 
ATOM      5  C3  PXY d   1      -2.728  -1.680  -2.214  0.00  0.00     0.003 A 
ATOM      6  C4  PXY d   1      -2.416  -3.011  -2.291  0.00  0.00    -0.082 A 
ATOM      7  C5  PXY d   1      -1.809  -3.613  -1.247  0.00  0.00     0.003 A 
ATOM      8  C6  PXY d   1      -1.511  -2.865  -0.112  0.00  0.00     0.003 A 
ENDROOT
TORSDOF 0
ENDMDL
