MODEL 1
REMARK minimizedAffinity -2.71004462
REMARK minimizedRMSD -1
REMARK  0 active torsions:
REMARK  status: ('A' for Active; 'I' for Inactive)
ROOT
ATOM      1  C4' PXY d   1      -3.753  -3.746   4.497  0.00  0.00     0.077 C 
ATOM      2  C1' PXY d   1      -3.551   1.833   5.998  0.00  0.00     0.077 C 
ATOM      3  C1  PXY d   1      -3.611   0.367   5.614  0.00  0.00    -0.082 A 
ATOM      4  C2  PXY d   1      -2.634  -0.162   4.897  0.00  0.00     0.003 A 
ATOM      5  C3  PXY d   1      -2.689  -1.478   4.514  0.00  0.00     0.003 A 
ATOM      6  C4  PXY d   1      -3.729  -2.273   4.915  0.00  0.00    -0.082 A 
ATOM      7  C5  PXY d   1      -4.724  -1.743   5.657  0.00  0.00     0.003 A 
ATOM      8  C6  PXY d   1      -4.670  -0.395   6.000  0.00  0.00     0.003 A 
ENDROOT
TORSDOF 0
ENDMDL
