MODEL 1
REMARK minimizedAffinity 6.90637922
REMARK minimizedRMSD -1
REMARK  0 active torsions:
REMARK  status: ('A' for Active; 'I' for Inactive)
ROOT
ATOM      1  C4' PXY d   1      -3.302  -3.319   4.173  0.00  0.00     0.077 C 
ATOM      2  C1' PXY d   1      -3.275   2.262   5.678  0.00  0.00     0.077 C 
ATOM      3  C1  PXY d   1      -3.279   0.801   5.272  0.00  0.00    -0.082 A 
ATOM      4  C2  PXY d   1      -4.035  -0.060   5.932  0.00  0.00     0.003 A 
ATOM      5  C3  PXY d   1      -4.026  -1.390   5.598  0.00  0.00     0.003 A 
ATOM      6  C4  PXY d   1      -3.275  -1.834   4.543  0.00  0.00    -0.082 A 
ATOM      7  C5  PXY d   1      -2.508  -0.960   3.857  0.00  0.00     0.003 A 
ATOM      8  C6  PXY d   1      -2.500   0.379   4.238  0.00  0.00     0.003 A 
ENDROOT
TORSDOF 0
ENDMDL
