MODEL 1
REMARK minimizedAffinity 3.8814466
REMARK minimizedRMSD -1
REMARK  0 active torsions:
REMARK  status: ('A' for Active; 'I' for Inactive)
ROOT
ATOM      1  C4' PXY d   1      -6.000  -5.238  -0.289  0.00  0.00     0.077 C 
ATOM      2  C1' PXY d   1      -1.440  -1.746  -0.941  0.00  0.00     0.077 C 
ATOM      3  C1  PXY d   1      -2.628  -2.672  -0.765  0.00  0.00    -0.082 A 
ATOM      4  C2  PXY d   1      -3.716  -2.484  -1.494  0.00  0.00     0.003 A 
ATOM      5  C3  PXY d   1      -4.811  -3.292  -1.325  0.00  0.00     0.003 A 
ATOM      6  C4  PXY d   1      -4.773  -4.335  -0.439  0.00  0.00    -0.082 A 
ATOM      7  C5  PXY d   1      -3.663  -4.539   0.301  0.00  0.00     0.003 A 
ATOM      8  C6  PXY d   1      -2.576  -3.683   0.144  0.00  0.00     0.003 A 
ENDROOT
TORSDOF 0
ENDMDL
