MODEL 1
REMARK minimizedAffinity -1.11729431
REMARK minimizedRMSD -1
REMARK  0 active torsions:
REMARK  status: ('A' for Active; 'I' for Inactive)
ROOT
ATOM      1  C4' PXY d   1      -4.865   5.405   0.057  0.00  0.00     0.077 C 
ATOM      2  C1' PXY d   1      -4.758   5.943   5.811  0.00  0.00     0.077 C 
ATOM      3  C1  PXY d   1      -4.797   5.794   4.303  0.00  0.00    -0.082 A 
ATOM      4  C2  PXY d   1      -3.694   5.991   3.598  0.00  0.00     0.003 A 
ATOM      5  C3  PXY d   1      -3.719   5.892   2.231  0.00  0.00     0.003 A 
ATOM      6  C4  PXY d   1      -4.871   5.535   1.582  0.00  0.00    -0.082 A 
ATOM      7  C5  PXY d   1      -5.997   5.321   2.296  0.00  0.00     0.003 A 
ATOM      8  C6  PXY d   1      -5.961   5.468   3.679  0.00  0.00     0.003 A 
ENDROOT
TORSDOF 0
ENDMDL
