MODEL 1
REMARK minimizedAffinity 2.36657572
REMARK minimizedRMSD -1
REMARK  0 active torsions:
REMARK  status: ('A' for Active; 'I' for Inactive)
ROOT
ATOM      1  C4' PXY d   1      -2.944  -2.961  -4.474  0.00  0.00     0.077 C 
ATOM      2  C1' PXY d   1      -1.334  -0.450   0.478  0.00  0.00     0.077 C 
ATOM      3  C1  PXY d   1      -1.752  -1.120  -0.816  0.00  0.00    -0.082 A 
ATOM      4  C2  PXY d   1      -1.884  -0.395  -1.915  0.00  0.00     0.003 A 
ATOM      5  C3  PXY d   1      -2.292  -0.979  -3.087  0.00  0.00     0.003 A 
ATOM      6  C4  PXY d   1      -2.515  -2.329  -3.147  0.00  0.00    -0.082 A 
ATOM      7  C5  PXY d   1      -2.371  -3.077  -2.033  0.00  0.00     0.003 A 
ATOM      8  C6  PXY d   1      -1.996  -2.458  -0.844  0.00  0.00     0.003 A 
ENDROOT
TORSDOF 0
ENDMDL
