MODEL 1
REMARK minimizedAffinity -0.174478665
REMARK minimizedRMSD -1
REMARK  0 active torsions:
REMARK  status: ('A' for Active; 'I' for Inactive)
ROOT
ATOM      1  C4' PXY d   1       2.300   2.895   3.398  0.00  0.00     0.077 C 
ATOM      2  C1' PXY d   1       4.256   4.457  -1.812  0.00  0.00     0.077 C 
ATOM      3  C1  PXY d   1       3.755   4.049  -0.441  0.00  0.00    -0.082 A 
ATOM      4  C2  PXY d   1       2.678   3.289  -0.338  0.00  0.00     0.003 A 
ATOM      5  C3  PXY d   1       2.192   2.937   0.895  0.00  0.00     0.003 A 
ATOM      6  C4  PXY d   1       2.847   3.324   2.034  0.00  0.00    -0.082 A 
ATOM      7  C5  PXY d   1       3.954   4.091   1.936  0.00  0.00     0.003 A 
ATOM      8  C6  PXY d   1       4.407   4.471   0.677  0.00  0.00     0.003 A 
ENDROOT
TORSDOF 0
ENDMDL
