MODEL 1
REMARK minimizedAffinity 1.07519281
REMARK minimizedRMSD -1
REMARK  0 active torsions:
REMARK  status: ('A' for Active; 'I' for Inactive)
ROOT
ATOM      1  C4' PXY d   1      -5.836   5.995   0.391  0.00  0.00     0.077 C 
ATOM      2  C1' PXY d   1      -4.032   3.364   5.211  0.00  0.00     0.077 C 
ATOM      3  C1  PXY d   1      -4.517   4.056   3.953  0.00  0.00    -0.082 A 
ATOM      4  C2  PXY d   1      -3.936   3.788   2.794  0.00  0.00     0.003 A 
ATOM      5  C3  PXY d   1      -4.341   4.429   1.651  0.00  0.00     0.003 A 
ATOM      6  C4  PXY d   1      -5.386   5.313   1.686  0.00  0.00    -0.082 A 
ATOM      7  C5  PXY d   1      -5.991   5.583   2.862  0.00  0.00     0.003 A 
ATOM      8  C6  PXY d   1      -5.538   4.953   4.018  0.00  0.00     0.003 A 
ENDROOT
TORSDOF 0
ENDMDL
