MODEL 1
REMARK minimizedAffinity 0.0970769972
REMARK minimizedRMSD -1
REMARK  0 active torsions:
REMARK  status: ('A' for Active; 'I' for Inactive)
ROOT
ATOM      1  C4' PXY d   1      -6.000   5.994   1.736  0.00  0.00     0.077 C 
ATOM      2  C1' PXY d   1      -2.208   3.770   5.490  0.00  0.00     0.077 C 
ATOM      3  C1  PXY d   1      -3.209   4.359   4.515  0.00  0.00    -0.082 A 
ATOM      4  C2  PXY d   1      -3.374   3.798   3.328  0.00  0.00     0.003 A 
ATOM      5  C3  PXY d   1      -4.251   4.336   2.423  0.00  0.00     0.003 A 
ATOM      6  C4  PXY d   1      -5.007   5.428   2.755  0.00  0.00    -0.082 A 
ATOM      7  C5  PXY d   1      -4.853   6.000   3.969  0.00  0.00     0.003 A 
ATOM      8  C6  PXY d   1      -3.927   5.463   4.858  0.00  0.00     0.003 A 
ENDROOT
TORSDOF 0
ENDMDL
