MODEL 1
REMARK minimizedAffinity 3.03248072
REMARK minimizedRMSD -1
REMARK  0 active torsions:
REMARK  status: ('A' for Active; 'I' for Inactive)
ROOT
ATOM      1  C4' PXY d   1      -1.152  -1.319  -0.520  0.00  0.00     0.077 C 
ATOM      2  C1' PXY d   1      -3.799  -2.805  -5.439  0.00  0.00     0.077 C 
ATOM      3  C1  PXY d   1      -3.114  -2.421  -4.142  0.00  0.00    -0.082 A 
ATOM      4  C2  PXY d   1      -2.306  -1.374  -4.114  0.00  0.00     0.003 A 
ATOM      5  C3  PXY d   1      -1.654  -1.032  -2.957  0.00  0.00     0.003 A 
ATOM      6  C4  PXY d   1      -1.872  -1.738  -1.805  0.00  0.00    -0.082 A 
ATOM      7  C5  PXY d   1      -2.703  -2.801  -1.823  0.00  0.00     0.003 A 
ATOM      8  C6  PXY d   1      -3.323  -3.157  -3.017  0.00  0.00     0.003 A 
ENDROOT
TORSDOF 0
ENDMDL
