MODEL 1
REMARK minimizedAffinity 5.76790142
REMARK minimizedRMSD -1
REMARK  0 active torsions:
REMARK  status: ('A' for Active; 'I' for Inactive)
ROOT
ATOM      1  C4' PXY d   1       3.248   3.493   0.077  0.00  0.00     0.077 C 
ATOM      2  C1' PXY d   1       1.752   1.670   5.355  0.00  0.00     0.077 C 
ATOM      3  C1  PXY d   1       2.152   2.157   3.976  0.00  0.00    -0.082 A 
ATOM      4  C2  PXY d   1       1.364   1.913   2.942  0.00  0.00     0.003 A 
ATOM      5  C3  PXY d   1       1.725   2.318   1.683  0.00  0.00     0.003 A 
ATOM      6  C4  PXY d   1       2.880   3.028   1.489  0.00  0.00    -0.082 A 
ATOM      7  C5  PXY d   1       3.684   3.291   2.541  0.00  0.00     0.003 A 
ATOM      8  C6  PXY d   1       3.319   2.835   3.804  0.00  0.00     0.003 A 
ENDROOT
TORSDOF 0
ENDMDL
