MODEL 1
REMARK minimizedAffinity 7.71667433
REMARK minimizedRMSD -1
REMARK  0 active torsions:
REMARK  status: ('A' for Active; 'I' for Inactive)
ROOT
ATOM      1  C4' PXY d   1      -2.750  -0.809   3.095  0.00  0.00     0.077 C 
ATOM      2  C1' PXY d   1      -0.005   0.588  -1.797  0.00  0.00     0.077 C 
ATOM      3  C1  PXY d   1      -0.717   0.212  -0.512  0.00  0.00    -0.082 A 
ATOM      4  C2  PXY d   1      -1.983   0.555  -0.341  0.00  0.00     0.003 A 
ATOM      5  C3  PXY d   1      -2.632   0.251   0.828  0.00  0.00     0.003 A 
ATOM      6  C4  PXY d   1      -1.995  -0.459   1.810  0.00  0.00    -0.082 A 
ATOM      7  C5  PXY d   1      -0.706  -0.822   1.639  0.00  0.00     0.003 A 
ATOM      8  C6  PXY d   1      -0.053  -0.468   0.462  0.00  0.00     0.003 A 
ENDROOT
TORSDOF 0
ENDMDL
