MODEL 1
REMARK minimizedAffinity 2.4407258
REMARK minimizedRMSD -1
REMARK  0 active torsions:
REMARK  status: ('A' for Active; 'I' for Inactive)
ROOT
ATOM      1  C4' PXY d   1      -5.997  -5.570  -1.208  0.00  0.00     0.077 C 
ATOM      2  C1' PXY d   1      -2.517  -2.388  -4.550  0.00  0.00     0.077 C 
ATOM      3  C1  PXY d   1      -3.432  -3.230  -3.684  0.00  0.00    -0.082 A 
ATOM      4  C2  PXY d   1      -4.017  -2.687  -2.628  0.00  0.00     0.003 A 
ATOM      5  C3  PXY d   1      -4.822  -3.443  -1.816  0.00  0.00     0.003 A 
ATOM      6  C4  PXY d   1      -5.073  -4.755  -2.116  0.00  0.00    -0.082 A 
ATOM      7  C5  PXY d   1      -4.489  -5.314  -3.197  0.00  0.00     0.003 A 
ATOM      8  C6  PXY d   1      -3.642  -4.540  -3.986  0.00  0.00     0.003 A 
ENDROOT
TORSDOF 0
ENDMDL
