MODEL 1
REMARK minimizedAffinity -4.62693167
REMARK minimizedRMSD -1
REMARK  0 active torsions:
REMARK  status: ('A' for Active; 'I' for Inactive)
ROOT
ATOM      1  C4' PXY d   1      -3.541   1.187   2.328  0.00  0.00     0.077 C 
ATOM      2  C1' PXY d   1      -5.778   5.818   4.968  0.00  0.00     0.077 C 
ATOM      3  C1  PXY d   1      -5.188   4.599   4.287  0.00  0.00    -0.082 A 
ATOM      4  C2  PXY d   1      -4.853   4.662   3.008  0.00  0.00     0.003 A 
ATOM      5  C3  PXY d   1      -4.348   3.559   2.369  0.00  0.00     0.003 A 
ATOM      6  C4  PXY d   1      -4.132   2.396   3.059  0.00  0.00    -0.082 A 
ATOM      7  C5  PXY d   1      -4.461   2.328   4.366  0.00  0.00     0.003 A 
ATOM      8  C6  PXY d   1      -5.011   3.446   4.987  0.00  0.00     0.003 A 
ENDROOT
TORSDOF 0
ENDMDL
