MODEL 1
REMARK minimizedAffinity 2.12530184
REMARK minimizedRMSD -1
REMARK  0 active torsions:
REMARK  status: ('A' for Active; 'I' for Inactive)
ROOT
ATOM      1  C4' PXY d   1      -2.696   0.651   3.743  0.00  0.00     0.077 C 
ATOM      2  C1' PXY d   1      -1.429  -1.116  -1.613  0.00  0.00     0.077 C 
ATOM      3  C1  PXY d   1      -1.756  -0.641  -0.211  0.00  0.00    -0.082 A 
ATOM      4  C2  PXY d   1      -1.891  -1.525   0.764  0.00  0.00     0.003 A 
ATOM      5  C3  PXY d   1      -2.218  -1.115   2.031  0.00  0.00     0.003 A 
ATOM      6  C4  PXY d   1      -2.357   0.217   2.314  0.00  0.00    -0.082 A 
ATOM      7  C5  PXY d   1      -2.211   1.126   1.327  0.00  0.00     0.003 A 
ATOM      8  C6  PXY d   1      -1.919   0.687   0.039  0.00  0.00     0.003 A 
ENDROOT
TORSDOF 0
ENDMDL
