MODEL 1
REMARK minimizedAffinity 1.79695034
REMARK minimizedRMSD -1
REMARK  0 active torsions:
REMARK  status: ('A' for Active; 'I' for Inactive)
ROOT
ATOM      1  C4' PXY d   1      -3.987   4.147   4.859  0.00  0.00     0.077 C 
ATOM      2  C1' PXY d   1      -5.954   5.999  -0.251  0.00  0.00     0.077 C 
ATOM      3  C1  PXY d   1      -5.442   5.524   1.094  0.00  0.00    -0.082 A 
ATOM      4  C2  PXY d   1      -4.458   4.642   1.146  0.00  0.00     0.003 A 
ATOM      5  C3  PXY d   1      -4.005   4.178   2.354  0.00  0.00     0.003 A 
ATOM      6  C4  PXY d   1      -4.529   4.661   3.522  0.00  0.00    -0.082 A 
ATOM      7  C5  PXY d   1      -5.526   5.570   3.479  0.00  0.00     0.003 A 
ATOM      8  C6  PXY d   1      -6.000   5.998   2.242  0.00  0.00     0.003 A 
ENDROOT
TORSDOF 0
ENDMDL
