MODEL 1
REMARK minimizedAffinity -1.67337465
REMARK minimizedRMSD -1
REMARK  0 active torsions:
REMARK  status: ('A' for Active; 'I' for Inactive)
ROOT
ATOM      1  C   UNL d   1      -1.914   0.411   3.646  0.00  0.00     0.172 C 
ATOM      2  N   UNL d   1      -2.708  -0.408   2.759  0.00  0.00    -0.070 N 
ATOM      3  C1  UNL d   1      -2.383  -0.733   1.469  0.00  0.00    -0.004 A 
ATOM      4  C2  UNL d   1      -3.393  -1.526   0.967  0.00  0.00    -0.047 A 
ATOM      5  C3  UNL d   1      -4.357  -1.682   1.991  0.00  0.00    -0.047 A 
ATOM      6  C4  UNL d   1      -3.908  -0.979   3.089  0.00  0.00    -0.004 A 
ENDROOT
TORSDOF 0
ENDMDL
