MODEL 1
REMARK minimizedAffinity -2.20835376
REMARK minimizedRMSD -1
REMARK  0 active torsions:
REMARK  status: ('A' for Active; 'I' for Inactive)
ROOT
ATOM      1  C   UNL d   1      -2.673   1.572   0.266  0.00  0.00     0.172 C 
ATOM      2  N   UNL d   1      -2.786   0.627   1.353  0.00  0.00    -0.070 N 
ATOM      3  C1  UNL d   1      -2.357  -0.673   1.328  0.00  0.00    -0.004 A 
ATOM      4  C2  UNL d   1      -2.645  -1.235   2.553  0.00  0.00    -0.047 A 
ATOM      5  C3  UNL d   1      -3.270  -0.239   3.340  0.00  0.00    -0.047 A 
ATOM      6  C4  UNL d   1      -3.344   0.904   2.573  0.00  0.00    -0.004 A 
ENDROOT
TORSDOF 0
ENDMDL
