MODEL 1
REMARK minimizedAffinity 0.658368707
REMARK minimizedRMSD -1
REMARK  0 active torsions:
REMARK  status: ('A' for Active; 'I' for Inactive)
ROOT
ATOM      1  C   UNL d   1      -3.504  -0.229   0.213  0.00  0.00     0.172 C 
ATOM      2  N   UNL d   1      -2.952   1.067  -0.107  0.00  0.00    -0.070 N 
ATOM      3  C1  UNL d   1      -1.631   1.334  -0.350  0.00  0.00    -0.004 A 
ATOM      4  C2  UNL d   1      -1.515   2.681  -0.615  0.00  0.00    -0.047 A 
ATOM      5  C3  UNL d   1      -2.810   3.243  -0.528  0.00  0.00    -0.047 A 
ATOM      6  C4  UNL d   1      -3.681   2.222  -0.211  0.00  0.00    -0.004 A 
ENDROOT
TORSDOF 0
ENDMDL
