MODEL 1
REMARK minimizedAffinity -0.528550088
REMARK minimizedRMSD -1
REMARK  0 active torsions:
REMARK  status: ('A' for Active; 'I' for Inactive)
ROOT
ATOM      1  C   UNL d   1       6.000   0.734   4.876  0.00  0.00     0.172 C 
ATOM      2  N   UNL d   1       5.112   0.723   3.737  0.00  0.00    -0.070 N 
ATOM      3  C1  UNL d   1       4.741   1.818   3.003  0.00  0.00    -0.004 A 
ATOM      4  C2  UNL d   1       3.890   1.391   2.008  0.00  0.00    -0.047 A 
ATOM      5  C3  UNL d   1       3.742  -0.009   2.149  0.00  0.00    -0.047 A 
ATOM      6  C4  UNL d   1       4.510  -0.397   3.227  0.00  0.00    -0.004 A 
ENDROOT
TORSDOF 0
ENDMDL
