MODEL 1
REMARK minimizedAffinity -3.5695138
REMARK minimizedRMSD -1
REMARK  0 active torsions:
REMARK  status: ('A' for Active; 'I' for Inactive)
ROOT
ATOM      1  C   UNL d   1       2.481  -2.996  -2.468  0.00  0.00     0.172 C 
ATOM      2  N   UNL d   1       2.093  -1.659  -2.851  0.00  0.00    -0.070 N 
ATOM      3  C1  UNL d   1       2.943  -0.598  -3.016  0.00  0.00    -0.004 A 
ATOM      4  C2  UNL d   1       2.188   0.495  -3.382  0.00  0.00    -0.047 A 
ATOM      5  C3  UNL d   1       0.837   0.076  -3.439  0.00  0.00    -0.047 A 
ATOM      6  C4  UNL d   1       0.808  -1.261  -3.105  0.00  0.00    -0.004 A 
ENDROOT
TORSDOF 0
ENDMDL
