MODEL 1
REMARK minimizedAffinity 1.10671139
REMARK minimizedRMSD -1
REMARK  0 active torsions:
REMARK  status: ('A' for Active; 'I' for Inactive)
ROOT
ATOM      1  C   UNL d   1      -2.831  -0.009  -0.062  0.00  0.00     0.172 C 
ATOM      2  N   UNL d   1      -2.836  -0.155   1.375  0.00  0.00    -0.070 N 
ATOM      3  C1  UNL d   1      -3.088  -1.315   2.058  0.00  0.00    -0.004 A 
ATOM      4  C2  UNL d   1      -2.999  -1.039   3.405  0.00  0.00    -0.047 A 
ATOM      5  C3  UNL d   1      -2.683   0.334   3.536  0.00  0.00    -0.047 A 
ATOM      6  C4  UNL d   1      -2.588   0.857   2.264  0.00  0.00    -0.004 A 
ENDROOT
TORSDOF 0
ENDMDL
