MODEL 1
REMARK minimizedAffinity -1.66533017
REMARK minimizedRMSD -1
REMARK  0 active torsions:
REMARK  status: ('A' for Active; 'I' for Inactive)
ROOT
ATOM      1  C   UNL d   1      -1.851  -0.260   3.151  0.00  0.00     0.172 C 
ATOM      2  N   UNL d   1      -2.854  -0.814   2.271  0.00  0.00    -0.070 N 
ATOM      3  C1  UNL d   1      -2.702  -1.038   0.929  0.00  0.00    -0.004 A 
ATOM      4  C2  UNL d   1      -3.881  -1.573   0.455  0.00  0.00    -0.047 A 
ATOM      5  C3  UNL d   1      -4.771  -1.673   1.550  0.00  0.00    -0.047 A 
ATOM      6  C4  UNL d   1      -4.110  -1.196   2.662  0.00  0.00    -0.004 A 
ENDROOT
TORSDOF 0
ENDMDL
