MODEL 1
REMARK minimizedAffinity -3.06658483
REMARK minimizedRMSD -1
REMARK  0 active torsions:
REMARK  status: ('A' for Active; 'I' for Inactive)
ROOT
ATOM      1  C   UNL d   1      -1.963   0.747   0.116  0.00  0.00     0.172 C 
ATOM      2  N   UNL d   1      -2.562   0.264   1.338  0.00  0.00    -0.070 N 
ATOM      3  C1  UNL d   1      -2.377   0.801   2.584  0.00  0.00    -0.004 A 
ATOM      4  C2  UNL d   1      -3.117   0.058   3.478  0.00  0.00    -0.047 A 
ATOM      5  C3  UNL d   1      -3.768  -0.962   2.744  0.00  0.00    -0.047 A 
ATOM      6  C4  UNL d   1      -3.407  -0.811   1.422  0.00  0.00    -0.004 A 
ENDROOT
TORSDOF 0
ENDMDL
