MODEL 1
REMARK minimizedAffinity 0.783357084
REMARK minimizedRMSD -1
REMARK  0 active torsions:
REMARK  status: ('A' for Active; 'I' for Inactive)
ROOT
ATOM      1  C   UNL d   1       4.180   2.677   2.599  0.00  0.00     0.172 C 
ATOM      2  N   UNL d   1       4.793   1.652   3.409  0.00  0.00    -0.070 N 
ATOM      3  C1  UNL d   1       5.625   1.868   4.475  0.00  0.00    -0.004 A 
ATOM      4  C2  UNL d   1       5.995   0.639   4.978  0.00  0.00    -0.047 A 
ATOM      5  C3  UNL d   1       5.365  -0.350   4.186  0.00  0.00    -0.047 A 
ATOM      6  C4  UNL d   1       4.627   0.305   3.222  0.00  0.00    -0.004 A 
ENDROOT
TORSDOF 0
ENDMDL
