MODEL 1
REMARK minimizedAffinity 2.41240454
REMARK minimizedRMSD -1
REMARK  0 active torsions:
REMARK  status: ('A' for Active; 'I' for Inactive)
ROOT
ATOM      1  C   UNL d   1      -5.823  -1.027   2.398  0.00  0.00     0.172 C 
ATOM      2  N   UNL d   1      -4.501  -0.583   2.773  0.00  0.00    -0.070 N 
ATOM      3  C1  UNL d   1      -3.323  -1.078   2.279  0.00  0.00    -0.004 A 
ATOM      4  C2  UNL d   1      -2.291  -0.394   2.884  0.00  0.00    -0.047 A 
ATOM      5  C3  UNL d   1      -2.868   0.543   3.773  0.00  0.00    -0.047 A 
ATOM      6  C4  UNL d   1      -4.237   0.405   3.684  0.00  0.00    -0.004 A 
ENDROOT
TORSDOF 0
ENDMDL
