MODEL 1
REMARK minimizedAffinity -1.48899782
REMARK minimizedRMSD -1
REMARK  0 active torsions:
REMARK  status: ('A' for Active; 'I' for Inactive)
ROOT
ATOM      1  C   UNL d   1      -2.671   1.331   3.825  0.00  0.00     0.172 C 
ATOM      2  N   UNL d   1      -2.977   0.636   2.597  0.00  0.00    -0.070 N 
ATOM      3  C1  UNL d   1      -3.879  -0.386   2.461  0.00  0.00    -0.004 A 
ATOM      4  C2  UNL d   1      -3.880  -0.775   1.139  0.00  0.00    -0.047 A 
ATOM      5  C3  UNL d   1      -2.945   0.040   0.457  0.00  0.00    -0.047 A 
ATOM      6  C4  UNL d   1      -2.401   0.905   1.383  0.00  0.00    -0.004 A 
ENDROOT
TORSDOF 0
ENDMDL
