MODEL 1
REMARK minimizedAffinity 3.19419885
REMARK minimizedRMSD -1
REMARK  0 active torsions:
REMARK  status: ('A' for Active; 'I' for Inactive)
ROOT
ATOM      1  C   UNL d   1       3.424   2.883   2.423  0.00  0.00     0.172 C 
ATOM      2  N   UNL d   1       4.384   1.969   2.995  0.00  0.00    -0.070 N 
ATOM      3  C1  UNL d   1       5.258   2.260   4.008  0.00  0.00    -0.004 A 
ATOM      4  C2  UNL d   1       6.000   1.127   4.264  0.00  0.00    -0.047 A 
ATOM      5  C3  UNL d   1       5.556   0.120   3.374  0.00  0.00    -0.047 A 
ATOM      6  C4  UNL d   1       4.556   0.669   2.599  0.00  0.00    -0.004 A 
ENDROOT
TORSDOF 0
ENDMDL
