MODEL 1
REMARK minimizedAffinity 1.13523614
REMARK minimizedRMSD -1
REMARK  0 active torsions:
REMARK  status: ('A' for Active; 'I' for Inactive)
ROOT
ATOM      1  C   UNL d   1      -5.995  -0.736   2.382  0.00  0.00     0.172 C 
ATOM      2  N   UNL d   1      -4.635  -0.616   2.853  0.00  0.00    -0.070 N 
ATOM      3  C1  UNL d   1      -4.251  -0.097   4.060  0.00  0.00    -0.004 A 
ATOM      4  C2  UNL d   1      -2.876  -0.160   4.129  0.00  0.00    -0.047 A 
ATOM      5  C3  UNL d   1      -2.418  -0.736   2.920  0.00  0.00    -0.047 A 
ATOM      6  C4  UNL d   1      -3.528  -1.009   2.149  0.00  0.00    -0.004 A 
ENDROOT
TORSDOF 0
ENDMDL
