MODEL 1
REMARK minimizedAffinity -0.829998732
REMARK minimizedRMSD -1
REMARK  0 active torsions:
REMARK  status: ('A' for Active; 'I' for Inactive)
ROOT
ATOM      1  C   UNL d   1      -0.242   1.442  -1.384  0.00  0.00     0.172 C 
ATOM      2  N   UNL d   1      -1.473   1.895  -0.781  0.00  0.00    -0.070 N 
ATOM      3  C1  UNL d   1      -2.061   3.115  -0.986  0.00  0.00    -0.004 A 
ATOM      4  C2  UNL d   1      -3.216   3.158  -0.235  0.00  0.00    -0.047 A 
ATOM      5  C3  UNL d   1      -3.324   1.922   0.446  0.00  0.00    -0.047 A 
ATOM      6  C4  UNL d   1      -2.233   1.160   0.090  0.00  0.00    -0.004 A 
ENDROOT
TORSDOF 0
ENDMDL
