MODEL 1
REMARK minimizedAffinity 0.356425345
REMARK minimizedRMSD -1
REMARK  0 active torsions:
REMARK  status: ('A' for Active; 'I' for Inactive)
ROOT
ATOM      1  C   UNL d   1       3.997   2.801   2.859  0.00  0.00     0.172 C 
ATOM      2  N   UNL d   1       4.429   1.664   3.637  0.00  0.00    -0.070 N 
ATOM      3  C1  UNL d   1       3.728   0.500   3.806  0.00  0.00    -0.004 A 
ATOM      4  C2  UNL d   1       4.477  -0.331   4.611  0.00  0.00    -0.047 A 
ATOM      5  C3  UNL d   1       5.668   0.358   4.939  0.00  0.00    -0.047 A 
ATOM      6  C4  UNL d   1       5.613   1.591   4.323  0.00  0.00    -0.004 A 
ENDROOT
TORSDOF 0
ENDMDL
