MODEL 1
REMARK minimizedAffinity -2.25991297
REMARK minimizedRMSD -1
REMARK  0 active torsions:
REMARK  status: ('A' for Active; 'I' for Inactive)
ROOT
ATOM      1  C   UNL d   1      -3.932   4.678   1.115  0.00  0.00     0.172 C 
ATOM      2  N   UNL d   1      -3.188   3.564   0.576  0.00  0.00    -0.070 N 
ATOM      3  C1  UNL d   1      -2.413   3.593  -0.553  0.00  0.00    -0.004 A 
ATOM      4  C2  UNL d   1      -1.874   2.336  -0.726  0.00  0.00    -0.047 A 
ATOM      5  C3  UNL d   1      -2.341   1.524   0.334  0.00  0.00    -0.047 A 
ATOM      6  C4  UNL d   1      -3.153   2.309   1.126  0.00  0.00    -0.004 A 
ENDROOT
TORSDOF 0
ENDMDL
