MODEL 1
REMARK minimizedAffinity -0.51265347
REMARK minimizedRMSD -1
REMARK  0 active torsions:
REMARK  status: ('A' for Active; 'I' for Inactive)
ROOT
ATOM      1  C   UNL d   1       4.035   3.864  -5.988  0.00  0.00     0.172 C 
ATOM      2  N   UNL d   1       4.595   2.561  -5.714  0.00  0.00    -0.070 N 
ATOM      3  C1  UNL d   1       4.001   1.361  -5.999  0.00  0.00    -0.004 A 
ATOM      4  C2  UNL d   1       4.852   0.359  -5.585  0.00  0.00    -0.047 A 
ATOM      5  C3  UNL d   1       5.996   0.979  -5.029  0.00  0.00    -0.047 A 
ATOM      6  C4  UNL d   1       5.811   2.342  -5.122  0.00  0.00    -0.004 A 
ENDROOT
TORSDOF 0
ENDMDL
