MODEL 1
REMARK minimizedAffinity 2.22361159
REMARK minimizedRMSD -1
REMARK  1 active torsions:
REMARK  status: ('A' for Active; 'I' for Inactive)
REMARK    1  A    between atoms: C3_4  and  O_7 
ROOT
ATOM      1  C   UNL d   1      -3.800   4.626   5.202  0.00  0.00    -0.033 A 
ATOM      2  C1  UNL d   1      -2.901   3.876   4.441  0.00  0.00     0.039 A 
ATOM      3  C2  UNL d   1      -1.540   4.189   4.457  0.00  0.00    -0.080 A 
ATOM      4  C3  UNL d   1      -1.093   5.251   5.237  0.00  0.00     0.150 A 
ATOM      5  C4  UNL d   1      -1.982   6.000   6.000  0.00  0.00    -0.007 A 
ATOM      6  C5  UNL d   1      -3.341   5.687   5.982  0.00  0.00     0.039 A 
ENDROOT
BRANCH   4   7
ATOM      7  O   UNL d   1       0.225   5.597   5.280  0.00  0.00    -0.526 OA
ATOM      8  H5  UNL d   1       0.717   5.011   4.681  0.00  0.00     0.418 HD
ENDBRANCH   4   7
TORSDOF 1
ENDMDL
