MODEL 1
REMARK minimizedAffinity 1.64470196
REMARK minimizedRMSD -1
REMARK  1 active torsions:
REMARK  status: ('A' for Active; 'I' for Inactive)
REMARK    1  A    between atoms: C3_4  and  O_7 
ROOT
ATOM      1  C   UNL d   1       1.680   5.623   4.203  0.00  0.00    -0.033 A 
ATOM      2  C1  UNL d   1       0.624   5.308   3.345  0.00  0.00     0.039 A 
ATOM      3  C2  UNL d   1      -0.691   5.336   3.815  0.00  0.00    -0.080 A 
ATOM      4  C3  UNL d   1      -0.935   5.680   5.141  0.00  0.00     0.150 A 
ATOM      5  C4  UNL d   1       0.111   5.999   6.000  0.00  0.00    -0.007 A 
ATOM      6  C5  UNL d   1       1.424   5.971   5.529  0.00  0.00     0.039 A 
ENDROOT
BRANCH   4   7
ATOM      7  O   UNL d   1      -2.201   5.716   5.646  0.00  0.00    -0.526 OA
ATOM      8  H5  UNL d   1      -2.819   5.445   4.947  0.00  0.00     0.418 HD
ENDBRANCH   4   7
TORSDOF 1
ENDMDL
