MODEL 1
REMARK minimizedAffinity -2.84651566
REMARK minimizedRMSD -1
REMARK  1 active torsions:
REMARK  status: ('A' for Active; 'I' for Inactive)
REMARK    1  A    between atoms: C3_4  and  O_7 
ROOT
ATOM      1  C   UNL d   1       5.990   5.184   5.287  0.00  0.00    -0.033 A 
ATOM      2  C1  UNL d   1       5.750   3.872   4.873  0.00  0.00     0.039 A 
ATOM      3  C2  UNL d   1       4.446   3.373   4.851  0.00  0.00    -0.080 A 
ATOM      4  C3  UNL d   1       3.393   4.195   5.244  0.00  0.00     0.150 A 
ATOM      5  C4  UNL d   1       3.625   5.503   5.654  0.00  0.00    -0.007 A 
ATOM      6  C5  UNL d   1       4.928   6.000   5.676  0.00  0.00     0.039 A 
ENDROOT
BRANCH   4   7
ATOM      7  O   UNL d   1       2.105   3.750   5.244  0.00  0.00    -0.526 OA
ATOM      8  H5  UNL d   1       2.100   2.819   4.965  0.00  0.00     0.418 HD
ENDBRANCH   4   7
TORSDOF 1
ENDMDL
