MODEL 1
REMARK minimizedAffinity -1.66734064
REMARK minimizedRMSD -1
REMARK  1 active torsions:
REMARK  status: ('A' for Active; 'I' for Inactive)
REMARK    1  A    between atoms: C3_4  and  O_7 
ROOT
ATOM      1  C   UNL d   1      -2.919   4.714   5.062  0.00  0.00    -0.033 A 
ATOM      2  C1  UNL d   1      -2.061   4.103   5.978  0.00  0.00     0.039 A 
ATOM      3  C2  UNL d   1      -0.705   4.438   5.999  0.00  0.00    -0.080 A 
ATOM      4  C3  UNL d   1      -0.221   5.384   5.100  0.00  0.00     0.150 A 
ATOM      5  C4  UNL d   1      -1.071   6.000   4.187  0.00  0.00    -0.007 A 
ATOM      6  C5  UNL d   1      -2.424   5.664   4.167  0.00  0.00     0.039 A 
ENDROOT
BRANCH   4   7
ATOM      7  O   UNL d   1       1.094   5.740   5.080  0.00  0.00    -0.526 OA
ATOM      8  H5  UNL d   1       1.566   5.213   5.746  0.00  0.00     0.418 HD
ENDBRANCH   4   7
TORSDOF 1
ENDMDL
