MODEL 1
REMARK minimizedAffinity 0.985866249
REMARK minimizedRMSD -1
REMARK  1 active torsions:
REMARK  status: ('A' for Active; 'I' for Inactive)
REMARK    1  A    between atoms: C3_4  and  O_7 
ROOT
ATOM      1  C   UNL d   1      -1.457   4.794   4.952  0.00  0.00    -0.033 A 
ATOM      2  C1  UNL d   1      -0.618   4.378   5.987  0.00  0.00     0.039 A 
ATOM      3  C2  UNL d   1       0.723   4.765   6.000  0.00  0.00    -0.080 A 
ATOM      4  C3  UNL d   1       1.212   5.568   4.973  0.00  0.00     0.150 A 
ATOM      5  C4  UNL d   1       0.380   5.990   3.941  0.00  0.00    -0.007 A 
ATOM      6  C5  UNL d   1      -0.958   5.601   3.929  0.00  0.00     0.039 A 
ENDROOT
BRANCH   4   7
ATOM      7  O   UNL d   1       2.515   5.968   4.940  0.00  0.00    -0.526 OA
ATOM      8  H5  UNL d   1       2.976   5.578   5.701  0.00  0.00     0.418 HD
ENDBRANCH   4   7
TORSDOF 1
ENDMDL
