MODEL 1
REMARK minimizedAffinity -0.795744836
REMARK minimizedRMSD -1
REMARK  1 active torsions:
REMARK  status: ('A' for Active; 'I' for Inactive)
REMARK    1  A    between atoms: C3_4  and  O_7 
ROOT
ATOM      1  C   UNL d   1      -3.010   4.782   4.896  0.00  0.00    -0.033 A 
ATOM      2  C1  UNL d   1      -2.111   4.363   3.914  0.00  0.00     0.039 A 
ATOM      3  C2  UNL d   1      -0.775   4.762   3.972  0.00  0.00    -0.080 A 
ATOM      4  C3  UNL d   1      -0.350   5.580   5.016  0.00  0.00     0.150 A 
ATOM      5  C4  UNL d   1      -1.240   5.998   6.000  0.00  0.00    -0.007 A 
ATOM      6  C5  UNL d   1      -2.574   5.599   5.940  0.00  0.00     0.039 A 
ENDROOT
BRANCH   4   7
ATOM      7  O   UNL d   1       0.943   5.999   5.112  0.00  0.00    -0.526 OA
ATOM      8  H5  UNL d   1       1.436   5.656   4.348  0.00  0.00     0.418 HD
ENDBRANCH   4   7
TORSDOF 1
ENDMDL
