MODEL 1
REMARK minimizedAffinity -4.08765507
REMARK minimizedRMSD -1
REMARK  1 active torsions:
REMARK  status: ('A' for Active; 'I' for Inactive)
REMARK    1  A    between atoms: C3_4  and  O_7 
ROOT
ATOM      1  C   UNL d   1      -1.980   6.000   4.461  0.00  0.00    -0.033 A 
ATOM      2  C1  UNL d   1      -0.912   5.114   4.611  0.00  0.00     0.039 A 
ATOM      3  C2  UNL d   1      -1.131   3.834   5.124  0.00  0.00    -0.080 A 
ATOM      4  C3  UNL d   1      -2.421   3.453   5.481  0.00  0.00     0.150 A 
ATOM      5  C4  UNL d   1      -3.491   4.329   5.330  0.00  0.00    -0.007 A 
ATOM      6  C5  UNL d   1      -3.270   5.607   4.819  0.00  0.00     0.039 A 
ENDROOT
BRANCH   4   7
ATOM      7  O   UNL d   1      -2.684   2.215   5.990  0.00  0.00    -0.526 OA
ATOM      8  H5  UNL d   1      -1.846   1.729   6.064  0.00  0.00     0.418 HD
ENDBRANCH   4   7
TORSDOF 1
ENDMDL
