MODEL 1
REMARK minimizedAffinity 1.16097856
REMARK minimizedRMSD -1
REMARK  1 active torsions:
REMARK  status: ('A' for Active; 'I' for Inactive)
REMARK    1  A    between atoms: C3_4  and  O_7 
ROOT
ATOM      1  C   UNL d   1       2.945  -1.133   0.738  0.00  0.00    -0.033 A 
ATOM      2  C1  UNL d   1       1.710  -0.726   1.247  0.00  0.00     0.039 A 
ATOM      3  C2  UNL d   1       0.725  -1.673   1.534  0.00  0.00    -0.080 A 
ATOM      4  C3  UNL d   1       0.987  -3.022   1.309  0.00  0.00     0.150 A 
ATOM      5  C4  UNL d   1       2.217  -3.434   0.806  0.00  0.00    -0.007 A 
ATOM      6  C5  UNL d   1       3.199  -2.487   0.519  0.00  0.00     0.039 A 
ENDROOT
BRANCH   4   7
ATOM      7  O   UNL d   1       0.055  -3.982   1.570  0.00  0.00    -0.526 OA
ATOM      8  H5  UNL d   1      -0.754  -3.547   1.885  0.00  0.00     0.418 HD
ENDBRANCH   4   7
TORSDOF 1
ENDMDL
