MODEL 1
REMARK minimizedAffinity 14.6043749
REMARK minimizedRMSD -1
REMARK  0 active torsions:
REMARK  status: ('A' for Active; 'I' for Inactive)
ROOT
ATOM      1  C4' PXY d   1      -1.446   5.166  -5.992  0.00  0.00     0.077 C 
ATOM      2  C1' PXY d   1      -1.393  -0.063  -3.529  0.00  0.00     0.077 C 
ATOM      3  C1  PXY d   1      -1.416   1.312  -4.167  0.00  0.00    -0.082 A 
ATOM      4  C2  PXY d   1      -1.013   1.460  -5.418  0.00  0.00     0.003 A 
ATOM      5  C3  PXY d   1      -0.997   2.701  -6.000  0.00  0.00     0.003 A 
ATOM      6  C4  PXY d   1      -1.449   3.795  -5.311  0.00  0.00    -0.082 A 
ATOM      7  C5  PXY d   1      -1.872   3.650  -4.037  0.00  0.00     0.003 A 
ATOM      8  C6  PXY d   1      -1.841   2.388  -3.451  0.00  0.00     0.003 A 
ENDROOT
TORSDOF 0
ENDMDL
