MODEL 1
REMARK minimizedAffinity 10.072608
REMARK minimizedRMSD -1
REMARK  0 active torsions:
REMARK  status: ('A' for Active; 'I' for Inactive)
ROOT
ATOM      1  C4' PXY d   1      -3.817   0.039   1.815  0.00  0.00     0.077 C 
ATOM      2  C1' PXY d   1       1.634   1.937   2.134  0.00  0.00     0.077 C 
ATOM      3  C1  PXY d   1       0.202   1.443   2.063  0.00  0.00    -0.082 A 
ATOM      4  C2  PXY d   1      -0.125   0.511   1.182  0.00  0.00     0.003 A 
ATOM      5  C3  PXY d   1      -1.422   0.076   1.082  0.00  0.00     0.003 A 
ATOM      6  C4  PXY d   1      -2.382   0.561   1.929  0.00  0.00    -0.082 A 
ATOM      7  C5  PXY d   1      -2.054   1.504   2.838  0.00  0.00     0.003 A 
ATOM      8  C6  PXY d   1      -0.741   1.962   2.895  0.00  0.00     0.003 A 
ENDROOT
TORSDOF 0
ENDMDL
