MODEL 1
REMARK minimizedAffinity 16.9646015
REMARK minimizedRMSD -1
REMARK  0 active torsions:
REMARK  status: ('A' for Active; 'I' for Inactive)
ROOT
ATOM      1  C4' PXY d   1      -5.360   2.689   4.023  0.00  0.00     0.077 C 
ATOM      2  C1' PXY d   1      -0.382   0.650   1.908  0.00  0.00     0.077 C 
ATOM      3  C1  PXY d   1      -1.694   1.176   2.456  0.00  0.00    -0.082 A 
ATOM      4  C2  PXY d   1      -1.764   2.417   2.908  0.00  0.00     0.003 A 
ATOM      5  C3  PXY d   1      -2.934   2.899   3.436  0.00  0.00     0.003 A 
ATOM      6  C4  PXY d   1      -4.059   2.118   3.453  0.00  0.00    -0.082 A 
ATOM      7  C5  PXY d   1      -3.999   0.854   2.984  0.00  0.00     0.003 A 
ATOM      8  C6  PXY d   1      -2.791   0.371   2.490  0.00  0.00     0.003 A 
ENDROOT
TORSDOF 0
ENDMDL
