MODEL 1
REMARK minimizedAffinity 13.4111843
REMARK minimizedRMSD -1
REMARK  0 active torsions:
REMARK  status: ('A' for Active; 'I' for Inactive)
ROOT
ATOM      1  C4' PXY d   1       3.317   2.508  -1.853  0.00  0.00     0.077 C 
ATOM      2  C1' PXY d   1       3.030  -2.943   0.050  0.00  0.00     0.077 C 
ATOM      3  C1  PXY d   1       3.110  -1.509  -0.438  0.00  0.00    -0.082 A 
ATOM      4  C2  PXY d   1       2.339  -1.114  -1.438  0.00  0.00     0.003 A 
ATOM      5  C3  PXY d   1       2.421   0.169  -1.912  0.00  0.00     0.003 A 
ATOM      6  C4  PXY d   1       3.264   1.073  -1.322  0.00  0.00    -0.082 A 
ATOM      7  C5  PXY d   1       4.046   0.681  -0.295  0.00  0.00     0.003 A 
ATOM      8  C6  PXY d   1       3.978  -0.638   0.145  0.00  0.00     0.003 A 
ENDROOT
TORSDOF 0
ENDMDL
