MODEL 1
REMARK minimizedAffinity 9.86386585
REMARK minimizedRMSD -1
REMARK  0 active torsions:
REMARK  status: ('A' for Active; 'I' for Inactive)
ROOT
ATOM      1  C4' PXY d   1       4.493  -5.363   0.845  0.00  0.00     0.077 C 
ATOM      2  C1' PXY d   1       2.600   0.038   0.035  0.00  0.00     0.077 C 
ATOM      3  C1  PXY d   1       3.108  -1.375   0.244  0.00  0.00    -0.082 A 
ATOM      4  C2  PXY d   1       2.266  -2.392   0.164  0.00  0.00     0.003 A 
ATOM      5  C3  PXY d   1       2.703  -3.673   0.382  0.00  0.00     0.003 A 
ATOM      6  C4  PXY d   1       4.026  -3.921   0.632  0.00  0.00    -0.082 A 
ATOM      7  C5  PXY d   1       4.894  -2.889   0.705  0.00  0.00     0.003 A 
ATOM      8  C6  PXY d   1       4.423  -1.593   0.521  0.00  0.00     0.003 A 
ENDROOT
TORSDOF 0
ENDMDL
