MODEL 1
REMARK minimizedAffinity 10.2873516
REMARK minimizedRMSD -1
REMARK  0 active torsions:
REMARK  status: ('A' for Active; 'I' for Inactive)
ROOT
ATOM      1  C4' PXY d   1      -4.855   2.331   4.220  0.00  0.00     0.077 C 
ATOM      2  C1' PXY d   1       0.047   0.584   1.704  0.00  0.00     0.077 C 
ATOM      3  C1  PXY d   1      -1.246   1.036   2.354  0.00  0.00    -0.082 A 
ATOM      4  C2  PXY d   1      -1.239   2.083   3.164  0.00  0.00     0.003 A 
ATOM      5  C3  PXY d   1      -2.393   2.486   3.786  0.00  0.00     0.003 A 
ATOM      6  C4  PXY d   1      -3.576   1.844   3.534  0.00  0.00    -0.082 A 
ATOM      7  C5  PXY d   1      -3.593   0.782   2.701  0.00  0.00     0.003 A 
ATOM      8  C6  PXY d   1      -2.404   0.363   2.112  0.00  0.00     0.003 A 
ENDROOT
TORSDOF 0
ENDMDL
