MODEL 1
REMARK minimizedAffinity 8.93337536
REMARK minimizedRMSD -1
REMARK  0 active torsions:
REMARK  status: ('A' for Active; 'I' for Inactive)
ROOT
ATOM      1  C4' PXY d   1       2.970   2.357  -0.843  0.00  0.00     0.077 C 
ATOM      2  C1' PXY d   1       3.018  -3.270   0.478  0.00  0.00     0.077 C 
ATOM      3  C1  PXY d   1       3.001  -1.797   0.119  0.00  0.00    -0.082 A 
ATOM      4  C2  PXY d   1       3.792  -0.957   0.767  0.00  0.00     0.003 A 
ATOM      5  C3  PXY d   1       3.766   0.383   0.478  0.00  0.00     0.003 A 
ATOM      6  C4  PXY d   1       2.961   0.861  -0.521  0.00  0.00    -0.082 A 
ATOM      7  C5  PXY d   1       2.159   0.008  -1.195  0.00  0.00     0.003 A 
ATOM      8  C6  PXY d   1       2.170  -1.342  -0.858  0.00  0.00     0.003 A 
ENDROOT
TORSDOF 0
ENDMDL
