MODEL 1
REMARK minimizedAffinity 14.1362762
REMARK minimizedRMSD -1
REMARK  0 active torsions:
REMARK  status: ('A' for Active; 'I' for Inactive)
ROOT
ATOM      1  C4' PXY d   1       4.535   1.129   0.478  0.00  0.00     0.077 C 
ATOM      2  C1' PXY d   1      -0.901   1.260   2.441  0.00  0.00     0.077 C 
ATOM      3  C1  PXY d   1       0.522   1.214   1.920  0.00  0.00    -0.082 A 
ATOM      4  C2  PXY d   1       1.484   1.827   2.590  0.00  0.00     0.003 A 
ATOM      5  C3  PXY d   1       2.771   1.823   2.116  0.00  0.00     0.003 A 
ATOM      6  C4  PXY d   1       3.085   1.140   0.972  0.00  0.00    -0.082 A 
ATOM      7  C5  PXY d   1       2.111   0.503   0.288  0.00  0.00     0.003 A 
ATOM      8  C6  PXY d   1       0.804   0.554   0.764  0.00  0.00     0.003 A 
ENDROOT
TORSDOF 0
ENDMDL
