MODEL 1
REMARK minimizedAffinity 13.2716904
REMARK minimizedRMSD -1
REMARK  0 active torsions:
REMARK  status: ('A' for Active; 'I' for Inactive)
ROOT
ATOM      1  C4' PXY d   1       1.674   0.796   0.847  0.00  0.00     0.077 C 
ATOM      2  C1' PXY d   1      -0.412   2.381   5.999  0.00  0.00     0.077 C 
ATOM      3  C1  PXY d   1       0.123   1.962   4.644  0.00  0.00    -0.082 A 
ATOM      4  C2  PXY d   1       1.394   1.615   4.522  0.00  0.00     0.003 A 
ATOM      5  C3  PXY d   1       1.902   1.264   3.298  0.00  0.00     0.003 A 
ATOM      6  C4  PXY d   1       1.088   1.217   2.198  0.00  0.00    -0.082 A 
ATOM      7  C5  PXY d   1      -0.212   1.559   2.316  0.00  0.00     0.003 A 
ATOM      8  C6  PXY d   1      -0.699   1.952   3.560  0.00  0.00     0.003 A 
ENDROOT
TORSDOF 0
ENDMDL
