MODEL 1
REMARK minimizedAffinity 7.30641508
REMARK minimizedRMSD -1
REMARK  0 active torsions:
REMARK  status: ('A' for Active; 'I' for Inactive)
ROOT
ATOM      1  C4' PXY d   1       0.132  -3.407  -2.453  0.00  0.00     0.077 C 
ATOM      2  C1' PXY d   1      -4.923  -3.010  -5.230  0.00  0.00     0.077 C 
ATOM      3  C1  PXY d   1      -3.603  -3.120  -4.492  0.00  0.00    -0.082 A 
ATOM      4  C2  PXY d   1      -2.623  -2.277  -4.774  0.00  0.00     0.003 A 
ATOM      5  C3  PXY d   1      -1.413  -2.382  -4.139  0.00  0.00     0.003 A 
ATOM      6  C4  PXY d   1      -1.221  -3.327  -3.166  0.00  0.00    -0.082 A 
ATOM      7  C5  PXY d   1      -2.219  -4.184  -2.865  0.00  0.00     0.003 A 
ATOM      8  C6  PXY d   1      -3.427  -4.087  -3.550  0.00  0.00     0.003 A 
ENDROOT
TORSDOF 0
ENDMDL
