MODEL 1
REMARK minimizedAffinity 7.52573299
REMARK minimizedRMSD -1
REMARK  0 active torsions:
REMARK  status: ('A' for Active; 'I' for Inactive)
ROOT
ATOM      1  C4' PXY d   1       2.812   2.836  -2.593  0.00  0.00     0.077 C 
ATOM      2  C1' PXY d   1       2.956  -2.207   0.228  0.00  0.00     0.077 C 
ATOM      3  C1  PXY d   1       2.925  -0.879  -0.502  0.00  0.00    -0.082 A 
ATOM      4  C2  PXY d   1       1.977  -0.646  -1.396  0.00  0.00     0.003 A 
ATOM      5  C3  PXY d   1       1.953   0.537  -2.088  0.00  0.00     0.003 A 
ATOM      6  C4  PXY d   1       2.877   1.513  -1.825  0.00  0.00    -0.082 A 
ATOM      7  C5  PXY d   1       3.840   1.287  -0.907  0.00  0.00     0.003 A 
ATOM      8  C6  PXY d   1       3.872   0.063  -0.245  0.00  0.00     0.003 A 
ENDROOT
TORSDOF 0
ENDMDL
