MODEL 1
REMARK minimizedAffinity 16.2013092
REMARK minimizedRMSD -1
REMARK  0 active torsions:
REMARK  status: ('A' for Active; 'I' for Inactive)
ROOT
ATOM      1  C4' PXY d   1      -0.382   2.530   6.000  0.00  0.00     0.077 C 
ATOM      2  C1' PXY d   1       2.194   0.886   1.093  0.00  0.00     0.077 C 
ATOM      3  C1  PXY d   1       1.511   1.326   2.373  0.00  0.00    -0.082 A 
ATOM      4  C2  PXY d   1       2.126   1.160   3.533  0.00  0.00     0.003 A 
ATOM      5  C3  PXY d   1       1.510   1.522   4.703  0.00  0.00     0.003 A 
ATOM      6  C4  PXY d   1       0.273   2.110   4.681  0.00  0.00    -0.082 A 
ATOM      7  C5  PXY d   1      -0.357   2.292   3.501  0.00  0.00     0.003 A 
ATOM      8  C6  PXY d   1       0.269   1.880   2.328  0.00  0.00     0.003 A 
ENDROOT
TORSDOF 0
ENDMDL
