MODEL 1
REMARK minimizedAffinity 13.4860754
REMARK minimizedRMSD -1
REMARK  0 active torsions:
REMARK  status: ('A' for Active; 'I' for Inactive)
ROOT
ATOM      1  C4' PXY d   1       0.794  -3.655  -2.999  0.00  0.00     0.077 C 
ATOM      2  C1' PXY d   1       2.224   0.704   0.519  0.00  0.00     0.077 C 
ATOM      3  C1  PXY d   1       1.859  -0.447  -0.398  0.00  0.00    -0.082 A 
ATOM      4  C2  PXY d   1       1.234  -0.201  -1.538  0.00  0.00     0.003 A 
ATOM      5  C3  PXY d   1       0.867  -1.232  -2.365  0.00  0.00     0.003 A 
ATOM      6  C4  PXY d   1       1.191  -2.524  -2.046  0.00  0.00    -0.082 A 
ATOM      7  C5  PXY d   1       1.838  -2.782  -0.890  0.00  0.00     0.003 A 
ATOM      8  C6  PXY d   1       2.164  -1.725  -0.045  0.00  0.00     0.003 A 
ENDROOT
TORSDOF 0
ENDMDL
