MODEL 1
REMARK minimizedAffinity 9.15750217
REMARK minimizedRMSD -1
REMARK  0 active torsions:
REMARK  status: ('A' for Active; 'I' for Inactive)
ROOT
ATOM      1  C4' PXY d   1       0.047   2.269  -4.110  0.00  0.00     0.077 C 
ATOM      2  C1' PXY d   1      -4.534   5.248  -5.995  0.00  0.00     0.077 C 
ATOM      3  C1  PXY d   1      -3.327   4.478  -5.497  0.00  0.00    -0.082 A 
ATOM      4  C2  PXY d   1      -3.060   3.283  -6.000  0.00  0.00     0.003 A 
ATOM      5  C3  PXY d   1      -1.991   2.559  -5.538  0.00  0.00     0.003 A 
ATOM      6  C4  PXY d   1      -1.156   3.086  -4.590  0.00  0.00    -0.082 A 
ATOM      7  C5  PXY d   1      -1.415   4.309  -4.080  0.00  0.00     0.003 A 
ATOM      8  C6  PXY d   1      -2.529   5.010  -4.533  0.00  0.00     0.003 A 
ENDROOT
TORSDOF 0
ENDMDL
