MODEL 1
REMARK minimizedAffinity 10.3920259
REMARK minimizedRMSD -1
REMARK  0 active torsions:
REMARK  status: ('A' for Active; 'I' for Inactive)
ROOT
ATOM      1  C4' PXY d   1       2.969   2.203  -2.177  0.00  0.00     0.077 C 
ATOM      2  C1' PXY d   1       2.116  -3.056   0.065  0.00  0.00     0.077 C 
ATOM      3  C1  PXY d   1       2.336  -1.682  -0.535  0.00  0.00    -0.082 A 
ATOM      4  C2  PXY d   1       3.146  -0.827   0.069  0.00  0.00     0.003 A 
ATOM      5  C3  PXY d   1       3.331   0.432  -0.443  0.00  0.00     0.003 A 
ATOM      6  C4  PXY d   1       2.724   0.801  -1.613  0.00  0.00    -0.082 A 
ATOM      7  C5  PXY d   1       1.905  -0.070  -2.241  0.00  0.00     0.003 A 
ATOM      8  C6  PXY d   1       1.697  -1.328  -1.683  0.00  0.00     0.003 A 
ENDROOT
TORSDOF 0
ENDMDL
