MODEL 1
REMARK minimizedAffinity 11.4686346
REMARK minimizedRMSD -1
REMARK  0 active torsions:
REMARK  status: ('A' for Active; 'I' for Inactive)
ROOT
ATOM      1  C4' PXY d   1       3.054   2.258  -1.406  0.00  0.00     0.077 C 
ATOM      2  C1' PXY d   1       2.937  -3.234   0.396  0.00  0.00     0.077 C 
ATOM      3  C1  PXY d   1       2.964  -1.798  -0.088  0.00  0.00    -0.082 A 
ATOM      4  C2  PXY d   1       3.674  -0.898   0.573  0.00  0.00     0.003 A 
ATOM      5  C3  PXY d   1       3.684   0.412   0.167  0.00  0.00     0.003 A 
ATOM      6  C4  PXY d   1       3.004   0.794  -0.958  0.00  0.00    -0.082 A 
ATOM      7  C5  PXY d   1       2.287  -0.120  -1.645  0.00  0.00     0.003 A 
ATOM      8  C6  PXY d   1       2.256  -1.436  -1.193  0.00  0.00     0.003 A 
ENDROOT
TORSDOF 0
ENDMDL
