MODEL 1
REMARK minimizedAffinity 15.1077785
REMARK minimizedRMSD -1
REMARK  0 active torsions:
REMARK  status: ('A' for Active; 'I' for Inactive)
ROOT
ATOM      1  C4' PXY d   1       4.482  -2.185   0.713  0.00  0.00     0.077 C 
ATOM      2  C1' PXY d   1       0.627   0.451  -2.694  0.00  0.00     0.077 C 
ATOM      3  C1  PXY d   1       1.644  -0.228  -1.797  0.00  0.00    -0.082 A 
ATOM      4  C2  PXY d   1       1.945  -1.501  -1.998  0.00  0.00     0.003 A 
ATOM      5  C3  PXY d   1       2.838  -2.140  -1.177  0.00  0.00     0.003 A 
ATOM      6  C4  PXY d   1       3.469  -1.455  -0.173  0.00  0.00    -0.082 A 
ATOM      7  C5  PXY d   1       3.175  -0.154   0.032  0.00  0.00     0.003 A 
ATOM      8  C6  PXY d   1       2.235   0.466  -0.787  0.00  0.00     0.003 A 
ENDROOT
TORSDOF 0
ENDMDL
