MODEL 1
REMARK minimizedAffinity 12.2127075
REMARK minimizedRMSD -1
REMARK  0 active torsions:
REMARK  status: ('A' for Active; 'I' for Inactive)
ROOT
ATOM      1  C4' PXY d   1      -4.050   1.137   3.366  0.00  0.00     0.077 C 
ATOM      2  C1' PXY d   1       1.538   1.507   1.935  0.00  0.00     0.077 C 
ATOM      3  C1  PXY d   1       0.072   1.423   2.311  0.00  0.00    -0.082 A 
ATOM      4  C2  PXY d   1      -0.388   0.340   2.916  0.00  0.00     0.003 A 
ATOM      5  C3  PXY d   1      -1.717   0.234   3.233  0.00  0.00     0.003 A 
ATOM      6  C4  PXY d   1      -2.575   1.270   2.977  0.00  0.00    -0.082 A 
ATOM      7  C5  PXY d   1      -2.112   2.383   2.370  0.00  0.00     0.003 A 
ATOM      8  C6  PXY d   1      -0.767   2.454   2.018  0.00  0.00     0.003 A 
ENDROOT
TORSDOF 0
ENDMDL
