MODEL 1
REMARK minimizedAffinity 7.33666801
REMARK minimizedRMSD -1
REMARK  0 active torsions:
REMARK  status: ('A' for Active; 'I' for Inactive)
ROOT
ATOM      1  C4' PXY d   1       3.686   1.149   1.104  0.00  0.00     0.077 C 
ATOM      2  C1' PXY d   1      -1.991   1.253   2.192  0.00  0.00     0.077 C 
ATOM      3  C1  PXY d   1      -0.504   1.216   1.898  0.00  0.00    -0.082 A 
ATOM      4  C2  PXY d   1       0.352   1.668   2.800  0.00  0.00     0.003 A 
ATOM      5  C3  PXY d   1       1.698   1.672   2.537  0.00  0.00     0.003 A 
ATOM      6  C4  PXY d   1       2.177   1.158   1.362  0.00  0.00    -0.082 A 
ATOM      7  C5  PXY d   1       1.310   0.685   0.441  0.00  0.00     0.003 A 
ATOM      8  C6  PXY d   1      -0.055   0.728   0.709  0.00  0.00     0.003 A 
ENDROOT
TORSDOF 0
ENDMDL
