MODEL 1
REMARK minimizedAffinity 11.5306778
REMARK minimizedRMSD -1
REMARK  0 active torsions:
REMARK  status: ('A' for Active; 'I' for Inactive)
ROOT
ATOM      1  C4' PXY d   1      -5.971  -2.665  -6.000  0.00  0.00     0.077 C 
ATOM      2  C1' PXY d   1      -0.726  -3.638  -3.772  0.00  0.00     0.077 C 
ATOM      3  C1  PXY d   1      -2.097  -3.372  -4.362  0.00  0.00    -0.082 A 
ATOM      4  C2  PXY d   1      -3.166  -3.920  -3.806  0.00  0.00     0.003 A 
ATOM      5  C3  PXY d   1      -4.410  -3.716  -4.345  0.00  0.00     0.003 A 
ATOM      6  C4  PXY d   1      -4.568  -2.899  -5.433  0.00  0.00    -0.082 A 
ATOM      7  C5  PXY d   1      -3.484  -2.327  -5.999  0.00  0.00     0.003 A 
ATOM      8  C6  PXY d   1      -2.225  -2.580  -5.461  0.00  0.00     0.003 A 
ENDROOT
TORSDOF 0
ENDMDL
