MODEL 1
REMARK minimizedAffinity -2.66466618
REMARK minimizedRMSD -1
REMARK  0 active torsions:
REMARK  status: ('A' for Active; 'I' for Inactive)
ROOT
ATOM      1  C1  DEN d   1       0.200  -2.473   1.129  0.00  0.00     0.130 A 
ATOM      2  C2  DEN d   1       1.630  -2.750   1.225  0.00  0.00    -0.031 A 
ATOM      3  C3  DEN d   1       2.359  -1.581   0.695  0.00  0.00     0.027 A 
ATOM      4  C4  DEN d   1       1.416   0.623  -0.257  0.00  0.00     0.027 A 
ATOM      5  C5  DEN d   1       0.263   1.316  -0.554  0.00  0.00    -0.003 A 
ATOM      6  C6  DEN d   1      -0.982   0.784  -0.344  0.00  0.00     0.001 A 
ATOM      7  C7  DEN d   1      -1.103  -0.458   0.220  0.00  0.00     0.017 A 
ATOM      8  C8  DEN d   1       0.055  -1.165   0.515  0.00  0.00    -0.094 A 
ATOM      9  C9  DEN d   1       1.304  -0.606   0.307  0.00  0.00    -0.072 A 
ENDROOT
TORSDOF 0
ENDMDL
