MODEL 1
REMARK minimizedAffinity -2.51579237
REMARK minimizedRMSD -1
REMARK  0 active torsions:
REMARK  status: ('A' for Active; 'I' for Inactive)
ROOT
ATOM      1  C1  DEN d   1      -1.139  -1.612   2.347  0.00  0.00     0.130 A 
ATOM      2  C2  DEN d   1      -2.263  -0.683   2.268  0.00  0.00    -0.031 A 
ATOM      3  C3  DEN d   1      -1.919   0.368   1.289  0.00  0.00     0.027 A 
ATOM      4  C4  DEN d   1       0.232   0.641  -0.109  0.00  0.00     0.027 A 
ATOM      5  C5  DEN d   1       1.472   0.106  -0.376  0.00  0.00    -0.003 A 
ATOM      6  C6  DEN d   1       1.939  -1.011   0.265  0.00  0.00     0.001 A 
ATOM      7  C7  DEN d   1       1.142  -1.655   1.174  0.00  0.00     0.017 A 
ATOM      8  C8  DEN d   1      -0.107  -1.118   1.454  0.00  0.00    -0.094 A 
ATOM      9  C9  DEN d   1      -0.566   0.005   0.786  0.00  0.00    -0.072 A 
ENDROOT
TORSDOF 0
ENDMDL
