MODEL 1
REMARK minimizedAffinity -5.27340984
REMARK minimizedRMSD -1
REMARK  0 active torsions:
REMARK  status: ('A' for Active; 'I' for Inactive)
ROOT
ATOM      1  C1  DEN d   1       1.773  -1.444   0.499  0.00  0.00     0.130 A 
ATOM      2  C2  DEN d   1       0.758  -2.347   1.037  0.00  0.00    -0.031 A 
ATOM      3  C3  DEN d   1      -0.565  -1.732   0.812  0.00  0.00     0.027 A 
ATOM      4  C4  DEN d   1      -1.140   0.515  -0.315  0.00  0.00     0.027 A 
ATOM      5  C5  DEN d   1      -0.613   1.635  -0.920  0.00  0.00    -0.003 A 
ATOM      6  C6  DEN d   1       0.737   1.821  -1.062  0.00  0.00     0.001 A 
ATOM      7  C7  DEN d   1       1.604   0.852  -0.634  0.00  0.00     0.017 A 
ATOM      8  C8  DEN d   1       1.081  -0.277  -0.017  0.00  0.00    -0.094 A 
ATOM      9  C9  DEN d   1      -0.287  -0.452   0.106  0.00  0.00    -0.072 A 
ENDROOT
TORSDOF 0
ENDMDL
