MODEL 1
REMARK minimizedAffinity -1.24456036
REMARK minimizedRMSD -1
REMARK  0 active torsions:
REMARK  status: ('A' for Active; 'I' for Inactive)
ROOT
ATOM      1  C1  DEN d   1       2.414  -0.422  -0.337  0.00  0.00     0.130 A 
ATOM      2  C2  DEN d   1       1.920   0.911  -0.670  0.00  0.00    -0.031 A 
ATOM      3  C3  DEN d   1       0.472   0.947  -0.382  0.00  0.00     0.027 A 
ATOM      4  C4  DEN d   1      -1.044  -0.920   0.548  0.00  0.00     0.027 A 
ATOM      5  C5  DEN d   1      -1.080  -2.230   0.972  0.00  0.00    -0.003 A 
ATOM      6  C6  DEN d   1       0.029  -3.033   0.958  0.00  0.00     0.001 A 
ATOM      7  C7  DEN d   1       1.233  -2.520   0.553  0.00  0.00     0.017 A 
ATOM      8  C8  DEN d   1       1.276  -1.202   0.117  0.00  0.00    -0.094 A 
ATOM      9  C9  DEN d   1       0.146  -0.403   0.150  0.00  0.00    -0.072 A 
ENDROOT
TORSDOF 0
ENDMDL
