MODEL 1
REMARK minimizedAffinity -5.50049877
REMARK minimizedRMSD -1
REMARK  0 active torsions:
REMARK  status: ('A' for Active; 'I' for Inactive)
ROOT
ATOM      1  C1  DEN d   1      -0.220  -2.404   1.005  0.00  0.00     0.130 A 
ATOM      2  C2  DEN d   1       1.128  -2.899   0.735  0.00  0.00    -0.031 A 
ATOM      3  C3  DEN d   1       1.926  -1.778   0.198  0.00  0.00     0.027 A 
ATOM      4  C4  DEN d   1       1.211   0.661  -0.236  0.00  0.00     0.027 A 
ATOM      5  C5  DEN d   1       0.162   1.552  -0.174  0.00  0.00    -0.003 A 
ATOM      6  C6  DEN d   1      -1.086   1.181   0.250  0.00  0.00     0.001 A 
ATOM      7  C7  DEN d   1      -1.306  -0.104   0.671  0.00  0.00     0.017 A 
ATOM      8  C8  DEN d   1      -0.255  -1.009   0.604  0.00  0.00    -0.094 A 
ATOM      9  C9  DEN d   1       1.003  -0.612   0.184  0.00  0.00    -0.072 A 
ENDROOT
TORSDOF 0
ENDMDL
