MODEL 1
REMARK minimizedAffinity -5.50681305
REMARK minimizedRMSD -1
REMARK  0 active torsions:
REMARK  status: ('A' for Active; 'I' for Inactive)
ROOT
ATOM      1  C1  DEN d   1       1.973  -2.263   0.741  0.00  0.00     0.130 A 
ATOM      2  C2  DEN d   1       1.253  -3.184   1.616  0.00  0.00    -0.031 A 
ATOM      3  C3  DEN d   1      -0.112  -2.655   1.811  0.00  0.00     0.027 A 
ATOM      4  C4  DEN d   1      -1.177  -0.514   0.844  0.00  0.00     0.027 A 
ATOM      5  C5  DEN d   1      -0.953   0.593   0.056  0.00  0.00    -0.003 A 
ATOM      6  C6  DEN d   1       0.262   0.842  -0.526  0.00  0.00     0.001 A 
ATOM      7  C7  DEN d   1       1.287  -0.052  -0.366  0.00  0.00     0.017 A 
ATOM      8  C8  DEN d   1       1.071  -1.168   0.433  0.00  0.00    -0.094 A 
ATOM      9  C9  DEN d   1      -0.167  -1.408   1.003  0.00  0.00    -0.072 A 
ENDROOT
TORSDOF 0
ENDMDL
