MODEL 1
REMARK minimizedAffinity -5.35088825
REMARK minimizedRMSD -1
REMARK  0 active torsions:
REMARK  status: ('A' for Active; 'I' for Inactive)
ROOT
ATOM      1  C1  DEN d   1       0.473  -2.627   2.418  0.00  0.00     0.130 A 
ATOM      2  C2  DEN d   1      -0.777  -2.135   2.991  0.00  0.00    -0.031 A 
ATOM      3  C3  DEN d   1      -1.206  -0.957   2.210  0.00  0.00     0.027 A 
ATOM      4  C4  DEN d   1      -0.063   0.144   0.176  0.00  0.00     0.027 A 
ATOM      5  C5  DEN d   1       1.025   0.089  -0.666  0.00  0.00    -0.003 A 
ATOM      6  C6  DEN d   1       2.015  -0.847  -0.520  0.00  0.00     0.001 A 
ATOM      7  C7  DEN d   1       1.913  -1.794   0.465  0.00  0.00     0.017 A 
ATOM      8  C8  DEN d   1       0.823  -1.740   1.322  0.00  0.00    -0.094 A 
ATOM      9  C9  DEN d   1      -0.174  -0.794   1.151  0.00  0.00    -0.072 A 
ENDROOT
TORSDOF 0
ENDMDL
