MODEL 1
REMARK minimizedAffinity -4.275352
REMARK minimizedRMSD -1
REMARK  0 active torsions:
REMARK  status: ('A' for Active; 'I' for Inactive)
ROOT
ATOM      1  C1  DEN d   1      -1.087   0.466   0.097  0.00  0.00     0.130 A 
ATOM      2  C2  DEN d   1      -0.115   0.906  -0.899  0.00  0.00    -0.031 A 
ATOM      3  C3  DEN d   1       1.062   0.018  -0.812  0.00  0.00     0.027 A 
ATOM      4  C4  DEN d   1       1.467  -1.989   0.756  0.00  0.00     0.027 A 
ATOM      5  C5  DEN d   1       0.933  -2.739   1.781  0.00  0.00    -0.003 A 
ATOM      6  C6  DEN d   1      -0.287  -2.454   2.335  0.00  0.00     0.001 A 
ATOM      7  C7  DEN d   1      -1.034  -1.420   1.836  0.00  0.00     0.017 A 
ATOM      8  C8  DEN d   1      -0.499  -0.655   0.807  0.00  0.00    -0.094 A 
ATOM      9  C9  DEN d   1       0.731  -0.967   0.253  0.00  0.00    -0.072 A 
ENDROOT
TORSDOF 0
ENDMDL
