MODEL 1
REMARK minimizedAffinity -5.13221025
REMARK minimizedRMSD -1
REMARK  0 active torsions:
REMARK  status: ('A' for Active; 'I' for Inactive)
ROOT
ATOM      1  C1  DEN d   1       0.411  -2.621   2.856  0.00  0.00     0.130 A 
ATOM      2  C2  DEN d   1      -0.920  -2.045   3.029  0.00  0.00    -0.031 A 
ATOM      3  C3  DEN d   1      -1.167  -1.122   1.903  0.00  0.00     0.027 A 
ATOM      4  C4  DEN d   1       0.371  -0.536  -0.083  0.00  0.00     0.027 A 
ATOM      5  C5  DEN d   1       1.603  -0.766  -0.654  0.00  0.00    -0.003 A 
ATOM      6  C6  DEN d   1       2.530  -1.597  -0.082  0.00  0.00     0.001 A 
ATOM      7  C7  DEN d   1       2.221  -2.264   1.074  0.00  0.00     0.017 A 
ATOM      8  C8  DEN d   1       0.984  -2.032   1.659  0.00  0.00    -0.094 A 
ATOM      9  C9  DEN d   1       0.056  -1.198   1.059  0.00  0.00    -0.072 A 
ENDROOT
TORSDOF 0
ENDMDL
