MODEL 1
REMARK minimizedAffinity -4.56937027
REMARK minimizedRMSD -1
REMARK  0 active torsions:
REMARK  status: ('A' for Active; 'I' for Inactive)
ROOT
ATOM      1  C1  DEN d   1      -1.199   0.291   0.346  0.00  0.00     0.130 A 
ATOM      2  C2  DEN d   1      -0.321   1.027  -0.559  0.00  0.00    -0.031 A 
ATOM      3  C3  DEN d   1       1.003   0.372  -0.543  0.00  0.00     0.027 A 
ATOM      4  C4  DEN d   1       1.772  -1.701   0.785  0.00  0.00     0.027 A 
ATOM      5  C5  DEN d   1       1.383  -2.659   1.695  0.00  0.00    -0.003 A 
ATOM      6  C6  DEN d   1       0.127  -2.680   2.240  0.00  0.00     0.001 A 
ATOM      7  C7  DEN d   1      -0.800  -1.752   1.846  0.00  0.00     0.017 A 
ATOM      8  C8  DEN d   1      -0.413  -0.779   0.935  0.00  0.00    -0.094 A 
ATOM      9  C9  DEN d   1       0.858  -0.781   0.385  0.00  0.00    -0.072 A 
ENDROOT
TORSDOF 0
ENDMDL
