MODEL 1
REMARK minimizedAffinity 0.775700867
REMARK minimizedRMSD -1
REMARK  0 active torsions:
REMARK  status: ('A' for Active; 'I' for Inactive)
ROOT
ATOM      1  C4' PXY d   1       0.319  -3.810   4.805  0.00  0.00     0.077 C 
ATOM      2  C1' PXY d   1      -1.087   0.143   0.829  0.00  0.00     0.077 C 
ATOM      3  C1  PXY d   1      -0.726  -0.888   1.880  0.00  0.00    -0.082 A 
ATOM      4  C2  PXY d   1       0.413  -1.554   1.779  0.00  0.00     0.003 A 
ATOM      5  C3  PXY d   1       0.740  -2.512   2.704  0.00  0.00     0.003 A 
ATOM      6  C4  PXY d   1      -0.082  -2.754   3.772  0.00  0.00    -0.082 A 
ATOM      7  C5  PXY d   1      -1.240  -2.071   3.888  0.00  0.00     0.003 A 
ATOM      8  C6  PXY d   1      -1.574  -1.131   2.916  0.00  0.00     0.003 A 
ENDROOT
TORSDOF 0
ENDMDL
