MODEL 1
REMARK minimizedAffinity 0.642969489
REMARK minimizedRMSD -1
REMARK  0 active torsions:
REMARK  status: ('A' for Active; 'I' for Inactive)
ROOT
ATOM      1  C4' PXY d   1      -0.384   0.817  -0.521  0.00  0.00     0.077 C 
ATOM      2  C1' PXY d   1       1.242  -3.623   2.805  0.00  0.00     0.077 C 
ATOM      3  C1  PXY d   1       0.828  -2.457   1.929  0.00  0.00    -0.082 A 
ATOM      4  C2  PXY d   1      -0.290  -1.802   2.198  0.00  0.00     0.003 A 
ATOM      5  C3  PXY d   1      -0.696  -0.765   1.397  0.00  0.00     0.003 A 
ATOM      6  C4  PXY d   1       0.078  -0.361   0.342  0.00  0.00    -0.082 A 
ATOM      7  C5  PXY d   1       1.225  -1.018   0.068  0.00  0.00     0.003 A 
ATOM      8  C6  PXY d   1       1.598  -2.094   0.868  0.00  0.00     0.003 A 
ENDROOT
TORSDOF 0
ENDMDL
