MODEL 1
REMARK minimizedAffinity 2.02971935
REMARK minimizedRMSD -1
REMARK  0 active torsions:
REMARK  status: ('A' for Active; 'I' for Inactive)
ROOT
ATOM      1  C4' PXY d   1       0.370  -0.751   0.339  0.00  0.00     0.077 C 
ATOM      2  C1' PXY d   1       5.982  -1.493   1.507  0.00  0.00     0.077 C 
ATOM      3  C1  PXY d   1       4.510  -1.309   1.193  0.00  0.00    -0.082 A 
ATOM      4  C2  PXY d   1       3.975  -0.101   1.254  0.00  0.00     0.003 A 
ATOM      5  C3  PXY d   1       2.638   0.079   1.004  0.00  0.00     0.003 A 
ATOM      6  C4  PXY d   1       1.853  -0.982   0.638  0.00  0.00    -0.082 A 
ATOM      7  C5  PXY d   1       2.395  -2.216   0.564  0.00  0.00     0.003 A 
ATOM      8  C6  PXY d   1       3.744  -2.383   0.861  0.00  0.00     0.003 A 
ENDROOT
TORSDOF 0
ENDMDL
