MODEL 1
REMARK minimizedAffinity -1.42494762
REMARK minimizedRMSD -1
REMARK  0 active torsions:
REMARK  status: ('A' for Active; 'I' for Inactive)
ROOT
ATOM      1  C4' PXY d   1       0.050   0.634   0.010  0.00  0.00     0.077 C 
ATOM      2  C1' PXY d   1       5.499  -0.819   1.279  0.00  0.00     0.077 C 
ATOM      3  C1  PXY d   1       4.071  -0.427   0.954  0.00  0.00    -0.082 A 
ATOM      4  C2  PXY d   1       3.205  -1.358   0.588  0.00  0.00     0.003 A 
ATOM      5  C3  PXY d   1       1.918  -1.017   0.259  0.00  0.00     0.003 A 
ATOM      6  C4  PXY d   1       1.499   0.283   0.357  0.00  0.00    -0.082 A 
ATOM      7  C5  PXY d   1       2.374   1.237   0.740  0.00  0.00     0.003 A 
ATOM      8  C6  PXY d   1       3.687   0.876   1.030  0.00  0.00     0.003 A 
ENDROOT
TORSDOF 0
ENDMDL
