MODEL 1
REMARK minimizedAffinity 2.87636185
REMARK minimizedRMSD -1
REMARK  0 active torsions:
REMARK  status: ('A' for Active; 'I' for Inactive)
ROOT
ATOM      1  C4' PXY d   1       5.035  -0.951   1.182  0.00  0.00     0.077 C 
ATOM      2  C1' PXY d   1      -0.576   0.027   0.195  0.00  0.00     0.077 C 
ATOM      3  C1  PXY d   1       0.899  -0.218   0.448  0.00  0.00    -0.082 A 
ATOM      4  C2  PXY d   1       1.339  -1.456   0.599  0.00  0.00     0.003 A 
ATOM      5  C3  PXY d   1       2.664  -1.694   0.860  0.00  0.00     0.003 A 
ATOM      6  C4  PXY d   1       3.557  -0.657   0.915  0.00  0.00    -0.082 A 
ATOM      7  C5  PXY d   1       3.117   0.609   0.752  0.00  0.00     0.003 A 
ATOM      8  C6  PXY d   1       1.761   0.832   0.528  0.00  0.00     0.003 A 
ENDROOT
TORSDOF 0
ENDMDL
