MODEL 1
REMARK minimizedAffinity 0.0643182993
REMARK minimizedRMSD -1
REMARK  0 active torsions:
REMARK  status: ('A' for Active; 'I' for Inactive)
ROOT
ATOM      1  C4' PXY d   1      -4.872  -5.361  -5.997  0.00  0.00     0.077 C 
ATOM      2  C1' PXY d   1       0.468  -5.157  -3.792  0.00  0.00     0.077 C 
ATOM      3  C1  PXY d   1      -0.935  -5.222  -4.364  0.00  0.00    -0.082 A 
ATOM      4  C2  PXY d   1      -1.214  -4.579  -5.486  0.00  0.00     0.003 A 
ATOM      5  C3  PXY d   1      -2.485  -4.600  -6.000  0.00  0.00     0.003 A 
ATOM      6  C4  PXY d   1      -3.467  -5.332  -5.388  0.00  0.00    -0.082 A 
ATOM      7  C5  PXY d   1      -3.188  -6.000  -4.249  0.00  0.00     0.003 A 
ATOM      8  C6  PXY d   1      -1.902  -5.931  -3.721  0.00  0.00     0.003 A 
ENDROOT
TORSDOF 0
ENDMDL
