MODEL 1
REMARK minimizedAffinity 0.559473336
REMARK minimizedRMSD -1
REMARK  0 active torsions:
REMARK  status: ('A' for Active; 'I' for Inactive)
ROOT
ATOM      1  C4' PXY d   1       1.423  -0.898   0.595  0.00  0.00     0.077 C 
ATOM      2  C1' PXY d   1      -4.014  -0.750  -1.363  0.00  0.00     0.077 C 
ATOM      3  C1  PXY d   1      -2.588  -0.776  -0.849  0.00  0.00    -0.082 A 
ATOM      4  C2  PXY d   1      -1.828  -1.834  -1.081  0.00  0.00     0.003 A 
ATOM      5  C3  PXY d   1      -0.546  -1.887  -0.596  0.00  0.00     0.003 A 
ATOM      6  C4  PXY d   1      -0.019  -0.824   0.087  0.00  0.00    -0.082 A 
ATOM      7  C5  PXY d   1      -0.785   0.264   0.318  0.00  0.00     0.003 A 
ATOM      8  C6  PXY d   1      -2.096   0.281  -0.147  0.00  0.00     0.003 A 
ENDROOT
TORSDOF 0
ENDMDL
