MODEL 1
REMARK minimizedAffinity 7.97334766
REMARK minimizedRMSD -1
REMARK  0 active torsions:
REMARK  status: ('A' for Active; 'I' for Inactive)
ROOT
ATOM      1  C4' PXY d   1       1.675  -3.649   4.301  0.00  0.00     0.077 C 
ATOM      2  C1' PXY d   1      -1.548  -0.836   0.414  0.00  0.00     0.077 C 
ATOM      3  C1  PXY d   1      -0.711  -1.570   1.443  0.00  0.00    -0.082 A 
ATOM      4  C2  PXY d   1       0.564  -1.819   1.191  0.00  0.00     0.003 A 
ATOM      5  C3  PXY d   1       1.327  -2.510   2.097  0.00  0.00     0.003 A 
ATOM      6  C4  PXY d   1       0.794  -2.903   3.295  0.00  0.00    -0.082 A 
ATOM      7  C5  PXY d   1      -0.503  -2.643   3.564  0.00  0.00     0.003 A 
ATOM      8  C6  PXY d   1      -1.272  -1.977   2.614  0.00  0.00     0.003 A 
ENDROOT
TORSDOF 0
ENDMDL
