MODEL 1
REMARK minimizedAffinity 10.1826477
REMARK minimizedRMSD -1
REMARK  0 active torsions:
REMARK  status: ('A' for Active; 'I' for Inactive)
ROOT
ATOM      1  C4' PXY d   1       0.249  -3.238   4.366  0.00  0.00     0.077 C 
ATOM      2  C1' PXY d   1       0.910  -0.799  -0.833  0.00  0.00     0.077 C 
ATOM      3  C1  PXY d   1       0.748  -1.445   0.529  0.00  0.00    -0.082 A 
ATOM      4  C2  PXY d   1      -0.452  -1.511   1.083  0.00  0.00     0.003 A 
ATOM      5  C3  PXY d   1      -0.612  -2.063   2.327  0.00  0.00     0.003 A 
ATOM      6  C4  PXY d   1       0.458  -2.602   2.989  0.00  0.00    -0.082 A 
ATOM      7  C5  PXY d   1       1.684  -2.549   2.426  0.00  0.00     0.003 A 
ATOM      8  C6  PXY d   1       1.832  -1.947   1.179  0.00  0.00     0.003 A 
ENDROOT
TORSDOF 0
ENDMDL
