MODEL 1
REMARK minimizedAffinity 1.28222513
REMARK minimizedRMSD -1
REMARK  0 active torsions:
REMARK  status: ('A' for Active; 'I' for Inactive)
ROOT
ATOM      1  C4' PXY d   1       1.856  -1.632   0.871  0.00  0.00     0.077 C 
ATOM      2  C1' PXY d   1      -3.683  -1.103  -0.699  0.00  0.00     0.077 C 
ATOM      3  C1  PXY d   1      -2.230  -1.229  -0.285  0.00  0.00    -0.082 A 
ATOM      4  C2  PXY d   1      -1.506  -2.240  -0.737  0.00  0.00     0.003 A 
ATOM      5  C3  PXY d   1      -0.199  -2.387  -0.347  0.00  0.00     0.003 A 
ATOM      6  C4  PXY d   1       0.388  -1.460   0.472  0.00  0.00    -0.082 A 
ATOM      7  C5  PXY d   1      -0.341  -0.420   0.929  0.00  0.00     0.003 A 
ATOM      8  C6  PXY d   1      -1.677  -0.312   0.555  0.00  0.00     0.003 A 
ENDROOT
TORSDOF 0
ENDMDL
