MODEL 1
REMARK minimizedAffinity 6.43239737
REMARK minimizedRMSD -1
REMARK  0 active torsions:
REMARK  status: ('A' for Active; 'I' for Inactive)
ROOT
ATOM      1  C4' PXY d   1      -3.279   2.053  -0.691  0.00  0.00     0.077 C 
ATOM      2  C1' PXY d   1       0.626   3.042  -4.836  0.00  0.00     0.077 C 
ATOM      3  C1  PXY d   1      -0.407   2.787  -3.757  0.00  0.00    -0.082 A 
ATOM      4  C2  PXY d   1      -0.033   2.749  -2.489  0.00  0.00     0.003 A 
ATOM      5  C3  PXY d   1      -0.949   2.488  -1.502  0.00  0.00     0.003 A 
ATOM      6  C4  PXY d   1      -2.271   2.316  -1.813  0.00  0.00    -0.082 A 
ATOM      7  C5  PXY d   1      -2.663   2.364  -3.104  0.00  0.00     0.003 A 
ATOM      8  C6  PXY d   1      -1.711   2.589  -4.094  0.00  0.00     0.003 A 
ENDROOT
TORSDOF 0
ENDMDL
