MODEL 1
REMARK minimizedAffinity 3.80670571
REMARK minimizedRMSD -1
REMARK  0 active torsions:
REMARK  status: ('A' for Active; 'I' for Inactive)
ROOT
ATOM      1  C4' PXY d   1      -1.833   2.855  -4.506  0.00  0.00     0.077 C 
ATOM      2  C1' PXY d   1       3.614   1.633  -3.007  0.00  0.00     0.077 C 
ATOM      3  C1  PXY d   1       2.182   1.952  -3.387  0.00  0.00    -0.082 A 
ATOM      4  C2  PXY d   1       1.775   1.750  -4.630  0.00  0.00     0.003 A 
ATOM      5  C3  PXY d   1       0.492   2.063  -4.999  0.00  0.00     0.003 A 
ATOM      6  C4  PXY d   1      -0.399   2.538  -4.074  0.00  0.00    -0.082 A 
ATOM      7  C5  PXY d   1       0.006   2.738  -2.802  0.00  0.00     0.003 A 
ATOM      8  C6  PXY d   1       1.324   2.452  -2.457  0.00  0.00     0.003 A 
ENDROOT
TORSDOF 0
ENDMDL
