MODEL 1
REMARK minimizedAffinity 5.82541037
REMARK minimizedRMSD -1
REMARK  0 active torsions:
REMARK  status: ('A' for Active; 'I' for Inactive)
ROOT
ATOM      1  C4' PXY d   1       0.949  -3.719   4.508  0.00  0.00     0.077 C 
ATOM      2  C1' PXY d   1      -0.669  -0.111   0.292  0.00  0.00     0.077 C 
ATOM      3  C1  PXY d   1      -0.251  -1.050   1.406  0.00  0.00    -0.082 A 
ATOM      4  C2  PXY d   1       0.823  -1.808   1.254  0.00  0.00     0.003 A 
ATOM      5  C3  PXY d   1       1.197  -2.686   2.239  0.00  0.00     0.003 A 
ATOM      6  C4  PXY d   1       0.495  -2.750   3.413  0.00  0.00    -0.082 A 
ATOM      7  C5  PXY d   1      -0.595  -1.972   3.580  0.00  0.00     0.003 A 
ATOM      8  C6  PXY d   1      -0.982  -1.117   2.552  0.00  0.00     0.003 A 
ENDROOT
TORSDOF 0
ENDMDL
