MODEL 1
REMARK minimizedAffinity -0.841723502
REMARK minimizedRMSD -1
REMARK  0 active torsions:
REMARK  status: ('A' for Active; 'I' for Inactive)
ROOT
ATOM      1  C4' PXY d   1       3.565   2.191  -2.814  0.00  0.00     0.077 C 
ATOM      2  C1' PXY d   1      -1.753   4.169  -3.918  0.00  0.00     0.077 C 
ATOM      3  C1  PXY d   1      -0.355   3.663  -3.626  0.00  0.00    -0.082 A 
ATOM      4  C2  PXY d   1       0.056   2.526  -4.166  0.00  0.00     0.003 A 
ATOM      5  C3  PXY d   1       1.306   2.037  -3.886  0.00  0.00     0.003 A 
ATOM      6  C4  PXY d   1       2.164   2.745  -3.089  0.00  0.00    -0.082 A 
ATOM      7  C5  PXY d   1       1.757   3.911  -2.543  0.00  0.00     0.003 A 
ATOM      8  C6  PXY d   1       0.469   4.369  -2.806  0.00  0.00     0.003 A 
ENDROOT
TORSDOF 0
ENDMDL
