MODEL 1
REMARK minimizedAffinity -6.04033232
REMARK minimizedRMSD -1
REMARK  0 active torsions:
REMARK  status: ('A' for Active; 'I' for Inactive)
ROOT
ATOM      1  C4' PXY d   1       0.046  -1.703   0.652  0.00  0.00     0.077 C 
ATOM      2  C1' PXY d   1      -4.314  -2.566   4.348  0.00  0.00     0.077 C 
ATOM      3  C1  PXY d   1      -3.176  -2.348   3.370  0.00  0.00    -0.082 A 
ATOM      4  C2  PXY d   1      -1.997  -1.949   3.818  0.00  0.00     0.003 A 
ATOM      5  C3  PXY d   1      -0.966  -1.716   2.944  0.00  0.00     0.003 A 
ATOM      6  C4  PXY d   1      -1.129  -1.945   1.604  0.00  0.00    -0.082 A 
ATOM      7  C5  PXY d   1      -2.327  -2.362   1.141  0.00  0.00     0.003 A 
ATOM      8  C6  PXY d   1      -3.372  -2.553   2.039  0.00  0.00     0.003 A 
ENDROOT
TORSDOF 0
ENDMDL
