MODEL 1
REMARK minimizedAffinity 5.80482388
REMARK minimizedRMSD -1
REMARK  0 active torsions:
REMARK  status: ('A' for Active; 'I' for Inactive)
ROOT
ATOM      1  C4' PXY d   1       0.058  -0.494   1.167  0.00  0.00     0.077 C 
ATOM      2  C1' PXY d   1       3.959   1.580  -2.561  0.00  0.00     0.077 C 
ATOM      3  C1  PXY d   1       2.944   1.039  -1.574  0.00  0.00    -0.082 A 
ATOM      4  C2  PXY d   1       2.044   0.157  -1.978  0.00  0.00     0.003 A 
ATOM      5  C3  PXY d   1       1.099  -0.319  -1.106  0.00  0.00     0.003 A 
ATOM      6  C4  PXY d   1       1.108   0.072   0.207  0.00  0.00    -0.082 A 
ATOM      7  C5  PXY d   1       2.029   0.963   0.629  0.00  0.00     0.003 A 
ATOM      8  C6  PXY d   1       2.954   1.465  -0.282  0.00  0.00     0.003 A 
ENDROOT
TORSDOF 0
ENDMDL
