MODEL 1
REMARK minimizedAffinity 12.3139925
REMARK minimizedRMSD -1
REMARK  0 active torsions:
REMARK  status: ('A' for Active; 'I' for Inactive)
ROOT
ATOM      1  C4' PXY d   1      -0.910  -0.779   1.856  0.00  0.00     0.077 C 
ATOM      2  C1' PXY d   1       2.130  -4.575   4.981  0.00  0.00     0.077 C 
ATOM      3  C1  PXY d   1       1.321  -3.584   4.167  0.00  0.00    -0.082 A 
ATOM      4  C2  PXY d   1       1.812  -3.117   3.030  0.00  0.00     0.003 A 
ATOM      5  C3  PXY d   1       1.108  -2.196   2.297  0.00  0.00     0.003 A 
ATOM      6  C4  PXY d   1      -0.133  -1.788   2.706  0.00  0.00    -0.082 A 
ATOM      7  C5  PXY d   1      -0.645  -2.267   3.859  0.00  0.00     0.003 A 
ATOM      8  C6  PXY d   1       0.103  -3.170   4.609  0.00  0.00     0.003 A 
ENDROOT
TORSDOF 0
ENDMDL
