MODEL 1
REMARK minimizedAffinity -1.9982059
REMARK minimizedRMSD -1
REMARK  0 active torsions:
REMARK  status: ('A' for Active; 'I' for Inactive)
ROOT
ATOM      1  C4' PXY d   1      -5.130  -1.083  -5.994  0.00  0.00     0.077 C 
ATOM      2  C1' PXY d   1      -2.072  -5.988  -5.981  0.00  0.00     0.077 C 
ATOM      3  C1  PXY d   1      -2.864  -4.696  -5.979  0.00  0.00    -0.082 A 
ATOM      4  C2  PXY d   1      -4.186  -4.739  -5.967  0.00  0.00     0.003 A 
ATOM      5  C3  PXY d   1      -4.918  -3.579  -5.997  0.00  0.00     0.003 A 
ATOM      6  C4  PXY d   1      -4.290  -2.363  -5.987  0.00  0.00    -0.082 A 
ATOM      7  C5  PXY d   1      -2.941  -2.311  -5.989  0.00  0.00     0.003 A 
ATOM      8  C6  PXY d   1      -2.217  -3.499  -5.999  0.00  0.00     0.003 A 
ENDROOT
TORSDOF 0
ENDMDL
