MODEL 1
REMARK minimizedAffinity 0.19726795
REMARK minimizedRMSD -1
REMARK  0 active torsions:
REMARK  status: ('A' for Active; 'I' for Inactive)
ROOT
ATOM      1  C4' PXY d   1      -5.689  -2.545  -5.631  0.00  0.00     0.077 C 
ATOM      2  C1' PXY d   1      -1.069  -6.000  -6.000  0.00  0.00     0.077 C 
ATOM      3  C1  PXY d   1      -2.288  -5.103  -5.910  0.00  0.00    -0.082 A 
ATOM      4  C2  PXY d   1      -2.130  -3.800  -5.741  0.00  0.00     0.003 A 
ATOM      5  C3  PXY d   1      -3.221  -2.978  -5.625  0.00  0.00     0.003 A 
ATOM      6  C4  PXY d   1      -4.487  -3.488  -5.736  0.00  0.00    -0.082 A 
ATOM      7  C5  PXY d   1      -4.657  -4.815  -5.919  0.00  0.00     0.003 A 
ATOM      8  C6  PXY d   1      -3.536  -5.637  -5.993  0.00  0.00     0.003 A 
ENDROOT
TORSDOF 0
ENDMDL
