MODEL 1
REMARK minimizedAffinity -0.0624270551
REMARK minimizedRMSD -1
REMARK  0 active torsions:
REMARK  status: ('A' for Active; 'I' for Inactive)
ROOT
ATOM      1  C4' PXY d   1       1.804  -4.071   4.507  0.00  0.00     0.077 C 
ATOM      2  C1' PXY d   1      -0.597  -0.395   0.747  0.00  0.00     0.077 C 
ATOM      3  C1  PXY d   1       0.026  -1.354   1.743  0.00  0.00    -0.082 A 
ATOM      4  C2  PXY d   1       1.206  -1.892   1.483  0.00  0.00     0.003 A 
ATOM      5  C3  PXY d   1       1.769  -2.786   2.357  0.00  0.00     0.003 A 
ATOM      6  C4  PXY d   1       1.142  -3.091   3.535  0.00  0.00    -0.082 A 
ATOM      7  C5  PXY d   1      -0.058  -2.538   3.813  0.00  0.00     0.003 A 
ATOM      8  C6  PXY d   1      -0.631  -1.664   2.893  0.00  0.00     0.003 A 
ENDROOT
TORSDOF 0
ENDMDL
