MODEL 1
REMARK minimizedAffinity -4.08370161
REMARK minimizedRMSD -1
REMARK  3 active torsions:
REMARK  status: ('A' for Active; 'I' for Inactive)
REMARK    1  A    between atoms: C3'_2  and  C2'_3 
REMARK    2  A    between atoms: C2'_3  and  C1'_4 
REMARK    3  A    between atoms: C1'_4  and  C1_5 
ROOT
ATOM      1  C1  N4B d   1      -0.442   0.276   0.009  0.00  0.00    -0.075 A 
ATOM      2  C2  N4B d   1      -0.279   1.679  -0.002  0.00  0.00     0.002 A 
ATOM      3  C3  N4B d   1       0.926   2.233   0.354  0.00  0.00     0.002 A 
ATOM      4  C4  N4B d   1       1.973   1.409   0.740  0.00  0.00    -0.004 A 
ATOM      5  C5  N4B d   1       1.815   0.054   0.723  0.00  0.00     0.002 A 
ATOM      6  C6  N4B d   1       0.611  -0.517   0.364  0.00  0.00     0.002 A 
ENDROOT
BRANCH   1   7
ATOM      7  C1' N4B d   1      -1.766  -0.372  -0.288  0.00  0.00     0.057 C 
BRANCH   7   8
ATOM      8  C2' N4B d   1      -2.561   0.524  -1.234  0.00  0.00     0.009 C 
BRANCH   8   9
ATOM      9  C3' N4B d   1      -2.897  -0.182  -2.537  0.00  0.00     0.004 C 
ATOM     10  C4' N4B d   1      -2.680  -1.664  -2.467  0.00  0.00     0.003 C 
ENDBRANCH   8   9
ENDBRANCH   7   8
ENDBRANCH   1   7
TORSDOF 3
ENDMDL
