MODEL 1
REMARK minimizedAffinity -3.07504249
REMARK minimizedRMSD -1
REMARK  0 active torsions:
REMARK  status: ('A' for Active; 'I' for Inactive)
ROOT
ATOM      1  C   UNL d   1       1.023  -0.186  -2.909  0.00  0.00     0.077 C 
ATOM      2  C1  UNL d   1       0.379  -0.092  -1.558  0.00  0.00    -0.074 A 
ATOM      3  C2  UNL d   1      -1.003  -0.245  -1.408  0.00  0.00    -0.005 A 
ATOM      4  C3  UNL d   1      -1.586  -0.164  -0.144  0.00  0.00     0.006 A 
ATOM      5  C4  UNL d   1      -0.795   0.070   0.981  0.00  0.00    -0.005 A 
ATOM      6  C5  UNL d   1       0.589   0.225   0.851  0.00  0.00    -0.074 A 
ATOM      7  C6  UNL d   1       1.455   0.467   2.052  0.00  0.00     0.077 C 
ATOM      8  C7  UNL d   1       1.169   0.135  -0.422  0.00  0.00    -0.001 A 
ENDROOT
TORSDOF 0
ENDMDL
