MODEL 1
REMARK minimizedAffinity -2.74034691
REMARK minimizedRMSD -1
REMARK  0 active torsions:
REMARK  status: ('A' for Active; 'I' for Inactive)
ROOT
ATOM      1  C   UNL d   1       2.488  -0.774  -0.424  0.00  0.00     0.077 C 
ATOM      2  C1  UNL d   1       1.099  -0.279  -0.149  0.00  0.00    -0.074 A 
ATOM      3  C2  UNL d   1       0.056  -0.533  -1.045  0.00  0.00    -0.005 A 
ATOM      4  C3  UNL d   1      -1.233  -0.074  -0.772  0.00  0.00     0.006 A 
ATOM      5  C4  UNL d   1      -1.490   0.642   0.398  0.00  0.00    -0.005 A 
ATOM      6  C5  UNL d   1      -0.460   0.905   1.305  0.00  0.00    -0.074 A 
ATOM      7  C6  UNL d   1      -0.721   1.665   2.572  0.00  0.00     0.077 C 
ATOM      8  C7  UNL d   1       0.831   0.434   1.027  0.00  0.00    -0.001 A 
ENDROOT
TORSDOF 0
ENDMDL
