MODEL 1
REMARK minimizedAffinity -4.12033844
REMARK minimizedRMSD -1
REMARK  0 active torsions:
REMARK  status: ('A' for Active; 'I' for Inactive)
ROOT
ATOM      1  C   UNL d   1      -0.612   1.389   3.144  0.00  0.00     0.077 C 
ATOM      2  C1  UNL d   1      -0.877   0.762   1.808  0.00  0.00    -0.074 A 
ATOM      3  C2  UNL d   1      -2.184   0.590   1.341  0.00  0.00    -0.005 A 
ATOM      4  C3  UNL d   1      -2.415   0.013   0.092  0.00  0.00     0.006 A 
ATOM      5  C4  UNL d   1      -1.342  -0.397  -0.701  0.00  0.00    -0.005 A 
ATOM      6  C5  UNL d   1      -0.029  -0.232  -0.252  0.00  0.00    -0.074 A 
ATOM      7  C6  UNL d   1       1.136  -0.657  -1.096  0.00  0.00     0.077 C 
ATOM      8  C7  UNL d   1       0.195   0.355   1.002  0.00  0.00    -0.001 A 
ENDROOT
TORSDOF 0
ENDMDL
