MODEL 1
REMARK minimizedAffinity -5.61873865
REMARK minimizedRMSD -1
REMARK  0 active torsions:
REMARK  status: ('A' for Active; 'I' for Inactive)
ROOT
ATOM      1  C   UNL d   1      -0.703   1.353   3.473  0.00  0.00     0.077 C 
ATOM      2  C1  UNL d   1      -1.112   0.711   2.180  0.00  0.00    -0.074 A 
ATOM      3  C2  UNL d   1      -2.458   0.452   1.901  0.00  0.00    -0.005 A 
ATOM      4  C3  UNL d   1      -2.824  -0.136   0.690  0.00  0.00     0.006 A 
ATOM      5  C4  UNL d   1      -1.850  -0.470  -0.252  0.00  0.00    -0.005 A 
ATOM      6  C5  UNL d   1      -0.500  -0.217   0.009  0.00  0.00    -0.074 A 
ATOM      7  C6  UNL d   1       0.559  -0.561  -0.996  0.00  0.00     0.077 C 
ATOM      8  C7  UNL d   1      -0.140   0.380   1.225  0.00  0.00    -0.001 A 
ENDROOT
TORSDOF 0
ENDMDL
