MODEL 1
REMARK minimizedAffinity -2.77419543
REMARK minimizedRMSD -1
REMARK  0 active torsions:
REMARK  status: ('A' for Active; 'I' for Inactive)
ROOT
ATOM      1  C   UNL d   1       4.460   0.744  -1.127  0.00  0.00     0.078 C 
ATOM      2  C1  UNL d   1       5.003   2.037  -0.597  0.00  0.00    -0.077 A 
ATOM      3  C2  UNL d   1       5.499   2.130   0.709  0.00  0.00    -0.001 A 
ATOM      4  C3  UNL d   1       5.993   3.343   1.192  0.00  0.00     0.003 A 
ATOM      5  C4  UNL d   1       5.994   4.472   0.376  0.00  0.00    -0.005 A 
ATOM      6  C5  UNL d   1       5.501   4.391  -0.924  0.00  0.00     0.003 A 
ATOM      7  C6  UNL d   1       5.007   3.179  -1.409  0.00  0.00    -0.001 A 
ENDROOT
TORSDOF 0
ENDMDL
