MODEL 1
REMARK minimizedAffinity 1.71571231
REMARK minimizedRMSD -1
REMARK  0 active torsions:
REMARK  status: ('A' for Active; 'I' for Inactive)
ROOT
ATOM      1  C   UNL d   1       6.000   3.643  -1.013  0.00  0.00     0.078 C 
ATOM      2  C1  UNL d   1       5.355   2.306  -0.802  0.00  0.00    -0.077 A 
ATOM      3  C2  UNL d   1       4.835   1.578  -1.880  0.00  0.00    -0.001 A 
ATOM      4  C3  UNL d   1       4.229   0.339  -1.667  0.00  0.00     0.003 A 
ATOM      5  C4  UNL d   1       4.136  -0.183  -0.379  0.00  0.00    -0.005 A 
ATOM      6  C5  UNL d   1       4.649   0.535   0.700  0.00  0.00     0.003 A 
ATOM      7  C6  UNL d   1       5.255   1.774   0.489  0.00  0.00    -0.001 A 
ENDROOT
TORSDOF 0
ENDMDL
