MODEL 1
REMARK minimizedAffinity 1.73227859
REMARK minimizedRMSD -1
REMARK  0 active torsions:
REMARK  status: ('A' for Active; 'I' for Inactive)
ROOT
ATOM      1  C   UNL d   1       3.005  -1.961  -0.757  0.00  0.00     0.078 C 
ATOM      2  C1  UNL d   1       3.827  -0.707  -0.798  0.00  0.00    -0.077 A 
ATOM      3  C2  UNL d   1       3.217   0.553  -0.823  0.00  0.00    -0.001 A 
ATOM      4  C3  UNL d   1       3.994   1.712  -0.871  0.00  0.00     0.003 A 
ATOM      5  C4  UNL d   1       5.384   1.622  -0.895  0.00  0.00    -0.005 A 
ATOM      6  C5  UNL d   1       6.000   0.372  -0.873  0.00  0.00     0.003 A 
ATOM      7  C6  UNL d   1       5.225  -0.788  -0.825  0.00  0.00    -0.001 A 
ENDROOT
TORSDOF 0
ENDMDL
