MODEL 1
REMARK minimizedAffinity 3.65555334
REMARK minimizedRMSD -1
REMARK  0 active torsions:
REMARK  status: ('A' for Active; 'I' for Inactive)
ROOT
ATOM      1  C   UNL d   1       1.191  -3.088  -0.881  0.00  0.00     0.078 C 
ATOM      2  C1  UNL d   1       2.075  -1.887  -0.717  0.00  0.00    -0.077 A 
ATOM      3  C2  UNL d   1       1.545  -0.592  -0.745  0.00  0.00    -0.001 A 
ATOM      4  C3  UNL d   1       2.380   0.517  -0.601  0.00  0.00     0.003 A 
ATOM      5  C4  UNL d   1       3.752   0.341  -0.430  0.00  0.00    -0.005 A 
ATOM      6  C5  UNL d   1       4.290  -0.944  -0.403  0.00  0.00     0.003 A 
ATOM      7  C6  UNL d   1       3.455  -2.054  -0.547  0.00  0.00    -0.001 A 
ENDROOT
TORSDOF 0
ENDMDL
