MODEL 1
REMARK minimizedAffinity 11.5299034
REMARK minimizedRMSD -1
REMARK  0 active torsions:
REMARK  status: ('A' for Active; 'I' for Inactive)
ROOT
ATOM      1  C   UNL d   1       2.451  -0.945  -0.752  0.00  0.00     0.078 C 
ATOM      2  C1  UNL d   1       3.681  -0.095  -0.638  0.00  0.00    -0.077 A 
ATOM      3  C2  UNL d   1       3.691   1.225  -1.107  0.00  0.00    -0.001 A 
ATOM      4  C3  UNL d   1       4.847   2.001  -1.004  0.00  0.00     0.003 A 
ATOM      5  C4  UNL d   1       6.000   1.467  -0.433  0.00  0.00    -0.005 A 
ATOM      6  C5  UNL d   1       6.000   0.155   0.035  0.00  0.00     0.003 A 
ATOM      7  C6  UNL d   1       4.845  -0.624  -0.068  0.00  0.00    -0.001 A 
ENDROOT
TORSDOF 0
ENDMDL
