MODEL 1
REMARK minimizedAffinity 6.60079861
REMARK minimizedRMSD -1
REMARK  0 active torsions:
REMARK  status: ('A' for Active; 'I' for Inactive)
ROOT
ATOM      1  C   UNL d   1      -5.982   2.189   5.910  0.00  0.00     0.078 C 
ATOM      2  C1  UNL d   1      -5.979   3.458   5.111  0.00  0.00    -0.077 A 
ATOM      3  C2  UNL d   1      -5.981   4.708   5.742  0.00  0.00    -0.001 A 
ATOM      4  C3  UNL d   1      -5.988   5.881   4.986  0.00  0.00     0.003 A 
ATOM      5  C4  UNL d   1      -5.993   5.816   3.594  0.00  0.00    -0.005 A 
ATOM      6  C5  UNL d   1      -5.993   4.576   2.956  0.00  0.00     0.003 A 
ATOM      7  C6  UNL d   1      -5.986   3.402   3.711  0.00  0.00    -0.001 A 
ENDROOT
TORSDOF 0
ENDMDL
