MODEL 1
REMARK minimizedAffinity 3.42112327
REMARK minimizedRMSD -1
REMARK  0 active torsions:
REMARK  status: ('A' for Active; 'I' for Inactive)
ROOT
ATOM      1  C   UNL d   1       2.226   2.971   3.033  0.00  0.00     0.078 C 
ATOM      2  C1  UNL d   1       0.967   2.664   2.277  0.00  0.00    -0.077 A 
ATOM      3  C2  UNL d   1       0.075   3.682   1.918  0.00  0.00    -0.001 A 
ATOM      4  C3  UNL d   1      -1.097   3.381   1.223  0.00  0.00     0.003 A 
ATOM      5  C4  UNL d   1      -1.389   2.062   0.883  0.00  0.00    -0.005 A 
ATOM      6  C5  UNL d   1      -0.509   1.042   1.238  0.00  0.00     0.003 A 
ATOM      7  C6  UNL d   1       0.664   1.341   1.932  0.00  0.00    -0.001 A 
ENDROOT
TORSDOF 0
ENDMDL
