MODEL 1
REMARK minimizedAffinity 13.6800365
REMARK minimizedRMSD -1
REMARK  0 active torsions:
REMARK  status: ('A' for Active; 'I' for Inactive)
ROOT
ATOM      1  C   UNL d   1      -1.633  -5.468  -2.325  0.00  0.00     0.078 C 
ATOM      2  C1  UNL d   1      -0.410  -4.730  -1.869  0.00  0.00    -0.077 A 
ATOM      3  C2  UNL d   1       0.094  -4.901  -0.574  0.00  0.00    -0.001 A 
ATOM      4  C3  UNL d   1       1.228  -4.199  -0.160  0.00  0.00     0.003 A 
ATOM      5  C4  UNL d   1       1.866  -3.322  -1.034  0.00  0.00    -0.005 A 
ATOM      6  C5  UNL d   1       1.370  -3.143  -2.324  0.00  0.00     0.003 A 
ATOM      7  C6  UNL d   1       0.236  -3.844  -2.740  0.00  0.00    -0.001 A 
ENDROOT
TORSDOF 0
ENDMDL
