MODEL 1
REMARK minimizedAffinity 6.6758852
REMARK minimizedRMSD -1
REMARK  0 active torsions:
REMARK  status: ('A' for Active; 'I' for Inactive)
ROOT
ATOM      1  C   UNL d   1       3.987  -0.125   0.037  0.00  0.00     0.078 C 
ATOM      2  C1  UNL d   1       2.584   0.343   0.280  0.00  0.00    -0.077 A 
ATOM      3  C2  UNL d   1       2.132   0.627   1.575  0.00  0.00    -0.001 A 
ATOM      4  C3  UNL d   1       0.820   1.053   1.787  0.00  0.00     0.003 A 
ATOM      5  C4  UNL d   1      -0.052   1.197   0.710  0.00  0.00    -0.005 A 
ATOM      6  C5  UNL d   1       0.388   0.914  -0.582  0.00  0.00     0.003 A 
ATOM      7  C6  UNL d   1       1.700   0.489  -0.796  0.00  0.00    -0.001 A 
ENDROOT
TORSDOF 0
ENDMDL
