MODEL 1
REMARK minimizedAffinity 1.71813953
REMARK minimizedRMSD -1
REMARK  0 active torsions:
REMARK  status: ('A' for Active; 'I' for Inactive)
ROOT
ATOM      1  C   UNL d   1       6.000   3.224  -0.013  0.00  0.00     0.078 C 
ATOM      2  C1  UNL d   1       5.123   2.009  -0.072  0.00  0.00    -0.077 A 
ATOM      3  C2  UNL d   1       4.661   1.512  -1.297  0.00  0.00    -0.001 A 
ATOM      4  C3  UNL d   1       3.838   0.386  -1.337  0.00  0.00     0.003 A 
ATOM      5  C4  UNL d   1       3.468  -0.253  -0.155  0.00  0.00    -0.005 A 
ATOM      6  C5  UNL d   1       3.922   0.235   1.069  0.00  0.00     0.003 A 
ATOM      7  C6  UNL d   1       4.745   1.361   1.111  0.00  0.00    -0.001 A 
ENDROOT
TORSDOF 0
ENDMDL
