MODEL 1
REMARK minimizedAffinity 14.5526304
REMARK minimizedRMSD -1
REMARK  1 active torsions:
REMARK  status: ('A' for Active; 'I' for Inactive)
REMARK    1  A    between atoms: C1_2  and  C2_3 
ROOT
ATOM      1  C2  UNL d   1       2.291   2.120   1.985  0.00  0.00    -0.081 A 
ATOM      2  C3  UNL d   1       2.861   1.200   1.097  0.00  0.00     0.006 A 
ATOM      3  C4  UNL d   1       2.934  -0.154   1.430  0.00  0.00     0.002 A 
ATOM      4  C5  UNL d   1       2.431  -0.612   2.653  0.00  0.00    -0.080 A 
ATOM      5  C6  UNL d   1       2.475  -2.068   3.010  0.00  0.00     0.076 C 
ATOM      6  C7  UNL d   1       1.877   0.310   3.548  0.00  0.00     0.002 A 
ATOM      7  C8  UNL d   1       1.805   1.664   3.215  0.00  0.00     0.006 A 
ENDROOT
BRANCH   1   8
ATOM      8  C1  UNL d   1       2.153   3.571   1.601  0.00  0.00     0.054 C 
ATOM      9  C   UNL d   1       2.115   3.743   0.089  0.00  0.00     0.018 C 
ENDBRANCH   1   8
TORSDOF 1
ENDMDL
