MODEL 1
REMARK minimizedAffinity 15.6657753
REMARK minimizedRMSD -1
REMARK  1 active torsions:
REMARK  status: ('A' for Active; 'I' for Inactive)
REMARK    1  A    between atoms: C1_2  and  C2_3 
ROOT
ATOM      1  C2  UNL d   1      -0.586  -3.654  -0.776  0.00  0.00    -0.081 A 
ATOM      2  C3  UNL d   1      -0.753  -2.416  -1.409  0.00  0.00     0.006 A 
ATOM      3  C4  UNL d   1       0.358  -1.649  -1.769  0.00  0.00     0.002 A 
ATOM      4  C5  UNL d   1       1.653  -2.110  -1.508  0.00  0.00    -0.080 A 
ATOM      5  C6  UNL d   1       2.855  -1.311  -1.916  0.00  0.00     0.076 C 
ATOM      6  C7  UNL d   1       1.819  -3.338  -0.859  0.00  0.00     0.002 A 
ATOM      7  C8  UNL d   1       0.709  -4.105  -0.499  0.00  0.00     0.006 A 
ENDROOT
BRANCH   1   8
ATOM      8  C1  UNL d   1      -1.780  -4.512  -0.445  0.00  0.00     0.054 C 
ATOM      9  C   UNL d   1      -1.422  -5.991  -0.470  0.00  0.00     0.018 C 
ENDBRANCH   1   8
TORSDOF 1
ENDMDL
