MODEL 1
REMARK minimizedAffinity 12.6368608
REMARK minimizedRMSD -1
REMARK  1 active torsions:
REMARK  status: ('A' for Active; 'I' for Inactive)
REMARK    1  A    between atoms: C1_2  and  C2_3 
ROOT
ATOM      1  C2  UNL d   1      -3.512   2.369  -0.568  0.00  0.00    -0.081 A 
ATOM      2  C3  UNL d   1      -2.941   2.346   0.710  0.00  0.00     0.006 A 
ATOM      3  C4  UNL d   1      -3.715   2.634   1.837  0.00  0.00     0.002 A 
ATOM      4  C5  UNL d   1      -5.073   2.941   1.706  0.00  0.00    -0.080 A 
ATOM      5  C6  UNL d   1      -5.922   3.222   2.910  0.00  0.00     0.076 C 
ATOM      6  C7  UNL d   1      -5.640   2.982   0.427  0.00  0.00     0.002 A 
ATOM      7  C8  UNL d   1      -4.867   2.695  -0.700  0.00  0.00     0.006 A 
ENDROOT
BRANCH   1   8
ATOM      8  C1  UNL d   1      -2.696   1.996  -1.779  0.00  0.00     0.054 C 
ATOM      9  C   UNL d   1      -3.570   1.870  -3.018  0.00  0.00     0.018 C 
ENDBRANCH   1   8
TORSDOF 1
ENDMDL
