MODEL 1
REMARK minimizedAffinity 9.50635147
REMARK minimizedRMSD -1
REMARK  1 active torsions:
REMARK  status: ('A' for Active; 'I' for Inactive)
REMARK    1  A    between atoms: C1_2  and  C2_3 
ROOT
ATOM      1  C2  UNL d   1       1.938   0.777   2.365  0.00  0.00    -0.081 A 
ATOM      2  C3  UNL d   1       1.767   0.220   3.638  0.00  0.00     0.006 A 
ATOM      3  C4  UNL d   1       2.140  -1.103   3.888  0.00  0.00     0.002 A 
ATOM      4  C5  UNL d   1       2.696  -1.888   2.873  0.00  0.00    -0.080 A 
ATOM      5  C6  UNL d   1       3.128  -3.300   3.136  0.00  0.00     0.076 C 
ATOM      6  C7  UNL d   1       2.850  -1.337   1.596  0.00  0.00     0.002 A 
ATOM      7  C8  UNL d   1       2.478  -0.015   1.345  0.00  0.00     0.006 A 
ENDROOT
BRANCH   1   8
ATOM      8  C1  UNL d   1       1.598   2.223   2.109  0.00  0.00     0.054 C 
ATOM      9  C   UNL d   1       2.571   2.854   1.123  0.00  0.00     0.018 C 
ENDBRANCH   1   8
TORSDOF 1
ENDMDL
