MODEL 1
REMARK minimizedAffinity -0.175787985
REMARK minimizedRMSD -1
REMARK  1 active torsions:
REMARK  status: ('A' for Active; 'I' for Inactive)
REMARK    1  A    between atoms: C1_2  and  C2_3 
ROOT
ATOM      1  C2  UNL d   1       2.530   2.090   0.770  0.00  0.00    -0.081 A 
ATOM      2  C3  UNL d   1       3.496   1.147   0.395  0.00  0.00     0.006 A 
ATOM      3  C4  UNL d   1       3.641  -0.042   1.113  0.00  0.00     0.002 A 
ATOM      4  C5  UNL d   1       2.820  -0.312   2.213  0.00  0.00    -0.080 A 
ATOM      5  C6  UNL d   1       2.946  -1.598   2.974  0.00  0.00     0.076 C 
ATOM      6  C7  UNL d   1       1.867   0.637   2.598  0.00  0.00     0.002 A 
ATOM      7  C8  UNL d   1       1.721   1.827   1.880  0.00  0.00     0.006 A 
ENDROOT
BRANCH   1   8
ATOM      8  C1  UNL d   1       2.327   3.343  -0.042  0.00  0.00     0.054 C 
ATOM      9  C   UNL d   1       0.856   3.733  -0.099  0.00  0.00     0.018 C 
ENDBRANCH   1   8
TORSDOF 1
ENDMDL
