MODEL 1
REMARK minimizedAffinity 8.5381937
REMARK minimizedRMSD -1
REMARK  1 active torsions:
REMARK  status: ('A' for Active; 'I' for Inactive)
REMARK    1  A    between atoms: C1_2  and  C2_3 
ROOT
ATOM      1  C2  UNL d   1       1.434   3.052   1.006  0.00  0.00    -0.081 A 
ATOM      2  C3  UNL d   1       2.144   1.906   1.387  0.00  0.00     0.006 A 
ATOM      3  C4  UNL d   1       1.478   0.696   1.592  0.00  0.00     0.002 A 
ATOM      4  C5  UNL d   1       0.093   0.608   1.412  0.00  0.00    -0.080 A 
ATOM      5  C6  UNL d   1      -0.630  -0.693   1.599  0.00  0.00     0.076 C 
ATOM      6  C7  UNL d   1      -0.619   1.756   1.048  0.00  0.00     0.002 A 
ATOM      7  C8  UNL d   1       0.047   2.967   0.844  0.00  0.00     0.006 A 
ENDROOT
BRANCH   1   8
ATOM      8  C1  UNL d   1       2.158   4.343   0.721  0.00  0.00     0.054 C 
ATOM      9  C   UNL d   1       1.587   5.038  -0.506  0.00  0.00     0.018 C 
ENDBRANCH   1   8
TORSDOF 1
ENDMDL
