MODEL 1
REMARK minimizedAffinity 5.16664076
REMARK minimizedRMSD -1
REMARK  1 active torsions:
REMARK  status: ('A' for Active; 'I' for Inactive)
REMARK    1  A    between atoms: C1_2  and  C2_3 
ROOT
ATOM      1  C2  UNL d   1       3.095   4.875  -1.625  0.00  0.00    -0.081 A 
ATOM      2  C3  UNL d   1       3.374   3.586  -1.153  0.00  0.00     0.006 A 
ATOM      3  C4  UNL d   1       2.751   3.104   0.000  0.00  0.00     0.002 A 
ATOM      4  C5  UNL d   1       1.834   3.899   0.696  0.00  0.00    -0.080 A 
ATOM      5  C6  UNL d   1       1.135   3.382   1.919  0.00  0.00     0.076 C 
ATOM      6  C7  UNL d   1       1.568   5.193   0.235  0.00  0.00     0.002 A 
ATOM      7  C8  UNL d   1       2.191   5.675  -0.918  0.00  0.00     0.006 A 
ENDROOT
BRANCH   1   8
ATOM      8  C1  UNL d   1       3.716   5.373  -2.905  0.00  0.00     0.054 C 
ATOM      9  C   UNL d   1       5.080   6.000  -2.651  0.00  0.00     0.018 C 
ENDBRANCH   1   8
TORSDOF 1
ENDMDL
