MODEL 1
REMARK minimizedAffinity 9.81272697
REMARK minimizedRMSD -1
REMARK  1 active torsions:
REMARK  status: ('A' for Active; 'I' for Inactive)
REMARK    1  A    between atoms: C1_2  and  C2_3 
ROOT
ATOM      1  C2  UNL d   1       2.558   0.234   1.575  0.00  0.00    -0.081 A 
ATOM      2  C3  UNL d   1       2.997   0.052   2.892  0.00  0.00     0.006 A 
ATOM      3  C4  UNL d   1       2.693  -1.123   3.584  0.00  0.00     0.002 A 
ATOM      4  C5  UNL d   1       1.952  -2.137   2.969  0.00  0.00    -0.080 A 
ATOM      5  C6  UNL d   1       1.644  -3.416   3.690  0.00  0.00     0.076 C 
ATOM      6  C7  UNL d   1       1.498  -1.948   1.659  0.00  0.00     0.002 A 
ATOM      7  C8  UNL d   1       1.802  -0.774   0.967  0.00  0.00     0.006 A 
ENDROOT
BRANCH   1   8
ATOM      8  C1  UNL d   1       2.939   1.472   0.804  0.00  0.00     0.054 C 
ATOM      9  C   UNL d   1       2.239   2.705   1.356  0.00  0.00     0.018 C 
ENDBRANCH   1   8
TORSDOF 1
ENDMDL
