MODEL 1
REMARK minimizedAffinity 6.11445236
REMARK minimizedRMSD -1
REMARK  1 active torsions:
REMARK  status: ('A' for Active; 'I' for Inactive)
REMARK    1  A    between atoms: C1_2  and  C2_3 
ROOT
ATOM      1  C2  UNL d   1       3.715  -1.935   4.936  0.00  0.00    -0.081 A 
ATOM      2  C3  UNL d   1       3.356  -0.599   5.154  0.00  0.00     0.006 A 
ATOM      3  C4  UNL d   1       2.623   0.102   4.194  0.00  0.00     0.002 A 
ATOM      4  C5  UNL d   1       2.230  -0.522   3.005  0.00  0.00    -0.080 A 
ATOM      5  C6  UNL d   1       1.416   0.211   1.979  0.00  0.00     0.076 C 
ATOM      6  C7  UNL d   1       2.603  -1.851   2.780  0.00  0.00     0.002 A 
ATOM      7  C8  UNL d   1       3.337  -2.553   3.739  0.00  0.00     0.006 A 
ENDROOT
BRANCH   1   8
ATOM      8  C1  UNL d   1       4.449  -2.714   5.997  0.00  0.00     0.054 C 
ATOM      9  C   UNL d   1       5.935  -2.384   5.996  0.00  0.00     0.018 C 
ENDBRANCH   1   8
TORSDOF 1
ENDMDL
