MODEL 1
REMARK minimizedAffinity 6.03104973
REMARK minimizedRMSD -1
REMARK  1 active torsions:
REMARK  status: ('A' for Active; 'I' for Inactive)
REMARK    1  A    between atoms: C1_2  and  C2_3 
ROOT
ATOM      1  C2  UNL d   1       2.456   0.554   4.425  0.00  0.00    -0.081 A 
ATOM      2  C3  UNL d   1       3.031  -0.430   5.238  0.00  0.00     0.006 A 
ATOM      3  C4  UNL d   1       3.225  -1.726   4.752  0.00  0.00     0.002 A 
ATOM      4  C5  UNL d   1       2.856  -2.056   3.444  0.00  0.00    -0.080 A 
ATOM      5  C6  UNL d   1       3.087  -3.435   2.901  0.00  0.00     0.076 C 
ATOM      6  C7  UNL d   1       2.266  -1.078   2.637  0.00  0.00     0.002 A 
ATOM      7  C8  UNL d   1       2.070   0.217   3.122  0.00  0.00     0.006 A 
ENDROOT
BRANCH   1   8
ATOM      8  C1  UNL d   1       2.304   1.968   4.924  0.00  0.00     0.054 C 
ATOM      9  C   UNL d   1       3.332   2.288   5.999  0.00  0.00     0.018 C 
ENDBRANCH   1   8
TORSDOF 1
ENDMDL
