MODEL 1
REMARK minimizedAffinity 10.8942785
REMARK minimizedRMSD -1
REMARK  1 active torsions:
REMARK  status: ('A' for Active; 'I' for Inactive)
REMARK    1  A    between atoms: C1_2  and  C2_3 
ROOT
ATOM      1  C2  UNL d   1       2.370   0.351   4.482  0.00  0.00    -0.081 A 
ATOM      2  C3  UNL d   1       2.766  -0.603   5.427  0.00  0.00     0.006 A 
ATOM      3  C4  UNL d   1       3.057  -1.911   5.033  0.00  0.00     0.002 A 
ATOM      4  C5  UNL d   1       2.963  -2.285   3.689  0.00  0.00    -0.080 A 
ATOM      5  C6  UNL d   1       3.301  -3.679   3.248  0.00  0.00     0.076 C 
ATOM      6  C7  UNL d   1       2.550  -1.337   2.747  0.00  0.00     0.002 A 
ATOM      7  C8  UNL d   1       2.259  -0.029   3.140  0.00  0.00     0.006 A 
ENDROOT
BRANCH   1   8
ATOM      8  C1  UNL d   1       2.119   1.780   4.893  0.00  0.00     0.054 C 
ATOM      9  C   UNL d   1       3.071   2.212   5.999  0.00  0.00     0.018 C 
ENDBRANCH   1   8
TORSDOF 1
ENDMDL
