MODEL 1
REMARK minimizedAffinity -3.34126687
REMARK minimizedRMSD -1
REMARK  0 active torsions:
REMARK  status: ('A' for Active; 'I' for Inactive)
ROOT
ATOM      1  C   UNL d   1       1.884  -1.143   0.262  0.00  0.00     0.124 A 
ATOM      2  C1  UNL d   1       1.767  -0.028  -0.556  0.00  0.00     0.062 A 
ATOM      3  C2  UNL d   1       0.549   0.638  -0.662  0.00  0.00     0.162 A 
ATOM      4  C3  UNL d   1      -0.562   0.190   0.053  0.00  0.00    -0.034 A 
ATOM      5  C4  UNL d   1      -0.437  -0.933   0.873  0.00  0.00     0.162 A 
ATOM      6  C5  UNL d   1       0.783  -1.595   0.975  0.00  0.00     0.062 A 
ATOM      7  F   UNL d   1       0.894  -2.672   1.765  0.00  0.00    -0.097 F 
ATOM      8  F1  UNL d   1      -1.485  -1.390   1.574  0.00  0.00    -0.096 F 
ATOM      9  I   UNL d   1      -2.384   1.183  -0.102  0.00  0.00    -0.060 I 
ATOM     10  F2  UNL d   1       0.465   1.713  -1.459  0.00  0.00    -0.096 F 
ATOM     11  F3  UNL d   1       2.830   0.410  -1.247  0.00  0.00    -0.097 F 
ATOM     12  F4  UNL d   1       3.057  -1.782   0.361  0.00  0.00    -0.092 F 
ENDROOT
TORSDOF 0
ENDMDL
