MODEL 1
REMARK minimizedAffinity -1.40077305
REMARK minimizedRMSD -1
REMARK  0 active torsions:
REMARK  status: ('A' for Active; 'I' for Inactive)
ROOT
ATOM      1  C   UNL d   1       0.931  -1.339   1.178  0.00  0.00     0.124 A 
ATOM      2  C1  UNL d   1       1.859  -0.646   0.412  0.00  0.00     0.062 A 
ATOM      3  C2  UNL d   1       1.447   0.398  -0.411  0.00  0.00     0.162 A 
ATOM      4  C3  UNL d   1       0.101   0.757  -0.473  0.00  0.00    -0.034 A 
ATOM      5  C4  UNL d   1      -0.827   0.055   0.299  0.00  0.00     0.162 A 
ATOM      6  C5  UNL d   1      -0.411  -0.988   1.121  0.00  0.00     0.062 A 
ATOM      7  F   UNL d   1      -1.309  -1.656   1.859  0.00  0.00    -0.097 F 
ATOM      8  F1  UNL d   1      -2.129   0.374   0.264  0.00  0.00    -0.096 F 
ATOM      9  I   UNL d   1      -0.518   2.317  -1.702  0.00  0.00    -0.060 I 
ATOM     10  F2  UNL d   1       2.366   1.050  -1.140  0.00  0.00    -0.096 F 
ATOM     11  F3  UNL d   1       3.155  -0.984   0.465  0.00  0.00    -0.097 F 
ATOM     12  F4  UNL d   1       1.329  -2.344   1.968  0.00  0.00    -0.092 F 
ENDROOT
TORSDOF 0
ENDMDL
