MODEL 1
REMARK minimizedAffinity 1.65890229
REMARK minimizedRMSD -1
REMARK  0 active torsions:
REMARK  status: ('A' for Active; 'I' for Inactive)
ROOT
ATOM      1  C   UNL d   1       1.524  -2.322   0.936  0.00  0.00     0.124 A 
ATOM      2  C1  UNL d   1       0.149  -2.463   0.812  0.00  0.00     0.062 A 
ATOM      3  C2  UNL d   1      -0.598  -1.494   0.150  0.00  0.00     0.162 A 
ATOM      4  C3  UNL d   1       0.029  -0.374  -0.396  0.00  0.00    -0.034 A 
ATOM      5  C4  UNL d   1       1.413  -0.238  -0.267  0.00  0.00     0.162 A 
ATOM      6  C5  UNL d   1       2.155  -1.210   0.396  0.00  0.00     0.062 A 
ATOM      7  F   UNL d   1       3.483  -1.072   0.515  0.00  0.00    -0.097 F 
ATOM      8  F1  UNL d   1       2.048   0.826  -0.780  0.00  0.00    -0.096 F 
ATOM      9  I   UNL d   1      -1.083   1.079  -1.388  0.00  0.00    -0.060 I 
ATOM     10  F2  UNL d   1      -1.925  -1.656   0.045  0.00  0.00    -0.096 F 
ATOM     11  F3  UNL d   1      -0.463  -3.537   1.334  0.00  0.00    -0.097 F 
ATOM     12  F4  UNL d   1       2.240  -3.256   1.575  0.00  0.00    -0.092 F 
ENDROOT
TORSDOF 0
ENDMDL
