MODEL 1
REMARK minimizedAffinity 3.63708854
REMARK minimizedRMSD -1
REMARK  0 active torsions:
REMARK  status: ('A' for Active; 'I' for Inactive)
ROOT
ATOM      1  C   UNL d   1       0.624  -1.073   1.147  0.00  0.00     0.124 A 
ATOM      2  C1  UNL d   1      -0.579  -0.449   1.447  0.00  0.00     0.062 A 
ATOM      3  C2  UNL d   1      -1.191   0.379   0.510  0.00  0.00     0.162 A 
ATOM      4  C3  UNL d   1      -0.601   0.588  -0.737  0.00  0.00    -0.034 A 
ATOM      5  C4  UNL d   1       0.610  -0.042  -1.031  0.00  0.00     0.162 A 
ATOM      6  C5  UNL d   1       1.217  -0.869  -0.091  0.00  0.00     0.062 A 
ATOM      7  F   UNL d   1       2.379  -1.471  -0.383  0.00  0.00    -0.097 F 
ATOM      8  F1  UNL d   1       1.204   0.136  -2.220  0.00  0.00    -0.096 F 
ATOM      9  I   UNL d   1      -1.512   1.825  -2.140  0.00  0.00    -0.060 I 
ATOM     10  F2  UNL d   1      -2.353   0.969   0.827  0.00  0.00    -0.096 F 
ATOM     11  F3  UNL d   1      -1.154  -0.643   2.642  0.00  0.00    -0.097 F 
ATOM     12  F4  UNL d   1       1.211  -1.868   2.050  0.00  0.00    -0.092 F 
ENDROOT
TORSDOF 0
ENDMDL
