MODEL 1
REMARK minimizedAffinity -1.20965028
REMARK minimizedRMSD -1
REMARK  0 active torsions:
REMARK  status: ('A' for Active; 'I' for Inactive)
ROOT
ATOM      1  C   UNL d   1       2.079  -1.309   0.108  0.00  0.00     0.124 A 
ATOM      2  C1  UNL d   1       1.081  -1.978   0.803  0.00  0.00     0.062 A 
ATOM      3  C2  UNL d   1      -0.184  -1.410   0.931  0.00  0.00     0.162 A 
ATOM      4  C3  UNL d   1      -0.458  -0.167   0.362  0.00  0.00    -0.034 A 
ATOM      5  C4  UNL d   1       0.552   0.500  -0.335  0.00  0.00     0.162 A 
ATOM      6  C5  UNL d   1       1.814  -0.072  -0.460  0.00  0.00     0.062 A 
ATOM      7  F   UNL d   1       2.777   0.576  -1.132  0.00  0.00    -0.097 F 
ATOM      8  F1  UNL d   1       0.323   1.697  -0.895  0.00  0.00    -0.096 F 
ATOM      9  I   UNL d   1      -2.347   0.686   0.551  0.00  0.00    -0.060 I 
ATOM     10  F2  UNL d   1      -1.129  -2.079   1.608  0.00  0.00    -0.096 F 
ATOM     11  F3  UNL d   1       1.335  -3.174   1.354  0.00  0.00    -0.097 F 
ATOM     12  F4  UNL d   1       3.295  -1.858  -0.013  0.00  0.00    -0.092 F 
ENDROOT
TORSDOF 0
ENDMDL
