MODEL 1
REMARK minimizedAffinity -3.02143073
REMARK minimizedRMSD -1
REMARK  0 active torsions:
REMARK  status: ('A' for Active; 'I' for Inactive)
ROOT
ATOM      1  C   UNL d   1      -0.419  -0.767   1.627  0.00  0.00     0.124 A 
ATOM      2  C1  UNL d   1      -0.415   0.380   0.845  0.00  0.00     0.062 A 
ATOM      3  C2  UNL d   1       0.580   0.571  -0.111  0.00  0.00     0.162 A 
ATOM      4  C3  UNL d   1       1.577  -0.387  -0.290  0.00  0.00    -0.034 A 
ATOM      5  C4  UNL d   1       1.566  -1.537   0.501  0.00  0.00     0.162 A 
ATOM      6  C5  UNL d   1       0.571  -1.724   1.455  0.00  0.00     0.062 A 
ATOM      7  F   UNL d   1       0.568  -2.832   2.210  0.00  0.00    -0.097 F 
ATOM      8  F1  UNL d   1       2.510  -2.479   0.355  0.00  0.00    -0.096 F 
ATOM      9  I   UNL d   1       3.065  -0.105  -1.717  0.00  0.00    -0.060 I 
ATOM     10  F2  UNL d   1       0.559   1.688  -0.852  0.00  0.00    -0.096 F 
ATOM     11  F3  UNL d   1      -1.369   1.306   1.010  0.00  0.00    -0.097 F 
ATOM     12  F4  UNL d   1      -1.376  -0.948   2.546  0.00  0.00    -0.092 F 
ENDROOT
TORSDOF 0
ENDMDL
