MODEL 1
REMARK minimizedAffinity -1.91204929
REMARK minimizedRMSD -1
REMARK  0 active torsions:
REMARK  status: ('A' for Active; 'I' for Inactive)
ROOT
ATOM      1  C   UNL d   1       0.965  -1.884   1.009  0.00  0.00     0.124 A 
ATOM      2  C1  UNL d   1       1.845  -1.241   0.148  0.00  0.00     0.062 A 
ATOM      3  C2  UNL d   1       1.453  -0.083  -0.517  0.00  0.00     0.162 A 
ATOM      4  C3  UNL d   1       0.174   0.440  -0.325  0.00  0.00    -0.034 A 
ATOM      5  C4  UNL d   1      -0.705  -0.212   0.541  0.00  0.00     0.162 A 
ATOM      6  C5  UNL d   1      -0.309  -1.369   1.204  0.00  0.00     0.062 A 
ATOM      7  F   UNL d   1      -1.160  -1.988   2.034  0.00  0.00    -0.097 F 
ATOM      8  F1  UNL d   1      -1.942   0.264   0.749  0.00  0.00    -0.096 F 
ATOM      9  I   UNL d   1      -0.416   2.171  -1.319  0.00  0.00    -0.060 I 
ATOM     10  F2  UNL d   1       2.323   0.517  -1.342  0.00  0.00    -0.096 F 
ATOM     11  F3  UNL d   1       3.076  -1.737  -0.043  0.00  0.00    -0.097 F 
ATOM     12  F4  UNL d   1       1.345  -2.998   1.647  0.00  0.00    -0.092 F 
ENDROOT
TORSDOF 0
ENDMDL
