MODEL 1
REMARK minimizedAffinity 8.54036617
REMARK minimizedRMSD -1
REMARK  0 active torsions:
REMARK  status: ('A' for Active; 'I' for Inactive)
ROOT
ATOM      1  C   UNL d   1      -1.292  -0.638   1.267  0.00  0.00     0.124 A 
ATOM      2  C1  UNL d   1      -0.292  -0.734   0.310  0.00  0.00     0.062 A 
ATOM      3  C2  UNL d   1      -0.415  -0.059  -0.901  0.00  0.00     0.162 A 
ATOM      4  C3  UNL d   1      -1.543   0.719  -1.161  0.00  0.00    -0.034 A 
ATOM      5  C4  UNL d   1      -2.545   0.810  -0.194  0.00  0.00     0.162 A 
ATOM      6  C5  UNL d   1      -2.417   0.134   1.015  0.00  0.00     0.062 A 
ATOM      7  F   UNL d   1      -3.384   0.228   1.939  0.00  0.00    -0.097 F 
ATOM      8  F1  UNL d   1      -3.643   1.550  -0.411  0.00  0.00    -0.096 F 
ATOM      9  I   UNL d   1      -1.732   1.730  -2.971  0.00  0.00    -0.060 I 
ATOM     10  F2  UNL d   1       0.566  -0.170  -1.809  0.00  0.00    -0.096 F 
ATOM     11  F3  UNL d   1       0.796  -1.480   0.550  0.00  0.00    -0.097 F 
ATOM     12  F4  UNL d   1      -1.171  -1.289   2.431  0.00  0.00    -0.092 F 
ENDROOT
TORSDOF 0
ENDMDL
