MODEL 1
REMARK minimizedAffinity -1.49004436
REMARK minimizedRMSD -1
REMARK  0 active torsions:
REMARK  status: ('A' for Active; 'I' for Inactive)
ROOT
ATOM      1  C   UNL d   1       0.853  -2.111   1.402  0.00  0.00     0.124 A 
ATOM      2  C1  UNL d   1       1.590  -1.542   0.372  0.00  0.00     0.062 A 
ATOM      3  C2  UNL d   1       1.048  -0.513  -0.392  0.00  0.00     0.162 A 
ATOM      4  C3  UNL d   1      -0.239  -0.045  -0.129  0.00  0.00    -0.034 A 
ATOM      5  C4  UNL d   1      -0.975  -0.622   0.908  0.00  0.00     0.162 A 
ATOM      6  C5  UNL d   1      -0.429  -1.650   1.668  0.00  0.00     0.062 A 
ATOM      7  F   UNL d   1      -1.143  -2.198   2.663  0.00  0.00    -0.097 F 
ATOM      8  F1  UNL d   1      -2.216  -0.195   1.187  0.00  0.00    -0.096 F 
ATOM      9  I   UNL d   1      -1.054   1.494  -1.270  0.00  0.00    -0.060 I 
ATOM     10  F2  UNL d   1       1.783   0.017  -1.381  0.00  0.00    -0.096 F 
ATOM     11  F3  UNL d   1       2.828  -1.986   0.112  0.00  0.00    -0.097 F 
ATOM     12  F4  UNL d   1       1.377  -3.101   2.135  0.00  0.00    -0.092 F 
ENDROOT
TORSDOF 0
ENDMDL
