MODEL 1
REMARK minimizedAffinity -0.503504813
REMARK minimizedRMSD -1
REMARK  0 active torsions:
REMARK  status: ('A' for Active; 'I' for Inactive)
ROOT
ATOM      1  C   UNL d   1       0.490  -1.939   1.216  0.00  0.00     0.124 A 
ATOM      2  C1  UNL d   1      -0.743  -1.353   1.468  0.00  0.00     0.062 A 
ATOM      3  C2  UNL d   1      -1.167  -0.263   0.713  0.00  0.00     0.162 A 
ATOM      4  C3  UNL d   1      -0.358   0.248  -0.302  0.00  0.00    -0.034 A 
ATOM      5  C4  UNL d   1       0.881  -0.346  -0.549  0.00  0.00     0.162 A 
ATOM      6  C5  UNL d   1       1.300  -1.435   0.208  0.00  0.00     0.062 A 
ATOM      7  F   UNL d   1       2.491  -2.000  -0.037  0.00  0.00    -0.097 F 
ATOM      8  F1  UNL d   1       1.683   0.120  -1.517  0.00  0.00    -0.096 F 
ATOM      9  I   UNL d   1      -0.989   1.878  -1.432  0.00  0.00    -0.060 I 
ATOM     10  F2  UNL d   1      -2.363   0.284   0.979  0.00  0.00    -0.096 F 
ATOM     11  F3  UNL d   1      -1.527  -1.837   2.442  0.00  0.00    -0.097 F 
ATOM     12  F4  UNL d   1       0.896  -2.987   1.944  0.00  0.00    -0.092 F 
ENDROOT
TORSDOF 0
ENDMDL
