MODEL 1
REMARK minimizedAffinity -1.86556435
REMARK minimizedRMSD -1
REMARK  0 active torsions:
REMARK  status: ('A' for Active; 'I' for Inactive)
ROOT
ATOM      1  C   UNL d   1       0.894  -1.545   0.864  0.00  0.00     0.124 A 
ATOM      2  C1  UNL d   1       1.837  -0.818   0.151  0.00  0.00     0.062 A 
ATOM      3  C2  UNL d   1       1.457   0.319  -0.556  0.00  0.00     0.162 A 
ATOM      4  C3  UNL d   1       0.126   0.737  -0.553  0.00  0.00    -0.034 A 
ATOM      5  C4  UNL d   1      -0.817   0.000   0.166  0.00  0.00     0.162 A 
ATOM      6  C5  UNL d   1      -0.432  -1.135   0.871  0.00  0.00     0.062 A 
ATOM      7  F   UNL d   1      -1.344  -1.836   1.559  0.00  0.00    -0.097 F 
ATOM      8  F1  UNL d   1      -2.105   0.374   0.190  0.00  0.00    -0.096 F 
ATOM      9  I   UNL d   1      -0.447   2.436  -1.609  0.00  0.00    -0.060 I 
ATOM     10  F2  UNL d   1       2.390   1.002  -1.236  0.00  0.00    -0.096 F 
ATOM     11  F3  UNL d   1       3.119  -1.212   0.142  0.00  0.00    -0.097 F 
ATOM     12  F4  UNL d   1       1.263  -2.639   1.543  0.00  0.00    -0.092 F 
ENDROOT
TORSDOF 0
ENDMDL
