MODEL 1
REMARK minimizedAffinity -0.254584402
REMARK minimizedRMSD -1
REMARK  0 active torsions:
REMARK  status: ('A' for Active; 'I' for Inactive)
ROOT
ATOM      1  C   UNL d   1       0.519  -0.953   1.267  0.00  0.00     0.124 A 
ATOM      2  C1  UNL d   1      -0.701  -0.321   1.470  0.00  0.00     0.062 A 
ATOM      3  C2  UNL d   1      -1.197   0.564   0.517  0.00  0.00     0.162 A 
ATOM      4  C3  UNL d   1      -0.474   0.822  -0.648  0.00  0.00    -0.034 A 
ATOM      5  C4  UNL d   1       0.752   0.184  -0.844  0.00  0.00     0.162 A 
ATOM      6  C5  UNL d   1       1.243  -0.700   0.111  0.00  0.00     0.062 A 
ATOM      7  F   UNL d   1       2.421  -1.310  -0.086  0.00  0.00    -0.097 F 
ATOM      8  F1  UNL d   1       1.472   0.409  -1.952  0.00  0.00    -0.096 F 
ATOM      9  I   UNL d   1      -1.213   2.145  -2.074  0.00  0.00    -0.060 I 
ATOM     10  F2  UNL d   1      -2.378   1.160   0.739  0.00  0.00    -0.096 F 
ATOM     11  F3  UNL d   1      -1.402  -0.563   2.586  0.00  0.00    -0.097 F 
ATOM     12  F4  UNL d   1       0.994  -1.804   2.186  0.00  0.00    -0.092 F 
ENDROOT
TORSDOF 0
ENDMDL
