MODEL 1
REMARK minimizedAffinity -3.36845756
REMARK minimizedRMSD -1
REMARK  0 active torsions:
REMARK  status: ('A' for Active; 'I' for Inactive)
ROOT
ATOM      1  C   UNL d   1       1.549  -1.341  -0.136  0.00  0.00     0.124 A 
ATOM      2  C1  UNL d   1       1.420  -0.141  -0.822  0.00  0.00     0.062 A 
ATOM      3  C2  UNL d   1       0.243   0.596  -0.728  0.00  0.00     0.162 A 
ATOM      4  C3  UNL d   1      -0.814   0.136   0.058  0.00  0.00    -0.034 A 
ATOM      5  C4  UNL d   1      -0.677  -1.072   0.744  0.00  0.00     0.162 A 
ATOM      6  C5  UNL d   1       0.501  -1.805   0.647  0.00  0.00     0.062 A 
ATOM      7  F   UNL d   1       0.625  -2.963   1.310  0.00  0.00    -0.097 F 
ATOM      8  F1  UNL d   1      -1.673  -1.543   1.508  0.00  0.00    -0.096 F 
ATOM      9  I   UNL d   1      -2.576   1.235   0.202  0.00  0.00    -0.060 I 
ATOM     10  F2  UNL d   1       0.145   1.751  -1.402  0.00  0.00    -0.096 F 
ATOM     11  F3  UNL d   1       2.430   0.309  -1.580  0.00  0.00    -0.097 F 
ATOM     12  F4  UNL d   1       2.683  -2.048  -0.229  0.00  0.00    -0.092 F 
ENDROOT
TORSDOF 0
ENDMDL
