MODEL 1
REMARK minimizedAffinity 1.34441924
REMARK minimizedRMSD -1
REMARK  0 active torsions:
REMARK  status: ('A' for Active; 'I' for Inactive)
ROOT
ATOM      1  C   UNL d   1      -1.117  -0.516   1.683  0.00  0.00     0.124 A 
ATOM      2  C1  UNL d   1      -0.737   0.608   0.962  0.00  0.00     0.062 A 
ATOM      3  C2  UNL d   1       0.358   0.553   0.106  0.00  0.00     0.162 A 
ATOM      4  C3  UNL d   1       1.082  -0.631  -0.036  0.00  0.00    -0.034 A 
ATOM      5  C4  UNL d   1       0.695  -1.757   0.692  0.00  0.00     0.162 A 
ATOM      6  C5  UNL d   1      -0.401  -1.697   1.547  0.00  0.00     0.062 A 
ATOM      7  F   UNL d   1      -0.767  -2.784   2.242  0.00  0.00    -0.097 F 
ATOM      8  F1  UNL d   1       1.368  -2.911   0.580  0.00  0.00    -0.096 F 
ATOM      9  I   UNL d   1       2.721  -0.717  -1.316  0.00  0.00    -0.060 I 
ATOM     10  F2  UNL d   1       0.703   1.654  -0.578  0.00  0.00    -0.096 F 
ATOM     11  F3  UNL d   1      -1.427   1.750   1.092  0.00  0.00    -0.097 F 
ATOM     12  F4  UNL d   1      -2.171  -0.460   2.507  0.00  0.00    -0.092 F 
ENDROOT
TORSDOF 0
ENDMDL
