MODEL 1
REMARK minimizedAffinity -0.930391908
REMARK minimizedRMSD -1
REMARK  0 active torsions:
REMARK  status: ('A' for Active; 'I' for Inactive)
ROOT
ATOM      1  C   UNL d   1       0.852  -1.639   0.811  0.00  0.00     0.124 A 
ATOM      2  C1  UNL d   1       1.772  -0.975   0.012  0.00  0.00     0.062 A 
ATOM      3  C2  UNL d   1       1.392   0.159  -0.700  0.00  0.00     0.162 A 
ATOM      4  C3  UNL d   1       0.085   0.638  -0.614  0.00  0.00    -0.034 A 
ATOM      5  C4  UNL d   1      -0.836  -0.035   0.191  0.00  0.00     0.162 A 
ATOM      6  C5  UNL d   1      -0.451  -1.169   0.900  0.00  0.00     0.062 A 
ATOM      7  F   UNL d   1      -1.342  -1.809   1.671  0.00  0.00    -0.097 F 
ATOM      8  F1  UNL d   1      -2.101   0.398   0.295  0.00  0.00    -0.096 F 
ATOM      9  I   UNL d   1      -0.488   2.334  -1.677  0.00  0.00    -0.060 I 
ATOM     10  F2  UNL d   1       2.302   0.780  -1.464  0.00  0.00    -0.096 F 
ATOM     11  F3  UNL d   1       3.031  -1.428  -0.076  0.00  0.00    -0.097 F 
ATOM     12  F4  UNL d   1       1.220  -2.731   1.494  0.00  0.00    -0.092 F 
ENDROOT
TORSDOF 0
ENDMDL
