MODEL 1
REMARK minimizedAffinity -1.57362282
REMARK minimizedRMSD -1
REMARK  0 active torsions:
REMARK  status: ('A' for Active; 'I' for Inactive)
ROOT
ATOM      1  C   UNL d   1       0.999  -1.323   0.826  0.00  0.00     0.124 A 
ATOM      2  C1  UNL d   1       1.773  -0.897  -0.244  0.00  0.00     0.062 A 
ATOM      3  C2  UNL d   1       1.336   0.149  -1.052  0.00  0.00     0.162 A 
ATOM      4  C3  UNL d   1       0.118   0.777  -0.792  0.00  0.00    -0.034 A 
ATOM      5  C4  UNL d   1      -0.655   0.343   0.285  0.00  0.00     0.162 A 
ATOM      6  C5  UNL d   1      -0.214  -0.703   1.090  0.00  0.00     0.062 A 
ATOM      7  F   UNL d   1      -0.964  -1.113   2.123  0.00  0.00    -0.097 F 
ATOM      8  F1  UNL d   1      -1.832   0.924   0.563  0.00  0.00    -0.096 F 
ATOM      9  I   UNL d   1      -0.539   2.341  -1.998  0.00  0.00    -0.060 I 
ATOM     10  F2  UNL d   1       2.105   0.540  -2.080  0.00  0.00    -0.096 F 
ATOM     11  F3  UNL d   1       2.946  -1.495  -0.502  0.00  0.00    -0.097 F 
ATOM     12  F4  UNL d   1       1.422  -2.330   1.601  0.00  0.00    -0.092 F 
ENDROOT
TORSDOF 0
ENDMDL
