MODEL 1
REMARK minimizedAffinity -2.42889547
REMARK minimizedRMSD -1
REMARK  0 active torsions:
REMARK  status: ('A' for Active; 'I' for Inactive)
ROOT
ATOM      1  C   UNL d   1      -0.066  -1.615   0.655  0.00  0.00     0.124 A 
ATOM      2  C1  UNL d   1       0.251  -1.534  -0.694  0.00  0.00     0.062 A 
ATOM      3  C2  UNL d   1      -0.189  -0.453  -1.453  0.00  0.00     0.162 A 
ATOM      4  C3  UNL d   1      -0.951   0.556  -0.864  0.00  0.00    -0.034 A 
ATOM      5  C4  UNL d   1      -1.267   0.467   0.493  0.00  0.00     0.162 A 
ATOM      6  C5  UNL d   1      -0.824  -0.615   1.247  0.00  0.00     0.062 A 
ATOM      7  F   UNL d   1      -1.131  -0.692   2.550  0.00  0.00    -0.097 F 
ATOM      8  F1  UNL d   1      -1.997   1.420   1.091  0.00  0.00    -0.096 F 
ATOM      9  I   UNL d   1      -1.611   2.174  -1.995  0.00  0.00    -0.060 I 
ATOM     10  F2  UNL d   1       0.132  -0.400  -2.754  0.00  0.00    -0.096 F 
ATOM     11  F3  UNL d   1       0.983  -2.499  -1.269  0.00  0.00    -0.097 F 
ATOM     12  F4  UNL d   1       0.358  -2.656   1.382  0.00  0.00    -0.092 F 
ENDROOT
TORSDOF 0
ENDMDL
