MODEL 1
REMARK minimizedAffinity -4.81951332
REMARK minimizedRMSD -1
REMARK  2 active torsions:
REMARK  status: ('A' for Active; 'I' for Inactive)
REMARK    1  A    between atoms: C1_2  and  C2_3 
REMARK    2  A    between atoms: C2_3  and  C3_4 
ROOT
ATOM      1  C3  UNL d   1      -0.068   0.129   0.414  0.00  0.00    -0.075 A 
ATOM      2  C4  UNL d   1      -1.028  -0.039   1.422  0.00  0.00     0.002 A 
ATOM      3  C5  UNL d   1      -1.328  -1.312   1.909  0.00  0.00     0.002 A 
ATOM      4  C6  UNL d   1      -0.682  -2.431   1.389  0.00  0.00    -0.004 A 
ATOM      5  C7  UNL d   1       0.261  -2.277   0.375  0.00  0.00     0.002 A 
ATOM      6  C8  UNL d   1       0.567  -1.005  -0.111  0.00  0.00     0.002 A 
ENDROOT
BRANCH   1   7
ATOM      7  C2  UNL d   1       0.283   1.506  -0.097  0.00  0.00     0.056 C 
BRANCH   7   8
ATOM      8  C1  UNL d   1       1.788   1.791  -0.138  0.00  0.00     0.007 C 
ATOM      9  C   UNL d   1       2.178   3.063   0.602  0.00  0.00     0.009 C 
ENDBRANCH   7   8
ENDBRANCH   1   7
TORSDOF 2
ENDMDL
