MODEL 1
REMARK minimizedAffinity -5.17029476
REMARK minimizedRMSD -1
REMARK  2 active torsions:
REMARK  status: ('A' for Active; 'I' for Inactive)
REMARK    1  A    between atoms: C1_2  and  C2_3 
REMARK    2  A    between atoms: C2_3  and  C3_4 
ROOT
ATOM      1  C3  UNL d   1       0.058  -0.380  -0.208  0.00  0.00    -0.075 A 
ATOM      2  C4  UNL d   1      -0.852  -0.575   0.841  0.00  0.00     0.002 A 
ATOM      3  C5  UNL d   1      -0.991  -1.831   1.435  0.00  0.00     0.002 A 
ATOM      4  C6  UNL d   1      -0.231  -2.906   0.981  0.00  0.00    -0.004 A 
ATOM      5  C7  UNL d   1       0.664  -2.728  -0.071  0.00  0.00     0.002 A 
ATOM      6  C8  UNL d   1       0.808  -1.472  -0.664  0.00  0.00     0.002 A 
ENDROOT
BRANCH   1   7
ATOM      7  C2  UNL d   1       0.234   0.982  -0.834  0.00  0.00     0.056 C 
BRANCH   7   8
ATOM      8  C1  UNL d   1       0.381   2.121   0.181  0.00  0.00     0.007 C 
ATOM      9  C   UNL d   1       1.778   2.726   0.206  0.00  0.00     0.009 C 
ENDBRANCH   7   8
ENDBRANCH   1   7
TORSDOF 2
ENDMDL
