MODEL 1
REMARK minimizedAffinity -4.53952789
REMARK minimizedRMSD -1
REMARK  2 active torsions:
REMARK  status: ('A' for Active; 'I' for Inactive)
REMARK    1  A    between atoms: C1_2  and  C2_3 
REMARK    2  A    between atoms: C2_3  and  C3_4 
ROOT
ATOM      1  C3  UNL d   1       0.582  -1.521  -0.407  0.00  0.00    -0.075 A 
ATOM      2  C4  UNL d   1       0.214  -0.453   0.424  0.00  0.00     0.002 A 
ATOM      3  C5  UNL d   1      -0.050   0.806  -0.116  0.00  0.00     0.002 A 
ATOM      4  C6  UNL d   1       0.060   1.016  -1.489  0.00  0.00    -0.004 A 
ATOM      5  C7  UNL d   1       0.442  -0.034  -2.322  0.00  0.00     0.002 A 
ATOM      6  C8  UNL d   1       0.702  -1.296  -1.785  0.00  0.00     0.002 A 
ENDROOT
BRANCH   1   7
ATOM      7  C2  UNL d   1       0.841  -2.893   0.168  0.00  0.00     0.056 C 
BRANCH   7   8
ATOM      8  C1  UNL d   1      -0.385  -3.812   0.163  0.00  0.00     0.007 C 
ATOM      9  C   UNL d   1      -1.700  -3.061   0.329  0.00  0.00     0.009 C 
ENDBRANCH   7   8
ENDBRANCH   1   7
TORSDOF 2
ENDMDL
