MODEL 1
REMARK minimizedAffinity -5.57975197
REMARK minimizedRMSD -1
REMARK  2 active torsions:
REMARK  status: ('A' for Active; 'I' for Inactive)
REMARK    1  A    between atoms: C1_2  and  C2_3 
REMARK    2  A    between atoms: C2_3  and  C3_4 
ROOT
ATOM      1  C3  UNL d   1       0.854   0.825   0.179  0.00  0.00    -0.075 A 
ATOM      2  C4  UNL d   1       0.313   1.981  -0.403  0.00  0.00     0.002 A 
ATOM      3  C5  UNL d   1       0.846   3.237  -0.112  0.00  0.00     0.002 A 
ATOM      4  C6  UNL d   1       1.918   3.354   0.770  0.00  0.00    -0.004 A 
ATOM      5  C7  UNL d   1       2.453   2.215   1.367  0.00  0.00     0.002 A 
ATOM      6  C8  UNL d   1       1.924   0.956   1.074  0.00  0.00     0.002 A 
ENDROOT
BRANCH   1   7
ATOM      7  C2  UNL d   1       0.300  -0.540  -0.155  0.00  0.00     0.056 C 
BRANCH   7   8
ATOM      8  C1  UNL d   1      -0.140  -1.350   1.069  0.00  0.00     0.007 C 
ATOM      9  C   UNL d   1      -0.084  -2.855   0.844  0.00  0.00     0.009 C 
ENDBRANCH   7   8
ENDBRANCH   1   7
TORSDOF 2
ENDMDL
