MODEL 1
REMARK minimizedAffinity -4.88481426
REMARK minimizedRMSD -1
REMARK  2 active torsions:
REMARK  status: ('A' for Active; 'I' for Inactive)
REMARK    1  A    between atoms: C1_2  and  C2_3 
REMARK    2  A    between atoms: C2_3  and  C3_4 
ROOT
ATOM      1  C3  UNL d   1      -0.293   0.028   0.489  0.00  0.00    -0.075 A 
ATOM      2  C4  UNL d   1      -1.280  -0.341   1.415  0.00  0.00     0.002 A 
ATOM      3  C5  UNL d   1      -1.601  -1.684   1.611  0.00  0.00     0.002 A 
ATOM      4  C6  UNL d   1      -0.949  -2.673   0.878  0.00  0.00    -0.004 A 
ATOM      5  C7  UNL d   1       0.021  -2.318  -0.057  0.00  0.00     0.002 A 
ATOM      6  C8  UNL d   1       0.348  -0.974  -0.251  0.00  0.00     0.002 A 
ENDROOT
BRANCH   1   7
ATOM      7  C2  UNL d   1       0.080   1.478   0.294  0.00  0.00     0.056 C 
BRANCH   7   8
ATOM      8  C1  UNL d   1       1.591   1.735   0.263  0.00  0.00     0.007 C 
ATOM      9  C   UNL d   1       2.025   2.875   1.174  0.00  0.00     0.009 C 
ENDBRANCH   7   8
ENDBRANCH   1   7
TORSDOF 2
ENDMDL
