MODEL 1
REMARK minimizedAffinity -4.60875559
REMARK minimizedRMSD -1
REMARK  2 active torsions:
REMARK  status: ('A' for Active; 'I' for Inactive)
REMARK    1  A    between atoms: C1_2  and  C2_3 
REMARK    2  A    between atoms: C2_3  and  C3_4 
ROOT
ATOM      1  C3  UNL d   1       0.397  -1.091  -0.257  0.00  0.00    -0.075 A 
ATOM      2  C4  UNL d   1       0.519  -0.996  -1.651  0.00  0.00     0.002 A 
ATOM      3  C5  UNL d   1       0.293   0.217  -2.301  0.00  0.00     0.002 A 
ATOM      4  C6  UNL d   1      -0.068   1.347  -1.569  0.00  0.00    -0.004 A 
ATOM      5  C7  UNL d   1      -0.208   1.260  -0.186  0.00  0.00     0.002 A 
ATOM      6  C8  UNL d   1       0.023   0.048   0.468  0.00  0.00     0.002 A 
ENDROOT
BRANCH   1   7
ATOM      7  C2  UNL d   1       0.670  -2.394   0.456  0.00  0.00     0.056 C 
BRANCH   7   8
ATOM      8  C1  UNL d   1      -0.543  -3.326   0.537  0.00  0.00     0.007 C 
ATOM      9  C   UNL d   1      -1.851  -2.589   0.794  0.00  0.00     0.009 C 
ENDBRANCH   7   8
ENDBRANCH   1   7
TORSDOF 2
ENDMDL
