MODEL 1
REMARK minimizedAffinity -2.14088345
REMARK minimizedRMSD -1
REMARK  2 active torsions:
REMARK  status: ('A' for Active; 'I' for Inactive)
REMARK    1  A    between atoms: C1_2  and  C2_3 
REMARK    2  A    between atoms: C2_3  and  C3_4 
ROOT
ATOM      1  C3  UNL d   1      -0.659  -1.742   0.217  0.00  0.00    -0.075 A 
ATOM      2  C4  UNL d   1      -0.785  -0.493   0.842  0.00  0.00     0.002 A 
ATOM      3  C5  UNL d   1      -0.370   0.669   0.192  0.00  0.00     0.002 A 
ATOM      4  C6  UNL d   1       0.185   0.597  -1.084  0.00  0.00    -0.004 A 
ATOM      5  C7  UNL d   1       0.330  -0.640  -1.708  0.00  0.00     0.002 A 
ATOM      6  C8  UNL d   1      -0.089  -1.804  -1.061  0.00  0.00     0.002 A 
ENDROOT
BRANCH   1   7
ATOM      7  C2  UNL d   1      -1.134  -3.001   0.903  0.00  0.00     0.056 C 
BRANCH   7   8
ATOM      8  C1  UNL d   1      -2.646  -3.045   1.148  0.00  0.00     0.007 C 
ATOM      9  C   UNL d   1      -3.459  -3.135  -0.136  0.00  0.00     0.009 C 
ENDBRANCH   7   8
ENDBRANCH   1   7
TORSDOF 2
ENDMDL
