MODEL 1
REMARK minimizedAffinity -5.37297344
REMARK minimizedRMSD -1
REMARK  2 active torsions:
REMARK  status: ('A' for Active; 'I' for Inactive)
REMARK    1  A    between atoms: C1_2  and  C2_3 
REMARK    2  A    between atoms: C2_3  and  C3_4 
ROOT
ATOM      1  C3  UNL d   1      -0.039  -0.452  -0.477  0.00  0.00    -0.075 A 
ATOM      2  C4  UNL d   1       0.456  -1.214  -1.545  0.00  0.00     0.002 A 
ATOM      3  C5  UNL d   1       0.486  -2.607  -1.467  0.00  0.00     0.002 A 
ATOM      4  C6  UNL d   1       0.032  -3.253  -0.319  0.00  0.00    -0.004 A 
ATOM      5  C7  UNL d   1      -0.446  -2.504   0.755  0.00  0.00     0.002 A 
ATOM      6  C8  UNL d   1      -0.481  -1.111   0.677  0.00  0.00     0.002 A 
ENDROOT
BRANCH   1   7
ATOM      7  C2  UNL d   1      -0.101   1.055  -0.568  0.00  0.00     0.056 C 
BRANCH   7   8
ATOM      8  C1  UNL d   1       0.887   1.776   0.354  0.00  0.00     0.007 C 
ATOM      9  C   UNL d   1       0.328   3.064   0.943  0.00  0.00     0.009 C 
ENDBRANCH   7   8
ENDBRANCH   1   7
TORSDOF 2
ENDMDL
