MODEL 1
REMARK minimizedAffinity -4.58914518
REMARK minimizedRMSD -1
REMARK  2 active torsions:
REMARK  status: ('A' for Active; 'I' for Inactive)
REMARK    1  A    between atoms: C1_2  and  C2_3 
REMARK    2  A    between atoms: C2_3  and  C3_4 
ROOT
ATOM      1  C3  UNL d   1      -0.060  -0.112   0.016  0.00  0.00    -0.075 A 
ATOM      2  C4  UNL d   1       0.239  -1.360  -0.551  0.00  0.00     0.002 A 
ATOM      3  C5  UNL d   1      -0.250  -2.534   0.022  0.00  0.00     0.002 A 
ATOM      4  C6  UNL d   1      -1.034  -2.477   1.172  0.00  0.00    -0.004 A 
ATOM      5  C7  UNL d   1      -1.324  -1.245   1.753  0.00  0.00     0.002 A 
ATOM      6  C8  UNL d   1      -0.840  -0.068   1.180  0.00  0.00     0.002 A 
ENDROOT
BRANCH   1   7
ATOM      7  C2  UNL d   1       0.441   1.164  -0.616  0.00  0.00     0.056 C 
BRANCH   7   8
ATOM      8  C1  UNL d   1       0.660   2.309   0.379  0.00  0.00     0.007 C 
ATOM      9  C   UNL d   1       2.076   2.868   0.349  0.00  0.00     0.009 C 
ENDBRANCH   7   8
ENDBRANCH   1   7
TORSDOF 2
ENDMDL
