MODEL 1
REMARK minimizedAffinity -2.98884106
REMARK minimizedRMSD -1
REMARK  2 active torsions:
REMARK  status: ('A' for Active; 'I' for Inactive)
REMARK    1  A    between atoms: C1_2  and  C2_3 
REMARK    2  A    between atoms: C2_3  and  C3_4 
ROOT
ATOM      1  C3  UNL d   1       0.881   2.533   0.438  0.00  0.00    -0.075 A 
ATOM      2  C4  UNL d   1       0.334   1.378   1.016  0.00  0.00     0.002 A 
ATOM      3  C5  UNL d   1      -0.105   0.325   0.214  0.00  0.00     0.002 A 
ATOM      4  C6  UNL d   1      -0.015   0.416  -1.173  0.00  0.00    -0.004 A 
ATOM      5  C7  UNL d   1       0.511   1.566  -1.759  0.00  0.00     0.002 A 
ATOM      6  C8  UNL d   1       0.956   2.620  -0.959  0.00  0.00     0.002 A 
ENDROOT
BRANCH   1   7
ATOM      7  C2  UNL d   1       1.386   3.664   1.301  0.00  0.00     0.056 C 
BRANCH   7   8
ATOM      8  C1  UNL d   1       1.022   3.528   2.784  0.00  0.00     0.007 C 
ATOM      9  C   UNL d   1      -0.042   4.519   3.235  0.00  0.00     0.009 C 
ENDBRANCH   7   8
ENDBRANCH   1   7
TORSDOF 2
ENDMDL
