MODEL 1
REMARK minimizedAffinity -2.74195838
REMARK minimizedRMSD -1
REMARK  2 active torsions:
REMARK  status: ('A' for Active; 'I' for Inactive)
REMARK    1  A    between atoms: C1_2  and  C2_3 
REMARK    2  A    between atoms: C2_3  and  C3_4 
ROOT
ATOM      1  C3  UNL d   1       0.361   1.649   0.121  0.00  0.00    -0.075 A 
ATOM      2  C4  UNL d   1       1.032   1.997  -1.060  0.00  0.00     0.002 A 
ATOM      3  C5  UNL d   1       2.046   2.954  -1.042  0.00  0.00     0.002 A 
ATOM      4  C6  UNL d   1       2.395   3.582   0.151  0.00  0.00    -0.004 A 
ATOM      5  C7  UNL d   1       1.724   3.256   1.328  0.00  0.00     0.002 A 
ATOM      6  C8  UNL d   1       0.711   2.295   1.314  0.00  0.00     0.002 A 
ENDROOT
BRANCH   1   7
ATOM      7  C2  UNL d   1      -0.718   0.592   0.114  0.00  0.00     0.056 C 
BRANCH   7   8
ATOM      8  C1  UNL d   1      -0.321  -0.710   0.819  0.00  0.00     0.007 C 
ATOM      9  C   UNL d   1      -1.515  -1.569   1.211  0.00  0.00     0.009 C 
ENDBRANCH   7   8
ENDBRANCH   1   7
TORSDOF 2
ENDMDL
