MODEL 1
REMARK minimizedAffinity 4.73035717
REMARK minimizedRMSD -1
REMARK  2 active torsions:
REMARK  status: ('A' for Active; 'I' for Inactive)
REMARK    1  A    between atoms: C1_2  and  C2_3 
REMARK    2  A    between atoms: C2_3  and  C3_4 
ROOT
ATOM      1  C3  UNL d   1       0.397   4.232   2.181  0.00  0.00    -0.075 A 
ATOM      2  C4  UNL d   1      -0.503   4.208   1.106  0.00  0.00     0.002 A 
ATOM      3  C5  UNL d   1      -1.679   4.958   1.148  0.00  0.00     0.002 A 
ATOM      4  C6  UNL d   1      -1.974   5.732   2.268  0.00  0.00    -0.004 A 
ATOM      5  C7  UNL d   1      -1.096   5.751   3.349  0.00  0.00     0.002 A 
ATOM      6  C8  UNL d   1       0.083   5.005   3.307  0.00  0.00     0.002 A 
ENDROOT
BRANCH   1   7
ATOM      7  C2  UNL d   1       1.685   3.446   2.129  0.00  0.00     0.056 C 
BRANCH   7   8
ATOM      8  C1  UNL d   1       1.657   2.268   1.150  0.00  0.00     0.007 C 
ATOM      9  C   UNL d   1       2.973   2.070   0.410  0.00  0.00     0.009 C 
ENDBRANCH   7   8
ENDBRANCH   1   7
TORSDOF 2
ENDMDL
