MODEL 1
REMARK minimizedAffinity -4.28918505
REMARK minimizedRMSD -1
REMARK  1 active torsions:
REMARK  status: ('A' for Active; 'I' for Inactive)
REMARK    1  A    between atoms: C1_2  and  C2_3 
ROOT
ATOM      1  C2  UNL d   1       0.650  -2.007   1.768  0.00  0.00    -0.073 A 
ATOM      2  C3  UNL d   1       1.694  -2.631   1.074  0.00  0.00    -0.002 A 
ATOM      3  C4  UNL d   1       2.255  -2.022  -0.049  0.00  0.00     0.004 A 
ATOM      4  C5  UNL d   1       1.786  -0.784  -0.486  0.00  0.00    -0.004 A 
ATOM      5  C6  UNL d   1       0.752  -0.139   0.201  0.00  0.00    -0.075 A 
ATOM      6  C7  UNL d   1       0.234   1.192  -0.257  0.00  0.00     0.076 C 
ATOM      7  C8  UNL d   1       0.191  -0.758   1.327  0.00  0.00     0.001 A 
ENDROOT
BRANCH   1   8
ATOM      8  C1  UNL d   1       0.045  -2.657   2.985  0.00  0.00     0.053 C 
ATOM      9  C   UNL d   1      -0.601  -1.640   3.913  0.00  0.00     0.018 C 
ENDBRANCH   1   8
TORSDOF 1
ENDMDL
