MODEL 1
REMARK minimizedAffinity -5.39639282
REMARK minimizedRMSD -1
REMARK  1 active torsions:
REMARK  status: ('A' for Active; 'I' for Inactive)
REMARK    1  A    between atoms: C1_2  and  C2_3 
ROOT
ATOM      1  C2  UNL d   1       2.428  -0.698   0.392  0.00  0.00    -0.073 A 
ATOM      2  C3  UNL d   1       1.799  -1.794   0.993  0.00  0.00    -0.002 A 
ATOM      3  C4  UNL d   1       0.426  -1.770   1.242  0.00  0.00     0.004 A 
ATOM      4  C5  UNL d   1      -0.332  -0.655   0.888  0.00  0.00    -0.004 A 
ATOM      5  C6  UNL d   1       0.276   0.446   0.276  0.00  0.00    -0.075 A 
ATOM      6  C7  UNL d   1      -0.526   1.655  -0.108  0.00  0.00     0.076 C 
ATOM      7  C8  UNL d   1       1.655   0.416   0.031  0.00  0.00     0.001 A 
ENDROOT
BRANCH   1   8
ATOM      8  C1  UNL d   1       3.909  -0.722   0.115  0.00  0.00     0.053 C 
ATOM      9  C   UNL d   1       4.233  -0.244  -1.292  0.00  0.00     0.018 C 
ENDBRANCH   1   8
TORSDOF 1
ENDMDL
