MODEL 1
REMARK minimizedAffinity -3.99451375
REMARK minimizedRMSD -1
REMARK  1 active torsions:
REMARK  status: ('A' for Active; 'I' for Inactive)
REMARK    1  A    between atoms: C1_2  and  C2_3 
ROOT
ATOM      1  C2  UNL d   1       0.163  -0.962  -0.055  0.00  0.00    -0.073 A 
ATOM      2  C3  UNL d   1      -0.229  -2.299   0.076  0.00  0.00    -0.002 A 
ATOM      3  C4  UNL d   1       0.629  -3.231   0.660  0.00  0.00     0.004 A 
ATOM      4  C5  UNL d   1       1.883  -2.836   1.125  0.00  0.00    -0.004 A 
ATOM      5  C6  UNL d   1       2.288  -1.502   1.015  0.00  0.00    -0.075 A 
ATOM      6  C7  UNL d   1       3.635  -1.061   1.508  0.00  0.00     0.076 C 
ATOM      7  C8  UNL d   1       1.422  -0.572   0.424  0.00  0.00     0.001 A 
ENDROOT
BRANCH   1   8
ATOM      8  C1  UNL d   1      -0.763   0.050  -0.679  0.00  0.00     0.053 C 
ATOM      9  C   UNL d   1      -0.279   1.475  -0.463  0.00  0.00     0.018 C 
ENDBRANCH   1   8
TORSDOF 1
ENDMDL
