MODEL 1
REMARK minimizedAffinity -3.48121381
REMARK minimizedRMSD -1
REMARK  1 active torsions:
REMARK  status: ('A' for Active; 'I' for Inactive)
REMARK    1  A    between atoms: C1_2  and  C2_3 
ROOT
ATOM      1  C2  UNL d   1      -0.326   0.232   0.270  0.00  0.00    -0.073 A 
ATOM      2  C3  UNL d   1      -1.172  -0.480   1.128  0.00  0.00    -0.002 A 
ATOM      3  C4  UNL d   1      -0.754  -1.688   1.688  0.00  0.00     0.004 A 
ATOM      4  C5  UNL d   1       0.515  -2.192   1.403  0.00  0.00    -0.004 A 
ATOM      5  C6  UNL d   1       1.379  -1.489   0.557  0.00  0.00    -0.075 A 
ATOM      6  C7  UNL d   1       2.747  -2.019   0.239  0.00  0.00     0.076 C 
ATOM      7  C8  UNL d   1       0.951  -0.279  -0.004  0.00  0.00     0.001 A 
ENDROOT
BRANCH   1   8
ATOM      8  C1  UNL d   1      -0.771   1.539  -0.333  0.00  0.00     0.053 C 
ATOM      9  C   UNL d   1      -1.309   1.363  -1.744  0.00  0.00     0.018 C 
ENDBRANCH   1   8
TORSDOF 1
ENDMDL
