MODEL 1
REMARK minimizedAffinity -4.30860376
REMARK minimizedRMSD -1
REMARK  1 active torsions:
REMARK  status: ('A' for Active; 'I' for Inactive)
REMARK    1  A    between atoms: C1_2  and  C2_3 
ROOT
ATOM      1  C2  UNL d   1      -0.133   0.170  -0.125  0.00  0.00    -0.073 A 
ATOM      2  C3  UNL d   1       1.023   0.840  -0.540  0.00  0.00    -0.002 A 
ATOM      3  C4  UNL d   1       2.278   0.256  -0.363  0.00  0.00     0.004 A 
ATOM      4  C5  UNL d   1       2.389  -1.004   0.224  0.00  0.00    -0.004 A 
ATOM      5  C6  UNL d   1       1.244  -1.695   0.635  0.00  0.00    -0.075 A 
ATOM      6  C7  UNL d   1       1.347  -3.050   1.270  0.00  0.00     0.076 C 
ATOM      7  C8  UNL d   1      -0.012  -1.100   0.456  0.00  0.00     0.001 A 
ENDROOT
BRANCH   1   8
ATOM      8  C1  UNL d   1      -1.491   0.794  -0.320  0.00  0.00     0.053 C 
ATOM      9  C   UNL d   1      -1.711   1.243  -1.756  0.00  0.00     0.018 C 
ENDBRANCH   1   8
TORSDOF 1
ENDMDL
