MODEL 1
REMARK minimizedAffinity -3.84725595
REMARK minimizedRMSD -1
REMARK  1 active torsions:
REMARK  status: ('A' for Active; 'I' for Inactive)
REMARK    1  A    between atoms: C1_2  and  C2_3 
ROOT
ATOM      1  C2  UNL d   1       0.114  -0.635  -0.151  0.00  0.00    -0.073 A 
ATOM      2  C3  UNL d   1       0.411  -1.693   0.716  0.00  0.00    -0.002 A 
ATOM      3  C4  UNL d   1       1.700  -1.843   1.230  0.00  0.00     0.004 A 
ATOM      4  C5  UNL d   1       2.702  -0.934   0.890  0.00  0.00    -0.004 A 
ATOM      5  C6  UNL d   1       2.421   0.137   0.035  0.00  0.00    -0.075 A 
ATOM      6  C7  UNL d   1       3.488   1.123  -0.343  0.00  0.00     0.076 C 
ATOM      7  C8  UNL d   1       1.126   0.279  -0.480  0.00  0.00     0.001 A 
ENDROOT
BRANCH   1   8
ATOM      8  C1  UNL d   1      -1.277  -0.465  -0.703  0.00  0.00     0.053 C 
ATOM      9  C   UNL d   1      -1.300   0.444  -1.921  0.00  0.00     0.018 C 
ENDBRANCH   1   8
TORSDOF 1
ENDMDL
