MODEL 1
REMARK minimizedAffinity -2.72644734
REMARK minimizedRMSD -1
REMARK  1 active torsions:
REMARK  status: ('A' for Active; 'I' for Inactive)
REMARK    1  A    between atoms: C1_2  and  C2_3 
ROOT
ATOM      1  C2  UNL d   1       1.992   0.018   0.858  0.00  0.00    -0.073 A 
ATOM      2  C3  UNL d   1       1.627  -1.299   1.159  0.00  0.00    -0.002 A 
ATOM      3  C4  UNL d   1       0.359  -1.774   0.822  0.00  0.00     0.004 A 
ATOM      4  C5  UNL d   1      -0.554  -0.940   0.177  0.00  0.00    -0.004 A 
ATOM      5  C6  UNL d   1      -0.205   0.376  -0.143  0.00  0.00    -0.075 A 
ATOM      6  C7  UNL d   1      -1.176   1.286  -0.835  0.00  0.00     0.076 C 
ATOM      7  C8  UNL d   1       1.070   0.846   0.201  0.00  0.00     0.001 A 
ENDROOT
BRANCH   1   8
ATOM      8  C1  UNL d   1       3.362   0.533   1.214  0.00  0.00     0.053 C 
ATOM      9  C   UNL d   1       4.117  -0.430   2.116  0.00  0.00     0.018 C 
ENDBRANCH   1   8
TORSDOF 1
ENDMDL
