MODEL 1
REMARK minimizedAffinity -4.89317942
REMARK minimizedRMSD -1
REMARK  1 active torsions:
REMARK  status: ('A' for Active; 'I' for Inactive)
REMARK    1  A    between atoms: C1_2  and  C2_3 
ROOT
ATOM      1  C2  UNL d   1       0.185   0.434   0.262  0.00  0.00    -0.073 A 
ATOM      2  C3  UNL d   1       1.398   0.995  -0.155  0.00  0.00    -0.002 A 
ATOM      3  C4  UNL d   1       2.570   0.239  -0.128  0.00  0.00     0.004 A 
ATOM      4  C5  UNL d   1       2.542  -1.085   0.310  0.00  0.00    -0.004 A 
ATOM      5  C6  UNL d   1       1.338  -1.667   0.719  0.00  0.00    -0.075 A 
ATOM      6  C7  UNL d   1       1.290  -3.090   1.195  0.00  0.00     0.076 C 
ATOM      7  C8  UNL d   1       0.165  -0.901   0.691  0.00  0.00     0.001 A 
ENDROOT
BRANCH   1   8
ATOM      8  C1  UNL d   1      -1.085   1.245   0.228  0.00  0.00     0.053 C 
ATOM      9  C   UNL d   1      -1.436   1.694  -1.181  0.00  0.00     0.018 C 
ENDBRANCH   1   8
TORSDOF 1
ENDMDL
