MODEL 1
REMARK minimizedAffinity -5.010149
REMARK minimizedRMSD -1
REMARK  1 active torsions:
REMARK  status: ('A' for Active; 'I' for Inactive)
REMARK    1  A    between atoms: C1_2  and  C2_3 
ROOT
ATOM      1  C2  UNL d   1       0.597  -1.027   0.493  0.00  0.00    -0.073 A 
ATOM      2  C3  UNL d   1       1.665  -1.872   0.815  0.00  0.00    -0.002 A 
ATOM      3  C4  UNL d   1       1.584  -2.720   1.921  0.00  0.00     0.004 A 
ATOM      4  C5  UNL d   1       0.433  -2.736   2.710  0.00  0.00    -0.004 A 
ATOM      5  C6  UNL d   1      -0.649  -1.907   2.397  0.00  0.00    -0.075 A 
ATOM      6  C7  UNL d   1      -1.892  -1.911   3.236  0.00  0.00     0.076 C 
ATOM      7  C8  UNL d   1      -0.558  -1.057   1.286  0.00  0.00     0.001 A 
ENDROOT
BRANCH   1   8
ATOM      8  C1  UNL d   1       0.678  -0.115  -0.704  0.00  0.00     0.053 C 
ATOM      9  C   UNL d   1      -0.414   0.943  -0.689  0.00  0.00     0.018 C 
ENDBRANCH   1   8
TORSDOF 1
ENDMDL
