MODEL 1
REMARK minimizedAffinity -5.57338476
REMARK minimizedRMSD -1
REMARK  1 active torsions:
REMARK  status: ('A' for Active; 'I' for Inactive)
REMARK    1  A    between atoms: C1_2  and  C2_3 
ROOT
ATOM      1  C2  UNL d   1       0.203   0.782  -0.528  0.00  0.00    -0.073 A 
ATOM      2  C3  UNL d   1       1.460   1.306  -0.850  0.00  0.00    -0.002 A 
ATOM      3  C4  UNL d   1       2.614   0.550  -0.640  0.00  0.00     0.004 A 
ATOM      4  C5  UNL d   1       2.523  -0.737  -0.111  0.00  0.00    -0.004 A 
ATOM      5  C6  UNL d   1       1.275  -1.283   0.207  0.00  0.00    -0.075 A 
ATOM      6  C7  UNL d   1       1.161  -2.666   0.778  0.00  0.00     0.076 C 
ATOM      7  C8  UNL d   1       0.121  -0.517  -0.006  0.00  0.00     0.001 A 
ENDROOT
BRANCH   1   8
ATOM      8  C1  UNL d   1      -1.047   1.592  -0.760  0.00  0.00     0.053 C 
ATOM      9  C   UNL d   1      -1.743   1.206  -2.055  0.00  0.00     0.018 C 
ENDBRANCH   1   8
TORSDOF 1
ENDMDL
