MODEL 1
REMARK minimizedAffinity -3.50357461
REMARK minimizedRMSD -1
REMARK  0 active torsions:
REMARK  status: ('A' for Active; 'I' for Inactive)
ROOT
ATOM      1  C1  DEN d   1       0.274  -0.242  -1.359  0.00  0.00     0.130 A 
ATOM      2  C2  DEN d   1      -0.857  -1.038  -0.893  0.00  0.00    -0.031 A 
ATOM      3  C3  DEN d   1      -1.284  -0.504   0.416  0.00  0.00     0.027 A 
ATOM      4  C4  DEN d   1      -0.310   1.472   1.757  0.00  0.00     0.027 A 
ATOM      5  C5  DEN d   1       0.663   2.446   1.773  0.00  0.00    -0.003 A 
ATOM      6  C6  DEN d   1       1.589   2.571   0.771  0.00  0.00     0.001 A 
ATOM      7  C7  DEN d   1       1.532   1.735  -0.312  0.00  0.00     0.017 A 
ATOM      8  C8  DEN d   1       0.559   0.745  -0.332  0.00  0.00    -0.094 A 
ATOM      9  C9  DEN d   1      -0.375   0.643   0.685  0.00  0.00    -0.072 A 
ENDROOT
TORSDOF 0
ENDMDL
