MODEL 1
REMARK minimizedAffinity -4.00871706
REMARK minimizedRMSD -1
REMARK  0 active torsions:
REMARK  status: ('A' for Active; 'I' for Inactive)
ROOT
ATOM      1  C1  DEN d   1       0.261  -1.209  -0.211  0.00  0.00     0.130 A 
ATOM      2  C2  DEN d   1       1.529  -1.068  -0.923  0.00  0.00    -0.031 A 
ATOM      3  C3  DEN d   1       2.143   0.210  -0.511  0.00  0.00     0.027 A 
ATOM      4  C4  DEN d   1       1.263   1.973   1.153  0.00  0.00     0.027 A 
ATOM      5  C5  DEN d   1       0.225   2.299   1.998  0.00  0.00    -0.003 A 
ATOM      6  C6  DEN d   1      -0.880   1.502   2.139  0.00  0.00     0.001 A 
ATOM      7  C7  DEN d   1      -0.953   0.316   1.458  0.00  0.00     0.017 A 
ATOM      8  C8  DEN d   1       0.087  -0.016   0.598  0.00  0.00    -0.094 A 
ATOM      9  C9  DEN d   1       1.201   0.797   0.479  0.00  0.00    -0.072 A 
ENDROOT
TORSDOF 0
ENDMDL
