MODEL 1
REMARK minimizedAffinity -3.08209491
REMARK minimizedRMSD -1
REMARK  0 active torsions:
REMARK  status: ('A' for Active; 'I' for Inactive)
ROOT
ATOM      1  C1  DEN d   1      -0.049  -0.633  -0.865  0.00  0.00     0.130 A 
ATOM      2  C2  DEN d   1      -0.767  -1.499   0.065  0.00  0.00    -0.031 A 
ATOM      3  C3  DEN d   1      -0.840  -0.809   1.369  0.00  0.00     0.027 A 
ATOM      4  C4  DEN d   1       0.082   1.507   2.031  0.00  0.00     0.027 A 
ATOM      5  C5  DEN d   1       0.776   2.609   1.583  0.00  0.00    -0.003 A 
ATOM      6  C6  DEN d   1       1.270   2.692   0.308  0.00  0.00     0.001 A 
ATOM      7  C7  DEN d   1       1.037   1.674  -0.578  0.00  0.00     0.017 A 
ATOM      8  C8  DEN d   1       0.344   0.556  -0.131  0.00  0.00    -0.094 A 
ATOM      9  C9  DEN d   1      -0.158   0.497   1.158  0.00  0.00    -0.072 A 
ENDROOT
TORSDOF 0
ENDMDL
