MODEL 1
REMARK minimizedAffinity -0.104636058
REMARK minimizedRMSD -1
REMARK  0 active torsions:
REMARK  status: ('A' for Active; 'I' for Inactive)
ROOT
ATOM      1  C1  DEN d   1       0.281   2.137   2.185  0.00  0.00     0.130 A 
ATOM      2  C2  DEN d   1       1.072   3.033   1.346  0.00  0.00    -0.031 A 
ATOM      3  C3  DEN d   1       1.224   2.401   0.020  0.00  0.00     0.027 A 
ATOM      4  C4  DEN d   1       0.312   0.136  -0.812  0.00  0.00     0.027 A 
ATOM      5  C5  DEN d   1      -0.407  -0.984  -0.456  0.00  0.00    -0.003 A 
ATOM      6  C6  DEN d   1      -0.914  -1.156   0.805  0.00  0.00     0.001 A 
ATOM      7  C7  DEN d   1      -0.747  -0.172   1.744  0.00  0.00     0.017 A 
ATOM      8  C8  DEN d   1      -0.017   0.956   1.394  0.00  0.00    -0.094 A 
ATOM      9  C9  DEN d   1       0.476   1.117   0.111  0.00  0.00    -0.072 A 
ENDROOT
TORSDOF 0
ENDMDL
