MODEL 1
REMARK minimizedAffinity -4.49404001
REMARK minimizedRMSD -1
REMARK  0 active torsions:
REMARK  status: ('A' for Active; 'I' for Inactive)
ROOT
ATOM      1  C1  DEN d   1       1.846  -0.792  -0.570  0.00  0.00     0.130 A 
ATOM      2  C2  DEN d   1       0.690  -1.684  -0.553  0.00  0.00    -0.031 A 
ATOM      3  C3  DEN d   1      -0.406  -0.999   0.161  0.00  0.00     0.027 A 
ATOM      4  C4  DEN d   1      -0.426   1.347   1.232  0.00  0.00     0.027 A 
ATOM      5  C5  DEN d   1       0.327   2.473   1.483  0.00  0.00    -0.003 A 
ATOM      6  C6  DEN d   1       1.638   2.576   1.100  0.00  0.00     0.001 A 
ATOM      7  C7  DEN d   1       2.224   1.551   0.405  0.00  0.00     0.017 A 
ATOM      8  C8  DEN d   1       1.473   0.409   0.155  0.00  0.00    -0.094 A 
ATOM      9  C9  DEN d   1       0.146   0.330   0.540  0.00  0.00    -0.072 A 
ENDROOT
TORSDOF 0
ENDMDL
