MODEL 1
REMARK minimizedAffinity -4.00247049
REMARK minimizedRMSD -1
REMARK  0 active torsions:
REMARK  status: ('A' for Active; 'I' for Inactive)
ROOT
ATOM      1  C1  DEN d   1      -0.456  -0.824   1.693  0.00  0.00     0.130 A 
ATOM      2  C2  DEN d   1      -1.350  -0.194   2.661  0.00  0.00    -0.031 A 
ATOM      3  C3  DEN d   1      -1.260   1.269   2.481  0.00  0.00     0.027 A 
ATOM      4  C4  DEN d   1       0.165   2.613   0.804  0.00  0.00     0.027 A 
ATOM      5  C5  DEN d   1       1.091   2.517  -0.212  0.00  0.00    -0.003 A 
ATOM      6  C6  DEN d   1       1.587   1.314  -0.637  0.00  0.00     0.001 A 
ATOM      7  C7  DEN d   1       1.126   0.153  -0.075  0.00  0.00     0.017 A 
ATOM      8  C8  DEN d   1       0.199   0.241   0.955  0.00  0.00    -0.094 A 
ATOM      9  C9  DEN d   1      -0.300   1.467   1.362  0.00  0.00    -0.072 A 
ENDROOT
TORSDOF 0
ENDMDL
