MODEL 1
REMARK minimizedAffinity -3.80046153
REMARK minimizedRMSD -1
REMARK  0 active torsions:
REMARK  status: ('A' for Active; 'I' for Inactive)
ROOT
ATOM      1  C1  DEN d   1       1.058   2.195  -0.321  0.00  0.00     0.130 A 
ATOM      2  C2  DEN d   1       1.149   2.817   0.997  0.00  0.00    -0.031 A 
ATOM      3  C3  DEN d   1       0.477   1.930   1.968  0.00  0.00     0.027 A 
ATOM      4  C4  DEN d   1      -0.686  -0.336   1.561  0.00  0.00     0.027 A 
ATOM      5  C5  DEN d   1      -1.028  -1.266   0.604  0.00  0.00    -0.003 A 
ATOM      6  C6  DEN d   1      -0.732  -1.093  -0.721  0.00  0.00     0.001 A 
ATOM      7  C7  DEN d   1      -0.033   0.015  -1.122  0.00  0.00     0.017 A 
ATOM      8  C8  DEN d   1       0.309   0.961  -0.164  0.00  0.00    -0.094 A 
ATOM      9  C9  DEN d   1       0.011   0.762   1.173  0.00  0.00    -0.072 A 
ENDROOT
TORSDOF 0
ENDMDL
