MODEL 1
REMARK minimizedAffinity -5.08523369
REMARK minimizedRMSD -1
REMARK  0 active torsions:
REMARK  status: ('A' for Active; 'I' for Inactive)
ROOT
ATOM      1  C1  DEN d   1      -0.527   0.555  -1.613  0.00  0.00     0.130 A 
ATOM      2  C2  DEN d   1      -0.305  -0.874  -1.412  0.00  0.00    -0.031 A 
ATOM      3  C3  DEN d   1       0.238  -1.066  -0.052  0.00  0.00     0.027 A 
ATOM      4  C4  DEN d   1       0.748   0.702   1.755  0.00  0.00     0.027 A 
ATOM      5  C5  DEN d   1       0.734   2.049   2.043  0.00  0.00    -0.003 A 
ATOM      6  C6  DEN d   1       0.334   2.987   1.129  0.00  0.00     0.001 A 
ATOM      7  C7  DEN d   1      -0.111   2.588  -0.103  0.00  0.00     0.017 A 
ATOM      8  C8  DEN d   1      -0.093   1.232  -0.404  0.00  0.00    -0.094 A 
ATOM      9  C9  DEN d   1       0.303   0.298   0.538  0.00  0.00    -0.072 A 
ENDROOT
TORSDOF 0
ENDMDL
