MODEL 1
REMARK minimizedAffinity -2.54677892
REMARK minimizedRMSD -1
REMARK  0 active torsions:
REMARK  status: ('A' for Active; 'I' for Inactive)
ROOT
ATOM      1  C1  DEN d   1       1.996   1.343   0.210  0.00  0.00     0.130 A 
ATOM      2  C2  DEN d   1       1.464   2.054   1.370  0.00  0.00    -0.031 A 
ATOM      3  C3  DEN d   1       0.239   1.356   1.810  0.00  0.00     0.027 A 
ATOM      4  C4  DEN d   1      -0.877  -0.746   0.817  0.00  0.00     0.027 A 
ATOM      5  C5  DEN d   1      -0.799  -1.694  -0.178  0.00  0.00    -0.003 A 
ATOM      6  C6  DEN d   1       0.189  -1.677  -1.127  0.00  0.00     0.001 A 
ATOM      7  C7  DEN d   1       1.165  -0.717  -1.073  0.00  0.00     0.017 A 
ATOM      8  C8  DEN d   1       1.089   0.246  -0.077  0.00  0.00    -0.094 A 
ATOM      9  C9  DEN d   1       0.089   0.205   0.880  0.00  0.00    -0.072 A 
ENDROOT
TORSDOF 0
ENDMDL
