MODEL 1
REMARK minimizedAffinity -0.949272573
REMARK minimizedRMSD -1
REMARK  0 active torsions:
REMARK  status: ('A' for Active; 'I' for Inactive)
ROOT
ATOM      1  C1  DEN d   1       0.610   1.680   2.055  0.00  0.00     0.130 A 
ATOM      2  C2  DEN d   1      -0.745   1.653   2.599  0.00  0.00    -0.031 A 
ATOM      3  C3  DEN d   1      -1.502   0.603   1.888  0.00  0.00     0.027 A 
ATOM      4  C4  DEN d   1      -0.709  -0.979   0.011  0.00  0.00     0.027 A 
ATOM      5  C5  DEN d   1       0.356  -1.324  -0.791  0.00  0.00    -0.003 A 
ATOM      6  C6  DEN d   1       1.560  -0.675  -0.725  0.00  0.00     0.001 A 
ATOM      7  C7  DEN d   1       1.743   0.325   0.194  0.00  0.00     0.017 A 
ATOM      8  C8  DEN d   1       0.671   0.683   1.001  0.00  0.00    -0.094 A 
ATOM      9  C9  DEN d   1      -0.534   0.006   0.928  0.00  0.00    -0.072 A 
ENDROOT
TORSDOF 0
ENDMDL
