MODEL 1
REMARK minimizedAffinity -3.17261863
REMARK minimizedRMSD -1
REMARK  0 active torsions:
REMARK  status: ('A' for Active; 'I' for Inactive)
ROOT
ATOM      1  C1  DEN d   1      -1.749  -1.783  -0.927  0.00  0.00     0.130 A 
ATOM      2  C2  DEN d   1      -1.294  -2.079  -2.283  0.00  0.00    -0.031 A 
ATOM      3  C3  DEN d   1      -0.132  -1.214  -2.573  0.00  0.00     0.027 A 
ATOM      4  C4  DEN d   1       1.002   0.541  -1.060  0.00  0.00     0.027 A 
ATOM      5  C5  DEN d   1       0.963   1.153   0.173  0.00  0.00    -0.003 A 
ATOM      6  C6  DEN d   1       0.005   0.857   1.105  0.00  0.00     0.001 A 
ATOM      7  C7  DEN d   1      -0.928  -0.110   0.836  0.00  0.00     0.017 A 
ATOM      8  C8  DEN d   1      -0.900  -0.727  -0.408  0.00  0.00    -0.094 A 
ATOM      9  C9  DEN d   1       0.085  -0.422  -1.332  0.00  0.00    -0.072 A 
ENDROOT
TORSDOF 0
ENDMDL
