MODEL 1
REMARK minimizedAffinity -5.12235117
REMARK minimizedRMSD -1
REMARK  0 active torsions:
REMARK  status: ('A' for Active; 'I' for Inactive)
ROOT
ATOM      1  C1  DEN d   1      -0.309  -0.594  -0.783  0.00  0.00     0.130 A 
ATOM      2  C2  DEN d   1      -0.838  -1.490   0.242  0.00  0.00    -0.031 A 
ATOM      3  C3  DEN d   1      -0.686  -0.825   1.552  0.00  0.00     0.027 A 
ATOM      4  C4  DEN d   1       0.307   1.494   2.090  0.00  0.00     0.027 A 
ATOM      5  C5  DEN d   1       0.895   2.616   1.549  0.00  0.00    -0.003 A 
ATOM      6  C6  DEN d   1       1.152   2.732   0.209  0.00  0.00     0.001 A 
ATOM      7  C7  DEN d   1       0.778   1.726  -0.644  0.00  0.00     0.017 A 
ATOM      8  C8  DEN d   1       0.192   0.588  -0.105  0.00  0.00    -0.094 A 
ATOM      9  C9  DEN d   1      -0.071   0.495   1.251  0.00  0.00    -0.072 A 
ENDROOT
TORSDOF 0
ENDMDL
