MODEL 1
REMARK minimizedAffinity -2.09328723
REMARK minimizedRMSD -1
REMARK  0 active torsions:
REMARK  status: ('A' for Active; 'I' for Inactive)
ROOT
ATOM      1  C1  DEN d   1       0.451  -0.175  -1.332  0.00  0.00     0.130 A 
ATOM      2  C2  DEN d   1      -0.537  -1.248  -1.262  0.00  0.00    -0.031 A 
ATOM      3  C3  DEN d   1      -1.218  -1.156   0.045  0.00  0.00     0.027 A 
ATOM      4  C4  DEN d   1      -0.845   0.538   1.954  0.00  0.00     0.027 A 
ATOM      5  C5  DEN d   1      -0.106   1.627   2.360  0.00  0.00    -0.003 A 
ATOM      6  C6  DEN d   1       0.886   2.167   1.584  0.00  0.00     0.001 A 
ATOM      7  C7  DEN d   1       1.135   1.646   0.342  0.00  0.00     0.017 A 
ATOM      8  C8  DEN d   1       0.399   0.543  -0.071  0.00  0.00    -0.094 A 
ATOM      9  C9  DEN d   1      -0.608   0.020   0.723  0.00  0.00    -0.072 A 
ENDROOT
TORSDOF 0
ENDMDL
