MODEL 1
REMARK minimizedAffinity -4.11150503
REMARK minimizedRMSD -1
REMARK  0 active torsions:
REMARK  status: ('A' for Active; 'I' for Inactive)
ROOT
ATOM      1  C1  DEN d   1       1.712   2.295   0.337  0.00  0.00     0.130 A 
ATOM      2  C2  DEN d   1       1.082   3.052   1.415  0.00  0.00    -0.031 A 
ATOM      3  C3  DEN d   1      -0.025   2.239   1.957  0.00  0.00     0.027 A 
ATOM      4  C4  DEN d   1      -0.817  -0.108   1.238  0.00  0.00     0.027 A 
ATOM      5  C5  DEN d   1      -0.600  -1.146   0.359  0.00  0.00    -0.003 A 
ATOM      6  C6  DEN d   1       0.373  -1.096  -0.604  0.00  0.00     0.001 A 
ATOM      7  C7  DEN d   1       1.196  -0.003  -0.681  0.00  0.00     0.017 A 
ATOM      8  C8  DEN d   1       0.978   1.050   0.197  0.00  0.00    -0.094 A 
ATOM      9  C9  DEN d   1      -0.003   0.975   1.171  0.00  0.00    -0.072 A 
ENDROOT
TORSDOF 0
ENDMDL
