MODEL 1
REMARK minimizedAffinity -5.85322905
REMARK minimizedRMSD -1
REMARK  0 active torsions:
REMARK  status: ('A' for Active; 'I' for Inactive)
ROOT
ATOM      1  C1  DEN d   1       1.673   1.999  -0.038  0.00  0.00     0.130 A 
ATOM      2  C2  DEN d   1       1.517   2.653   1.258  0.00  0.00    -0.031 A 
ATOM      3  C3  DEN d   1       0.402   1.997   1.970  0.00  0.00     0.027 A 
ATOM      4  C4  DEN d   1      -1.088   0.039   1.197  0.00  0.00     0.027 A 
ATOM      5  C5  DEN d   1      -1.343  -0.838   0.166  0.00  0.00    -0.003 A 
ATOM      6  C6  DEN d   1      -0.639  -0.809  -1.009  0.00  0.00     0.001 A 
ATOM      7  C7  DEN d   1       0.385   0.087  -1.164  0.00  0.00     0.017 A 
ATOM      8  C8  DEN d   1       0.643   0.979  -0.132  0.00  0.00    -0.094 A 
ATOM      9  C9  DEN d   1      -0.071   0.926   1.052  0.00  0.00    -0.072 A 
ENDROOT
TORSDOF 0
ENDMDL
