MODEL 1
REMARK minimizedAffinity -3.13277149
REMARK minimizedRMSD -1
REMARK  0 active torsions:
REMARK  status: ('A' for Active; 'I' for Inactive)
ROOT
ATOM      1  C1  DEN d   1      -0.719  -1.038  -3.179  0.00  0.00     0.130 A 
ATOM      2  C2  DEN d   1      -1.942  -1.792  -2.917  0.00  0.00    -0.031 A 
ATOM      3  C3  DEN d   1      -2.202  -1.752  -1.464  0.00  0.00     0.027 A 
ATOM      4  C4  DEN d   1      -0.839  -0.597   0.396  0.00  0.00     0.027 A 
ATOM      5  C5  DEN d   1       0.284   0.155   0.663  0.00  0.00    -0.003 A 
ATOM      6  C6  DEN d   1       1.162   0.530  -0.319  0.00  0.00     0.001 A 
ATOM      7  C7  DEN d   1       0.908   0.192  -1.622  0.00  0.00     0.017 A 
ATOM      8  C8  DEN d   1      -0.218  -0.572  -1.898  0.00  0.00    -0.094 A 
ATOM      9  C9  DEN d   1      -1.100  -0.931  -0.893  0.00  0.00    -0.072 A 
ENDROOT
TORSDOF 0
ENDMDL
