MODEL 1
REMARK minimizedAffinity -3.65488553
REMARK minimizedRMSD -1
REMARK  0 active torsions:
REMARK  status: ('A' for Active; 'I' for Inactive)
ROOT
ATOM      1  C1  DEN d   1       2.414   0.392  -0.918  0.00  0.00     0.130 A 
ATOM      2  C2  DEN d   1       1.925  -0.969  -1.124  0.00  0.00    -0.031 A 
ATOM      3  C3  DEN d   1       0.742  -1.165  -0.262  0.00  0.00     0.027 A 
ATOM      4  C4  DEN d   1      -0.377   0.500   1.360  0.00  0.00     0.027 A 
ATOM      5  C5  DEN d   1      -0.313   1.773   1.882  0.00  0.00    -0.003 A 
ATOM      6  C6  DEN d   1       0.675   2.656   1.537  0.00  0.00     0.001 A 
ATOM      7  C7  DEN d   1       1.615   2.293   0.609  0.00  0.00     0.017 A 
ATOM      8  C8  DEN d   1       1.562   1.009   0.083  0.00  0.00    -0.094 A 
ATOM      9  C9  DEN d   1       0.548   0.135   0.436  0.00  0.00    -0.072 A 
ENDROOT
TORSDOF 0
ENDMDL
