MODEL 1
REMARK minimizedAffinity -3.12700963
REMARK minimizedRMSD -1
REMARK  1 active torsions:
REMARK  status: ('A' for Active; 'I' for Inactive)
REMARK    1  A    between atoms: C1_2  and  C2_3 
ROOT
ATOM      1  C2  UNL d   1      -0.090   0.262   0.345  0.00  0.00    -0.073 A 
ATOM      2  C3  UNL d   1      -1.219   0.478  -0.454  0.00  0.00    -0.002 A 
ATOM      3  C4  UNL d   1      -2.458   0.739   0.134  0.00  0.00     0.004 A 
ATOM      4  C5  UNL d   1      -2.579   0.795   1.522  0.00  0.00    -0.004 A 
ATOM      5  C6  UNL d   1      -1.459   0.594   2.336  0.00  0.00    -0.075 A 
ATOM      6  C7  UNL d   1      -1.573   0.648   3.832  0.00  0.00     0.076 C 
ATOM      7  C8  UNL d   1      -0.220   0.329   1.739  0.00  0.00     0.001 A 
ENDROOT
BRANCH   1   8
ATOM      8  C1  UNL d   1       1.251  -0.015  -0.285  0.00  0.00     0.053 C 
ATOM      9  C   UNL d   1       1.366  -1.450  -0.773  0.00  0.00     0.018 C 
ENDBRANCH   1   8
TORSDOF 1
ENDMDL
