MODEL 1
REMARK minimizedAffinity -6.07171202
REMARK minimizedRMSD -1
REMARK  1 active torsions:
REMARK  status: ('A' for Active; 'I' for Inactive)
REMARK    1  A    between atoms: C1_2  and  C2_3 
ROOT
ATOM      1  C2  UNL d   1      -2.000   0.565   1.425  0.00  0.00    -0.073 A 
ATOM      2  C3  UNL d   1      -1.684   1.332   2.552  0.00  0.00    -0.002 A 
ATOM      3  C4  UNL d   1      -2.320   1.089   3.771  0.00  0.00     0.004 A 
ATOM      4  C5  UNL d   1      -3.270   0.074   3.877  0.00  0.00    -0.004 A 
ATOM      5  C6  UNL d   1      -3.591  -0.711   2.765  0.00  0.00    -0.075 A 
ATOM      6  C7  UNL d   1      -4.613  -1.806   2.861  0.00  0.00     0.076 C 
ATOM      7  C8  UNL d   1      -2.951  -0.459   1.544  0.00  0.00     0.001 A 
ENDROOT
BRANCH   1   8
ATOM      8  C1  UNL d   1      -1.312   0.819   0.109  0.00  0.00     0.053 C 
ATOM      9  C   UNL d   1       0.149   0.401   0.139  0.00  0.00     0.018 C 
ENDBRANCH   1   8
TORSDOF 1
ENDMDL
