MODEL 1
REMARK minimizedAffinity -0.592861593
REMARK minimizedRMSD -1
REMARK  1 active torsions:
REMARK  status: ('A' for Active; 'I' for Inactive)
REMARK    1  A    between atoms: C1_2  and  C2_3 
ROOT
ATOM      1  C2  UNL d   1       0.765  -0.750  -0.706  0.00  0.00    -0.073 A 
ATOM      2  C3  UNL d   1       1.967  -1.375  -1.059  0.00  0.00    -0.002 A 
ATOM      3  C4  UNL d   1       2.959  -0.664  -1.735  0.00  0.00     0.004 A 
ATOM      4  C5  UNL d   1       2.763   0.678  -2.060  0.00  0.00    -0.004 A 
ATOM      5  C6  UNL d   1       1.574   1.324  -1.705  0.00  0.00    -0.075 A 
ATOM      6  C7  UNL d   1       1.347   2.766  -2.049  0.00  0.00     0.076 C 
ATOM      7  C8  UNL d   1       0.581   0.602  -1.029  0.00  0.00     0.001 A 
ENDROOT
BRANCH   1   8
ATOM      8  C1  UNL d   1      -0.306  -1.512   0.030  0.00  0.00     0.053 C 
ATOM      9  C   UNL d   1      -1.461  -0.614   0.446  0.00  0.00     0.018 C 
ENDBRANCH   1   8
TORSDOF 1
ENDMDL
