MODEL 1
REMARK minimizedAffinity 8.26186085
REMARK minimizedRMSD -1
REMARK  1 active torsions:
REMARK  status: ('A' for Active; 'I' for Inactive)
REMARK    1  A    between atoms: C1_2  and  C2_3 
ROOT
ATOM      1  C2  UNL d   1       1.146  -1.192  -1.335  0.00  0.00    -0.073 A 
ATOM      2  C3  UNL d   1       1.575  -2.227  -2.173  0.00  0.00    -0.002 A 
ATOM      3  C4  UNL d   1       0.678  -3.209  -2.596  0.00  0.00     0.004 A 
ATOM      4  C5  UNL d   1      -0.656  -3.162  -2.192  0.00  0.00    -0.004 A 
ATOM      5  C6  UNL d   1      -1.106  -2.129  -1.365  0.00  0.00    -0.075 A 
ATOM      6  C7  UNL d   1      -2.538  -2.065  -0.920  0.00  0.00     0.076 C 
ATOM      7  C8  UNL d   1      -0.199  -1.148  -0.942  0.00  0.00     0.001 A 
ENDROOT
BRANCH   1   8
ATOM      8  C1  UNL d   1       2.109  -0.126  -0.881  0.00  0.00     0.053 C 
ATOM      9  C   UNL d   1       2.170   1.040  -1.855  0.00  0.00     0.018 C 
ENDBRANCH   1   8
TORSDOF 1
ENDMDL
