MODEL 1
REMARK minimizedAffinity -0.347147644
REMARK minimizedRMSD -1
REMARK  1 active torsions:
REMARK  status: ('A' for Active; 'I' for Inactive)
REMARK    1  A    between atoms: C1_2  and  C2_3 
ROOT
ATOM      1  C2  UNL d   1       0.995  -3.038  -1.052  0.00  0.00    -0.073 A 
ATOM      2  C3  UNL d   1       1.196  -3.938   0.001  0.00  0.00    -0.002 A 
ATOM      3  C4  UNL d   1       2.234  -3.738   0.911  0.00  0.00     0.004 A 
ATOM      4  C5  UNL d   1       3.076  -2.634   0.784  0.00  0.00    -0.004 A 
ATOM      5  C6  UNL d   1       2.884  -1.716  -0.254  0.00  0.00    -0.075 A 
ATOM      6  C7  UNL d   1       3.783  -0.524  -0.406  0.00  0.00     0.076 C 
ATOM      7  C8  UNL d   1       1.842  -1.926  -1.166  0.00  0.00     0.001 A 
ENDROOT
BRANCH   1   8
ATOM      8  C1  UNL d   1      -0.128  -3.247  -2.034  0.00  0.00     0.053 C 
ATOM      9  C   UNL d   1       0.375  -3.326  -3.467  0.00  0.00     0.018 C 
ENDBRANCH   1   8
TORSDOF 1
ENDMDL
