MODEL 1
REMARK minimizedAffinity 2.61808634
REMARK minimizedRMSD -1
REMARK  1 active torsions:
REMARK  status: ('A' for Active; 'I' for Inactive)
REMARK    1  A    between atoms: C1_2  and  C2_3 
ROOT
ATOM      1  C2  UNL d   1      -3.084  -1.184   3.639  0.00  0.00    -0.073 A 
ATOM      2  C3  UNL d   1      -3.167   0.104   4.182  0.00  0.00    -0.002 A 
ATOM      3  C4  UNL d   1      -2.598   1.189   3.513  0.00  0.00     0.004 A 
ATOM      4  C5  UNL d   1      -1.947   0.999   2.295  0.00  0.00    -0.004 A 
ATOM      5  C6  UNL d   1      -1.863  -0.278   1.731  0.00  0.00    -0.075 A 
ATOM      6  C7  UNL d   1      -1.164  -0.499   0.421  0.00  0.00     0.076 C 
ATOM      7  C8  UNL d   1      -2.435  -1.363   2.409  0.00  0.00     0.001 A 
ENDROOT
BRANCH   1   8
ATOM      8  C1  UNL d   1      -3.702  -2.357   4.354  0.00  0.00     0.053 C 
ATOM      9  C   UNL d   1      -4.997  -2.807   3.697  0.00  0.00     0.018 C 
ENDBRANCH   1   8
TORSDOF 1
ENDMDL
