MODEL 1
REMARK minimizedAffinity 3.49473238
REMARK minimizedRMSD -1
REMARK  1 active torsions:
REMARK  status: ('A' for Active; 'I' for Inactive)
REMARK    1  A    between atoms: C1_2  and  C2_3 
ROOT
ATOM      1  C2  UNL d   1       2.084  -0.805  -1.665  0.00  0.00    -0.073 A 
ATOM      2  C3  UNL d   1       1.596  -1.763  -2.561  0.00  0.00    -0.002 A 
ATOM      3  C4  UNL d   1       1.016  -1.368  -3.768  0.00  0.00     0.004 A 
ATOM      4  C5  UNL d   1       0.926  -0.015  -4.094  0.00  0.00    -0.004 A 
ATOM      5  C6  UNL d   1       1.418   0.956  -3.217  0.00  0.00    -0.075 A 
ATOM      6  C7  UNL d   1       1.326   2.416  -3.552  0.00  0.00     0.076 C 
ATOM      7  C8  UNL d   1       1.996   0.552  -2.006  0.00  0.00     0.001 A 
ENDROOT
BRANCH   1   8
ATOM      8  C1  UNL d   1       2.716  -1.226  -0.364  0.00  0.00     0.053 C 
ATOM      9  C   UNL d   1       2.188  -2.568   0.119  0.00  0.00     0.018 C 
ENDBRANCH   1   8
TORSDOF 1
ENDMDL
