MODEL 1
REMARK minimizedAffinity -3.89286399
REMARK minimizedRMSD -1
REMARK  1 active torsions:
REMARK  status: ('A' for Active; 'I' for Inactive)
REMARK    1  A    between atoms: C1_2  and  C2_3 
ROOT
ATOM      1  C2  UNL d   1      -0.008   0.405  -0.698  0.00  0.00    -0.073 A 
ATOM      2  C3  UNL d   1      -0.207   1.578  -1.434  0.00  0.00    -0.002 A 
ATOM      3  C4  UNL d   1       0.835   2.129  -2.180  0.00  0.00     0.004 A 
ATOM      4  C5  UNL d   1       2.085   1.509  -2.204  0.00  0.00    -0.004 A 
ATOM      5  C6  UNL d   1       2.301   0.329  -1.485  0.00  0.00    -0.075 A 
ATOM      6  C7  UNL d   1       3.639  -0.349  -1.498  0.00  0.00     0.076 C 
ATOM      7  C8  UNL d   1       1.249  -0.216  -0.736  0.00  0.00     0.001 A 
ENDROOT
BRANCH   1   8
ATOM      8  C1  UNL d   1      -1.133  -0.197   0.104  0.00  0.00     0.053 C 
ATOM      9  C   UNL d   1      -1.642   0.755   1.175  0.00  0.00     0.018 C 
ENDBRANCH   1   8
TORSDOF 1
ENDMDL
