MODEL 1
REMARK minimizedAffinity -0.30714035
REMARK minimizedRMSD -1
REMARK  1 active torsions:
REMARK  status: ('A' for Active; 'I' for Inactive)
REMARK    1  A    between atoms: C1_2  and  C2_3 
ROOT
ATOM      1  C2  UNL d   1      -3.088   1.978   2.287  0.00  0.00    -0.073 A 
ATOM      2  C3  UNL d   1      -2.159   3.008   2.101  0.00  0.00    -0.002 A 
ATOM      3  C4  UNL d   1      -1.407   3.076   0.927  0.00  0.00     0.004 A 
ATOM      4  C5  UNL d   1      -1.581   2.120  -0.074  0.00  0.00    -0.004 A 
ATOM      5  C6  UNL d   1      -2.512   1.090   0.088  0.00  0.00    -0.075 A 
ATOM      6  C7  UNL d   1      -2.709   0.053  -0.978  0.00  0.00     0.076 C 
ATOM      7  C8  UNL d   1      -3.262   1.027   1.271  0.00  0.00     0.001 A 
ENDROOT
BRANCH   1   8
ATOM      8  C1  UNL d   1      -3.906   1.905   3.549  0.00  0.00     0.053 C 
ATOM      9  C   UNL d   1      -3.309   0.939   4.561  0.00  0.00     0.018 C 
ENDBRANCH   1   8
TORSDOF 1
ENDMDL
