MODEL 1
REMARK minimizedAffinity -2.14280534
REMARK minimizedRMSD -1
REMARK  1 active torsions:
REMARK  status: ('A' for Active; 'I' for Inactive)
REMARK    1  A    between atoms: C1_2  and  C2_3 
ROOT
ATOM      1  C2  UNL d   1      -1.161   0.201   0.712  0.00  0.00    -0.073 A 
ATOM      2  C3  UNL d   1      -1.164   1.429   0.042  0.00  0.00    -0.002 A 
ATOM      3  C4  UNL d   1      -0.305   1.647  -1.036  0.00  0.00     0.004 A 
ATOM      4  C5  UNL d   1       0.560   0.638  -1.459  0.00  0.00    -0.004 A 
ATOM      5  C6  UNL d   1       0.570  -0.601  -0.810  0.00  0.00    -0.075 A 
ATOM      6  C7  UNL d   1       1.496  -1.696  -1.251  0.00  0.00     0.076 C 
ATOM      7  C8  UNL d   1      -0.294  -0.811   0.274  0.00  0.00     0.001 A 
ENDROOT
BRANCH   1   8
ATOM      8  C1  UNL d   1      -2.091  -0.041   1.873  0.00  0.00     0.053 C 
ATOM      9  C   UNL d   1      -2.036   1.086   2.891  0.00  0.00     0.018 C 
ENDBRANCH   1   8
TORSDOF 1
ENDMDL
