MODEL 1
REMARK minimizedAffinity -3.60607576
REMARK minimizedRMSD -1
REMARK  1 active torsions:
REMARK  status: ('A' for Active; 'I' for Inactive)
REMARK    1  A    between atoms: C1_2  and  C2_3 
ROOT
ATOM      1  C2  UNL d   1      -0.154   0.223  -0.394  0.00  0.00    -0.073 A 
ATOM      2  C3  UNL d   1      -0.463  -1.136  -0.262  0.00  0.00    -0.002 A 
ATOM      3  C4  UNL d   1       0.471  -2.109  -0.621  0.00  0.00     0.004 A 
ATOM      4  C5  UNL d   1       1.723  -1.734  -1.108  0.00  0.00    -0.004 A 
ATOM      5  C6  UNL d   1       2.055  -0.381  -1.236  0.00  0.00    -0.075 A 
ATOM      6  C7  UNL d   1       3.396   0.038  -1.761  0.00  0.00     0.076 C 
ATOM      7  C8  UNL d   1       1.110   0.590  -0.876  0.00  0.00     0.001 A 
ENDROOT
BRANCH   1   8
ATOM      8  C1  UNL d   1      -1.157   1.277  -0.002  0.00  0.00     0.053 C 
ATOM      9  C   UNL d   1      -1.934   0.888   1.246  0.00  0.00     0.018 C 
ENDBRANCH   1   8
TORSDOF 1
ENDMDL
