MODEL 1
REMARK minimizedAffinity -1.7988342
REMARK minimizedRMSD -1
REMARK  1 active torsions:
REMARK  status: ('A' for Active; 'I' for Inactive)
REMARK    1  A    between atoms: C1_2  and  C2_3 
ROOT
ATOM      1  C2  UNL d   1      -1.626   0.949   1.428  0.00  0.00    -0.073 A 
ATOM      2  C3  UNL d   1      -1.540   2.182   2.085  0.00  0.00    -0.002 A 
ATOM      3  C4  UNL d   1      -1.753   2.264   3.461  0.00  0.00     0.004 A 
ATOM      4  C5  UNL d   1      -2.047   1.116   4.196  0.00  0.00    -0.004 A 
ATOM      5  C6  UNL d   1      -2.127  -0.127   3.560  0.00  0.00    -0.075 A 
ATOM      6  C7  UNL d   1      -2.445  -1.372   4.335  0.00  0.00     0.076 C 
ATOM      7  C8  UNL d   1      -1.914  -0.201   2.176  0.00  0.00     0.001 A 
ENDROOT
BRANCH   1   8
ATOM      8  C1  UNL d   1      -1.391   0.855  -0.057  0.00  0.00     0.053 C 
ATOM      9  C   UNL d   1       0.090   0.776  -0.396  0.00  0.00     0.018 C 
ENDBRANCH   1   8
TORSDOF 1
ENDMDL
