MODEL 1
REMARK minimizedAffinity 0.218266159
REMARK minimizedRMSD -1
REMARK  1 active torsions:
REMARK  status: ('A' for Active; 'I' for Inactive)
REMARK    1  A    between atoms: C1_2  and  C2_3 
ROOT
ATOM      1  C2  UNL d   1       2.105   0.065  -1.862  0.00  0.00    -0.073 A 
ATOM      2  C3  UNL d   1       3.083  -0.493  -1.031  0.00  0.00    -0.002 A 
ATOM      3  C4  UNL d   1       2.851  -1.711  -0.389  0.00  0.00     0.004 A 
ATOM      4  C5  UNL d   1       1.645  -2.385  -0.577  0.00  0.00    -0.004 A 
ATOM      5  C6  UNL d   1       0.660  -1.849  -1.413  0.00  0.00    -0.075 A 
ATOM      6  C7  UNL d   1      -0.644  -2.560  -1.624  0.00  0.00     0.076 C 
ATOM      7  C8  UNL d   1       0.899  -0.625  -2.052  0.00  0.00     0.001 A 
ENDROOT
BRANCH   1   8
ATOM      8  C1  UNL d   1       2.353   1.376  -2.562  0.00  0.00     0.053 C 
ATOM      9  C   UNL d   1       1.096   2.229  -2.637  0.00  0.00     0.018 C 
ENDBRANCH   1   8
TORSDOF 1
ENDMDL
