MODEL 1
REMARK minimizedAffinity 1.71378958
REMARK minimizedRMSD -1
REMARK  0 active torsions:
REMARK  status: ('A' for Active; 'I' for Inactive)
ROOT
ATOM      1  C   UNL d   1      -2.145  -1.404   2.254  0.00  0.00     0.020 A 
ATOM      2  C1  UNL d   1      -1.422  -2.533   2.636  0.00  0.00     0.020 A 
ATOM      3  C2  UNL d   1      -0.075  -2.414   2.984  0.00  0.00     0.034 A 
ATOM      4  C3  UNL d   1       0.553  -1.163   2.952  0.00  0.00     0.017 A 
ATOM      5  C4  UNL d   1      -0.175  -0.031   2.568  0.00  0.00     0.017 A 
ATOM      6  C5  UNL d   1      -1.523  -0.156   2.220  0.00  0.00     0.034 A 
ATOM      7 Cl   UNL d   1       0.531   1.546   2.504  0.00  0.00    -0.070 Cl
ATOM      8 Cl1  UNL d   1       2.221  -1.089   3.396  0.00  0.00    -0.070 Cl
ENDROOT
TORSDOF 0
ENDMDL
