MODEL 1
REMARK minimizedAffinity -2.93819571
REMARK minimizedRMSD -1
REMARK  0 active torsions:
REMARK  status: ('A' for Active; 'I' for Inactive)
ROOT
ATOM      1  C   UNL d   1      -1.522   0.112   1.026  0.00  0.00     0.020 A 
ATOM      2  C1  UNL d   1      -1.711  -0.891   1.975  0.00  0.00     0.020 A 
ATOM      3  C2  UNL d   1      -0.627  -1.364   2.718  0.00  0.00     0.034 A 
ATOM      4  C3  UNL d   1       0.651  -0.833   2.513  0.00  0.00     0.017 A 
ATOM      5  C4  UNL d   1       0.841   0.175   1.560  0.00  0.00     0.017 A 
ATOM      6  C5  UNL d   1      -0.248   0.644   0.819  0.00  0.00     0.034 A 
ATOM      7 Cl   UNL d   1       2.389   0.879   1.251  0.00  0.00    -0.070 Cl
ATOM      8 Cl1  UNL d   1       1.946  -1.464   3.467  0.00  0.00    -0.070 Cl
ENDROOT
TORSDOF 0
ENDMDL
