MODEL 1
REMARK minimizedAffinity 5.16734791
REMARK minimizedRMSD -1
REMARK  0 active torsions:
REMARK  status: ('A' for Active; 'I' for Inactive)
ROOT
ATOM      1  C   UNL d   1       3.601  -0.555  -4.903  0.00  0.00     0.020 A 
ATOM      2  C1  UNL d   1       2.835  -0.161  -6.000  0.00  0.00     0.020 A 
ATOM      3  C2  UNL d   1       1.448  -0.321  -5.977  0.00  0.00     0.034 A 
ATOM      4  C3  UNL d   1       0.822  -0.876  -4.855  0.00  0.00     0.017 A 
ATOM      5  C4  UNL d   1       1.591  -1.270  -3.754  0.00  0.00     0.017 A 
ATOM      6  C5  UNL d   1       2.980  -1.108  -3.782  0.00  0.00     0.034 A 
ATOM      7 Cl   UNL d   1       0.890  -1.963  -2.334  0.00  0.00    -0.070 Cl
ATOM      8 Cl1  UNL d   1      -0.897  -1.044  -4.895  0.00  0.00    -0.070 Cl
ENDROOT
TORSDOF 0
ENDMDL
