MODEL 1
REMARK minimizedAffinity 10.9292135
REMARK minimizedRMSD -1
REMARK  0 active torsions:
REMARK  status: ('A' for Active; 'I' for Inactive)
ROOT
ATOM      1  C   UNL d   1       1.542  -1.089   5.330  0.00  0.00     0.020 A 
ATOM      2  C1  UNL d   1       2.718  -1.447   4.672  0.00  0.00     0.020 A 
ATOM      3  C2  UNL d   1       2.698  -1.713   3.301  0.00  0.00     0.034 A 
ATOM      4  C3  UNL d   1       1.499  -1.621   2.584  0.00  0.00     0.017 A 
ATOM      5  C4  UNL d   1       0.320  -1.261   3.245  0.00  0.00     0.017 A 
ATOM      6  C5  UNL d   1       0.346  -0.996   4.618  0.00  0.00     0.034 A 
ATOM      7 Cl   UNL d   1      -1.197  -1.126   2.428  0.00  0.00    -0.070 Cl
ATOM      8 Cl1  UNL d   1       1.548  -1.963   0.891  0.00  0.00    -0.070 Cl
ENDROOT
TORSDOF 0
ENDMDL
