MODEL 1
REMARK minimizedAffinity 8.24789047
REMARK minimizedRMSD -1
REMARK  0 active torsions:
REMARK  status: ('A' for Active; 'I' for Inactive)
ROOT
ATOM      1  C   UNL d   1       5.270   0.388  -5.976  0.00  0.00     0.020 A 
ATOM      2  C1  UNL d   1       5.981   0.079  -4.817  0.00  0.00     0.020 A 
ATOM      3  C2  UNL d   1       5.302  -0.352  -3.676  0.00  0.00     0.034 A 
ATOM      4  C3  UNL d   1       3.908  -0.476  -3.691  0.00  0.00     0.017 A 
ATOM      5  C4  UNL d   1       3.195  -0.166  -4.855  0.00  0.00     0.017 A 
ATOM      6  C5  UNL d   1       3.880   0.265  -5.995  0.00  0.00     0.034 A 
ATOM      7 Cl   UNL d   1       1.474  -0.295  -4.950  0.00  0.00    -0.070 Cl
ATOM      8 Cl1  UNL d   1       3.133  -1.016  -2.244  0.00  0.00    -0.070 Cl
ENDROOT
TORSDOF 0
ENDMDL
