MODEL 1
REMARK minimizedAffinity 12.5353737
REMARK minimizedRMSD -1
REMARK  0 active torsions:
REMARK  status: ('A' for Active; 'I' for Inactive)
ROOT
ATOM      1  C   UNL d   1       2.925  -0.768   4.989  0.00  0.00     0.020 A 
ATOM      2  C1  UNL d   1       1.771  -0.578   5.749  0.00  0.00     0.020 A 
ATOM      3  C2  UNL d   1       0.517  -0.825   5.188  0.00  0.00     0.034 A 
ATOM      4  C3  UNL d   1       0.412  -1.262   3.863  0.00  0.00     0.017 A 
ATOM      5  C4  UNL d   1       1.570  -1.453   3.100  0.00  0.00     0.017 A 
ATOM      6  C5  UNL d   1       2.824  -1.205   3.667  0.00  0.00     0.034 A 
ATOM      7 Cl   UNL d   1       1.521  -1.991   1.459  0.00  0.00    -0.070 Cl
ATOM      8 Cl1  UNL d   1      -1.172  -1.548   3.234  0.00  0.00    -0.070 Cl
ENDROOT
TORSDOF 0
ENDMDL
