MODEL 1
REMARK minimizedAffinity 5.72083902
REMARK minimizedRMSD -1
REMARK  0 active torsions:
REMARK  status: ('A' for Active; 'I' for Inactive)
ROOT
ATOM      1  C   UNL d   1       3.341  -0.759  -4.937  0.00  0.00     0.020 A 
ATOM      2  C1  UNL d   1       2.664  -0.034  -5.917  0.00  0.00     0.020 A 
ATOM      3  C2  UNL d   1       1.272  -0.103  -5.999  0.00  0.00     0.034 A 
ATOM      4  C3  UNL d   1       0.552  -0.899  -5.100  0.00  0.00     0.017 A 
ATOM      5  C4  UNL d   1       1.232  -1.626  -4.117  0.00  0.00     0.017 A 
ATOM      6  C5  UNL d   1       2.627  -1.554  -4.039  0.00  0.00     0.034 A 
ATOM      7 Cl   UNL d   1       0.413  -2.629  -2.973  0.00  0.00    -0.070 Cl
ATOM      8 Cl1  UNL d   1      -1.168  -0.937  -5.260  0.00  0.00    -0.070 Cl
ENDROOT
TORSDOF 0
ENDMDL
