MODEL 1
REMARK minimizedAffinity 1.98527229
REMARK minimizedRMSD -1
REMARK  0 active torsions:
REMARK  status: ('A' for Active; 'I' for Inactive)
ROOT
ATOM      1  C   UNL d   1       2.558   0.001  -5.998  0.00  0.00     0.020 A 
ATOM      2  C1  UNL d   1       3.357  -0.518  -4.980  0.00  0.00     0.020 A 
ATOM      3  C2  UNL d   1       2.770  -1.198  -3.910  0.00  0.00     0.034 A 
ATOM      4  C3  UNL d   1       1.381  -1.360  -3.856  0.00  0.00     0.017 A 
ATOM      5  C4  UNL d   1       0.580  -0.839  -4.878  0.00  0.00     0.017 A 
ATOM      6  C5  UNL d   1       1.173  -0.159  -5.947  0.00  0.00     0.034 A 
ATOM      7 Cl   UNL d   1      -1.141  -0.999  -4.881  0.00  0.00    -0.070 Cl
ATOM      8 Cl1  UNL d   1       0.724  -2.212  -2.504  0.00  0.00    -0.070 Cl
ENDROOT
TORSDOF 0
ENDMDL
