MODEL 1
REMARK minimizedAffinity 11.8165264
REMARK minimizedRMSD -1
REMARK  0 active torsions:
REMARK  status: ('A' for Active; 'I' for Inactive)
ROOT
ATOM      1  C   UNL d   1       0.250  -0.703  -5.945  0.00  0.00     0.020 A 
ATOM      2  C1  UNL d   1      -0.267  -1.433  -4.876  0.00  0.00     0.020 A 
ATOM      3  C2  UNL d   1       0.580  -1.880  -3.860  0.00  0.00     0.034 A 
ATOM      4  C3  UNL d   1       1.950  -1.598  -3.912  0.00  0.00     0.017 A 
ATOM      5  C4  UNL d   1       2.469  -0.866  -4.986  0.00  0.00     0.017 A 
ATOM      6  C5  UNL d   1       1.616  -0.420  -6.000  0.00  0.00     0.034 A 
ATOM      7 Cl   UNL d   1       4.148  -0.479  -5.119  0.00  0.00    -0.070 Cl
ATOM      8 Cl1  UNL d   1       2.940  -2.182  -2.621  0.00  0.00    -0.070 Cl
ENDROOT
TORSDOF 0
ENDMDL
