MODEL 1
REMARK minimizedAffinity 4.66451359
REMARK minimizedRMSD -1
REMARK  0 active torsions:
REMARK  status: ('A' for Active; 'I' for Inactive)
ROOT
ATOM      1  C   UNL d   1       3.000  -0.746  -5.011  0.00  0.00     0.020 A 
ATOM      2  C1  UNL d   1       2.222  -0.087  -5.962  0.00  0.00     0.020 A 
ATOM      3  C2  UNL d   1       0.841  -0.295  -6.000  0.00  0.00     0.034 A 
ATOM      4  C3  UNL d   1       0.235  -1.163  -5.085  0.00  0.00     0.017 A 
ATOM      5  C4  UNL d   1       1.016  -1.823  -4.130  0.00  0.00     0.017 A 
ATOM      6  C5  UNL d   1       2.398  -1.612  -4.097  0.00  0.00     0.034 A 
ATOM      7 Cl   UNL d   1       0.340  -2.909  -2.968  0.00  0.00    -0.070 Cl
ATOM      8 Cl1  UNL d   1      -1.477  -1.372  -5.189  0.00  0.00    -0.070 Cl
ENDROOT
TORSDOF 0
ENDMDL
