MODEL 1
REMARK minimizedAffinity 13.4597855
REMARK minimizedRMSD -1
REMARK  0 active torsions:
REMARK  status: ('A' for Active; 'I' for Inactive)
ROOT
ATOM      1  C   UNL d   1       1.327  -2.337   3.396  0.00  0.00    -0.002 A 
ATOM      2  C1  UNL d   1       1.250  -1.512   2.282  0.00  0.00     0.010 A 
ATOM      3  C2  UNL d   1       2.405  -1.144   1.590  0.00  0.00     0.041 A 
ATOM      4  C3  UNL d   1       3.651  -1.624   2.039  0.00  0.00    -0.075 A 
ATOM      5  S   UNL d   1       5.198  -1.306   1.348  0.00  0.00     0.015 SA
ATOM      6  C4  UNL d   1       5.998  -2.257   2.515  0.00  0.00     0.022 A 
ATOM      7  C5  UNL d   1       5.121  -2.811   3.417  0.00  0.00     0.026 A 
ATOM      8  C6  UNL d   1       3.754  -2.456   3.158  0.00  0.00    -0.082 A 
ATOM      9  C7  UNL d   1       2.565  -2.811   3.838  0.00  0.00     0.045 A 
ENDROOT
TORSDOF 0
ENDMDL
