MODEL 1
REMARK minimizedAffinity 17.3950348
REMARK minimizedRMSD -1
REMARK  0 active torsions:
REMARK  status: ('A' for Active; 'I' for Inactive)
ROOT
ATOM      1  C   UNL d   1       5.243   5.848  -5.135  0.00  0.00    -0.002 A 
ATOM      2  C1  UNL d   1       3.870   5.656  -5.073  0.00  0.00     0.010 A 
ATOM      3  C2  UNL d   1       3.219   5.571  -3.841  0.00  0.00     0.041 A 
ATOM      4  C3  UNL d   1       3.978   5.684  -2.660  0.00  0.00    -0.075 A 
ATOM      5  S   UNL d   1       3.396   5.611  -1.039  0.00  0.00     0.015 SA
ATOM      6  C4  UNL d   1       4.956   5.834  -0.390  0.00  0.00     0.022 A 
ATOM      7  C5  UNL d   1       5.910   5.962  -1.371  0.00  0.00     0.026 A 
ATOM      8  C6  UNL d   1       5.362   5.878  -2.696  0.00  0.00    -0.082 A 
ATOM      9  C7  UNL d   1       5.993   5.960  -3.961  0.00  0.00     0.045 A 
ENDROOT
TORSDOF 0
ENDMDL
