MODEL 1
REMARK minimizedAffinity 6.59164858
REMARK minimizedRMSD -1
REMARK  0 active torsions:
REMARK  status: ('A' for Active; 'I' for Inactive)
ROOT
ATOM      1  C   UNL d   1       1.323  -0.128   1.235  0.00  0.00    -0.002 A 
ATOM      2  C1  UNL d   1       1.472  -1.312   0.528  0.00  0.00     0.010 A 
ATOM      3  C2  UNL d   1       1.398  -2.544   1.181  0.00  0.00     0.041 A 
ATOM      4  C3  UNL d   1       1.168  -2.566   2.571  0.00  0.00    -0.075 A 
ATOM      5  S   UNL d   1       1.038  -3.957   3.581  0.00  0.00     0.015 SA
ATOM      6  C4  UNL d   1       0.781  -3.012   4.976  0.00  0.00     0.022 A 
ATOM      7  C5  UNL d   1       0.791  -1.666   4.696  0.00  0.00     0.026 A 
ATOM      8  C6  UNL d   1       1.014  -1.387   3.305  0.00  0.00    -0.082 A 
ATOM      9  C7  UNL d   1       1.095  -0.154   2.614  0.00  0.00     0.045 A 
ENDROOT
TORSDOF 0
ENDMDL
