MODEL 1
REMARK minimizedAffinity 1.91305983
REMARK minimizedRMSD -1
REMARK  0 active torsions:
REMARK  status: ('A' for Active; 'I' for Inactive)
ROOT
ATOM      1  C   UNL d   1      -0.740   1.162   0.377  0.00  0.00    -0.002 A 
ATOM      2  C1  UNL d   1      -1.487   2.331   0.340  0.00  0.00     0.010 A 
ATOM      3  C2  UNL d   1      -2.574   2.452  -0.528  0.00  0.00     0.041 A 
ATOM      4  C3  UNL d   1      -2.902   1.367  -1.365  0.00  0.00    -0.075 A 
ATOM      5  S   UNL d   1      -4.190   1.288  -2.507  0.00  0.00     0.015 SA
ATOM      6  C4  UNL d   1      -3.780  -0.299  -2.973  0.00  0.00     0.022 A 
ATOM      7  C5  UNL d   1      -2.689  -0.773  -2.284  0.00  0.00     0.026 A 
ATOM      8  C6  UNL d   1      -2.165   0.180  -1.345  0.00  0.00    -0.082 A 
ATOM      9  C7  UNL d   1      -1.068   0.088  -0.455  0.00  0.00     0.045 A 
ENDROOT
TORSDOF 0
ENDMDL
