MODEL 1
REMARK minimizedAffinity 18.6008778
REMARK minimizedRMSD -1
REMARK  0 active torsions:
REMARK  status: ('A' for Active; 'I' for Inactive)
ROOT
ATOM      1  C   UNL d   1      -1.709   1.133   0.409  0.00  0.00    -0.002 A 
ATOM      2  C1  UNL d   1      -2.519   2.257   0.335  0.00  0.00     0.010 A 
ATOM      3  C2  UNL d   1      -3.459   2.389  -0.689  0.00  0.00     0.041 A 
ATOM      4  C3  UNL d   1      -3.572   1.362  -1.647  0.00  0.00    -0.075 A 
ATOM      5  S   UNL d   1      -4.653   1.307  -2.989  0.00  0.00     0.015 SA
ATOM      6  C4  UNL d   1      -4.065  -0.210  -3.496  0.00  0.00     0.022 A 
ATOM      7  C5  UNL d   1      -3.069  -0.678  -2.672  0.00  0.00     0.026 A 
ATOM      8  C6  UNL d   1      -2.768   0.220  -1.593  0.00  0.00    -0.082 A 
ATOM      9  C7  UNL d   1      -1.825   0.116  -0.543  0.00  0.00     0.045 A 
ENDROOT
TORSDOF 0
ENDMDL
