MODEL 1
REMARK minimizedAffinity 14.9443426
REMARK minimizedRMSD -1
REMARK  0 active torsions:
REMARK  status: ('A' for Active; 'I' for Inactive)
ROOT
ATOM      1  C   UNL d   1      -1.933   1.895   1.215  0.00  0.00    -0.002 A 
ATOM      2  C1  UNL d   1      -2.622   3.047   0.862  0.00  0.00     0.010 A 
ATOM      3  C2  UNL d   1      -3.356   3.101  -0.324  0.00  0.00     0.041 A 
ATOM      4  C3  UNL d   1      -3.387   1.966  -1.158  0.00  0.00    -0.075 A 
ATOM      5  S   UNL d   1      -4.220   1.801  -2.659  0.00  0.00     0.015 SA
ATOM      6  C4  UNL d   1      -3.681   0.198  -2.867  0.00  0.00     0.022 A 
ATOM      7  C5  UNL d   1      -2.885  -0.218  -1.827  0.00  0.00     0.026 A 
ATOM      8  C6  UNL d   1      -2.702   0.794  -0.825  0.00  0.00    -0.082 A 
ATOM      9  C7  UNL d   1      -1.967   0.771   0.385  0.00  0.00     0.045 A 
ENDROOT
TORSDOF 0
ENDMDL
