MODEL 1
REMARK minimizedAffinity 12.2557821
REMARK minimizedRMSD -1
REMARK  0 active torsions:
REMARK  status: ('A' for Active; 'I' for Inactive)
ROOT
ATOM      1  C   UNL d   1       1.896  -1.506   1.298  0.00  0.00    -0.002 A 
ATOM      2  C1  UNL d   1       1.333  -0.249   1.467  0.00  0.00     0.010 A 
ATOM      3  C2  UNL d   1       0.942   0.189   2.734  0.00  0.00     0.041 A 
ATOM      4  C3  UNL d   1       1.130  -0.665   3.839  0.00  0.00    -0.075 A 
ATOM      5  S   UNL d   1       0.728  -0.341   5.483  0.00  0.00     0.015 SA
ATOM      6  C4  UNL d   1       1.295  -1.863   6.000  0.00  0.00     0.022 A 
ATOM      7  C5  UNL d   1       1.782  -2.613   4.956  0.00  0.00     0.026 A 
ATOM      8  C6  UNL d   1       1.695  -1.935   3.693  0.00  0.00    -0.082 A 
ATOM      9  C7  UNL d   1       2.081  -2.351   2.396  0.00  0.00     0.045 A 
ENDROOT
TORSDOF 0
ENDMDL
