MODEL 1
REMARK minimizedAffinity -3.39964271
REMARK minimizedRMSD -1
REMARK  0 active torsions:
REMARK  status: ('A' for Active; 'I' for Inactive)
ROOT
ATOM      1  C4' PXY d   1       2.732  -3.985   1.135  0.00  0.00     0.077 C 
ATOM      2  C1' PXY d   1      -1.131   0.291   1.592  0.00  0.00     0.077 C 
ATOM      3  C1  PXY d   1      -0.117  -0.829   1.459  0.00  0.00    -0.082 A 
ATOM      4  C2  PXY d   1      -0.074  -1.783   2.374  0.00  0.00     0.003 A 
ATOM      5  C3  PXY d   1       0.858  -2.786   2.286  0.00  0.00     0.003 A 
ATOM      6  C4  PXY d   1       1.719  -2.840   1.223  0.00  0.00    -0.082 A 
ATOM      7  C5  PXY d   1       1.674  -1.876   0.280  0.00  0.00     0.003 A 
ATOM      8  C6  PXY d   1       0.748  -0.844   0.409  0.00  0.00     0.003 A 
ENDROOT
TORSDOF 0
ENDMDL
