MODEL 1
REMARK minimizedAffinity 6.19936132
REMARK minimizedRMSD -1
REMARK  0 active torsions:
REMARK  status: ('A' for Active; 'I' for Inactive)
ROOT
ATOM      1  C4' PXY d   1       1.448  -1.050  -0.432  0.00  0.00     0.077 C 
ATOM      2  C1' PXY d   1       4.438  -5.811   0.911  0.00  0.00     0.077 C 
ATOM      3  C1  PXY d   1       3.643  -4.568   0.562  0.00  0.00    -0.082 A 
ATOM      4  C2  PXY d   1       4.112  -3.723  -0.341  0.00  0.00     0.003 A 
ATOM      5  C3  PXY d   1       3.422  -2.578  -0.645  0.00  0.00     0.003 A 
ATOM      6  C4  PXY d   1       2.212  -2.322  -0.056  0.00  0.00    -0.082 A 
ATOM      7  C5  PXY d   1       1.722  -3.185   0.859  0.00  0.00     0.003 A 
ATOM      8  C6  PXY d   1       2.458  -4.320   1.183  0.00  0.00     0.003 A 
ENDROOT
TORSDOF 0
ENDMDL
