MODEL 1
REMARK minimizedAffinity 1.72925508
REMARK minimizedRMSD -1
REMARK  0 active torsions:
REMARK  status: ('A' for Active; 'I' for Inactive)
ROOT
ATOM      1  C4' PXY d   1       5.852  -2.021  -1.125  0.00  0.00     0.077 C 
ATOM      2  C1' PXY d   1       1.406  -4.604   1.517  0.00  0.00     0.077 C 
ATOM      3  C1  PXY d   1       2.564  -3.920   0.817  0.00  0.00    -0.082 A 
ATOM      4  C2  PXY d   1       3.748  -4.508   0.784  0.00  0.00     0.003 A 
ATOM      5  C3  PXY d   1       4.814  -3.889   0.183  0.00  0.00     0.003 A 
ATOM      6  C4  PXY d   1       4.652  -2.679  -0.438  0.00  0.00    -0.082 A 
ATOM      7  C5  PXY d   1       3.444  -2.078  -0.418  0.00  0.00     0.003 A 
ATOM      8  C6  PXY d   1       2.385  -2.704   0.233  0.00  0.00     0.003 A 
ENDROOT
TORSDOF 0
ENDMDL
