MODEL 1
REMARK minimizedAffinity 0.639238119
REMARK minimizedRMSD -1
REMARK  0 active torsions:
REMARK  status: ('A' for Active; 'I' for Inactive)
ROOT
ATOM      1  C4' PXY d   1       1.348  -1.545   0.034  0.00  0.00     0.077 C 
ATOM      2  C1' PXY d   1      -3.733   0.146   2.211  0.00  0.00     0.077 C 
ATOM      3  C1  PXY d   1      -2.395  -0.297   1.652  0.00  0.00    -0.082 A 
ATOM      4  C2  PXY d   1      -2.107  -0.065   0.382  0.00  0.00     0.003 A 
ATOM      5  C3  PXY d   1      -0.915  -0.487  -0.148  0.00  0.00     0.003 A 
ATOM      6  C4  PXY d   1       0.014  -1.107   0.644  0.00  0.00    -0.082 A 
ATOM      7  C5  PXY d   1      -0.268  -1.338   1.943  0.00  0.00     0.003 A 
ATOM      8  C6  PXY d   1      -1.500  -0.938   2.452  0.00  0.00     0.003 A 
ENDROOT
TORSDOF 0
ENDMDL
