MODEL 1
REMARK minimizedAffinity 2.59373879
REMARK minimizedRMSD -1
REMARK  0 active torsions:
REMARK  status: ('A' for Active; 'I' for Inactive)
ROOT
ATOM      1  C4' PXY d   1       2.323  -3.206   0.558  0.00  0.00     0.077 C 
ATOM      2  C1' PXY d   1      -1.751   0.532   2.240  0.00  0.00     0.077 C 
ATOM      3  C1  PXY d   1      -0.686  -0.446   1.787  0.00  0.00    -0.082 A 
ATOM      4  C2  PXY d   1      -0.256  -1.378   2.622  0.00  0.00     0.003 A 
ATOM      5  C3  PXY d   1       0.730  -2.251   2.238  0.00  0.00     0.003 A 
ATOM      6  C4  PXY d   1       1.243  -2.203   0.970  0.00  0.00    -0.082 A 
ATOM      7  C5  PXY d   1       0.801  -1.262   0.109  0.00  0.00     0.003 A 
ATOM      8  C6  PXY d   1      -0.171  -0.359   0.531  0.00  0.00     0.003 A 
ENDROOT
TORSDOF 0
ENDMDL
