MODEL 1
REMARK minimizedAffinity -5.1528182
REMARK minimizedRMSD -1
REMARK  0 active torsions:
REMARK  status: ('A' for Active; 'I' for Inactive)
ROOT
ATOM      1  C4' PXY d   1       3.117  -3.429   1.160  0.00  0.00     0.077 C 
ATOM      2  C1' PXY d   1      -1.370   0.199   1.497  0.00  0.00     0.077 C 
ATOM      3  C1  PXY d   1      -0.196  -0.755   1.396  0.00  0.00    -0.082 A 
ATOM      4  C2  PXY d   1       0.243  -1.368   2.482  0.00  0.00     0.003 A 
ATOM      5  C3  PXY d   1       1.324  -2.209   2.415  0.00  0.00     0.003 A 
ATOM      6  C4  PXY d   1       1.929  -2.466   1.213  0.00  0.00    -0.082 A 
ATOM      7  C5  PXY d   1       1.479  -1.851   0.098  0.00  0.00     0.003 A 
ATOM      8  C6  PXY d   1       0.407  -0.970   0.195  0.00  0.00     0.003 A 
ENDROOT
TORSDOF 0
ENDMDL
