MODEL 1
REMARK minimizedAffinity 2.40565777
REMARK minimizedRMSD -1
REMARK  0 active torsions:
REMARK  status: ('A' for Active; 'I' for Inactive)
ROOT
ATOM      1  C4' PXY d   1      -1.210   0.041   1.088  0.00  0.00     0.077 C 
ATOM      2  C1' PXY d   1       3.036  -3.862   0.698  0.00  0.00     0.077 C 
ATOM      3  C1  PXY d   1       1.930  -2.830   0.793  0.00  0.00    -0.082 A 
ATOM      4  C2  PXY d   1       1.067  -2.886   1.795  0.00  0.00     0.003 A 
ATOM      5  C3  PXY d   1       0.041  -1.980   1.878  0.00  0.00     0.003 A 
ATOM      6  C4  PXY d   1      -0.072  -0.974   0.957  0.00  0.00    -0.082 A 
ATOM      7  C5  PXY d   1       0.811  -0.903  -0.062  0.00  0.00     0.003 A 
ATOM      8  C6  PXY d   1       1.821  -1.857  -0.152  0.00  0.00     0.003 A 
ENDROOT
TORSDOF 0
ENDMDL
