MODEL 1
REMARK minimizedAffinity 4.54758406
REMARK minimizedRMSD -1
REMARK  0 active torsions:
REMARK  status: ('A' for Active; 'I' for Inactive)
ROOT
ATOM      1  C4' PXY d   1       0.525  -1.043   0.168  0.00  0.00     0.077 C 
ATOM      2  C1' PXY d   1      -4.485   0.626   2.520  0.00  0.00     0.077 C 
ATOM      3  C1  PXY d   1      -3.177   0.180   1.895  0.00  0.00    -0.082 A 
ATOM      4  C2  PXY d   1      -2.054   0.283   2.586  0.00  0.00     0.003 A 
ATOM      5  C3  PXY d   1      -0.858  -0.086   2.025  0.00  0.00     0.003 A 
ATOM      6  C4  PXY d   1      -0.819  -0.614   0.763  0.00  0.00    -0.082 A 
ATOM      7  C5  PXY d   1      -1.963  -0.731   0.055  0.00  0.00     0.003 A 
ATOM      8  C6  PXY d   1      -3.160  -0.313   0.627  0.00  0.00     0.003 A 
ENDROOT
TORSDOF 0
ENDMDL
