MODEL 1
REMARK minimizedAffinity 3.16561532
REMARK minimizedRMSD -1
REMARK  0 active torsions:
REMARK  status: ('A' for Active; 'I' for Inactive)
ROOT
ATOM      1  C4' PXY d   1      -1.076  -3.718   3.813  0.00  0.00     0.077 C 
ATOM      2  C1' PXY d   1       3.282  -3.469   0.024  0.00  0.00     0.077 C 
ATOM      3  C1  PXY d   1       2.139  -3.547   1.016  0.00  0.00    -0.082 A 
ATOM      4  C2  PXY d   1       1.326  -2.514   1.160  0.00  0.00     0.003 A 
ATOM      5  C3  PXY d   1       0.306  -2.556   2.076  0.00  0.00     0.003 A 
ATOM      6  C4  PXY d   1       0.085  -3.687   2.815  0.00  0.00    -0.082 A 
ATOM      7  C5  PXY d   1       0.905  -4.749   2.667  0.00  0.00     0.003 A 
ATOM      8  C6  PXY d   1       1.959  -4.671   1.761  0.00  0.00     0.003 A 
ENDROOT
TORSDOF 0
ENDMDL
