MODEL 1
REMARK minimizedAffinity 5.52313471
REMARK minimizedRMSD -1
REMARK  0 active torsions:
REMARK  status: ('A' for Active; 'I' for Inactive)
ROOT
ATOM      1  C   UNL d   1      -0.475   1.442  -2.100  0.00  0.00     0.078 C 
ATOM      2  C1  UNL d   1      -1.929   1.798  -2.026  0.00  0.00    -0.077 A 
ATOM      3  C2  UNL d   1      -2.375   3.082  -2.362  0.00  0.00    -0.001 A 
ATOM      4  C3  UNL d   1      -3.731   3.402  -2.279  0.00  0.00     0.003 A 
ATOM      5  C4  UNL d   1      -4.652   2.444  -1.861  0.00  0.00    -0.005 A 
ATOM      6  C5  UNL d   1      -4.218   1.164  -1.523  0.00  0.00     0.003 A 
ATOM      7  C6  UNL d   1      -2.862   0.842  -1.605  0.00  0.00    -0.001 A 
ENDROOT
TORSDOF 0
ENDMDL
