MODEL 1
REMARK minimizedAffinity 0.717494011
REMARK minimizedRMSD -1
REMARK  0 active torsions:
REMARK  status: ('A' for Active; 'I' for Inactive)
ROOT
ATOM      1  C   UNL d   1       0.346  -4.559  -0.926  0.00  0.00     0.078 C 
ATOM      2  C1  UNL d   1      -0.578  -3.773  -1.808  0.00  0.00    -0.077 A 
ATOM      3  C2  UNL d   1      -0.891  -4.214  -3.100  0.00  0.00    -0.001 A 
ATOM      4  C3  UNL d   1      -1.745  -3.468  -3.913  0.00  0.00     0.003 A 
ATOM      5  C4  UNL d   1      -2.292  -2.275  -3.445  0.00  0.00    -0.005 A 
ATOM      6  C5  UNL d   1      -1.985  -1.827  -2.162  0.00  0.00     0.003 A 
ATOM      7  C6  UNL d   1      -1.131  -2.572  -1.347  0.00  0.00    -0.001 A 
ENDROOT
TORSDOF 0
ENDMDL
