MODEL 1
REMARK minimizedAffinity 1.43710637
REMARK minimizedRMSD -1
REMARK  0 active torsions:
REMARK  status: ('A' for Active; 'I' for Inactive)
ROOT
ATOM      1  C   UNL d   1       1.451  -1.117   4.030  0.00  0.00     0.078 C 
ATOM      2  C1  UNL d   1       0.808   0.006   3.272  0.00  0.00    -0.077 A 
ATOM      3  C2  UNL d   1       1.497   0.676   2.253  0.00  0.00    -0.001 A 
ATOM      4  C3  UNL d   1       0.889   1.726   1.563  0.00  0.00     0.003 A 
ATOM      5  C4  UNL d   1      -0.409   2.117   1.885  0.00  0.00    -0.005 A 
ATOM      6  C5  UNL d   1      -1.101   1.458   2.899  0.00  0.00     0.003 A 
ATOM      7  C6  UNL d   1      -0.495   0.408   3.591  0.00  0.00    -0.001 A 
ENDROOT
TORSDOF 0
ENDMDL
