MODEL 1
REMARK minimizedAffinity -0.11831481
REMARK minimizedRMSD -1
REMARK  0 active torsions:
REMARK  status: ('A' for Active; 'I' for Inactive)
ROOT
ATOM      1  C   UNL d   1       3.657  -1.824  -1.089  0.00  0.00     0.078 C 
ATOM      2  C1  UNL d   1       4.279  -3.138  -1.456  0.00  0.00    -0.077 A 
ATOM      3  C2  UNL d   1       3.909  -3.808  -2.628  0.00  0.00    -0.001 A 
ATOM      4  C3  UNL d   1       4.488  -5.036  -2.953  0.00  0.00     0.003 A 
ATOM      5  C4  UNL d   1       5.441  -5.604  -2.109  0.00  0.00    -0.005 A 
ATOM      6  C5  UNL d   1       5.814  -4.946  -0.940  0.00  0.00     0.003 A 
ATOM      7  C6  UNL d   1       5.235  -3.718  -0.613  0.00  0.00    -0.001 A 
ENDROOT
TORSDOF 0
ENDMDL
