MODEL 1
REMARK minimizedAffinity 5.52910233
REMARK minimizedRMSD -1
REMARK  0 active torsions:
REMARK  status: ('A' for Active; 'I' for Inactive)
ROOT
ATOM      1  C   UNL d   1      -5.983  -2.246   5.736  0.00  0.00     0.078 C 
ATOM      2  C1  UNL d   1      -5.322  -1.669   4.520  0.00  0.00    -0.077 A 
ATOM      3  C2  UNL d   1      -4.023  -2.047   4.157  0.00  0.00    -0.001 A 
ATOM      4  C3  UNL d   1      -3.417  -1.495   3.028  0.00  0.00     0.003 A 
ATOM      5  C4  UNL d   1      -4.100  -0.559   2.253  0.00  0.00    -0.005 A 
ATOM      6  C5  UNL d   1      -5.392  -0.175   2.608  0.00  0.00     0.003 A 
ATOM      7  C6  UNL d   1      -6.000  -0.727   3.737  0.00  0.00    -0.001 A 
ENDROOT
TORSDOF 0
ENDMDL
