MODEL 1
REMARK minimizedAffinity -3.19025135
REMARK minimizedRMSD -1
REMARK  0 active torsions:
REMARK  status: ('A' for Active; 'I' for Inactive)
ROOT
ATOM      1  C   UNL d   1       0.520   0.650  -1.968  0.00  0.00     0.078 C 
ATOM      2  C1  UNL d   1       0.543   1.139  -0.551  0.00  0.00    -0.077 A 
ATOM      3  C2  UNL d   1       0.580   2.508  -0.261  0.00  0.00    -0.001 A 
ATOM      4  C3  UNL d   1       0.611   2.949   1.064  0.00  0.00     0.003 A 
ATOM      5  C4  UNL d   1       0.606   2.027   2.108  0.00  0.00    -0.005 A 
ATOM      6  C5  UNL d   1       0.572   0.662   1.829  0.00  0.00     0.003 A 
ATOM      7  C6  UNL d   1       0.541   0.220   0.506  0.00  0.00    -0.001 A 
ENDROOT
TORSDOF 0
ENDMDL
