MODEL 1
REMARK minimizedAffinity -2.49188495
REMARK minimizedRMSD -1
REMARK  0 active torsions:
REMARK  status: ('A' for Active; 'I' for Inactive)
ROOT
ATOM      1  C   UNL d   1       1.518  -2.427   0.993  0.00  0.00     0.020 A 
ATOM      2  C1  UNL d   1       0.134  -2.392   0.830  0.00  0.00     0.020 A 
ATOM      3  C2  UNL d   1      -0.484  -1.231   0.359  0.00  0.00     0.034 A 
ATOM      4  C3  UNL d   1       0.282  -0.101   0.051  0.00  0.00     0.017 A 
ATOM      5  C4  UNL d   1       1.672  -0.138   0.216  0.00  0.00     0.017 A 
ATOM      6  C5  UNL d   1       2.285  -1.303   0.687  0.00  0.00     0.034 A 
ATOM      7 Cl   UNL d   1       2.683   1.217  -0.143  0.00  0.00    -0.070 Cl
ATOM      8 Cl1  UNL d   1      -0.548   1.300  -0.526  0.00  0.00    -0.070 Cl
ENDROOT
TORSDOF 0
ENDMDL
