MODEL 1
REMARK minimizedAffinity -4.28341532
REMARK minimizedRMSD -1
REMARK  0 active torsions:
REMARK  status: ('A' for Active; 'I' for Inactive)
ROOT
ATOM      1  C   UNL d   1       0.155   0.814   0.176  0.00  0.00     0.020 A 
ATOM      2  C1  UNL d   1       1.432   0.313  -0.069  0.00  0.00     0.020 A 
ATOM      3  C2  UNL d   1       1.747  -1.001   0.284  0.00  0.00     0.034 A 
ATOM      4  C3  UNL d   1       0.782  -1.818   0.885  0.00  0.00     0.017 A 
ATOM      5  C4  UNL d   1      -0.500  -1.314   1.131  0.00  0.00     0.017 A 
ATOM      6  C5  UNL d   1      -0.810   0.002   0.775  0.00  0.00     0.034 A 
ATOM      7 Cl   UNL d   1      -1.743  -2.262   1.868  0.00  0.00    -0.070 Cl
ATOM      8 Cl1  UNL d   1       1.240  -3.433   1.295  0.00  0.00    -0.070 Cl
ENDROOT
TORSDOF 0
ENDMDL
