MODEL 1
REMARK minimizedAffinity -4.12555981
REMARK minimizedRMSD -1
REMARK  0 active torsions:
REMARK  status: ('A' for Active; 'I' for Inactive)
ROOT
ATOM      1  C   UNL d   1      -0.005  -2.283   1.083  0.00  0.00     0.020 A 
ATOM      2  C1  UNL d   1       1.357  -2.529   0.912  0.00  0.00     0.020 A 
ATOM      3  C2  UNL d   1       2.183  -1.537   0.379  0.00  0.00     0.034 A 
ATOM      4  C3  UNL d   1       1.649  -0.295   0.016  0.00  0.00     0.017 A 
ATOM      5  C4  UNL d   1       0.282  -0.050   0.189  0.00  0.00     0.017 A 
ATOM      6  C5  UNL d   1      -0.541  -1.047   0.723  0.00  0.00     0.034 A 
ATOM      7 Cl   UNL d   1      -0.451   1.457  -0.235  0.00  0.00    -0.070 Cl
ATOM      8 Cl1  UNL d   1       2.729   0.885  -0.636  0.00  0.00    -0.070 Cl
ENDROOT
TORSDOF 0
ENDMDL
