MODEL 1
REMARK minimizedAffinity -1.42443311
REMARK minimizedRMSD -1
REMARK  0 active torsions:
REMARK  status: ('A' for Active; 'I' for Inactive)
ROOT
ATOM      1  C   UNL d   1       1.351  -2.150   1.145  0.00  0.00     0.020 A 
ATOM      2  C1  UNL d   1      -0.041  -2.072   1.141  0.00  0.00     0.020 A 
ATOM      3  C2  UNL d   1      -0.683  -1.105   0.365  0.00  0.00     0.034 A 
ATOM      4  C3  UNL d   1       0.066  -0.213  -0.411  0.00  0.00     0.017 A 
ATOM      5  C4  UNL d   1       1.463  -0.293  -0.407  0.00  0.00     0.017 A 
ATOM      6  C5  UNL d   1       2.102  -1.263   0.372  0.00  0.00     0.034 A 
ATOM      7 Cl   UNL d   1       2.456   0.773  -1.338  0.00  0.00    -0.070 Cl
ATOM      8 Cl1  UNL d   1      -0.795   0.956  -1.348  0.00  0.00    -0.070 Cl
ENDROOT
TORSDOF 0
ENDMDL
