MODEL 1
REMARK minimizedAffinity -6.19982529
REMARK minimizedRMSD -1
REMARK  0 active torsions:
REMARK  status: ('A' for Active; 'I' for Inactive)
ROOT
ATOM      1  C   UNL d   1      -0.170  -2.209   2.467  0.00  0.00     0.020 A 
ATOM      2  C1  UNL d   1       1.020  -2.768   2.004  0.00  0.00     0.020 A 
ATOM      3  C2  UNL d   1       1.707  -2.171   0.946  0.00  0.00     0.034 A 
ATOM      4  C3  UNL d   1       1.204  -1.010   0.346  0.00  0.00     0.017 A 
ATOM      5  C4  UNL d   1       0.009  -0.450   0.811  0.00  0.00     0.017 A 
ATOM      6  C5  UNL d   1      -0.674  -1.052   1.872  0.00  0.00     0.034 A 
ATOM      7 Cl   UNL d   1      -0.673   0.981   0.122  0.00  0.00    -0.070 Cl
ATOM      8 Cl1  UNL d   1       2.106  -0.325  -0.959  0.00  0.00    -0.070 Cl
ENDROOT
TORSDOF 0
ENDMDL
