MODEL 1
REMARK minimizedAffinity -5.37861586
REMARK minimizedRMSD -1
REMARK  0 active torsions:
REMARK  status: ('A' for Active; 'I' for Inactive)
ROOT
ATOM      1  C   UNL d   1       0.443   1.101  -0.563  0.00  0.00     0.020 A 
ATOM      2  C1  UNL d   1       1.692   0.547  -0.840  0.00  0.00     0.020 A 
ATOM      3  C2  UNL d   1       2.049  -0.684  -0.284  0.00  0.00     0.034 A 
ATOM      4  C3  UNL d   1       1.156  -1.364   0.551  0.00  0.00     0.017 A 
ATOM      5  C4  UNL d   1      -0.098  -0.808   0.828  0.00  0.00     0.017 A 
ATOM      6  C5  UNL d   1      -0.450   0.425   0.269  0.00  0.00     0.034 A 
ATOM      7 Cl   UNL d   1      -1.254  -1.589   1.848  0.00  0.00    -0.070 Cl
ATOM      8 Cl1  UNL d   1       1.663  -2.882   1.203  0.00  0.00    -0.070 Cl
ENDROOT
TORSDOF 0
ENDMDL
