MODEL 1
REMARK minimizedAffinity -3.88539863
REMARK minimizedRMSD -1
REMARK  0 active torsions:
REMARK  status: ('A' for Active; 'I' for Inactive)
ROOT
ATOM      1  C   UNL d   1      -1.101   0.483   0.405  0.00  0.00     0.020 A 
ATOM      2  C1  UNL d   1      -0.633   1.440  -0.493  0.00  0.00     0.020 A 
ATOM      3  C2  UNL d   1       0.625   1.291  -1.081  0.00  0.00     0.034 A 
ATOM      4  C3  UNL d   1       1.419   0.181  -0.770  0.00  0.00     0.017 A 
ATOM      5  C4  UNL d   1       0.949  -0.780   0.132  0.00  0.00     0.017 A 
ATOM      6  C5  UNL d   1      -0.312  -0.625   0.717  0.00  0.00     0.034 A 
ATOM      7 Cl   UNL d   1       1.871  -2.176   0.565  0.00  0.00    -0.070 Cl
ATOM      8 Cl1  UNL d   1       2.964   0.060  -1.534  0.00  0.00    -0.070 Cl
ENDROOT
TORSDOF 0
ENDMDL
