MODEL 1
REMARK minimizedAffinity -3.59259391
REMARK minimizedRMSD -1
REMARK  0 active torsions:
REMARK  status: ('A' for Active; 'I' for Inactive)
ROOT
ATOM      1  C   UNL d   1      -2.699   1.660  -2.471  0.00  0.00     0.020 A 
ATOM      2  C1  UNL d   1      -1.516   1.368  -3.150  0.00  0.00     0.020 A 
ATOM      3  C2  UNL d   1      -0.375   0.997  -2.436  0.00  0.00     0.034 A 
ATOM      4  C3  UNL d   1      -0.413   0.917  -1.039  0.00  0.00     0.017 A 
ATOM      5  C4  UNL d   1      -1.601   1.210  -0.359  0.00  0.00     0.017 A 
ATOM      6  C5  UNL d   1      -2.741   1.581  -1.078  0.00  0.00     0.034 A 
ATOM      7 Cl   UNL d   1      -1.725   1.132   1.364  0.00  0.00    -0.070 Cl
ATOM      8 Cl1  UNL d   1       1.036   0.451  -0.221  0.00  0.00    -0.070 Cl
ENDROOT
TORSDOF 0
ENDMDL
