MODEL 1
REMARK minimizedAffinity -4.82397461
REMARK minimizedRMSD -1
REMARK  0 active torsions:
REMARK  status: ('A' for Active; 'I' for Inactive)
ROOT
ATOM      1  C   UNL d   1       0.011  -2.488   1.614  0.00  0.00     0.020 A 
ATOM      2  C1  UNL d   1       1.294  -2.940   1.306  0.00  0.00     0.020 A 
ATOM      3  C2  UNL d   1       2.122  -2.179   0.479  0.00  0.00     0.034 A 
ATOM      4  C3  UNL d   1       1.670  -0.962  -0.043  0.00  0.00     0.017 A 
ATOM      5  C4  UNL d   1       0.382  -0.509   0.267  0.00  0.00     0.017 A 
ATOM      6  C5  UNL d   1      -0.443  -1.275   1.095  0.00  0.00     0.034 A 
ATOM      7 Cl   UNL d   1      -0.246   0.983  -0.339  0.00  0.00    -0.070 Cl
ATOM      8 Cl1  UNL d   1       2.748  -0.072  -1.058  0.00  0.00    -0.070 Cl
ENDROOT
TORSDOF 0
ENDMDL
