MODEL 1
REMARK minimizedAffinity -1.02607679
REMARK minimizedRMSD -1
REMARK  0 active torsions:
REMARK  status: ('A' for Active; 'I' for Inactive)
ROOT
ATOM      1  C   UNL d   1      -0.082  -3.181   0.258  0.00  0.00     0.020 A 
ATOM      2  C1  UNL d   1       1.195  -2.905  -0.229  0.00  0.00     0.020 A 
ATOM      3  C2  UNL d   1       1.665  -1.591  -0.248  0.00  0.00     0.034 A 
ATOM      4  C3  UNL d   1       0.859  -0.547   0.220  0.00  0.00     0.017 A 
ATOM      5  C4  UNL d   1      -0.423  -0.825   0.709  0.00  0.00     0.017 A 
ATOM      6  C5  UNL d   1      -0.889  -2.143   0.726  0.00  0.00     0.034 A 
ATOM      7 Cl   UNL d   1      -1.476   0.409   1.304  0.00  0.00    -0.070 Cl
ATOM      8 Cl1  UNL d   1       1.506   1.054   0.167  0.00  0.00    -0.070 Cl
ENDROOT
TORSDOF 0
ENDMDL
