MODEL 1
REMARK minimizedAffinity -1.54618096
REMARK minimizedRMSD -1
REMARK  0 active torsions:
REMARK  status: ('A' for Active; 'I' for Inactive)
ROOT
ATOM      1  C   UNL d   1       1.367  -2.579   0.120  0.00  0.00     0.020 A 
ATOM      2  C1  UNL d   1      -0.020  -2.623   0.248  0.00  0.00     0.020 A 
ATOM      3  C2  UNL d   1      -0.756  -1.436   0.284  0.00  0.00     0.034 A 
ATOM      4  C3  UNL d   1      -0.105  -0.201   0.192  0.00  0.00     0.017 A 
ATOM      5  C4  UNL d   1       1.288  -0.158   0.063  0.00  0.00     0.017 A 
ATOM      6  C5  UNL d   1       2.020  -1.349   0.028  0.00  0.00     0.034 A 
ATOM      7 Cl   UNL d   1       2.163   1.328  -0.056  0.00  0.00    -0.070 Cl
ATOM      8 Cl1  UNL d   1      -1.077   1.226   0.243  0.00  0.00    -0.070 Cl
ENDROOT
TORSDOF 0
ENDMDL
