MODEL 1
REMARK minimizedAffinity -4.29818726
REMARK minimizedRMSD -1
REMARK  0 active torsions:
REMARK  status: ('A' for Active; 'I' for Inactive)
ROOT
ATOM      1  C   UNL d   1      -0.418  -2.538   1.601  0.00  0.00     0.020 A 
ATOM      2  C1  UNL d   1       0.862  -3.016   1.321  0.00  0.00     0.020 A 
ATOM      3  C2  UNL d   1       1.753  -2.235   0.581  0.00  0.00     0.034 A 
ATOM      4  C3  UNL d   1       1.365  -0.972   0.118  0.00  0.00     0.017 A 
ATOM      5  C4  UNL d   1       0.080  -0.493   0.400  0.00  0.00     0.017 A 
ATOM      6  C5  UNL d   1      -0.808  -1.279   1.141  0.00  0.00     0.034 A 
ATOM      7 Cl   UNL d   1      -0.470   1.054  -0.138  0.00  0.00    -0.070 Cl
ATOM      8 Cl1  UNL d   1       2.518  -0.061  -0.791  0.00  0.00    -0.070 Cl
ENDROOT
TORSDOF 0
ENDMDL
