MODEL 1
REMARK minimizedAffinity -3.32707644
REMARK minimizedRMSD -1
REMARK  0 active torsions:
REMARK  status: ('A' for Active; 'I' for Inactive)
ROOT
ATOM      1  C   UNL d   1      -0.553   0.844   0.145  0.00  0.00     0.020 A 
ATOM      2  C1  UNL d   1      -1.326  -0.182   0.687  0.00  0.00     0.020 A 
ATOM      3  C2  UNL d   1      -0.775  -1.454   0.858  0.00  0.00     0.034 A 
ATOM      4  C3  UNL d   1       0.551  -1.703   0.488  0.00  0.00     0.017 A 
ATOM      5  C4  UNL d   1       1.326  -0.672  -0.056  0.00  0.00     0.017 A 
ATOM      6  C5  UNL d   1       0.769   0.600  -0.226  0.00  0.00     0.034 A 
ATOM      7 Cl   UNL d   1       2.970  -0.902  -0.537  0.00  0.00    -0.070 Cl
ATOM      8 Cl1  UNL d   1       1.167  -3.299   0.728  0.00  0.00    -0.070 Cl
ENDROOT
TORSDOF 0
ENDMDL
