MODEL 1
REMARK minimizedAffinity -5.04836082
REMARK minimizedRMSD -1
REMARK  0 active torsions:
REMARK  status: ('A' for Active; 'I' for Inactive)
ROOT
ATOM      1  C   UNL d   1       1.038   0.869  -0.593  0.00  0.00     0.020 A 
ATOM      2  C1  UNL d   1      -0.172   1.385  -0.131  0.00  0.00     0.020 A 
ATOM      3  C2  UNL d   1      -1.025   0.587   0.634  0.00  0.00     0.034 A 
ATOM      4  C3  UNL d   1      -0.671  -0.733   0.937  0.00  0.00     0.017 A 
ATOM      5  C4  UNL d   1       0.544  -1.250   0.472  0.00  0.00     0.017 A 
ATOM      6  C5  UNL d   1       1.395  -0.446  -0.292  0.00  0.00     0.034 A 
ATOM      7 Cl   UNL d   1       1.050  -2.869   0.807  0.00  0.00    -0.070 Cl
ATOM      8 Cl1  UNL d   1      -1.774  -1.663   1.887  0.00  0.00    -0.070 Cl
ENDROOT
TORSDOF 0
ENDMDL
