MODEL 1
REMARK minimizedAffinity -5.87999821
REMARK minimizedRMSD -1
REMARK  0 active torsions:
REMARK  status: ('A' for Active; 'I' for Inactive)
ROOT
ATOM      1  C1  DEN d   1       1.087  -1.465   0.617  0.00  0.00     0.130 A 
ATOM      2  C2  DEN d   1       0.585  -2.240   1.748  0.00  0.00    -0.031 A 
ATOM      3  C3  DEN d   1      -0.889  -2.153   1.743  0.00  0.00     0.027 A 
ATOM      4  C4  DEN d   1      -2.435  -0.902   0.101  0.00  0.00     0.027 A 
ATOM      5  C5  DEN d   1      -2.469  -0.094  -1.014  0.00  0.00    -0.003 A 
ATOM      6  C6  DEN d   1      -1.329   0.339  -1.638  0.00  0.00     0.001 A 
ATOM      7  C7  DEN d   1      -0.106  -0.073  -1.178  0.00  0.00     0.017 A 
ATOM      8  C8  DEN d   1      -0.063  -0.882  -0.050  0.00  0.00    -0.094 A 
ATOM      9  C9  DEN d   1      -1.227  -1.318   0.559  0.00  0.00    -0.072 A 
ENDROOT
TORSDOF 0
ENDMDL
