MODEL 1
REMARK minimizedAffinity -5.09791231
REMARK minimizedRMSD -1
REMARK  0 active torsions:
REMARK  status: ('A' for Active; 'I' for Inactive)
ROOT
ATOM      1  C1  DEN d   1       0.870  -0.042   0.348  0.00  0.00     0.130 A 
ATOM      2  C2  DEN d   1       1.428  -0.043  -1.002  0.00  0.00    -0.031 A 
ATOM      3  C3  DEN d   1       0.323  -0.276  -1.953  0.00  0.00     0.027 A 
ATOM      4  C4  DEN d   1      -2.186  -0.628  -1.470  0.00  0.00     0.027 A 
ATOM      5  C5  DEN d   1      -3.135  -0.722  -0.477  0.00  0.00    -0.003 A 
ATOM      6  C6  DEN d   1      -2.814  -0.631   0.852  0.00  0.00     0.001 A 
ATOM      7  C7  DEN d   1      -1.516  -0.394   1.221  0.00  0.00     0.017 A 
ATOM      8  C8  DEN d   1      -0.552  -0.306   0.226  0.00  0.00    -0.094 A 
ATOM      9  C9  DEN d   1      -0.899  -0.389  -1.112  0.00  0.00    -0.072 A 
ENDROOT
TORSDOF 0
ENDMDL
