MODEL 1
REMARK minimizedAffinity -4.54679871
REMARK minimizedRMSD -1
REMARK  0 active torsions:
REMARK  status: ('A' for Active; 'I' for Inactive)
ROOT
ATOM      1  C1  DEN d   1      -2.026  -1.111   0.756  0.00  0.00     0.130 A 
ATOM      2  C2  DEN d   1      -2.838  -0.625  -0.356  0.00  0.00    -0.031 A 
ATOM      3  C3  DEN d   1      -1.926  -0.219  -1.444  0.00  0.00     0.027 A 
ATOM      4  C4  DEN d   1       0.651  -0.299  -1.516  0.00  0.00     0.027 A 
ATOM      5  C5  DEN d   1       1.785  -0.623  -0.803  0.00  0.00    -0.003 A 
ATOM      6  C6  DEN d   1       1.729  -1.096   0.481  0.00  0.00     0.001 A 
ATOM      7  C7  DEN d   1       0.513  -1.302   1.077  0.00  0.00     0.017 A 
ATOM      8  C8  DEN d   1      -0.634  -0.970   0.367  0.00  0.00    -0.094 A 
ATOM      9  C9  DEN d   1      -0.557  -0.505  -0.934  0.00  0.00    -0.072 A 
ENDROOT
TORSDOF 0
ENDMDL
