MODEL 1
REMARK minimizedAffinity -1.74319601
REMARK minimizedRMSD -1
REMARK  0 active torsions:
REMARK  status: ('A' for Active; 'I' for Inactive)
ROOT
ATOM      1  C1  DEN d   1       0.457   0.270  -1.567  0.00  0.00     0.130 A 
ATOM      2  C2  DEN d   1       1.473   0.333  -0.520  0.00  0.00    -0.031 A 
ATOM      3  C3  DEN d   1       0.846  -0.082   0.751  0.00  0.00     0.027 A 
ATOM      4  C4  DEN d   1      -1.586  -0.817   1.196  0.00  0.00     0.027 A 
ATOM      5  C5  DEN d   1      -2.821  -1.019   0.620  0.00  0.00    -0.003 A 
ATOM      6  C6  DEN d   1      -3.056  -0.775  -0.707  0.00  0.00     0.001 A 
ATOM      7  C7  DEN d   1      -2.030  -0.358  -1.513  0.00  0.00     0.017 A 
ATOM      8  C8  DEN d   1      -0.784  -0.145  -0.938  0.00  0.00    -0.094 A 
ATOM      9  C9  DEN d   1      -0.563  -0.409   0.403  0.00  0.00    -0.072 A 
ENDROOT
TORSDOF 0
ENDMDL
