MODEL 1
REMARK minimizedAffinity -3.58570695
REMARK minimizedRMSD -1
REMARK  0 active torsions:
REMARK  status: ('A' for Active; 'I' for Inactive)
ROOT
ATOM      1  C1  DEN d   1       4.198   2.678  -2.267  0.00  0.00     0.130 A 
ATOM      2  C2  DEN d   1       4.878   3.971  -2.292  0.00  0.00    -0.031 A 
ATOM      3  C3  DEN d   1       4.585   4.665  -1.022  0.00  0.00     0.027 A 
ATOM      4  C4  DEN d   1       3.155   3.868   0.971  0.00  0.00     0.027 A 
ATOM      5  C5  DEN d   1       2.368   2.844   1.449  0.00  0.00    -0.003 A 
ATOM      6  C6  DEN d   1       2.109   1.717   0.714  0.00  0.00     0.001 A 
ATOM      7  C7  DEN d   1       2.680   1.567  -0.522  0.00  0.00     0.017 A 
ATOM      8  C8  DEN d   1       3.470   2.599  -1.013  0.00  0.00    -0.094 A 
ATOM      9  C9  DEN d   1       3.729   3.724  -0.250  0.00  0.00    -0.072 A 
ENDROOT
TORSDOF 0
ENDMDL
