MODEL 1
REMARK minimizedAffinity -6.41642523
REMARK minimizedRMSD -1
REMARK  0 active torsions:
REMARK  status: ('A' for Active; 'I' for Inactive)
ROOT
ATOM      1  C1  DEN d   1       4.130   2.554  -2.352  0.00  0.00     0.130 A 
ATOM      2  C2  DEN d   1       4.297   3.969  -2.670  0.00  0.00    -0.031 A 
ATOM      3  C3  DEN d   1       3.629   4.756  -1.614  0.00  0.00     0.027 A 
ATOM      4  C4  DEN d   1       2.363   3.925   0.473  0.00  0.00     0.027 A 
ATOM      5  C5  DEN d   1       1.947   2.807   1.163  0.00  0.00    -0.003 A 
ATOM      6  C6  DEN d   1       2.199   1.537   0.715  0.00  0.00     0.001 A 
ATOM      7  C7  DEN d   1       2.924   1.353  -0.432  0.00  0.00     0.017 A 
ATOM      8  C8  DEN d   1       3.340   2.475  -1.137  0.00  0.00    -0.094 A 
ATOM      9  C9  DEN d   1       3.087   3.751  -0.661  0.00  0.00    -0.072 A 
ENDROOT
TORSDOF 0
ENDMDL
