MODEL 1
REMARK minimizedAffinity -4.5612421
REMARK minimizedRMSD -1
REMARK  0 active torsions:
REMARK  status: ('A' for Active; 'I' for Inactive)
ROOT
ATOM      1  C1  DEN d   1      -3.001  -0.209  -1.030  0.00  0.00     0.130 A 
ATOM      2  C2  DEN d   1      -3.412  -0.789   0.246  0.00  0.00    -0.031 A 
ATOM      3  C3  DEN d   1      -2.227  -0.844   1.125  0.00  0.00     0.027 A 
ATOM      4  C4  DEN d   1       0.190  -0.086   0.640  0.00  0.00     0.027 A 
ATOM      5  C5  DEN d   1       1.026   0.459  -0.309  0.00  0.00    -0.003 A 
ATOM      6  C6  DEN d   1       0.590   0.785  -1.565  0.00  0.00     0.001 A 
ATOM      7  C7  DEN d   1      -0.729   0.611  -1.893  0.00  0.00     0.017 A 
ATOM      8  C8  DEN d   1      -1.576   0.056  -0.944  0.00  0.00    -0.094 A 
ATOM      9  C9  DEN d   1      -1.119  -0.256   0.325  0.00  0.00    -0.072 A 
ENDROOT
TORSDOF 0
ENDMDL
