MODEL 1
REMARK minimizedAffinity 0.354355276
REMARK minimizedRMSD -1
REMARK  0 active torsions:
REMARK  status: ('A' for Active; 'I' for Inactive)
ROOT
ATOM      1  C1  DEN d   1       1.161   0.242  -0.781  0.00  0.00     0.130 A 
ATOM      2  C2  DEN d   1       0.224  -0.296   0.201  0.00  0.00    -0.031 A 
ATOM      3  C3  DEN d   1       0.294   0.549   1.410  0.00  0.00     0.027 A 
ATOM      4  C4  DEN d   1       1.752   2.630   1.853  0.00  0.00     0.027 A 
ATOM      5  C5  DEN d   1       2.714   3.460   1.321  0.00  0.00    -0.003 A 
ATOM      6  C6  DEN d   1       3.245   3.258   0.075  0.00  0.00     0.001 A 
ATOM      7  C7  DEN d   1       2.786   2.226  -0.700  0.00  0.00     0.017 A 
ATOM      8  C8  DEN d   1       1.822   1.380  -0.168  0.00  0.00    -0.094 A 
ATOM      9  C9  DEN d   1       1.288   1.608   1.089  0.00  0.00    -0.072 A 
ENDROOT
TORSDOF 0
ENDMDL
