MODEL 1
REMARK minimizedAffinity -3.32045102
REMARK minimizedRMSD -1
REMARK  0 active torsions:
REMARK  status: ('A' for Active; 'I' for Inactive)
ROOT
ATOM      1  C1  DEN d   1       1.250  -0.475   0.834  0.00  0.00     0.130 A 
ATOM      2  C2  DEN d   1       2.193   0.549   0.392  0.00  0.00    -0.031 A 
ATOM      3  C3  DEN d   1       1.528   1.365  -0.644  0.00  0.00     0.027 A 
ATOM      4  C4  DEN d   1      -0.858   1.147  -1.598  0.00  0.00     0.027 A 
ATOM      5  C5  DEN d   1      -2.027   0.421  -1.542  0.00  0.00    -0.003 A 
ATOM      6  C6  DEN d   1      -2.173  -0.667  -0.722  0.00  0.00     0.001 A 
ATOM      7  C7  DEN d   1      -1.148  -1.032   0.110  0.00  0.00     0.017 A 
ATOM      8  C8  DEN d   1       0.037  -0.309   0.054  0.00  0.00    -0.094 A 
ATOM      9  C9  DEN d   1       0.160   0.794  -0.773  0.00  0.00    -0.072 A 
ENDROOT
TORSDOF 0
ENDMDL
