MODEL 1
REMARK minimizedAffinity -4.49469471
REMARK minimizedRMSD -1
REMARK  0 active torsions:
REMARK  status: ('A' for Active; 'I' for Inactive)
ROOT
ATOM      1  C1  DEN d   1      -2.816  -0.393  -1.101  0.00  0.00     0.130 A 
ATOM      2  C2  DEN d   1      -3.210  -0.871   0.222  0.00  0.00    -0.031 A 
ATOM      3  C3  DEN d   1      -2.024  -0.810   1.100  0.00  0.00     0.027 A 
ATOM      4  C4  DEN d   1       0.368  -0.023   0.545  0.00  0.00     0.027 A 
ATOM      5  C5  DEN d   1       1.188   0.461  -0.450  0.00  0.00    -0.003 A 
ATOM      6  C6  DEN d   1       0.743   0.661  -1.730  0.00  0.00     0.001 A 
ATOM      7  C7  DEN d   1      -0.569   0.418  -2.038  0.00  0.00     0.017 A 
ATOM      8  C8  DEN d   1      -1.400  -0.078  -1.041  0.00  0.00    -0.094 A 
ATOM      9  C9  DEN d   1      -0.934  -0.261   0.249  0.00  0.00    -0.072 A 
ENDROOT
TORSDOF 0
ENDMDL
