MODEL 1
REMARK minimizedAffinity -2.6472404
REMARK minimizedRMSD -1
REMARK  0 active torsions:
REMARK  status: ('A' for Active; 'I' for Inactive)
ROOT
ATOM      1  C1  DEN d   1      -2.204  -0.361   0.815  0.00  0.00     0.130 A 
ATOM      2  C2  DEN d   1      -3.038  -0.627  -0.354  0.00  0.00    -0.031 A 
ATOM      3  C3  DEN d   1      -2.193  -0.491  -1.558  0.00  0.00     0.027 A 
ATOM      4  C4  DEN d   1       0.312   0.099  -1.724  0.00  0.00     0.027 A 
ATOM      5  C5  DEN d   1       1.439   0.423  -1.002  0.00  0.00    -0.003 A 
ATOM      6  C6  DEN d   1       1.424   0.540   0.362  0.00  0.00     0.001 A 
ATOM      7  C7  DEN d   1       0.268   0.288   1.052  0.00  0.00     0.017 A 
ATOM      8  C8  DEN d   1      -0.875  -0.031   0.330  0.00  0.00    -0.094 A 
ATOM      9  C9  DEN d   1      -0.836  -0.157  -1.048  0.00  0.00    -0.072 A 
ENDROOT
TORSDOF 0
ENDMDL
