MODEL 1
REMARK minimizedAffinity -4.38989639
REMARK minimizedRMSD -1
REMARK  0 active torsions:
REMARK  status: ('A' for Active; 'I' for Inactive)
ROOT
ATOM      1  C1  DEN d   1       0.718  -0.216   1.499  0.00  0.00     0.130 A 
ATOM      2  C2  DEN d   1       1.811   0.557   0.916  0.00  0.00    -0.031 A 
ATOM      3  C3  DEN d   1       1.415   0.947  -0.453  0.00  0.00     0.027 A 
ATOM      4  C4  DEN d   1      -0.774   0.435  -1.717  0.00  0.00     0.027 A 
ATOM      5  C5  DEN d   1      -1.995  -0.199  -1.637  0.00  0.00    -0.003 A 
ATOM      6  C6  DEN d   1      -2.379  -0.906  -0.528  0.00  0.00     0.001 A 
ATOM      7  C7  DEN d   1      -1.554  -0.958   0.564  0.00  0.00     0.017 A 
ATOM      8  C8  DEN d   1      -0.319  -0.328   0.488  0.00  0.00    -0.094 A 
ATOM      9  C9  DEN d   1       0.047   0.392  -0.637  0.00  0.00    -0.072 A 
ENDROOT
TORSDOF 0
ENDMDL
