MODEL 1
REMARK minimizedAffinity -3.09802556
REMARK minimizedRMSD -1
REMARK  0 active torsions:
REMARK  status: ('A' for Active; 'I' for Inactive)
ROOT
ATOM      1  C1  DEN d   1      -2.484  -1.049   0.669  0.00  0.00     0.130 A 
ATOM      2  C2  DEN d   1      -3.357  -1.118  -0.499  0.00  0.00    -0.031 A 
ATOM      3  C3  DEN d   1      -2.614  -0.582  -1.657  0.00  0.00     0.027 A 
ATOM      4  C4  DEN d   1      -0.207   0.340  -1.754  0.00  0.00     0.027 A 
ATOM      5  C5  DEN d   1       0.922   0.612  -1.013  0.00  0.00    -0.003 A 
ATOM      6  C6  DEN d   1       0.982   0.383   0.336  0.00  0.00     0.001 A 
ATOM      7  C7  DEN d   1      -0.091  -0.175   0.978  0.00  0.00     0.017 A 
ATOM      8  C8  DEN d   1      -1.235  -0.446   0.239  0.00  0.00    -0.094 A 
ATOM      9  C9  DEN d   1      -1.272  -0.218  -1.126  0.00  0.00    -0.072 A 
ENDROOT
TORSDOF 0
ENDMDL
