MODEL 1
REMARK minimizedAffinity -3.37359619
REMARK minimizedRMSD -1
REMARK  0 active torsions:
REMARK  status: ('A' for Active; 'I' for Inactive)
ROOT
ATOM      1  C1  DEN d   1      -2.253  -0.650   1.086  0.00  0.00     0.130 A 
ATOM      2  C2  DEN d   1      -3.167  -0.562  -0.050  0.00  0.00    -0.031 A 
ATOM      3  C3  DEN d   1      -2.384  -0.157  -1.235  0.00  0.00     0.027 A 
ATOM      4  C4  DEN d   1       0.141   0.335  -1.421  0.00  0.00     0.027 A 
ATOM      5  C5  DEN d   1       1.326   0.405  -0.721  0.00  0.00    -0.003 A 
ATOM      6  C6  DEN d   1       1.394   0.163   0.625  0.00  0.00     0.001 A 
ATOM      7  C7  DEN d   1       0.264  -0.205   1.307  0.00  0.00     0.017 A 
ATOM      8  C8  DEN d   1      -0.935  -0.270   0.610  0.00  0.00    -0.094 A 
ATOM      9  C9  DEN d   1      -0.982  -0.033  -0.753  0.00  0.00    -0.072 A 
ENDROOT
TORSDOF 0
ENDMDL
