MODEL 1
REMARK minimizedAffinity -3.71011448
REMARK minimizedRMSD -1
REMARK  0 active torsions:
REMARK  status: ('A' for Active; 'I' for Inactive)
ROOT
ATOM      1  C1  DEN d   1       2.138   1.502  -0.361  0.00  0.00     0.130 A 
ATOM      2  C2  DEN d   1       2.688   1.279   0.974  0.00  0.00    -0.031 A 
ATOM      3  C3  DEN d   1       1.778   0.368   1.696  0.00  0.00     0.027 A 
ATOM      4  C4  DEN d   1      -0.416  -0.717   0.881  0.00  0.00     0.027 A 
ATOM      5  C5  DEN d   1      -1.294  -0.816  -0.175  0.00  0.00    -0.003 A 
ATOM      6  C6  DEN d   1      -1.110  -0.128  -1.345  0.00  0.00     0.001 A 
ATOM      7  C7  DEN d   1       0.003   0.655  -1.504  0.00  0.00     0.017 A 
ATOM      8  C8  DEN d   1       0.889   0.765  -0.441  0.00  0.00    -0.094 A 
ATOM      9  C9  DEN d   1       0.692   0.053   0.729  0.00  0.00    -0.072 A 
ENDROOT
TORSDOF 0
ENDMDL
