MODEL 1
REMARK minimizedAffinity -2.49309158
REMARK minimizedRMSD -1
REMARK  0 active torsions:
REMARK  status: ('A' for Active; 'I' for Inactive)
ROOT
ATOM      1  C1  DEN d   1       0.297  -0.214  -1.913  0.00  0.00     0.130 A 
ATOM      2  C2  DEN d   1       1.359   0.057  -0.947  0.00  0.00    -0.031 A 
ATOM      3  C3  DEN d   1       0.756   0.072   0.401  0.00  0.00     0.027 A 
ATOM      4  C4  DEN d   1      -1.703  -0.301   1.084  0.00  0.00     0.027 A 
ATOM      5  C5  DEN d   1      -2.973  -0.552   0.613  0.00  0.00    -0.003 A 
ATOM      6  C6  DEN d   1      -3.245  -0.674  -0.723  0.00  0.00     0.001 A 
ATOM      7  C7  DEN d   1      -2.226  -0.589  -1.635  0.00  0.00     0.017 A 
ATOM      8  C8  DEN d   1      -0.944  -0.328  -1.168  0.00  0.00    -0.094 A 
ATOM      9  C9  DEN d   1      -0.687  -0.220   0.188  0.00  0.00    -0.072 A 
ENDROOT
TORSDOF 0
ENDMDL
