MODEL 1
REMARK minimizedAffinity -2.73926401
REMARK minimizedRMSD -1
REMARK  1 active torsions:
REMARK  status: ('A' for Active; 'I' for Inactive)
REMARK    1  A    between atoms: C1_2  and  C2_3 
ROOT
ATOM      1  C2  UNL d   1       0.267   0.318  -0.530  0.00  0.00    -0.076 A 
ATOM      2  C3  UNL d   1       1.371  -0.018   0.273  0.00  0.00     0.004 A 
ATOM      3  C4  UNL d   1       1.310   0.094   1.661  0.00  0.00    -0.003 A 
ATOM      4  C5  UNL d   1       0.144   0.545   2.269  0.00  0.00     0.000 A 
ATOM      5  C6  UNL d   1      -0.967   0.867   1.489  0.00  0.00     0.000 A 
ATOM      6  C7  UNL d   1      -0.927   0.744   0.090  0.00  0.00    -0.073 A 
ATOM      7  C8  UNL d   1      -2.152   1.110  -0.702  0.00  0.00     0.078 C 
ENDROOT
BRANCH   1   8
ATOM      8  C1  UNL d   1       0.401   0.202  -2.031  0.00  0.00     0.053 C 
ATOM      9  C   UNL d   1       0.726  -1.215  -2.479  0.00  0.00     0.018 C 
ENDBRANCH   1   8
TORSDOF 1
ENDMDL
