MODEL 1
REMARK minimizedAffinity -2.91529083
REMARK minimizedRMSD -1
REMARK  1 active torsions:
REMARK  status: ('A' for Active; 'I' for Inactive)
REMARK    1  A    between atoms: C1_2  and  C2_3 
ROOT
ATOM      1  C2  UNL d   1       0.374   0.435  -0.455  0.00  0.00    -0.076 A 
ATOM      2  C3  UNL d   1       1.457   0.249   0.422  0.00  0.00     0.004 A 
ATOM      3  C4  UNL d   1       1.259   0.166   1.799  0.00  0.00    -0.003 A 
ATOM      4  C5  UNL d   1      -0.026   0.268   2.321  0.00  0.00     0.000 A 
ATOM      5  C6  UNL d   1      -1.113   0.436   1.465  0.00  0.00     0.000 A 
ATOM      6  C7  UNL d   1      -0.932   0.505   0.073  0.00  0.00    -0.073 A 
ATOM      7  C8  UNL d   1      -2.140   0.693  -0.803  0.00  0.00     0.078 C 
ENDROOT
BRANCH   1   8
ATOM      8  C1  UNL d   1       0.653   0.545  -1.937  0.00  0.00     0.053 C 
ATOM      9  C   UNL d   1       1.193  -0.749  -2.526  0.00  0.00     0.018 C 
ENDBRANCH   1   8
TORSDOF 1
ENDMDL
