MODEL 1
REMARK minimizedAffinity -0.825355947
REMARK minimizedRMSD -1
REMARK  1 active torsions:
REMARK  status: ('A' for Active; 'I' for Inactive)
REMARK    1  A    between atoms: C1_2  and  C2_3 
ROOT
ATOM      1  C2  UNL d   1       0.027   0.383  -0.587  0.00  0.00    -0.076 A 
ATOM      2  C3  UNL d   1       1.316   0.220  -0.051  0.00  0.00     0.004 A 
ATOM      3  C4  UNL d   1       1.518   0.159   1.327  0.00  0.00    -0.003 A 
ATOM      4  C5  UNL d   1       0.433   0.259   2.191  0.00  0.00     0.000 A 
ATOM      5  C6  UNL d   1      -0.855   0.404   1.677  0.00  0.00     0.000 A 
ATOM      6  C7  UNL d   1      -1.077   0.450   0.290  0.00  0.00    -0.073 A 
ATOM      7  C8  UNL d   1      -2.486   0.613  -0.210  0.00  0.00     0.078 C 
ENDROOT
BRANCH   1   8
ATOM      8  C1  UNL d   1      -0.128   0.469  -2.088  0.00  0.00     0.053 C 
ATOM      9  C   UNL d   1       1.078  -0.085  -2.831  0.00  0.00     0.018 C 
ENDBRANCH   1   8
TORSDOF 1
ENDMDL
