MODEL 1
REMARK minimizedAffinity -2.5073638
REMARK minimizedRMSD -1
REMARK  1 active torsions:
REMARK  status: ('A' for Active; 'I' for Inactive)
REMARK    1  A    between atoms: C1_2  and  C2_3 
ROOT
ATOM      1  C2  UNL d   1      -0.298   0.269  -0.184  0.00  0.00    -0.076 A 
ATOM      2  C3  UNL d   1       1.049   0.330   0.213  0.00  0.00     0.004 A 
ATOM      3  C4  UNL d   1       1.401   0.329   1.562  0.00  0.00    -0.003 A 
ATOM      4  C5  UNL d   1       0.410   0.267   2.536  0.00  0.00     0.000 A 
ATOM      5  C6  UNL d   1      -0.930   0.188   2.160  0.00  0.00     0.000 A 
ATOM      6  C7  UNL d   1      -1.301   0.171   0.805  0.00  0.00    -0.073 A 
ATOM      7  C8  UNL d   1      -2.762   0.092   0.456  0.00  0.00     0.078 C 
ENDROOT
BRANCH   1   8
ATOM      8  C1  UNL d   1      -0.620   0.300  -1.661  0.00  0.00     0.053 C 
ATOM      9  C   UNL d   1       0.004  -0.862  -2.418  0.00  0.00     0.018 C 
ENDBRANCH   1   8
TORSDOF 1
ENDMDL
