MODEL 1
REMARK minimizedAffinity -0.956180394
REMARK minimizedRMSD -1
REMARK  1 active torsions:
REMARK  status: ('A' for Active; 'I' for Inactive)
REMARK    1  A    between atoms: C1_2  and  C2_3 
ROOT
ATOM      1  C2  UNL d   1       4.200  -4.556   3.903  0.00  0.00    -0.076 A 
ATOM      2  C3  UNL d   1       3.728  -3.853   2.781  0.00  0.00     0.004 A 
ATOM      3  C4  UNL d   1       4.188  -2.568   2.495  0.00  0.00    -0.003 A 
ATOM      4  C5  UNL d   1       5.127  -1.967   3.326  0.00  0.00     0.000 A 
ATOM      5  C6  UNL d   1       5.619  -2.657   4.433  0.00  0.00     0.000 A 
ATOM      6  C7  UNL d   1       5.179  -3.959   4.726  0.00  0.00    -0.073 A 
ATOM      7  C8  UNL d   1       5.739  -4.655   5.936  0.00  0.00     0.078 C 
ENDROOT
BRANCH   1   8
ATOM      8  C1  UNL d   1       3.645  -5.936   4.178  0.00  0.00     0.053 C 
ATOM      9  C   UNL d   1       2.130  -5.988   4.064  0.00  0.00     0.018 C 
ENDBRANCH   1   8
TORSDOF 1
ENDMDL
