MODEL 1
REMARK minimizedAffinity 0.0353574902
REMARK minimizedRMSD -1
REMARK  1 active torsions:
REMARK  status: ('A' for Active; 'I' for Inactive)
REMARK    1  A    between atoms: C1_2  and  C2_3 
ROOT
ATOM      1  C2  UNL d   1       0.598   0.481  -0.297  0.00  0.00    -0.076 A 
ATOM      2  C3  UNL d   1       1.789   0.448   0.448  0.00  0.00     0.004 A 
ATOM      3  C4  UNL d   1       1.764   0.444   1.841  0.00  0.00    -0.003 A 
ATOM      4  C5  UNL d   1       0.547   0.472   2.513  0.00  0.00     0.000 A 
ATOM      5  C6  UNL d   1      -0.645   0.488   1.790  0.00  0.00     0.000 A 
ATOM      6  C7  UNL d   1      -0.638   0.476   0.384  0.00  0.00    -0.073 A 
ATOM      7  C8  UNL d   1      -1.953   0.500  -0.345  0.00  0.00     0.078 C 
ENDROOT
BRANCH   1   8
ATOM      8  C1  UNL d   1       0.688   0.512  -1.806  0.00  0.00     0.053 C 
ATOM      9  C   UNL d   1       2.070   0.133  -2.315  0.00  0.00     0.018 C 
ENDBRANCH   1   8
TORSDOF 1
ENDMDL
