MODEL 1
REMARK minimizedAffinity -3.14203906
REMARK minimizedRMSD -1
REMARK  1 active torsions:
REMARK  status: ('A' for Active; 'I' for Inactive)
REMARK    1  A    between atoms: C1_2  and  C2_3 
ROOT
ATOM      1  C2  UNL d   1      -0.280   0.468   0.092  0.00  0.00    -0.076 A 
ATOM      2  C3  UNL d   1      -1.671   0.506   0.292  0.00  0.00     0.004 A 
ATOM      3  C4  UNL d   1      -2.214   0.442   1.574  0.00  0.00    -0.003 A 
ATOM      4  C5  UNL d   1      -1.375   0.340   2.678  0.00  0.00     0.000 A 
ATOM      5  C6  UNL d   1       0.008   0.319   2.500  0.00  0.00     0.000 A 
ATOM      6  C7  UNL d   1       0.572   0.399   1.215  0.00  0.00    -0.073 A 
ATOM      7  C8  UNL d   1       2.070   0.366   1.081  0.00  0.00     0.078 C 
ENDROOT
BRANCH   1   8
ATOM      8  C1  UNL d   1       0.250   0.513  -1.323  0.00  0.00     0.053 C 
ATOM      9  C   UNL d   1       0.315  -0.864  -1.965  0.00  0.00     0.018 C 
ENDBRANCH   1   8
TORSDOF 1
ENDMDL
