MODEL 1
REMARK minimizedAffinity -4.19871759
REMARK minimizedRMSD -1
REMARK  1 active torsions:
REMARK  status: ('A' for Active; 'I' for Inactive)
REMARK    1  A    between atoms: C1_2  and  C2_3 
ROOT
ATOM      1  C2  UNL d   1      -0.374   0.294   0.026  0.00  0.00    -0.076 A 
ATOM      2  C3  UNL d   1       0.916  -0.019   0.488  0.00  0.00     0.004 A 
ATOM      3  C4  UNL d   1       1.159  -0.239   1.843  0.00  0.00    -0.003 A 
ATOM      4  C5  UNL d   1       0.115  -0.151   2.758  0.00  0.00     0.000 A 
ATOM      5  C6  UNL d   1      -1.174   0.142   2.314  0.00  0.00     0.000 A 
ATOM      6  C7  UNL d   1      -1.439   0.351   0.950  0.00  0.00    -0.073 A 
ATOM      7  C8  UNL d   1      -2.847   0.669   0.528  0.00  0.00     0.078 C 
ENDROOT
BRANCH   1   8
ATOM      8  C1  UNL d   1      -0.571   0.550  -1.451  0.00  0.00     0.053 C 
ATOM      9  C   UNL d   1       0.318  -0.328  -2.318  0.00  0.00     0.018 C 
ENDBRANCH   1   8
TORSDOF 1
ENDMDL
