MODEL 1
REMARK minimizedAffinity -1.46006107
REMARK minimizedRMSD -1
REMARK  1 active torsions:
REMARK  status: ('A' for Active; 'I' for Inactive)
REMARK    1  A    between atoms: C1_2  and  C2_3 
ROOT
ATOM      1  C2  UNL d   1       0.026   0.370  -0.037  0.00  0.00    -0.076 A 
ATOM      2  C3  UNL d   1       1.070   0.355   0.905  0.00  0.00     0.004 A 
ATOM      3  C4  UNL d   1       0.806   0.436   2.271  0.00  0.00    -0.003 A 
ATOM      4  C5  UNL d   1      -0.508   0.532   2.718  0.00  0.00     0.000 A 
ATOM      5  C6  UNL d   1      -1.557   0.530   1.799  0.00  0.00     0.000 A 
ATOM      6  C7  UNL d   1      -1.308   0.433   0.419  0.00  0.00    -0.073 A 
ATOM      7  C8  UNL d   1      -2.477   0.442  -0.528  0.00  0.00     0.078 C 
ENDROOT
BRANCH   1   8
ATOM      8  C1  UNL d   1       0.376   0.307  -1.506  0.00  0.00     0.053 C 
ATOM      9  C   UNL d   1       0.577  -1.118  -1.997  0.00  0.00     0.018 C 
ENDBRANCH   1   8
TORSDOF 1
ENDMDL
