MODEL 1
REMARK minimizedAffinity -3.18327999
REMARK minimizedRMSD -1
REMARK  1 active torsions:
REMARK  status: ('A' for Active; 'I' for Inactive)
REMARK    1  A    between atoms: C1_2  and  C2_3 
ROOT
ATOM      1  C2  UNL d   1       0.445  -0.236  -0.661  0.00  0.00    -0.076 A 
ATOM      2  C3  UNL d   1       1.428  -0.650   0.255  0.00  0.00     0.004 A 
ATOM      3  C4  UNL d   1       1.366  -0.271   1.594  0.00  0.00    -0.003 A 
ATOM      4  C5  UNL d   1       0.318   0.527   2.041  0.00  0.00     0.000 A 
ATOM      5  C6  UNL d   1      -0.676   0.932   1.151  0.00  0.00     0.000 A 
ATOM      6  C7  UNL d   1      -0.636   0.545  -0.200  0.00  0.00    -0.073 A 
ATOM      7  C8  UNL d   1      -1.732   1.015  -1.118  0.00  0.00     0.078 C 
ENDROOT
BRANCH   1   8
ATOM      8  C1  UNL d   1       0.579  -0.656  -2.107  0.00  0.00     0.053 C 
ATOM      9  C   UNL d   1       1.692   0.089  -2.829  0.00  0.00     0.018 C 
ENDBRANCH   1   8
TORSDOF 1
ENDMDL
