MODEL 1
REMARK minimizedAffinity -3.92459965
REMARK minimizedRMSD -1
REMARK  1 active torsions:
REMARK  status: ('A' for Active; 'I' for Inactive)
REMARK    1  A    between atoms: C1_2  and  C2_3 
ROOT
ATOM      1  C2  UNL d   1      -0.264   0.146   0.151  0.00  0.00    -0.076 A 
ATOM      2  C3  UNL d   1       0.962  -0.049   0.812  0.00  0.00     0.004 A 
ATOM      3  C4  UNL d   1       1.018  -0.168   2.199  0.00  0.00    -0.003 A 
ATOM      4  C5  UNL d   1      -0.151  -0.094   2.949  0.00  0.00     0.000 A 
ATOM      5  C6  UNL d   1      -1.378   0.081   2.309  0.00  0.00     0.000 A 
ATOM      6  C7  UNL d   1      -1.453   0.186   0.909  0.00  0.00    -0.073 A 
ATOM      7  C8  UNL d   1      -2.802   0.381   0.272  0.00  0.00     0.078 C 
ENDROOT
BRANCH   1   8
ATOM      8  C1  UNL d   1      -0.259   0.295  -1.354  0.00  0.00     0.053 C 
ATOM      9  C   UNL d   1       0.478  -0.839  -2.049  0.00  0.00     0.018 C 
ENDBRANCH   1   8
TORSDOF 1
ENDMDL
