MODEL 1
REMARK minimizedAffinity 4.14455318
REMARK minimizedRMSD -1
REMARK  1 active torsions:
REMARK  status: ('A' for Active; 'I' for Inactive)
REMARK    1  A    between atoms: C1_2  and  C2_3 
ROOT
ATOM      1  C2  UNL d   1       3.088  -4.869   0.175  0.00  0.00    -0.073 A 
ATOM      2  C3  UNL d   1       3.132  -5.985   1.019  0.00  0.00    -0.002 A 
ATOM      3  C4  UNL d   1       2.434  -5.983   2.227  0.00  0.00     0.004 A 
ATOM      4  C5  UNL d   1       1.681  -4.870   2.601  0.00  0.00    -0.004 A 
ATOM      5  C6  UNL d   1       1.615  -3.750   1.766  0.00  0.00    -0.075 A 
ATOM      6  C7  UNL d   1       0.811  -2.544   2.155  0.00  0.00     0.076 C 
ATOM      7  C8  UNL d   1       2.320  -3.759   0.555  0.00  0.00     0.001 A 
ENDROOT
BRANCH   1   8
ATOM      8  C1  UNL d   1       3.834  -4.869  -1.134  0.00  0.00     0.053 C 
ATOM      9  C   UNL d   1       3.363  -5.981  -2.059  0.00  0.00     0.018 C 
ENDBRANCH   1   8
TORSDOF 1
ENDMDL
