MODEL 1
REMARK minimizedAffinity 1.20438087
REMARK minimizedRMSD -1
REMARK  1 active torsions:
REMARK  status: ('A' for Active; 'I' for Inactive)
REMARK    1  A    between atoms: C1_2  and  C2_3 
ROOT
ATOM      1  C2  UNL d   1       3.992  -5.124  -1.019  0.00  0.00    -0.073 A 
ATOM      2  C3  UNL d   1       4.009  -6.000  -2.110  0.00  0.00    -0.002 A 
ATOM      3  C4  UNL d   1       3.806  -5.518  -3.404  0.00  0.00     0.004 A 
ATOM      4  C5  UNL d   1       3.590  -4.157  -3.621  0.00  0.00    -0.004 A 
ATOM      5  C6  UNL d   1       3.582  -3.264  -2.544  0.00  0.00    -0.075 A 
ATOM      6  C7  UNL d   1       3.349  -1.798  -2.760  0.00  0.00     0.076 C 
ATOM      7  C8  UNL d   1       3.784  -3.756  -1.248  0.00  0.00     0.001 A 
ENDROOT
BRANCH   1   8
ATOM      8  C1  UNL d   1       4.218  -5.638   0.379  0.00  0.00     0.053 C 
ATOM      9  C   UNL d   1       2.911  -5.962   1.086  0.00  0.00     0.018 C 
ENDBRANCH   1   8
TORSDOF 1
ENDMDL
