MODEL 1
REMARK minimizedAffinity -2.65933847
REMARK minimizedRMSD -1
REMARK  1 active torsions:
REMARK  status: ('A' for Active; 'I' for Inactive)
REMARK    1  A    between atoms: C1_2  and  C2_3 
ROOT
ATOM      1  C2  UNL d   1       3.338  -5.950  -4.960  0.00  0.00    -0.073 A 
ATOM      2  C3  UNL d   1       4.682  -5.879  -5.342  0.00  0.00    -0.002 A 
ATOM      3  C4  UNL d   1       5.688  -5.839  -4.375  0.00  0.00     0.004 A 
ATOM      4  C5  UNL d   1       5.361  -5.877  -3.020  0.00  0.00    -0.004 A 
ATOM      5  C6  UNL d   1       4.024  -5.960  -2.619  0.00  0.00    -0.075 A 
ATOM      6  C7  UNL d   1       3.656  -6.000  -1.165  0.00  0.00     0.076 C 
ATOM      7  C8  UNL d   1       3.020  -5.997  -3.595  0.00  0.00     0.001 A 
ENDROOT
BRANCH   1   8
ATOM      8  C1  UNL d   1       2.248  -6.000  -6.000  0.00  0.00     0.053 C 
ATOM      9  C   UNL d   1       0.862  -5.991  -5.375  0.00  0.00     0.018 C 
ENDBRANCH   1   8
TORSDOF 1
ENDMDL
