MODEL 1
REMARK minimizedAffinity 8.89260292
REMARK minimizedRMSD -1
REMARK  1 active torsions:
REMARK  status: ('A' for Active; 'I' for Inactive)
REMARK    1  A    between atoms: C1_2  and  C2_3 
ROOT
ATOM      1  C2  UNL d   1       3.423  -5.986  -2.360  0.00  0.00    -0.073 A 
ATOM      2  C3  UNL d   1       4.804  -5.987  -2.132  0.00  0.00    -0.002 A 
ATOM      3  C4  UNL d   1       5.304  -5.982  -0.830  0.00  0.00     0.004 A 
ATOM      4  C5  UNL d   1       4.430  -5.982   0.258  0.00  0.00    -0.004 A 
ATOM      5  C6  UNL d   1       3.047  -5.992   0.051  0.00  0.00    -0.075 A 
ATOM      6  C7  UNL d   1       2.094  -5.990   1.210  0.00  0.00     0.076 C 
ATOM      7  C8  UNL d   1       2.552  -5.995  -1.260  0.00  0.00     0.001 A 
ENDROOT
BRANCH   1   8
ATOM      8  C1  UNL d   1       2.878  -5.998  -3.765  0.00  0.00     0.053 C 
ATOM      9  C   UNL d   1       3.984  -5.923  -4.805  0.00  0.00     0.018 C 
ENDBRANCH   1   8
TORSDOF 1
ENDMDL
