MODEL 1
REMARK minimizedAffinity 2.1559217
REMARK minimizedRMSD -1
REMARK  1 active torsions:
REMARK  status: ('A' for Active; 'I' for Inactive)
REMARK    1  A    between atoms: C1_2  and  C2_3 
ROOT
ATOM      1  C2  UNL d   1       3.979  -5.817  -2.463  0.00  0.00    -0.073 A 
ATOM      2  C3  UNL d   1       2.612  -5.913  -2.746  0.00  0.00    -0.002 A 
ATOM      3  C4  UNL d   1       2.171  -5.999  -4.067  0.00  0.00     0.004 A 
ATOM      4  C5  UNL d   1       3.091  -5.999  -5.116  0.00  0.00    -0.004 A 
ATOM      5  C6  UNL d   1       4.461  -5.917  -4.852  0.00  0.00    -0.075 A 
ATOM      6  C7  UNL d   1       5.463  -5.913  -5.969  0.00  0.00     0.076 C 
ATOM      7  C8  UNL d   1       4.897  -5.827  -3.523  0.00  0.00     0.001 A 
ENDROOT
BRANCH   1   8
ATOM      8  C1  UNL d   1       4.461  -5.730  -1.037  0.00  0.00     0.053 C 
ATOM      9  C   UNL d   1       3.344  -5.994  -0.041  0.00  0.00     0.018 C 
ENDBRANCH   1   8
TORSDOF 1
ENDMDL
