MODEL 1
REMARK minimizedAffinity 5.99965334
REMARK minimizedRMSD -1
REMARK  1 active torsions:
REMARK  status: ('A' for Active; 'I' for Inactive)
REMARK    1  A    between atoms: C1_2  and  C2_3 
ROOT
ATOM      1  C2  UNL d   1       2.626  -5.941  -3.496  0.00  0.00    -0.073 A 
ATOM      2  C3  UNL d   1       3.949  -5.855  -3.946  0.00  0.00    -0.002 A 
ATOM      3  C4  UNL d   1       5.003  -5.807  -3.033  0.00  0.00     0.004 A 
ATOM      4  C5  UNL d   1       4.747  -5.852  -1.663  0.00  0.00    -0.004 A 
ATOM      5  C6  UNL d   1       3.433  -5.951  -1.193  0.00  0.00    -0.075 A 
ATOM      6  C7  UNL d   1       3.141  -5.998   0.278  0.00  0.00     0.076 C 
ATOM      7  C8  UNL d   1       2.380  -5.995  -2.116  0.00  0.00     0.001 A 
ENDROOT
BRANCH   1   8
ATOM      8  C1  UNL d   1       1.485  -5.999  -4.478  0.00  0.00     0.053 C 
ATOM      9  C   UNL d   1       1.973  -5.999  -5.918  0.00  0.00     0.018 C 
ENDBRANCH   1   8
TORSDOF 1
ENDMDL
