MODEL 1
REMARK minimizedAffinity 6.80931759
REMARK minimizedRMSD -1
REMARK  1 active torsions:
REMARK  status: ('A' for Active; 'I' for Inactive)
REMARK    1  A    between atoms: C1_2  and  C2_3 
ROOT
ATOM      1  C2  UNL d   1       2.645  -1.955   2.749  0.00  0.00    -0.073 A 
ATOM      2  C3  UNL d   1       1.376  -2.378   2.338  0.00  0.00    -0.002 A 
ATOM      3  C4  UNL d   1       0.481  -1.471   1.769  0.00  0.00     0.004 A 
ATOM      4  C5  UNL d   1       0.848  -0.136   1.599  0.00  0.00    -0.004 A 
ATOM      5  C6  UNL d   1       2.116   0.303   1.993  0.00  0.00    -0.075 A 
ATOM      6  C7  UNL d   1       2.524   1.737   1.819  0.00  0.00     0.076 C 
ATOM      7  C8  UNL d   1       3.008  -0.613   2.566  0.00  0.00     0.001 A 
ENDROOT
BRANCH   1   8
ATOM      8  C1  UNL d   1       3.617  -2.932   3.359  0.00  0.00     0.053 C 
ATOM      9  C   UNL d   1       5.044  -2.407   3.335  0.00  0.00     0.018 C 
ENDBRANCH   1   8
TORSDOF 1
ENDMDL
