MODEL 1
REMARK minimizedAffinity 2.92405868
REMARK minimizedRMSD -1
REMARK  0 active torsions:
REMARK  status: ('A' for Active; 'I' for Inactive)
ROOT
ATOM      1  C1  BNZ d   1      -5.832  -4.936  -4.111  0.00  0.00     0.000 A 
ATOM      2  C2  BNZ d   1      -5.070  -3.798  -4.118  0.00  0.00     0.000 A 
ATOM      3  C3  BNZ d   1      -4.114  -3.602  -5.075  0.00  0.00     0.000 A 
ATOM      4  C4  BNZ d   1      -3.894  -4.560  -5.999  0.00  0.00     0.000 A 
ATOM      5  C5  BNZ d   1      -4.648  -5.716  -6.000  0.00  0.00     0.000 A 
ATOM      6  C6  BNZ d   1      -5.636  -5.893  -5.058  0.00  0.00     0.000 A 
ENDROOT
TORSDOF 0
ENDMDL
