MODEL 1
REMARK minimizedAffinity 1.50335026
REMARK minimizedRMSD -1
REMARK  0 active torsions:
REMARK  status: ('A' for Active; 'I' for Inactive)
ROOT
ATOM      1  C1  BNZ d   1      -4.259  -4.650  -3.964  0.00  0.00     0.000 A 
ATOM      2  C2  BNZ d   1      -4.504  -5.579  -4.940  0.00  0.00     0.000 A 
ATOM      3  C3  BNZ d   1      -5.360  -5.303  -5.969  0.00  0.00     0.000 A 
ATOM      4  C4  BNZ d   1      -6.000  -4.117  -6.000  0.00  0.00     0.000 A 
ATOM      5  C5  BNZ d   1      -5.771  -3.173  -5.018  0.00  0.00     0.000 A 
ATOM      6  C6  BNZ d   1      -4.879  -3.439  -4.005  0.00  0.00     0.000 A 
ENDROOT
TORSDOF 0
ENDMDL
