MODEL 1
REMARK minimizedAffinity -2.53223801
REMARK minimizedRMSD -1
REMARK  0 active torsions:
REMARK  status: ('A' for Active; 'I' for Inactive)
ROOT
ATOM      1  C1  BNZ d   1       4.866   1.966  -5.795  0.00  0.00     0.000 A 
ATOM      2  C2  BNZ d   1       5.998   1.220  -5.992  0.00  0.00     0.000 A 
ATOM      3  C3  BNZ d   1       5.992  -0.130  -5.778  0.00  0.00     0.000 A 
ATOM      4  C4  BNZ d   1       4.869  -0.725  -5.328  0.00  0.00     0.000 A 
ATOM      5  C5  BNZ d   1       3.723   0.014  -5.115  0.00  0.00     0.000 A 
ATOM      6  C6  BNZ d   1       3.721   1.367  -5.369  0.00  0.00     0.000 A 
ENDROOT
TORSDOF 0
ENDMDL
