MODEL 1
REMARK minimizedAffinity 3.12423182
REMARK minimizedRMSD -1
REMARK  0 active torsions:
REMARK  status: ('A' for Active; 'I' for Inactive)
ROOT
ATOM      1  C1  BNZ d   1       2.015  -2.572   2.389  0.00  0.00     0.000 A 
ATOM      2  C2  BNZ d   1       2.157  -1.519   1.526  0.00  0.00     0.000 A 
ATOM      3  C3  BNZ d   1       1.408  -0.385   1.676  0.00  0.00     0.000 A 
ATOM      4  C4  BNZ d   1       0.492  -0.322   2.664  0.00  0.00     0.000 A 
ATOM      5  C5  BNZ d   1       0.331  -1.380   3.537  0.00  0.00     0.000 A 
ATOM      6  C6  BNZ d   1       1.113  -2.504   3.406  0.00  0.00     0.000 A 
ENDROOT
TORSDOF 0
ENDMDL
