MODEL 1
REMARK minimizedAffinity 0.577317238
REMARK minimizedRMSD -1
REMARK  0 active torsions:
REMARK  status: ('A' for Active; 'I' for Inactive)
ROOT
ATOM      1  C1  BNZ d   1       3.139  -1.023   1.207  0.00  0.00     0.000 A 
ATOM      2  C2  BNZ d   1       3.090  -2.147   1.988  0.00  0.00     0.000 A 
ATOM      3  C3  BNZ d   1       1.973  -2.444   2.718  0.00  0.00     0.000 A 
ATOM      4  C4  BNZ d   1       0.924  -1.597   2.697  0.00  0.00     0.000 A 
ATOM      5  C5  BNZ d   1       0.962  -0.455   1.922  0.00  0.00     0.000 A 
ATOM      6  C6  BNZ d   1       2.073  -0.180   1.159  0.00  0.00     0.000 A 
ENDROOT
TORSDOF 0
ENDMDL
