MODEL 1
REMARK minimizedAffinity 2.02339244
REMARK minimizedRMSD -1
REMARK  0 active torsions:
REMARK  status: ('A' for Active; 'I' for Inactive)
ROOT
ATOM      1  C1  BNZ d   1       1.532  -1.260   1.451  0.00  0.00     0.000 A 
ATOM      2  C2  BNZ d   1       1.236  -2.090   2.499  0.00  0.00     0.000 A 
ATOM      3  C3  BNZ d   1       1.008  -1.585   3.748  0.00  0.00     0.000 A 
ATOM      4  C4  BNZ d   1       1.117  -0.257   3.957  0.00  0.00     0.000 A 
ATOM      5  C5  BNZ d   1       1.425   0.592   2.912  0.00  0.00     0.000 A 
ATOM      6  C6  BNZ d   1       1.614   0.084   1.648  0.00  0.00     0.000 A 
ENDROOT
TORSDOF 0
ENDMDL
