MODEL 1
REMARK minimizedAffinity -0.13528493
REMARK minimizedRMSD -1
REMARK  0 active torsions:
REMARK  status: ('A' for Active; 'I' for Inactive)
ROOT
ATOM      1  C1  BNZ d   1       5.298  -2.304   1.248  0.00  0.00     0.000 A 
ATOM      2  C2  BNZ d   1       4.476  -1.878   2.257  0.00  0.00     0.000 A 
ATOM      3  C3  BNZ d   1       3.117  -1.922   2.119  0.00  0.00     0.000 A 
ATOM      4  C4  BNZ d   1       2.582  -2.355   0.959  0.00  0.00     0.000 A 
ATOM      5  C5  BNZ d   1       3.398  -2.780  -0.071  0.00  0.00     0.000 A 
ATOM      6  C6  BNZ d   1       4.765  -2.770   0.086  0.00  0.00     0.000 A 
ENDROOT
TORSDOF 0
ENDMDL
