MODEL 1
REMARK minimizedAffinity 0.241526559
REMARK minimizedRMSD -1
REMARK  0 active torsions:
REMARK  status: ('A' for Active; 'I' for Inactive)
ROOT
ATOM      1  N1  IND d   1       0.132   0.960  -2.444  0.00  0.00    -0.196 N 
ATOM      2  C2  IND d   1       0.104   2.150  -1.772  0.00  0.00     0.054 A 
ATOM      3  C3  IND d   1      -0.023   1.936  -0.443  0.00  0.00    -0.031 A 
ATOM      4  C4  IND d   1      -0.102  -0.285   0.857  0.00  0.00     0.051 A 
ATOM      5  C5  IND d   1      -0.146  -1.639   0.674  0.00  0.00    -0.031 A 
ATOM      6  C6  IND d   1      -0.096  -2.207  -0.582  0.00  0.00     0.015 A 
ATOM      7  C7  IND d   1       0.012  -1.440  -1.707  0.00  0.00    -0.016 A 
ATOM      8  C8  IND d   1       0.050  -0.064  -1.526  0.00  0.00    -0.047 A 
ATOM      9  C9  IND d   1      -0.044   0.520  -0.257  0.00  0.00    -0.096 A 
ATOM     10  HN1 IND d   1       0.190   0.867  -3.297  0.00  0.00     0.298 HD
ENDROOT
TORSDOF 0
ENDMDL
