MODEL 1
REMARK minimizedAffinity -1.41031241
REMARK minimizedRMSD -1
REMARK  0 active torsions:
REMARK  status: ('A' for Active; 'I' for Inactive)
ROOT
ATOM      1  N1  IND d   1       0.953  -1.978  -0.577  0.00  0.00    -0.196 N 
ATOM      2  C2  IND d   1       1.011  -2.020   0.788  0.00  0.00     0.054 A 
ATOM      3  C3  IND d   1       0.849  -0.782   1.305  0.00  0.00    -0.031 A 
ATOM      4  C4  IND d   1       0.373   1.443   0.101  0.00  0.00     0.051 A 
ATOM      5  C5  IND d   1       0.267   1.992  -1.146  0.00  0.00    -0.031 A 
ATOM      6  C6  IND d   1       0.384   1.229  -2.291  0.00  0.00     0.015 A 
ATOM      7  C7  IND d   1       0.601  -0.118  -2.230  0.00  0.00    -0.016 A 
ATOM      8  C8  IND d   1       0.716  -0.677  -0.965  0.00  0.00    -0.047 A 
ATOM      9  C9  IND d   1       0.640   0.098   0.199  0.00  0.00    -0.096 A 
ATOM     10  HN1 IND d   1       1.048  -2.650  -1.104  0.00  0.00     0.298 HD
ENDROOT
TORSDOF 0
ENDMDL
