MODEL 1
REMARK minimizedAffinity -1.79658902
REMARK minimizedRMSD -1
REMARK  0 active torsions:
REMARK  status: ('A' for Active; 'I' for Inactive)
ROOT
ATOM      1  N1  IND d   1       0.922   1.190   1.081  0.00  0.00    -0.196 N 
ATOM      2  C2  IND d   1       0.274   1.860   0.082  0.00  0.00     0.054 A 
ATOM      3  C3  IND d   1      -0.524   1.016  -0.610  0.00  0.00    -0.031 A 
ATOM      4  C4  IND d   1      -0.998  -1.483  -0.211  0.00  0.00     0.051 A 
ATOM      5  C5  IND d   1      -0.613  -2.542   0.562  0.00  0.00    -0.031 A 
ATOM      6  C6  IND d   1       0.321  -2.408   1.569  0.00  0.00     0.015 A 
ATOM      7  C7  IND d   1       0.898  -1.202   1.850  0.00  0.00    -0.016 A 
ATOM      8  C8  IND d   1       0.514  -0.126   1.063  0.00  0.00    -0.047 A 
ATOM      9  C9  IND d   1      -0.401  -0.264   0.012  0.00  0.00    -0.096 A 
ATOM     10  HN1 IND d   1       1.489   1.532   1.630  0.00  0.00     0.298 HD
ENDROOT
TORSDOF 0
ENDMDL
