MODEL 1
REMARK minimizedAffinity -0.704486847
REMARK minimizedRMSD -1
REMARK  0 active torsions:
REMARK  status: ('A' for Active; 'I' for Inactive)
ROOT
ATOM      1  N1  IND d   1      -0.554   0.986   0.369  0.00  0.00    -0.196 N 
ATOM      2  C2  IND d   1      -0.077   0.960  -0.912  0.00  0.00     0.054 A 
ATOM      3  C3  IND d   1       0.348  -0.283  -1.231  0.00  0.00    -0.031 A 
ATOM      4  C4  IND d   1       0.262  -2.448   0.160  0.00  0.00     0.051 A 
ATOM      5  C5  IND d   1      -0.054  -2.917   1.404  0.00  0.00    -0.031 A 
ATOM      6  C6  IND d   1      -0.566  -2.093   2.385  0.00  0.00     0.015 A 
ATOM      7  C7  IND d   1      -0.793  -0.766   2.155  0.00  0.00    -0.016 A 
ATOM      8  C8  IND d   1      -0.466  -0.284   0.895  0.00  0.00    -0.047 A 
ATOM      9  C9  IND d   1       0.094  -1.107  -0.092  0.00  0.00    -0.096 A 
ATOM     10  HN1 IND d   1      -0.857   1.679   0.777  0.00  0.00     0.298 HD
ENDROOT
TORSDOF 0
ENDMDL
