MODEL 1
REMARK minimizedAffinity -0.550205708
REMARK minimizedRMSD -1
REMARK  0 active torsions:
REMARK  status: ('A' for Active; 'I' for Inactive)
ROOT
ATOM      1  N1  IND d   1      -0.117   0.654  -1.123  0.00  0.00    -0.196 N 
ATOM      2  C2  IND d   1      -0.131   1.416   0.012  0.00  0.00     0.054 A 
ATOM      3  C3  IND d   1      -0.370   0.643   1.095  0.00  0.00    -0.031 A 
ATOM      4  C4  IND d   1      -0.665  -1.910   1.249  0.00  0.00     0.051 A 
ATOM      5  C5  IND d   1      -0.768  -3.031   0.474  0.00  0.00    -0.031 A 
ATOM      6  C6  IND d   1      -0.654  -2.980  -0.901  0.00  0.00     0.015 A 
ATOM      7  C7  IND d   1      -0.420  -1.803  -1.553  0.00  0.00    -0.016 A 
ATOM      8  C8  IND d   1      -0.322  -0.661  -0.770  0.00  0.00    -0.047 A 
ATOM      9  C9  IND d   1      -0.480  -0.701   0.621  0.00  0.00    -0.096 A 
ATOM     10  HN1 IND d   1       0.001   0.947  -1.922  0.00  0.00     0.298 HD
ENDROOT
TORSDOF 0
ENDMDL
