MODEL 1
REMARK minimizedAffinity -4.03656626
REMARK minimizedRMSD -1
REMARK  0 active torsions:
REMARK  status: ('A' for Active; 'I' for Inactive)
ROOT
ATOM      1  N1  IND d   1       1.656   0.165   0.139  0.00  0.00    -0.196 N 
ATOM      2  C2  IND d   1       1.187   1.438   0.307  0.00  0.00     0.054 A 
ATOM      3  C3  IND d   1      -0.135   1.419   0.589  0.00  0.00    -0.031 A 
ATOM      4  C4  IND d   1      -1.707  -0.592   0.926  0.00  0.00     0.051 A 
ATOM      5  C5  IND d   1      -1.745  -1.956   0.840  0.00  0.00    -0.031 A 
ATOM      6  C6  IND d   1      -0.629  -2.697   0.512  0.00  0.00     0.015 A 
ATOM      7  C7  IND d   1       0.576  -2.101   0.268  0.00  0.00    -0.016 A 
ATOM      8  C8  IND d   1       0.617  -0.716   0.347  0.00  0.00    -0.047 A 
ATOM      9  C9  IND d   1      -0.523   0.045   0.638  0.00  0.00    -0.096 A 
ATOM     10  HN1 IND d   1       2.463  -0.050  -0.062  0.00  0.00     0.298 HD
ENDROOT
TORSDOF 0
ENDMDL
