MODEL 1
REMARK minimizedAffinity -5.19509268
REMARK minimizedRMSD -1
REMARK  0 active torsions:
REMARK  status: ('A' for Active; 'I' for Inactive)
ROOT
ATOM      1  N1  IND d   1       0.088   0.215  -1.448  0.00  0.00    -0.196 N 
ATOM      2  C2  IND d   1      -0.167   0.856  -0.267  0.00  0.00     0.054 A 
ATOM      3  C3  IND d   1      -0.486  -0.040   0.694  0.00  0.00    -0.031 A 
ATOM      4  C4  IND d   1      -0.550  -2.611   0.579  0.00  0.00     0.051 A 
ATOM      5  C5  IND d   1      -0.428  -3.653  -0.297  0.00  0.00    -0.031 A 
ATOM      6  C6  IND d   1      -0.119  -3.455  -1.627  0.00  0.00     0.015 A 
ATOM      7  C7  IND d   1       0.092  -2.203  -2.131  0.00  0.00    -0.016 A 
ATOM      8  C8  IND d   1      -0.038  -1.142  -1.246  0.00  0.00    -0.047 A 
ATOM      9  C9  IND d   1      -0.394  -1.333   0.095  0.00  0.00    -0.096 A 
ATOM     10  HN1 IND d   1       0.293   0.596  -2.191  0.00  0.00     0.298 HD
ENDROOT
TORSDOF 0
ENDMDL
