MODEL 1
REMARK minimizedAffinity -2.55696678
REMARK minimizedRMSD -1
REMARK  0 active torsions:
REMARK  status: ('A' for Active; 'I' for Inactive)
ROOT
ATOM      1  N1  IND d   1       0.410  -2.678  -0.926  0.00  0.00    -0.196 N 
ATOM      2  C2  IND d   1       0.071  -3.112   0.325  0.00  0.00     0.054 A 
ATOM      3  C3  IND d   1      -0.167  -2.060   1.139  0.00  0.00    -0.031 A 
ATOM      4  C4  IND d   1      -0.157   0.458   0.603  0.00  0.00     0.051 A 
ATOM      5  C5  IND d   1       0.130   1.346  -0.395  0.00  0.00    -0.031 A 
ATOM      6  C6  IND d   1       0.530   0.929  -1.648  0.00  0.00     0.015 A 
ATOM      7  C7  IND d   1       0.648  -0.397  -1.954  0.00  0.00    -0.016 A 
ATOM      8  C8  IND d   1       0.365  -1.301  -0.940  0.00  0.00    -0.047 A 
ATOM      9  C9  IND d   1      -0.001  -0.883   0.346  0.00  0.00    -0.096 A 
ATOM     10  HN1 IND d   1       0.617  -3.181  -1.593  0.00  0.00     0.298 HD
ENDROOT
TORSDOF 0
ENDMDL
