MODEL 1
REMARK minimizedAffinity -2.56041098
REMARK minimizedRMSD -1
REMARK  0 active torsions:
REMARK  status: ('A' for Active; 'I' for Inactive)
ROOT
ATOM      1  N1  IND d   1       1.110   0.306  -0.673  0.00  0.00    -0.196 N 
ATOM      2  C2  IND d   1       0.535   1.400  -0.090  0.00  0.00     0.054 A 
ATOM      3  C3  IND d   1      -0.476   1.022   0.725  0.00  0.00    -0.031 A 
ATOM      4  C4  IND d   1      -1.293  -1.343   1.327  0.00  0.00     0.051 A 
ATOM      5  C5  IND d   1      -1.103  -2.660   1.017  0.00  0.00    -0.031 A 
ATOM      6  C6  IND d   1      -0.143  -3.065   0.111  0.00  0.00     0.015 A 
ATOM      7  C7  IND d   1       0.672  -2.163  -0.513  0.00  0.00    -0.016 A 
ATOM      8  C8  IND d   1       0.477  -0.824  -0.205  0.00  0.00    -0.047 A 
ATOM      9  C9  IND d   1      -0.524  -0.405   0.681  0.00  0.00    -0.096 A 
ATOM     10  HN1 IND d   1       1.758   0.321  -1.238  0.00  0.00     0.298 HD
ENDROOT
TORSDOF 0
ENDMDL
