MODEL 1
REMARK minimizedAffinity -5.060884
REMARK minimizedRMSD -1
REMARK  0 active torsions:
REMARK  status: ('A' for Active; 'I' for Inactive)
ROOT
ATOM      1  N1  IND d   1       0.532   0.476  -0.891  0.00  0.00    -0.196 N 
ATOM      2  C2  IND d   1       0.487   1.003   0.369  0.00  0.00     0.054 A 
ATOM      3  C3  IND d   1       0.234   0.033   1.276  0.00  0.00    -0.031 A 
ATOM      4  C4  IND d   1      -0.037  -2.503   0.925  0.00  0.00     0.051 A 
ATOM      5  C5  IND d   1      -0.112  -3.453  -0.054  0.00  0.00    -0.031 A 
ATOM      6  C6  IND d   1       0.029  -3.136  -1.390  0.00  0.00     0.015 A 
ATOM      7  C7  IND d   1       0.264  -1.853  -1.796  0.00  0.00    -0.016 A 
ATOM      8  C8  IND d   1       0.333  -0.884  -0.805  0.00  0.00    -0.047 A 
ATOM      9  C9  IND d   1       0.148  -1.194   0.549  0.00  0.00    -0.096 A 
ATOM     10  HN1 IND d   1       0.663   0.920  -1.616  0.00  0.00     0.298 HD
ENDROOT
TORSDOF 0
ENDMDL
