MODEL 1
REMARK minimizedAffinity -4.65362692
REMARK minimizedRMSD -1
REMARK  0 active torsions:
REMARK  status: ('A' for Active; 'I' for Inactive)
ROOT
ATOM      1  N1  IND d   1       0.054  -1.066  -2.373  0.00  0.00    -0.196 N 
ATOM      2  C2  IND d   1      -0.072  -2.269  -3.012  0.00  0.00     0.054 A 
ATOM      3  C3  IND d   1      -0.105  -3.277  -2.112  0.00  0.00    -0.031 A 
ATOM      4  C4  IND d   1      -0.071  -3.177   0.460  0.00  0.00     0.051 A 
ATOM      5  C5  IND d   1       0.073  -2.304   1.502  0.00  0.00    -0.031 A 
ATOM      6  C6  IND d   1       0.217  -0.946   1.302  0.00  0.00     0.015 A 
ATOM      7  C7  IND d   1       0.213  -0.407   0.046  0.00  0.00    -0.016 A 
ATOM      8  C8  IND d   1       0.074  -1.291  -1.014  0.00  0.00    -0.047 A 
ATOM      9  C9  IND d   1      -0.030  -2.674  -0.819  0.00  0.00    -0.096 A 
ATOM     10  HN1 IND d   1       0.112  -0.299  -2.756  0.00  0.00     0.298 HD
ENDROOT
TORSDOF 0
ENDMDL
