MODEL 1
REMARK minimizedAffinity -1.66992998
REMARK minimizedRMSD -1
REMARK  0 active torsions:
REMARK  status: ('A' for Active; 'I' for Inactive)
ROOT
ATOM      1  N1  IND d   1       0.191   0.944  -0.897  0.00  0.00    -0.196 N 
ATOM      2  C2  IND d   1      -0.082   1.343   0.381  0.00  0.00     0.054 A 
ATOM      3  C3  IND d   1      -0.550   0.304   1.108  0.00  0.00    -0.031 A 
ATOM      4  C4  IND d   1      -0.852  -2.161   0.432  0.00  0.00     0.051 A 
ATOM      5  C5  IND d   1      -0.771  -3.001  -0.643  0.00  0.00    -0.031 A 
ATOM      6  C6  IND d   1      -0.353  -2.561  -1.882  0.00  0.00     0.015 A 
ATOM      7  C7  IND d   1       0.011  -1.260  -2.091  0.00  0.00    -0.016 A 
ATOM      8  C8  IND d   1      -0.078  -0.403  -1.003  0.00  0.00    -0.047 A 
ATOM      9  C9  IND d   1      -0.541  -0.835   0.246  0.00  0.00    -0.096 A 
ATOM     10  HN1 IND d   1       0.482   1.449  -1.530  0.00  0.00     0.298 HD
ENDROOT
TORSDOF 0
ENDMDL
