MODEL 1
REMARK minimizedAffinity -4.15746784
REMARK minimizedRMSD -1
REMARK  0 active torsions:
REMARK  status: ('A' for Active; 'I' for Inactive)
ROOT
ATOM      1  N1  IND d   1       0.793   0.510  -0.474  0.00  0.00    -0.196 N 
ATOM      2  C2  IND d   1       1.074   0.990   0.775  0.00  0.00     0.054 A 
ATOM      3  C3  IND d   1       0.949   0.008   1.696  0.00  0.00    -0.031 A 
ATOM      4  C4  IND d   1       0.394  -2.484   1.363  0.00  0.00     0.051 A 
ATOM      5  C5  IND d   1       0.022  -3.387   0.407  0.00  0.00    -0.031 A 
ATOM      6  C6  IND d   1      -0.111  -3.030  -0.920  0.00  0.00     0.015 A 
ATOM      7  C7  IND d   1       0.134  -1.754  -1.342  0.00  0.00    -0.016 A 
ATOM      8  C8  IND d   1       0.504  -0.833  -0.372  0.00  0.00    -0.047 A 
ATOM      9  C9  IND d   1       0.600  -1.179   0.982  0.00  0.00    -0.096 A 
ATOM     10  HN1 IND d   1       0.796   0.970  -1.200  0.00  0.00     0.298 HD
ENDROOT
TORSDOF 0
ENDMDL
