MODEL 1
REMARK minimizedAffinity -3.87427282
REMARK minimizedRMSD -1
REMARK  0 active torsions:
REMARK  status: ('A' for Active; 'I' for Inactive)
ROOT
ATOM      1  N1  IND d   1       1.769   2.375   1.344  0.00  0.00    -0.196 N 
ATOM      2  C2  IND d   1       1.639   3.576   0.704  0.00  0.00     0.054 A 
ATOM      3  C3  IND d   1       0.888   3.435  -0.412  0.00  0.00    -0.031 A 
ATOM      4  C4  IND d   1      -0.312   1.348  -1.324  0.00  0.00     0.051 A 
ATOM      5  C5  IND d   1      -0.458   0.008  -1.104  0.00  0.00    -0.031 A 
ATOM      6  C6  IND d   1       0.141  -0.625  -0.034  0.00  0.00     0.015 A 
ATOM      7  C7  IND d   1       0.902   0.065   0.867  0.00  0.00    -0.016 A 
ATOM      8  C8  IND d   1       1.058   1.425   0.643  0.00  0.00    -0.047 A 
ATOM      9  C9  IND d   1       0.488   2.065  -0.465  0.00  0.00    -0.096 A 
ATOM     10  HN1 IND d   1       2.220   2.236   2.063  0.00  0.00     0.298 HD
ENDROOT
TORSDOF 0
ENDMDL
