MODEL 1
REMARK minimizedAffinity -3.44725871
REMARK minimizedRMSD -1
REMARK  1 active torsions:
REMARK  status: ('A' for Active; 'I' for Inactive)
REMARK    1  A    between atoms: C1_2  and  C2_3 
ROOT
ATOM      1  C2  UNL d   1       0.341  -0.346  -1.977  0.00  0.00    -0.073 A 
ATOM      2  C3  UNL d   1       1.403   0.391  -2.513  0.00  0.00    -0.002 A 
ATOM      3  C4  UNL d   1       1.376   0.798  -3.847  0.00  0.00     0.004 A 
ATOM      4  C5  UNL d   1       0.286   0.480  -4.657  0.00  0.00    -0.004 A 
ATOM      5  C6  UNL d   1      -0.791  -0.246  -4.136  0.00  0.00    -0.075 A 
ATOM      6  C7  UNL d   1      -1.970  -0.598  -4.994  0.00  0.00     0.076 C 
ATOM      7  C8  UNL d   1      -0.755  -0.653  -2.796  0.00  0.00     0.001 A 
ENDROOT
BRANCH   1   8
ATOM      8  C1  UNL d   1       0.363  -0.782  -0.535  0.00  0.00     0.053 C 
ATOM      9  C   UNL d   1       1.447  -0.072   0.259  0.00  0.00     0.018 C 
ENDBRANCH   1   8
TORSDOF 1
ENDMDL
