MODEL 1
REMARK minimizedAffinity -3.68198919
REMARK minimizedRMSD -1
REMARK  1 active torsions:
REMARK  status: ('A' for Active; 'I' for Inactive)
REMARK    1  A    between atoms: C1_2  and  C2_3 
ROOT
ATOM      1  C2  UNL d   1       0.329  -0.357  -0.108  0.00  0.00    -0.073 A 
ATOM      2  C3  UNL d   1      -0.981  -0.674  -0.486  0.00  0.00    -0.002 A 
ATOM      3  C4  UNL d   1      -2.060  -0.252   0.292  0.00  0.00     0.004 A 
ATOM      4  C5  UNL d   1      -1.843   0.496   1.449  0.00  0.00    -0.004 A 
ATOM      5  C6  UNL d   1      -0.542   0.833   1.836  0.00  0.00    -0.075 A 
ATOM      6  C7  UNL d   1      -0.291   1.635   3.079  0.00  0.00     0.076 C 
ATOM      7  C8  UNL d   1       0.537   0.403   1.052  0.00  0.00     0.001 A 
ENDROOT
BRANCH   1   8
ATOM      8  C1  UNL d   1       1.497  -0.805  -0.947  0.00  0.00     0.053 C 
ATOM      9  C   UNL d   1       1.314  -0.450  -2.414  0.00  0.00     0.018 C 
ENDBRANCH   1   8
TORSDOF 1
ENDMDL
