MODEL 1
REMARK minimizedAffinity -3.38200235
REMARK minimizedRMSD -1
REMARK  1 active torsions:
REMARK  status: ('A' for Active; 'I' for Inactive)
REMARK    1  A    between atoms: C1_2  and  C2_3 
ROOT
ATOM      1  C2  UNL d   1       0.445  -0.032   0.426  0.00  0.00    -0.073 A 
ATOM      2  C3  UNL d   1       1.108   0.762   1.368  0.00  0.00    -0.002 A 
ATOM      3  C4  UNL d   1       0.392   1.394   2.386  0.00  0.00     0.004 A 
ATOM      4  C5  UNL d   1      -0.990   1.234   2.476  0.00  0.00    -0.004 A 
ATOM      5  C6  UNL d   1      -1.670   0.434   1.551  0.00  0.00    -0.075 A 
ATOM      6  C7  UNL d   1      -3.157   0.254   1.632  0.00  0.00     0.076 C 
ATOM      7  C8  UNL d   1      -0.944  -0.195   0.530  0.00  0.00     0.001 A 
ENDROOT
BRANCH   1   8
ATOM      8  C1  UNL d   1       1.214  -0.722  -0.671  0.00  0.00     0.053 C 
ATOM      9  C   UNL d   1       0.472  -0.686  -1.997  0.00  0.00     0.018 C 
ENDBRANCH   1   8
TORSDOF 1
ENDMDL
