MODEL 1
REMARK minimizedAffinity -5.5580492
REMARK minimizedRMSD -1
REMARK  1 active torsions:
REMARK  status: ('A' for Active; 'I' for Inactive)
REMARK    1  A    between atoms: C1_2  and  C2_3 
ROOT
ATOM      1  C2  UNL d   1       0.470  -0.642  -0.203  0.00  0.00    -0.073 A 
ATOM      2  C3  UNL d   1       1.681  -1.017   0.392  0.00  0.00    -0.002 A 
ATOM      3  C4  UNL d   1       2.096  -0.417   1.582  0.00  0.00     0.004 A 
ATOM      4  C5  UNL d   1       1.305   0.557   2.191  0.00  0.00    -0.004 A 
ATOM      5  C6  UNL d   1       0.087   0.935   1.618  0.00  0.00    -0.075 A 
ATOM      6  C7  UNL d   1      -0.775   1.982   2.260  0.00  0.00     0.076 C 
ATOM      7  C8  UNL d   1      -0.323   0.330   0.423  0.00  0.00     0.001 A 
ENDROOT
BRANCH   1   8
ATOM      8  C1  UNL d   1       0.014  -1.292  -1.483  0.00  0.00     0.053 C 
ATOM      9  C   UNL d   1       0.363  -0.454  -2.703  0.00  0.00     0.018 C 
ENDBRANCH   1   8
TORSDOF 1
ENDMDL
