MODEL 1
REMARK minimizedAffinity -4.2539959
REMARK minimizedRMSD -1
REMARK  1 active torsions:
REMARK  status: ('A' for Active; 'I' for Inactive)
REMARK    1  A    between atoms: C1_2  and  C2_3 
ROOT
ATOM      1  C2  UNL d   1       0.155   0.019   0.473  0.00  0.00    -0.073 A 
ATOM      2  C3  UNL d   1       1.016   0.527   1.453  0.00  0.00    -0.002 A 
ATOM      3  C4  UNL d   1       0.501   1.129   2.601  0.00  0.00     0.004 A 
ATOM      4  C5  UNL d   1      -0.879   1.222   2.786  0.00  0.00    -0.004 A 
ATOM      5  C6  UNL d   1      -1.756   0.710   1.824  0.00  0.00    -0.075 A 
ATOM      6  C7  UNL d   1      -3.242   0.805   2.007  0.00  0.00     0.076 C 
ATOM      7  C8  UNL d   1      -1.230   0.110   0.672  0.00  0.00     0.001 A 
ENDROOT
BRANCH   1   8
ATOM      8  C1  UNL d   1       0.707  -0.637  -0.766  0.00  0.00     0.053 C 
ATOM      9  C   UNL d   1       0.185   0.014  -2.036  0.00  0.00     0.018 C 
ENDBRANCH   1   8
TORSDOF 1
ENDMDL
