MODEL 1
REMARK minimizedAffinity -2.81685996
REMARK minimizedRMSD -1
REMARK  1 active torsions:
REMARK  status: ('A' for Active; 'I' for Inactive)
REMARK    1  A    between atoms: C1_2  and  C2_3 
ROOT
ATOM      1  C2  UNL d   1       0.210   0.132  -0.181  0.00  0.00    -0.073 A 
ATOM      2  C3  UNL d   1      -1.001   0.570   0.367  0.00  0.00    -0.002 A 
ATOM      3  C4  UNL d   1      -1.058   1.011   1.689  0.00  0.00     0.004 A 
ATOM      4  C5  UNL d   1       0.095   1.026   2.475  0.00  0.00    -0.004 A 
ATOM      5  C6  UNL d   1       1.317   0.603   1.942  0.00  0.00    -0.075 A 
ATOM      6  C7  UNL d   1       2.565   0.611   2.775  0.00  0.00     0.076 C 
ATOM      7  C8  UNL d   1       1.365   0.159   0.614  0.00  0.00     0.001 A 
ENDROOT
BRANCH   1   8
ATOM      8  C1  UNL d   1       0.278  -0.340  -1.610  0.00  0.00     0.053 C 
ATOM      9  C   UNL d   1       1.335   0.408  -2.408  0.00  0.00     0.018 C 
ENDBRANCH   1   8
TORSDOF 1
ENDMDL
