MODEL 1
REMARK minimizedAffinity 6.31335354
REMARK minimizedRMSD -1
REMARK  1 active torsions:
REMARK  status: ('A' for Active; 'I' for Inactive)
REMARK    1  A    between atoms: N_2  and  C1_3 
ROOT
ATOM      1  C1  UNL d   1       2.927  -1.454   2.283  0.00  0.00     0.143 A 
ATOM      2  C2  UNL d   1       2.038  -0.382   2.412  0.00  0.00    -0.057 A 
ATOM      3  C3  UNL d   1       1.234  -0.239   3.550  0.00  0.00     0.033 A 
ATOM      4  C4  UNL d   1       1.284  -1.185   4.568  0.00  0.00    -0.042 A 
ATOM      5  C5  UNL d   1       2.143  -2.272   4.449  0.00  0.00     0.033 A 
ATOM      6  C6  UNL d   1       2.948  -2.406   3.314  0.00  0.00    -0.057 A 
ENDROOT
BRANCH   1   7
ATOM      7  N   UNL d   1       3.680  -1.705   1.133  0.00  0.00    -0.732 N 
ATOM      8  C   UNL d   1       5.119  -1.842   1.210  0.00  0.00     0.284 C 
ATOM      9  H3  UNL d   1       3.231  -2.376   0.513  0.00  0.00     0.395 HD
ENDBRANCH   1   7
TORSDOF 1
ENDMDL
