MODEL 1
REMARK minimizedAffinity 4.45579863
REMARK minimizedRMSD -1
REMARK  1 active torsions:
REMARK  status: ('A' for Active; 'I' for Inactive)
REMARK    1  A    between atoms: N_2  and  C1_3 
ROOT
ATOM      1  C1  UNL d   1       0.955  -2.132   1.445  0.00  0.00     0.143 A 
ATOM      2  C2  UNL d   1      -0.289  -2.666   1.091  0.00  0.00    -0.057 A 
ATOM      3  C3  UNL d   1      -1.433  -1.862   1.029  0.00  0.00     0.033 A 
ATOM      4  C4  UNL d   1      -1.359  -0.510   1.351  0.00  0.00    -0.042 A 
ATOM      5  C5  UNL d   1      -0.138   0.036   1.730  0.00  0.00     0.033 A 
ATOM      6  C6  UNL d   1       1.002  -0.770   1.782  0.00  0.00    -0.057 A 
ENDROOT
BRANCH   1   7
ATOM      7  N   UNL d   1       2.109  -2.899   1.619  0.00  0.00    -0.732 N 
ATOM      8  C   UNL d   1       2.231  -3.803   2.742  0.00  0.00     0.284 C 
ATOM      9  H3  UNL d   1       2.461  -3.276   0.742  0.00  0.00     0.395 HD
ENDBRANCH   1   7
TORSDOF 1
ENDMDL
