MODEL 1
REMARK minimizedAffinity 5.15483999
REMARK minimizedRMSD -1
REMARK  1 active torsions:
REMARK  status: ('A' for Active; 'I' for Inactive)
REMARK    1  A    between atoms: N_2  and  C1_3 
ROOT
ATOM      1  C1  UNL d   1       1.551  -0.040   3.129  0.00  0.00     0.143 A 
ATOM      2  C2  UNL d   1       1.599  -0.348   1.765  0.00  0.00    -0.057 A 
ATOM      3  C3  UNL d   1       2.075  -1.585   1.316  0.00  0.00     0.033 A 
ATOM      4  C4  UNL d   1       2.542  -2.529   2.224  0.00  0.00    -0.042 A 
ATOM      5  C5  UNL d   1       2.527  -2.235   3.583  0.00  0.00     0.033 A 
ATOM      6  C6  UNL d   1       2.044  -1.000   4.026  0.00  0.00    -0.057 A 
ENDROOT
BRANCH   1   7
ATOM      7  N   UNL d   1       1.180   1.209   3.632  0.00  0.00    -0.732 N 
ATOM      8  C   UNL d   1       1.501   1.580   4.994  0.00  0.00     0.284 C 
ATOM      9  H3  UNL d   1       1.315   1.957   2.955  0.00  0.00     0.395 HD
ENDBRANCH   1   7
TORSDOF 1
ENDMDL
