MODEL 1
REMARK minimizedAffinity -2.41701412
REMARK minimizedRMSD -1
REMARK  1 active torsions:
REMARK  status: ('A' for Active; 'I' for Inactive)
REMARK    1  A    between atoms: N_2  and  C1_3 
ROOT
ATOM      1  C1  UNL d   1      -3.037  -1.621  -1.495  0.00  0.00     0.143 A 
ATOM      2  C2  UNL d   1      -2.658  -2.377  -2.609  0.00  0.00    -0.057 A 
ATOM      3  C3  UNL d   1      -2.377  -3.744  -2.498  0.00  0.00     0.033 A 
ATOM      4  C4  UNL d   1      -2.444  -4.375  -1.260  0.00  0.00    -0.042 A 
ATOM      5  C5  UNL d   1      -2.794  -3.638  -0.134  0.00  0.00     0.033 A 
ATOM      6  C6  UNL d   1      -3.080  -2.274  -0.254  0.00  0.00    -0.057 A 
ENDROOT
BRANCH   1   7
ATOM      7  N   UNL d   1      -3.233  -0.238  -1.524  0.00  0.00    -0.732 N 
ATOM      8  C   UNL d   1      -2.851   0.537  -2.685  0.00  0.00     0.284 C 
ATOM      9  H3  UNL d   1      -4.123   0.037  -1.115  0.00  0.00     0.395 HD
ENDBRANCH   1   7
TORSDOF 1
ENDMDL
