MODEL 1
REMARK minimizedAffinity 7.84740353
REMARK minimizedRMSD -1
REMARK  1 active torsions:
REMARK  status: ('A' for Active; 'I' for Inactive)
REMARK    1  A    between atoms: N_2  and  C1_3 
ROOT
ATOM      1  C1  UNL d   1      -1.901  -0.993   0.669  0.00  0.00     0.143 A 
ATOM      2  C2  UNL d   1      -0.689  -1.029   1.368  0.00  0.00    -0.057 A 
ATOM      3  C3  UNL d   1       0.161   0.083   1.405  0.00  0.00     0.033 A 
ATOM      4  C4  UNL d   1      -0.173   1.245   0.718  0.00  0.00    -0.042 A 
ATOM      5  C5  UNL d   1      -1.361   1.295  -0.003  0.00  0.00     0.033 A 
ATOM      6  C6  UNL d   1      -2.209   0.184  -0.031  0.00  0.00    -0.057 A 
ENDROOT
BRANCH   1   7
ATOM      7  N   UNL d   1      -2.742  -2.097   0.513  0.00  0.00    -0.732 N 
ATOM      8  C   UNL d   1      -2.191  -3.421   0.315  0.00  0.00     0.284 C 
ATOM      9  H3  UNL d   1      -3.541  -2.069   1.142  0.00  0.00     0.395 HD
ENDBRANCH   1   7
TORSDOF 1
ENDMDL
