MODEL 1
REMARK minimizedAffinity 11.8133278
REMARK minimizedRMSD -1
REMARK  1 active torsions:
REMARK  status: ('A' for Active; 'I' for Inactive)
REMARK    1  A    between atoms: N_2  and  C1_3 
ROOT
ATOM      1  C1  UNL d   1       1.197  -1.205   4.713  0.00  0.00     0.143 A 
ATOM      2  C2  UNL d   1       1.223   0.190   4.622  0.00  0.00    -0.057 A 
ATOM      3  C3  UNL d   1       1.279   0.836   3.381  0.00  0.00     0.033 A 
ATOM      4  C4  UNL d   1       1.339   0.094   2.206  0.00  0.00    -0.042 A 
ATOM      5  C5  UNL d   1       1.340  -1.295   2.274  0.00  0.00     0.033 A 
ATOM      6  C6  UNL d   1       1.277  -1.934   3.516  0.00  0.00    -0.057 A 
ENDROOT
BRANCH   1   7
ATOM      7  N   UNL d   1       1.241  -1.907   5.921  0.00  0.00    -0.732 N 
ATOM      8  C   UNL d   1       1.892  -3.197   6.000  0.00  0.00     0.284 C 
ATOM      9  H3  UNL d   1       1.424  -1.300   6.716  0.00  0.00     0.395 HD
ENDBRANCH   1   7
TORSDOF 1
ENDMDL
