MODEL 1
REMARK minimizedAffinity 3.48741388
REMARK minimizedRMSD -1
REMARK  1 active torsions:
REMARK  status: ('A' for Active; 'I' for Inactive)
REMARK    1  A    between atoms: N_2  and  C1_3 
ROOT
ATOM      1  C1  UNL d   1       1.800  -1.070   2.884  0.00  0.00     0.143 A 
ATOM      2  C2  UNL d   1       1.946  -2.249   3.622  0.00  0.00    -0.057 A 
ATOM      3  C3  UNL d   1       1.599  -2.305   4.977  0.00  0.00     0.033 A 
ATOM      4  C4  UNL d   1       1.125  -1.170   5.628  0.00  0.00    -0.042 A 
ATOM      5  C5  UNL d   1       0.996   0.019   4.920  0.00  0.00     0.033 A 
ATOM      6  C6  UNL d   1       1.338   0.067   3.565  0.00  0.00    -0.057 A 
ENDROOT
BRANCH   1   7
ATOM      7  N   UNL d   1       2.220  -0.924   1.559  0.00  0.00    -0.732 N 
ATOM      8  C   UNL d   1       3.410  -1.597   1.085  0.00  0.00     0.284 C 
ATOM      9  H3  UNL d   1       1.444  -0.940   0.902  0.00  0.00     0.395 HD
ENDBRANCH   1   7
TORSDOF 1
ENDMDL
