MODEL 1
REMARK minimizedAffinity 0.303922236
REMARK minimizedRMSD -1
REMARK  1 active torsions:
REMARK  status: ('A' for Active; 'I' for Inactive)
REMARK    1  A    between atoms: N_2  and  C1_3 
ROOT
ATOM      1  C1  UNL d   1       4.907  -1.354  -4.328  0.00  0.00     0.143 A 
ATOM      2  C2  UNL d   1       5.657  -1.493  -5.501  0.00  0.00    -0.057 A 
ATOM      3  C3  UNL d   1       6.000  -2.756  -5.998  0.00  0.00     0.033 A 
ATOM      4  C4  UNL d   1       5.623  -3.906  -5.312  0.00  0.00    -0.042 A 
ATOM      5  C5  UNL d   1       4.898  -3.791  -4.131  0.00  0.00     0.033 A 
ATOM      6  C6  UNL d   1       4.553  -2.527  -3.643  0.00  0.00    -0.057 A 
ENDROOT
BRANCH   1   7
ATOM      7  N   UNL d   1       4.619  -0.125  -3.730  0.00  0.00    -0.732 N 
ATOM      8  C   UNL d   1       4.811   0.067  -2.309  0.00  0.00     0.284 C 
ATOM      9  H3  UNL d   1       4.917   0.664  -4.300  0.00  0.00     0.395 HD
ENDBRANCH   1   7
TORSDOF 1
ENDMDL
