MODEL 1
REMARK minimizedAffinity 2.12357211
REMARK minimizedRMSD -1
REMARK  3 active torsions:
REMARK  status: ('A' for Active; 'I' for Inactive)
REMARK    1  A    between atoms: C3'_2  and  C2'_3 
REMARK    2  A    between atoms: C2'_3  and  C1'_4 
REMARK    3  A    between atoms: C1'_4  and  C1_5 
ROOT
ATOM      1  C1  N4B d   1       4.636  -1.038   1.943  0.00  0.00    -0.075 A 
ATOM      2  C2  N4B d   1       5.902  -1.299   2.512  0.00  0.00     0.002 A 
ATOM      3  C3  N4B d   1       5.999  -1.657   3.834  0.00  0.00     0.002 A 
ATOM      4  C4  N4B d   1       4.851  -1.742   4.608  0.00  0.00    -0.004 A 
ATOM      5  C5  N4B d   1       3.630  -1.514   4.044  0.00  0.00     0.002 A 
ATOM      6  C6  N4B d   1       3.517  -1.157   2.715  0.00  0.00     0.002 A 
ENDROOT
BRANCH   1   7
ATOM      7  C1' N4B d   1       4.487  -0.560   0.524  0.00  0.00     0.057 C 
BRANCH   7   8
ATOM      8  C2' N4B d   1       5.524   0.524   0.249  0.00  0.00     0.009 C 
BRANCH   8   9
ATOM      9  C3' N4B d   1       5.053   1.892   0.713  0.00  0.00     0.004 C 
ATOM     10  C4' N4B d   1       5.987   2.524   1.701  0.00  0.00     0.003 C 
ENDBRANCH   8   9
ENDBRANCH   7   8
ENDBRANCH   1   7
TORSDOF 3
ENDMDL
