MODEL 1
REMARK minimizedAffinity -3.15810299
REMARK minimizedRMSD -1
REMARK  3 active torsions:
REMARK  status: ('A' for Active; 'I' for Inactive)
REMARK    1  A    between atoms: C3'_2  and  C2'_3 
REMARK    2  A    between atoms: C2'_3  and  C1'_4 
REMARK    3  A    between atoms: C1'_4  and  C1_5 
ROOT
ATOM      1  C1  N4B d   1      -4.002   1.978   4.097  0.00  0.00    -0.075 A 
ATOM      2  C2  N4B d   1      -3.976   3.086   4.972  0.00  0.00     0.002 A 
ATOM      3  C3  N4B d   1      -4.965   3.243   5.912  0.00  0.00     0.002 A 
ATOM      4  C4  N4B d   1      -5.996   2.317   5.983  0.00  0.00    -0.004 A 
ATOM      5  C5  N4B d   1      -6.000   1.236   5.152  0.00  0.00     0.002 A 
ATOM      6  C6  N4B d   1      -5.010   1.064   4.205  0.00  0.00     0.002 A 
ENDROOT
BRANCH   1   7
ATOM      7  C1' N4B d   1      -2.990   1.810   2.997  0.00  0.00     0.057 C 
BRANCH   7   8
ATOM      8  C2' N4B d   1      -1.718   2.566   3.368  0.00  0.00     0.009 C 
BRANCH   8   9
ATOM      9  C3' N4B d   1      -0.470   1.858   2.869  0.00  0.00     0.004 C 
ATOM     10  C4' N4B d   1      -0.761   0.503   2.296  0.00  0.00     0.003 C 
ENDBRANCH   8   9
ENDBRANCH   7   8
ENDBRANCH   1   7
TORSDOF 3
ENDMDL
