MODEL 1
REMARK minimizedAffinity 4.33661318
REMARK minimizedRMSD -1
REMARK  3 active torsions:
REMARK  status: ('A' for Active; 'I' for Inactive)
REMARK    1  A    between atoms: C3'_2  and  C2'_3 
REMARK    2  A    between atoms: C2'_3  and  C1'_4 
REMARK    3  A    between atoms: C1'_4  and  C1_5 
ROOT
ATOM      1  C1  N4B d   1      -3.689   1.212   4.142  0.00  0.00    -0.075 A 
ATOM      2  C2  N4B d   1      -2.760   2.218   3.796  0.00  0.00     0.002 A 
ATOM      3  C3  N4B d   1      -1.661   1.904   3.034  0.00  0.00     0.002 A 
ATOM      4  C4  N4B d   1      -1.461   0.594   2.625  0.00  0.00    -0.004 A 
ATOM      5  C5  N4B d   1      -2.376  -0.366   2.942  0.00  0.00     0.002 A 
ATOM      6  C6  N4B d   1      -3.487  -0.065   3.704  0.00  0.00     0.002 A 
ENDROOT
BRANCH   1   7
ATOM      7  C1' N4B d   1      -4.860   1.489   5.045  0.00  0.00     0.057 C 
BRANCH   7   8
ATOM      8  C2' N4B d   1      -4.670   2.851   5.707  0.00  0.00     0.009 C 
BRANCH   8   9
ATOM      9  C3' N4B d   1      -5.997   3.530   6.000  0.00  0.00     0.004 C 
ATOM     10  C4' N4B d   1      -5.955   5.011   5.771  0.00  0.00     0.003 C 
ENDBRANCH   8   9
ENDBRANCH   7   8
ENDBRANCH   1   7
TORSDOF 3
ENDMDL
