MODEL 1
REMARK minimizedAffinity 3.03236794
REMARK minimizedRMSD -1
REMARK  3 active torsions:
REMARK  status: ('A' for Active; 'I' for Inactive)
REMARK    1  A    between atoms: C3'_2  and  C2'_3 
REMARK    2  A    between atoms: C2'_3  and  C1'_4 
REMARK    3  A    between atoms: C1'_4  and  C1_5 
ROOT
ATOM      1  C1  N4B d   1      -0.667  -5.452  -1.276  0.00  0.00    -0.075 A 
ATOM      2  C2  N4B d   1      -0.081  -5.999  -2.438  0.00  0.00     0.002 A 
ATOM      3  C3  N4B d   1       1.044  -5.424  -2.977  0.00  0.00     0.002 A 
ATOM      4  C4  N4B d   1       1.587  -4.294  -2.383  0.00  0.00    -0.004 A 
ATOM      5  C5  N4B d   1       1.030  -3.787  -1.246  0.00  0.00     0.002 A 
ATOM      6  C6  N4B d   1      -0.098  -4.357  -0.692  0.00  0.00     0.002 A 
ENDROOT
BRANCH   1   7
ATOM      7  C1' N4B d   1      -1.946  -5.995  -0.700  0.00  0.00     0.057 C 
BRANCH   7   8
ATOM      8  C2' N4B d   1      -3.088  -5.038  -1.027  0.00  0.00     0.009 C 
BRANCH   8   9
ATOM      9  C3' N4B d   1      -2.766  -3.610  -0.623  0.00  0.00     0.004 C 
ATOM     10  C4' N4B d   1      -3.634  -2.601  -1.314  0.00  0.00     0.003 C 
ENDBRANCH   8   9
ENDBRANCH   7   8
ENDBRANCH   1   7
TORSDOF 3
ENDMDL
