MODEL 1
REMARK minimizedAffinity 4.87766409
REMARK minimizedRMSD -1
REMARK  3 active torsions:
REMARK  status: ('A' for Active; 'I' for Inactive)
REMARK    1  A    between atoms: C3'_2  and  C2'_3 
REMARK    2  A    between atoms: C2'_3  and  C1'_4 
REMARK    3  A    between atoms: C1'_4  and  C1_5 
ROOT
ATOM      1  C1  N4B d   1      -3.070   1.866   2.741  0.00  0.00    -0.075 A 
ATOM      2  C2  N4B d   1      -3.396   2.306   1.439  0.00  0.00     0.002 A 
ATOM      3  C3  N4B d   1      -2.403   2.709   0.581  0.00  0.00     0.002 A 
ATOM      4  C4  N4B d   1      -1.083   2.699   1.007  0.00  0.00    -0.004 A 
ATOM      5  C5  N4B d   1      -0.773   2.248   2.257  0.00  0.00     0.002 A 
ATOM      6  C6  N4B d   1      -1.761   1.836   3.128  0.00  0.00     0.002 A 
ENDROOT
BRANCH   1   7
ATOM      7  C1' N4B d   1      -4.128   1.497   3.743  0.00  0.00     0.057 C 
BRANCH   7   8
ATOM      8  C2' N4B d   1      -4.011   2.415   4.956  0.00  0.00     0.009 C 
BRANCH   8   9
ATOM      9  C3' N4B d   1      -5.347   2.608   5.653  0.00  0.00     0.004 C 
ATOM     10  C4' N4B d   1      -5.620   4.042   5.997  0.00  0.00     0.003 C 
ENDBRANCH   8   9
ENDBRANCH   7   8
ENDBRANCH   1   7
TORSDOF 3
ENDMDL
