MODEL 1
REMARK minimizedAffinity -0.994038939
REMARK minimizedRMSD -1
REMARK  3 active torsions:
REMARK  status: ('A' for Active; 'I' for Inactive)
REMARK    1  A    between atoms: C3'_2  and  C2'_3 
REMARK    2  A    between atoms: C2'_3  and  C1'_4 
REMARK    3  A    between atoms: C1'_4  and  C1_5 
ROOT
ATOM      1  C1  N4B d   1      -1.681   1.652   2.290  0.00  0.00    -0.075 A 
ATOM      2  C2  N4B d   1      -0.395   2.092   1.907  0.00  0.00     0.002 A 
ATOM      3  C3  N4B d   1       0.556   1.180   1.520  0.00  0.00     0.002 A 
ATOM      4  C4  N4B d   1       0.250  -0.173   1.525  0.00  0.00    -0.004 A 
ATOM      5  C5  N4B d   1      -1.002  -0.588   1.872  0.00  0.00     0.002 A 
ATOM      6  C6  N4B d   1      -1.969   0.318   2.259  0.00  0.00     0.002 A 
ENDROOT
BRANCH   1   7
ATOM      7  C1' N4B d   1      -2.727   2.604   2.803  0.00  0.00     0.057 C 
BRANCH   7   8
ATOM      8  C2' N4B d   1      -3.610   1.880   3.814  0.00  0.00     0.009 C 
BRANCH   8   9
ATOM      9  C3' N4B d   1      -4.562   2.831   4.520  0.00  0.00     0.004 C 
ATOM     10  C4' N4B d   1      -4.635   2.588   5.998  0.00  0.00     0.003 C 
ENDBRANCH   8   9
ENDBRANCH   7   8
ENDBRANCH   1   7
TORSDOF 3
ENDMDL
