MODEL 1
REMARK minimizedAffinity 5.79136086
REMARK minimizedRMSD -1
REMARK  3 active torsions:
REMARK  status: ('A' for Active; 'I' for Inactive)
REMARK    1  A    between atoms: C3'_2  and  C2'_3 
REMARK    2  A    between atoms: C2'_3  and  C1'_4 
REMARK    3  A    between atoms: C1'_4  and  C1_5 
ROOT
ATOM      1  C1  N4B d   1      -4.048   1.789   4.090  0.00  0.00    -0.075 A 
ATOM      2  C2  N4B d   1      -5.267   2.332   3.629  0.00  0.00     0.002 A 
ATOM      3  C3  N4B d   1      -5.912   3.294   4.367  0.00  0.00     0.002 A 
ATOM      4  C4  N4B d   1      -5.370   3.711   5.573  0.00  0.00    -0.004 A 
ATOM      5  C5  N4B d   1      -4.179   3.200   5.999  0.00  0.00     0.002 A 
ATOM      6  C6  N4B d   1      -3.517   2.236   5.265  0.00  0.00     0.002 A 
ENDROOT
BRANCH   1   7
ATOM      7  C1' N4B d   1      -3.349   0.674   3.360  0.00  0.00     0.057 C 
BRANCH   7   8
ATOM      8  C2' N4B d   1      -2.383   1.271   2.341  0.00  0.00     0.009 C 
BRANCH   8   9
ATOM      9  C3' N4B d   1      -1.116   1.792   2.997  0.00  0.00     0.004 C 
ATOM     10  C4' N4B d   1       0.018   1.947   2.028  0.00  0.00     0.003 C 
ENDBRANCH   8   9
ENDBRANCH   7   8
ENDBRANCH   1   7
TORSDOF 3
ENDMDL
