MODEL 1
REMARK minimizedAffinity 6.03506804
REMARK minimizedRMSD -1
REMARK  3 active torsions:
REMARK  status: ('A' for Active; 'I' for Inactive)
REMARK    1  A    between atoms: C3'_2  and  C2'_3 
REMARK    2  A    between atoms: C2'_3  and  C1'_4 
REMARK    3  A    between atoms: C1'_4  and  C1_5 
ROOT
ATOM      1  C1  N4B d   1      -2.955   2.615   3.395  0.00  0.00    -0.075 A 
ATOM      2  C2  N4B d   1      -1.747   2.004   3.798  0.00  0.00     0.002 A 
ATOM      3  C3  N4B d   1      -0.611   2.164   3.042  0.00  0.00     0.002 A 
ATOM      4  C4  N4B d   1      -0.664   2.912   1.875  0.00  0.00    -0.004 A 
ATOM      5  C5  N4B d   1      -1.829   3.519   1.507  0.00  0.00     0.002 A 
ATOM      6  C6  N4B d   1      -2.976   3.370   2.259  0.00  0.00     0.002 A 
ENDROOT
BRANCH   1   7
ATOM      7  C1' N4B d   1      -4.242   2.398   4.143  0.00  0.00     0.057 C 
BRANCH   7   8
ATOM      8  C2' N4B d   1      -4.235   3.248   5.410  0.00  0.00     0.009 C 
BRANCH   8   9
ATOM      9  C3' N4B d   1      -5.639   3.502   5.932  0.00  0.00     0.004 C 
ATOM     10  C4' N4B d   1      -5.997   4.958   5.948  0.00  0.00     0.003 C 
ENDBRANCH   8   9
ENDBRANCH   7   8
ENDBRANCH   1   7
TORSDOF 3
ENDMDL
