MODEL 1
REMARK minimizedAffinity 0.302511543
REMARK minimizedRMSD -1
REMARK  3 active torsions:
REMARK  status: ('A' for Active; 'I' for Inactive)
REMARK    1  A    between atoms: C3'_2  and  C2'_3 
REMARK    2  A    between atoms: C2'_3  and  C1'_4 
REMARK    3  A    between atoms: C1'_4  and  C1_5 
ROOT
ATOM      1  C1  N4B d   1      -1.037  -3.865  -1.668  0.00  0.00    -0.075 A 
ATOM      2  C2  N4B d   1      -1.836  -4.254  -0.571  0.00  0.00     0.002 A 
ATOM      3  C3  N4B d   1      -3.134  -3.814  -0.477  0.00  0.00     0.002 A 
ATOM      4  C4  N4B d   1      -3.645  -2.973  -1.454  0.00  0.00    -0.004 A 
ATOM      5  C5  N4B d   1      -2.875  -2.623  -2.524  0.00  0.00     0.002 A 
ATOM      6  C6  N4B d   1      -1.570  -3.061  -2.633  0.00  0.00     0.002 A 
ENDROOT
BRANCH   1   7
ATOM      7  C1' N4B d   1       0.414  -4.250  -1.770  0.00  0.00     0.057 C 
BRANCH   7   8
ATOM      8  C2' N4B d   1       1.057  -3.483  -2.921  0.00  0.00     0.009 C 
BRANCH   8   9
ATOM      9  C3' N4B d   1       2.274  -4.203  -3.475  0.00  0.00     0.004 C 
ATOM     10  C4' N4B d   1       1.929  -5.173  -4.565  0.00  0.00     0.003 C 
ENDBRANCH   8   9
ENDBRANCH   7   8
ENDBRANCH   1   7
TORSDOF 3
ENDMDL
