MODEL 1
REMARK minimizedAffinity 12.4315987
REMARK minimizedRMSD -1
REMARK  3 active torsions:
REMARK  status: ('A' for Active; 'I' for Inactive)
REMARK    1  A    between atoms: C3'_2  and  C2'_3 
REMARK    2  A    between atoms: C2'_3  and  C1'_4 
REMARK    3  A    between atoms: C1'_4  and  C1_5 
ROOT
ATOM      1  C1  N4B d   1      -3.988   2.146   4.645  0.00  0.00    -0.075 A 
ATOM      2  C2  N4B d   1      -4.985   1.424   5.338  0.00  0.00     0.002 A 
ATOM      3  C3  N4B d   1      -5.983   2.095   6.000  0.00  0.00     0.002 A 
ATOM      4  C4  N4B d   1      -5.996   3.482   5.998  0.00  0.00    -0.004 A 
ATOM      5  C5  N4B d   1      -5.044   4.171   5.305  0.00  0.00     0.002 A 
ATOM      6  C6  N4B d   1      -4.037   3.510   4.632  0.00  0.00     0.002 A 
ENDROOT
BRANCH   1   7
ATOM      7  C1' N4B d   1      -2.828   1.458   3.979  0.00  0.00     0.057 C 
BRANCH   7   8
ATOM      8  C2' N4B d   1      -1.784   2.500   3.590  0.00  0.00     0.009 C 
BRANCH   8   9
ATOM      9  C3' N4B d   1      -0.950   2.054   2.401  0.00  0.00     0.004 C 
ATOM     10  C4' N4B d   1      -0.758   3.141   1.386  0.00  0.00     0.003 C 
ENDBRANCH   8   9
ENDBRANCH   7   8
ENDBRANCH   1   7
TORSDOF 3
ENDMDL
