MODEL 1
REMARK minimizedAffinity -4.06506729
REMARK minimizedRMSD -1
REMARK  0 active torsions:
REMARK  status: ('A' for Active; 'I' for Inactive)
ROOT
ATOM      1  C   UNL d   1      -0.653  -0.063  -0.403  0.00  0.00     0.078 C 
ATOM      2  C1  UNL d   1       0.383  -0.583   0.547  0.00  0.00    -0.077 A 
ATOM      3  C2  UNL d   1       1.571  -1.157   0.076  0.00  0.00    -0.001 A 
ATOM      4  C3  UNL d   1       2.522  -1.646   0.973  0.00  0.00     0.003 A 
ATOM      5  C4  UNL d   1       2.296  -1.567   2.345  0.00  0.00    -0.005 A 
ATOM      6  C5  UNL d   1       1.117  -0.999   2.823  0.00  0.00     0.003 A 
ATOM      7  C6  UNL d   1       0.164  -0.510   1.929  0.00  0.00    -0.001 A 
ENDROOT
TORSDOF 0
ENDMDL
