MODEL 1
REMARK minimizedAffinity -4.5373292
REMARK minimizedRMSD -1
REMARK  0 active torsions:
REMARK  status: ('A' for Active; 'I' for Inactive)
ROOT
ATOM      1  C   UNL d   1       0.123  -0.330   2.736  0.00  0.00     0.078 C 
ATOM      2  C1  UNL d   1       0.084  -0.349   1.237  0.00  0.00    -0.077 A 
ATOM      3  C2  UNL d   1       1.189  -0.776   0.492  0.00  0.00    -0.001 A 
ATOM      4  C3  UNL d   1       1.142  -0.779  -0.903  0.00  0.00     0.003 A 
ATOM      5  C4  UNL d   1      -0.008  -0.355  -1.565  0.00  0.00    -0.005 A 
ATOM      6  C5  UNL d   1      -1.113   0.074  -0.832  0.00  0.00     0.003 A 
ATOM      7  C6  UNL d   1      -1.067   0.078   0.563  0.00  0.00    -0.001 A 
ENDROOT
TORSDOF 0
ENDMDL
