MODEL 1
REMARK minimizedAffinity -5.84324884
REMARK minimizedRMSD -1
REMARK  0 active torsions:
REMARK  status: ('A' for Active; 'I' for Inactive)
ROOT
ATOM      1  C   UNL d   1      -0.555  -0.190  -0.575  0.00  0.00     0.078 C 
ATOM      2  C1  UNL d   1       0.206  -0.413   0.697  0.00  0.00    -0.077 A 
ATOM      3  C2  UNL d   1      -0.325  -0.024   1.933  0.00  0.00    -0.001 A 
ATOM      4  C3  UNL d   1       0.399  -0.229   3.109  0.00  0.00     0.003 A 
ATOM      5  C4  UNL d   1       1.659  -0.821   3.060  0.00  0.00    -0.005 A 
ATOM      6  C5  UNL d   1       2.198  -1.208   1.835  0.00  0.00     0.003 A 
ATOM      7  C6  UNL d   1       1.475  -1.005   0.658  0.00  0.00    -0.001 A 
ENDROOT
TORSDOF 0
ENDMDL
