MODEL 1
REMARK minimizedAffinity -5.56560946
REMARK minimizedRMSD -1
REMARK  0 active torsions:
REMARK  status: ('A' for Active; 'I' for Inactive)
ROOT
ATOM      1  C   UNL d   1       1.220  -0.575   3.126  0.00  0.00     0.078 C 
ATOM      2  C1  UNL d   1       0.665  -0.470   1.737  0.00  0.00    -0.077 A 
ATOM      3  C2  UNL d   1      -0.686  -0.170   1.521  0.00  0.00    -0.001 A 
ATOM      4  C3  UNL d   1      -1.191  -0.085   0.223  0.00  0.00     0.003 A 
ATOM      5  C4  UNL d   1      -0.353  -0.299  -0.870  0.00  0.00    -0.005 A 
ATOM      6  C5  UNL d   1       0.992  -0.601  -0.665  0.00  0.00     0.003 A 
ATOM      7  C6  UNL d   1       1.499  -0.686   0.633  0.00  0.00    -0.001 A 
ENDROOT
TORSDOF 0
ENDMDL
