MODEL 1
REMARK minimizedAffinity -4.01982498
REMARK minimizedRMSD -1
REMARK  0 active torsions:
REMARK  status: ('A' for Active; 'I' for Inactive)
ROOT
ATOM      1  C   UNL d   1       1.452   0.029   2.589  0.00  0.00     0.078 C 
ATOM      2  C1  UNL d   1       0.624  -0.022   1.340  0.00  0.00    -0.077 A 
ATOM      3  C2  UNL d   1      -0.747  -0.303   1.394  0.00  0.00    -0.001 A 
ATOM      4  C3  UNL d   1      -1.503  -0.356   0.222  0.00  0.00     0.003 A 
ATOM      5  C4  UNL d   1      -0.898  -0.132  -1.012  0.00  0.00    -0.005 A 
ATOM      6  C5  UNL d   1       0.466   0.146  -1.077  0.00  0.00     0.003 A 
ATOM      7  C6  UNL d   1       1.224   0.200   0.094  0.00  0.00    -0.001 A 
ENDROOT
TORSDOF 0
ENDMDL
