MODEL 1
REMARK minimizedAffinity -5.08539724
REMARK minimizedRMSD -1
REMARK  0 active torsions:
REMARK  status: ('A' for Active; 'I' for Inactive)
ROOT
ATOM      1  C   UNL d   1      -0.398   0.580  -1.231  0.00  0.00     0.078 C 
ATOM      2  C1  UNL d   1      -0.016   0.183   0.164  0.00  0.00    -0.077 A 
ATOM      3  C2  UNL d   1      -0.975  -0.288   1.068  0.00  0.00    -0.001 A 
ATOM      4  C3  UNL d   1      -0.607  -0.644   2.367  0.00  0.00     0.003 A 
ATOM      5  C4  UNL d   1       0.722  -0.532   2.772  0.00  0.00    -0.005 A 
ATOM      6  C5  UNL d   1       1.683  -0.063   1.880  0.00  0.00     0.003 A 
ATOM      7  C6  UNL d   1       1.317   0.294   0.581  0.00  0.00    -0.001 A 
ENDROOT
TORSDOF 0
ENDMDL
