MODEL 1
REMARK minimizedAffinity 17.9916553
REMARK minimizedRMSD -1
REMARK  0 active torsions:
REMARK  status: ('A' for Active; 'I' for Inactive)
ROOT
ATOM      1  C2' OXE d   1       1.323  -2.405   4.408  0.00  0.00     0.078 C 
ATOM      2  C1' OXE d   1       1.935   0.302   4.828  0.00  0.00     0.078 C 
ATOM      3  C1  OXE d   1       1.025  -0.043   3.675  0.00  0.00    -0.078 A 
ATOM      4  C2  OXE d   1       0.769  -1.374   3.449  0.00  0.00    -0.078 A 
ATOM      5  C3  OXE d   1      -0.108  -1.744   2.432  0.00  0.00     0.003 A 
ATOM      6  C4  OXE d   1      -0.608  -0.785   1.544  0.00  0.00    -0.002 A 
ATOM      7  C5  OXE d   1      -0.326   0.573   1.732  0.00  0.00    -0.002 A 
ATOM      8  C6  OXE d   1       0.452   0.963   2.816  0.00  0.00     0.003 A 
ENDROOT
TORSDOF 0
ENDMDL
