MODEL 1
REMARK minimizedAffinity 11.5003519
REMARK minimizedRMSD -1
REMARK  0 active torsions:
REMARK  status: ('A' for Active; 'I' for Inactive)
ROOT
ATOM      1  C2' OXE d   1       2.251  -1.834   4.310  0.00  0.00     0.078 C 
ATOM      2  C1' OXE d   1       2.777   0.883   3.839  0.00  0.00     0.078 C 
ATOM      3  C1  OXE d   1       1.398   0.366   3.512  0.00  0.00    -0.078 A 
ATOM      4  C2  OXE d   1       1.164  -0.975   3.701  0.00  0.00    -0.078 A 
ATOM      5  C3  OXE d   1      -0.107  -1.492   3.467  0.00  0.00     0.003 A 
ATOM      6  C4  OXE d   1      -1.104  -0.692   2.895  0.00  0.00    -0.002 A 
ATOM      7  C5  OXE d   1      -0.873   0.667   2.656  0.00  0.00    -0.002 A 
ATOM      8  C6  OXE d   1       0.356   1.220   2.998  0.00  0.00     0.003 A 
ENDROOT
TORSDOF 0
ENDMDL
