MODEL 1
REMARK minimizedAffinity 10.5488997
REMARK minimizedRMSD -1
REMARK  0 active torsions:
REMARK  status: ('A' for Active; 'I' for Inactive)
ROOT
ATOM      1  C2' OXE d   1      -0.146  -0.300   2.016  0.00  0.00     0.078 C 
ATOM      2  C1' OXE d   1       1.837  -0.082   3.991  0.00  0.00     0.078 C 
ATOM      3  C1  OXE d   1       1.950   0.808   2.779  0.00  0.00    -0.078 A 
ATOM      4  C2  OXE d   1       1.001   0.662   1.796  0.00  0.00    -0.078 A 
ATOM      5  C3  OXE d   1       1.028   1.496   0.682  0.00  0.00     0.003 A 
ATOM      6  C4  OXE d   1       2.098   2.376   0.481  0.00  0.00    -0.002 A 
ATOM      7  C5  OXE d   1       3.097   2.513   1.451  0.00  0.00    -0.002 A 
ATOM      8  C6  OXE d   1       3.015   1.768   2.623  0.00  0.00     0.003 A 
ENDROOT
TORSDOF 0
ENDMDL
