MODEL 1
REMARK minimizedAffinity 10.8708372
REMARK minimizedRMSD -1
REMARK  0 active torsions:
REMARK  status: ('A' for Active; 'I' for Inactive)
ROOT
ATOM      1  C2' OXE d   1       4.180   0.445  -5.535  0.00  0.00     0.078 C 
ATOM      2  C1' OXE d   1       4.334  -2.257  -4.790  0.00  0.00     0.078 C 
ATOM      3  C1  OXE d   1       2.980  -1.706  -5.161  0.00  0.00    -0.078 A 
ATOM      4  C2  OXE d   1       2.906  -0.371  -5.479  0.00  0.00    -0.078 A 
ATOM      5  C3  OXE d   1       1.691   0.176  -5.881  0.00  0.00     0.003 A 
ATOM      6  C4  OXE d   1       0.516  -0.583  -5.817  0.00  0.00    -0.002 A 
ATOM      7  C5  OXE d   1       0.563  -1.934  -5.457  0.00  0.00    -0.002 A 
ATOM      8  C6  OXE d   1       1.790  -2.521  -5.168  0.00  0.00     0.003 A 
ENDROOT
TORSDOF 0
ENDMDL
