MODEL 1
REMARK minimizedAffinity 6.13232088
REMARK minimizedRMSD -1
REMARK  0 active torsions:
REMARK  status: ('A' for Active; 'I' for Inactive)
ROOT
ATOM      1  C2' OXE d   1      -1.089   1.619   2.417  0.00  0.00     0.078 C 
ATOM      2  C1' OXE d   1      -2.441  -0.831   2.643  0.00  0.00     0.078 C 
ATOM      3  C1  OXE d   1      -1.002  -0.778   3.089  0.00  0.00    -0.078 A 
ATOM      4  C2  OXE d   1      -0.334   0.412   2.932  0.00  0.00    -0.078 A 
ATOM      5  C3  OXE d   1       0.979   0.530   3.377  0.00  0.00     0.003 A 
ATOM      6  C4  OXE d   1       1.674  -0.593   3.842  0.00  0.00    -0.002 A 
ATOM      7  C5  OXE d   1       1.024  -1.825   3.974  0.00  0.00    -0.002 A 
ATOM      8  C6  OXE d   1      -0.322  -1.924   3.642  0.00  0.00     0.003 A 
ENDROOT
TORSDOF 0
ENDMDL
