MODEL 1
REMARK minimizedAffinity 1.76985729
REMARK minimizedRMSD -1
REMARK  0 active torsions:
REMARK  status: ('A' for Active; 'I' for Inactive)
ROOT
ATOM      1  C2' OXE d   1       0.113   1.930   2.068  0.00  0.00     0.078 C 
ATOM      2  C1' OXE d   1       2.791   1.831   2.903  0.00  0.00     0.078 C 
ATOM      3  C1  OXE d   1       1.910   0.649   3.224  0.00  0.00    -0.078 A 
ATOM      4  C2  OXE d   1       0.590   0.726   2.852  0.00  0.00    -0.078 A 
ATOM      5  C3  OXE d   1      -0.253  -0.359   3.074  0.00  0.00     0.003 A 
ATOM      6  C4  OXE d   1       0.192  -1.464   3.809  0.00  0.00    -0.002 A 
ATOM      7  C5  OXE d   1       1.523  -1.545   4.232  0.00  0.00    -0.002 A 
ATOM      8  C6  OXE d   1       2.404  -0.519   3.911  0.00  0.00     0.003 A 
ENDROOT
TORSDOF 0
ENDMDL
