MODEL 1
REMARK minimizedAffinity 8.00002766
REMARK minimizedRMSD -1
REMARK  0 active torsions:
REMARK  status: ('A' for Active; 'I' for Inactive)
ROOT
ATOM      1  C2' OXE d   1       2.936  -3.723  -5.989  0.00  0.00     0.078 C 
ATOM      2  C1' OXE d   1       0.155  -3.343  -5.997  0.00  0.00     0.078 C 
ATOM      3  C1  OXE d   1       1.026  -2.160  -5.655  0.00  0.00    -0.078 A 
ATOM      4  C2  OXE d   1       2.383  -2.366  -5.607  0.00  0.00    -0.078 A 
ATOM      5  C3  OXE d   1       3.235  -1.296  -5.350  0.00  0.00     0.003 A 
ATOM      6  C4  OXE d   1       2.715  -0.047  -4.989  0.00  0.00    -0.002 A 
ATOM      7  C5  OXE d   1       1.333   0.174  -4.992  0.00  0.00    -0.002 A 
ATOM      8  C6  OXE d   1       0.479  -0.858  -5.363  0.00  0.00     0.003 A 
ENDROOT
TORSDOF 0
ENDMDL
