MODEL 1
REMARK minimizedAffinity 13.9886341
REMARK minimizedRMSD -1
REMARK  0 active torsions:
REMARK  status: ('A' for Active; 'I' for Inactive)
ROOT
ATOM      1  C2' OXE d   1       5.888   1.471   1.419  0.00  0.00     0.078 C 
ATOM      2  C1' OXE d   1       5.999   0.725   4.123  0.00  0.00     0.078 C 
ATOM      3  C1  OXE d   1       5.271   1.999   3.774  0.00  0.00    -0.078 A 
ATOM      4  C2  OXE d   1       5.261   2.381   2.454  0.00  0.00    -0.078 A 
ATOM      5  C3  OXE d   1       4.557   3.519   2.070  0.00  0.00     0.003 A 
ATOM      6  C4  OXE d   1       3.989   4.359   3.034  0.00  0.00    -0.002 A 
ATOM      7  C5  OXE d   1       4.021   4.010   4.389  0.00  0.00    -0.002 A 
ATOM      8  C6  OXE d   1       4.620   2.814   4.770  0.00  0.00     0.003 A 
ENDROOT
TORSDOF 0
ENDMDL
