MODEL 1
REMARK minimizedAffinity 9.16243935
REMARK minimizedRMSD -1
REMARK  0 active torsions:
REMARK  status: ('A' for Active; 'I' for Inactive)
ROOT
ATOM      1  C2' OXE d   1      -1.846  -1.500  -3.285  0.00  0.00     0.078 C 
ATOM      2  C1' OXE d   1      -1.481  -3.285  -5.420  0.00  0.00     0.078 C 
ATOM      3  C1  OXE d   1      -0.418  -2.240  -5.187  0.00  0.00    -0.078 A 
ATOM      4  C2  OXE d   1      -0.628  -1.341  -4.169  0.00  0.00    -0.078 A 
ATOM      5  C3  OXE d   1       0.346  -0.392  -3.876  0.00  0.00     0.003 A 
ATOM      6  C4  OXE d   1       1.465  -0.245  -4.705  0.00  0.00    -0.002 A 
ATOM      7  C5  OXE d   1       1.678  -1.125  -5.772  0.00  0.00    -0.002 A 
ATOM      8  C6  OXE d   1       0.769  -2.152  -6.000  0.00  0.00     0.003 A 
ENDROOT
TORSDOF 0
ENDMDL
