MODEL 1
REMARK minimizedAffinity 16.5721207
REMARK minimizedRMSD -1
REMARK  0 active torsions:
REMARK  status: ('A' for Active; 'I' for Inactive)
ROOT
ATOM      1  C2' OXE d   1      -2.533  -1.448  -3.628  0.00  0.00     0.078 C 
ATOM      2  C1' OXE d   1      -1.982  -3.663  -5.262  0.00  0.00     0.078 C 
ATOM      3  C1  OXE d   1      -0.977  -2.538  -5.239  0.00  0.00    -0.078 A 
ATOM      4  C2  OXE d   1      -1.277  -1.438  -4.473  0.00  0.00    -0.078 A 
ATOM      5  C3  OXE d   1      -0.359  -0.396  -4.373  0.00  0.00     0.003 A 
ATOM      6  C4  OXE d   1       0.795  -0.390  -5.165  0.00  0.00    -0.002 A 
ATOM      7  C5  OXE d   1       1.100  -1.483  -5.983  0.00  0.00    -0.002 A 
ATOM      8  C6  OXE d   1       0.248  -2.581  -5.999  0.00  0.00     0.003 A 
ENDROOT
TORSDOF 0
ENDMDL
