MODEL 1
REMARK minimizedAffinity -1.7779448
REMARK minimizedRMSD -1
REMARK  0 active torsions:
REMARK  status: ('A' for Active; 'I' for Inactive)
ROOT
ATOM      1  C   UNL d   1      -0.610   5.781   5.591  0.00  0.00     0.172 C 
ATOM      2  N   UNL d   1      -1.959   5.274   5.681  0.00  0.00    -0.070 N 
ATOM      3  C1  UNL d   1      -3.101   5.999   5.466  0.00  0.00    -0.004 A 
ATOM      4  C2  UNL d   1      -4.176   5.157   5.648  0.00  0.00    -0.047 A 
ATOM      5  C3  UNL d   1      -3.663   3.882   5.985  0.00  0.00    -0.047 A 
ATOM      6  C4  UNL d   1      -2.288   3.983   5.999  0.00  0.00    -0.004 A 
ENDROOT
TORSDOF 0
ENDMDL
