MODEL 1
REMARK minimizedAffinity 2.0305872
REMARK minimizedRMSD -1
REMARK  0 active torsions:
REMARK  status: ('A' for Active; 'I' for Inactive)
ROOT
ATOM      1  C   UNL d   1       1.348  -0.753   2.023  0.00  0.00     0.172 C 
ATOM      2  N   UNL d   1       1.684  -2.041   1.464  0.00  0.00    -0.070 N 
ATOM      3  C1  UNL d   1       0.929  -2.741   0.561  0.00  0.00    -0.004 A 
ATOM      4  C2  UNL d   1       1.592  -3.916   0.278  0.00  0.00    -0.047 A 
ATOM      5  C3  UNL d   1       2.786  -3.923   1.037  0.00  0.00    -0.047 A 
ATOM      6  C4  UNL d   1       2.818  -2.750   1.762  0.00  0.00    -0.004 A 
ENDROOT
TORSDOF 0
ENDMDL
