MODEL 1
REMARK minimizedAffinity 1.10766888
REMARK minimizedRMSD -1
REMARK  0 active torsions:
REMARK  status: ('A' for Active; 'I' for Inactive)
ROOT
ATOM      1  C   UNL d   1       4.750  -2.437   5.777  0.00  0.00     0.172 C 
ATOM      2  N   UNL d   1       4.774  -3.879   5.848  0.00  0.00    -0.070 N 
ATOM      3  C1  UNL d   1       3.677  -4.698   5.814  0.00  0.00    -0.004 A 
ATOM      4  C2  UNL d   1       4.120  -6.000   5.906  0.00  0.00    -0.047 A 
ATOM      5  C3  UNL d   1       5.531  -5.962   6.000  0.00  0.00    -0.047 A 
ATOM      6  C4  UNL d   1       5.910  -4.636   5.962  0.00  0.00    -0.004 A 
ENDROOT
TORSDOF 0
ENDMDL
