MODEL 1
REMARK minimizedAffinity 3.18442535
REMARK minimizedRMSD -1
REMARK  0 active torsions:
REMARK  status: ('A' for Active; 'I' for Inactive)
ROOT
ATOM      1  C   UNL d   1       4.344  -5.971   5.994  0.00  0.00     0.172 C 
ATOM      2  N   UNL d   1       4.639  -4.557   5.994  0.00  0.00    -0.070 N 
ATOM      3  C1  UNL d   1       3.713  -3.548   5.986  0.00  0.00    -0.004 A 
ATOM      4  C2  UNL d   1       4.394  -2.350   5.988  0.00  0.00    -0.047 A 
ATOM      5  C3  UNL d   1       5.777  -2.649   5.997  0.00  0.00    -0.047 A 
ATOM      6  C4  UNL d   1       5.900  -4.023   6.000  0.00  0.00    -0.004 A 
ENDROOT
TORSDOF 0
ENDMDL
