MODEL 1
REMARK minimizedAffinity 2.63706279
REMARK minimizedRMSD -1
REMARK  0 active torsions:
REMARK  status: ('A' for Active; 'I' for Inactive)
ROOT
ATOM      1  C   UNL d   1      -2.281   2.692  -3.432  0.00  0.00     0.172 C 
ATOM      2  N   UNL d   1      -2.655   1.528  -2.664  0.00  0.00    -0.070 N 
ATOM      3  C1  UNL d   1      -3.764   1.420  -1.867  0.00  0.00    -0.004 A 
ATOM      4  C2  UNL d   1      -3.763   0.159  -1.311  0.00  0.00    -0.047 A 
ATOM      5  C3  UNL d   1      -2.613  -0.514  -1.789  0.00  0.00    -0.047 A 
ATOM      6  C4  UNL d   1      -1.946   0.357  -2.625  0.00  0.00    -0.004 A 
ENDROOT
TORSDOF 0
ENDMDL
