MODEL 1
REMARK minimizedAffinity 2.32728267
REMARK minimizedRMSD -1
REMARK  0 active torsions:
REMARK  status: ('A' for Active; 'I' for Inactive)
ROOT
ATOM      1  C   UNL d   1       5.026  -2.184   4.804  0.00  0.00     0.172 C 
ATOM      2  N   UNL d   1       3.977  -1.906   3.852  0.00  0.00    -0.070 N 
ATOM      3  C1  UNL d   1       3.862  -2.463   2.606  0.00  0.00    -0.004 A 
ATOM      4  C2  UNL d   1       2.733  -1.941   2.013  0.00  0.00    -0.047 A 
ATOM      5  C3  UNL d   1       2.150  -1.038   2.934  0.00  0.00    -0.047 A 
ATOM      6  C4  UNL d   1       2.941  -1.036   4.063  0.00  0.00    -0.004 A 
ENDROOT
TORSDOF 0
ENDMDL
