MODEL 1
REMARK minimizedAffinity 3.06211495
REMARK minimizedRMSD -1
REMARK  0 active torsions:
REMARK  status: ('A' for Active; 'I' for Inactive)
ROOT
ATOM      1  C   UNL d   1       2.262  -3.064  -0.533  0.00  0.00     0.172 C 
ATOM      2  N   UNL d   1       1.713  -2.312   0.571  0.00  0.00    -0.070 N 
ATOM      3  C1  UNL d   1       2.421  -1.832   1.640  0.00  0.00    -0.004 A 
ATOM      4  C2  UNL d   1       1.540  -1.173   2.469  0.00  0.00    -0.047 A 
ATOM      5  C3  UNL d   1       0.257  -1.260   1.878  0.00  0.00    -0.047 A 
ATOM      6  C4  UNL d   1       0.393  -1.970   0.704  0.00  0.00    -0.004 A 
ENDROOT
TORSDOF 0
ENDMDL
