MODEL 1
REMARK minimizedAffinity 3.84047103
REMARK minimizedRMSD -1
REMARK  0 active torsions:
REMARK  status: ('A' for Active; 'I' for Inactive)
ROOT
ATOM      1  C   UNL d   1      -4.120   2.397   5.971  0.00  0.00     0.172 C 
ATOM      2  N   UNL d   1      -4.165   3.841   5.980  0.00  0.00    -0.070 N 
ATOM      3  C1  UNL d   1      -3.078   4.673   5.977  0.00  0.00    -0.004 A 
ATOM      4  C2  UNL d   1      -3.540   5.971   5.988  0.00  0.00    -0.047 A 
ATOM      5  C3  UNL d   1      -4.954   5.917   5.999  0.00  0.00    -0.047 A 
ATOM      6  C4  UNL d   1      -5.314   4.586   5.994  0.00  0.00    -0.004 A 
ENDROOT
TORSDOF 0
ENDMDL
