MODEL 1
REMARK minimizedAffinity 6.26571465
REMARK minimizedRMSD -1
REMARK  0 active torsions:
REMARK  status: ('A' for Active; 'I' for Inactive)
ROOT
ATOM      1  C   UNL d   1      -3.623   2.982  -3.815  0.00  0.00     0.172 C 
ATOM      2  N   UNL d   1      -2.298   2.475  -3.543  0.00  0.00    -0.070 N 
ATOM      3  C1  UNL d   1      -1.874   1.947  -2.353  0.00  0.00    -0.004 A 
ATOM      4  C2  UNL d   1      -0.554   1.581  -2.500  0.00  0.00    -0.047 A 
ATOM      5  C3  UNL d   1      -0.170   1.902  -3.824  0.00  0.00    -0.047 A 
ATOM      6  C4  UNL d   1      -1.269   2.454  -4.447  0.00  0.00    -0.004 A 
ENDROOT
TORSDOF 0
ENDMDL
