MODEL 1
REMARK minimizedAffinity -2.92458606
REMARK minimizedRMSD -1
REMARK  0 active torsions:
REMARK  status: ('A' for Active; 'I' for Inactive)
ROOT
ATOM      1  C   UNL d   1      -4.575   6.000   1.747  0.00  0.00     0.077 C 
ATOM      2  C1  UNL d   1      -4.151   5.314   3.011  0.00  0.00    -0.074 A 
ATOM      3  C2  UNL d   1      -4.137   6.000   4.230  0.00  0.00    -0.005 A 
ATOM      4  C3  UNL d   1      -3.750   5.346   5.400  0.00  0.00     0.006 A 
ATOM      5  C4  UNL d   1      -3.373   4.003   5.363  0.00  0.00    -0.005 A 
ATOM      6  C5  UNL d   1      -3.382   3.301   4.153  0.00  0.00    -0.074 A 
ATOM      7  C6  UNL d   1      -2.989   1.855   4.097  0.00  0.00     0.077 C 
ATOM      8  C7  UNL d   1      -3.779   3.963   2.983  0.00  0.00    -0.001 A 
ENDROOT
TORSDOF 0
ENDMDL
