MODEL 1
REMARK minimizedAffinity 1.52340031
REMARK minimizedRMSD -1
REMARK  0 active torsions:
REMARK  status: ('A' for Active; 'I' for Inactive)
ROOT
ATOM      1  C   UNL d   1      -2.629   5.959   0.978  0.00  0.00     0.077 C 
ATOM      2  C1  UNL d   1      -3.399   5.980   2.264  0.00  0.00    -0.074 A 
ATOM      3  C2  UNL d   1      -4.797   5.990   2.265  0.00  0.00    -0.005 A 
ATOM      4  C3  UNL d   1      -5.500   6.000   3.469  0.00  0.00     0.006 A 
ATOM      5  C4  UNL d   1      -4.813   6.000   4.684  0.00  0.00    -0.005 A 
ATOM      6  C5  UNL d   1      -3.415   5.989   4.703  0.00  0.00    -0.074 A 
ATOM      7  C6  UNL d   1      -2.661   5.979   6.000  0.00  0.00     0.077 C 
ATOM      8  C7  UNL d   1      -2.716   5.972   3.488  0.00  0.00    -0.001 A 
ENDROOT
TORSDOF 0
ENDMDL
