MODEL 1
REMARK minimizedAffinity -2.9108417
REMARK minimizedRMSD -1
REMARK  0 active torsions:
REMARK  status: ('A' for Active; 'I' for Inactive)
ROOT
ATOM      1  C   UNL d   1      -4.873   5.998   1.489  0.00  0.00     0.077 C 
ATOM      2  C1  UNL d   1      -4.375   5.312   2.726  0.00  0.00    -0.074 A 
ATOM      3  C2  UNL d   1      -4.285   5.997   3.942  0.00  0.00    -0.005 A 
ATOM      4  C3  UNL d   1      -3.829   5.343   5.086  0.00  0.00     0.006 A 
ATOM      5  C4  UNL d   1      -3.459   3.999   5.027  0.00  0.00    -0.005 A 
ATOM      6  C5  UNL d   1      -3.543   3.297   3.820  0.00  0.00    -0.074 A 
ATOM      7  C6  UNL d   1      -3.159   1.849   3.741  0.00  0.00     0.077 C 
ATOM      8  C7  UNL d   1      -4.009   3.959   2.676  0.00  0.00    -0.001 A 
ENDROOT
TORSDOF 0
ENDMDL
