MODEL 1
REMARK minimizedAffinity 1.02204013
REMARK minimizedRMSD -1
REMARK  0 active torsions:
REMARK  status: ('A' for Active; 'I' for Inactive)
ROOT
ATOM      1  C   UNL d   1      -2.900   5.977   5.917  0.00  0.00     0.077 C 
ATOM      2  C1  UNL d   1      -3.102   5.246   4.623  0.00  0.00    -0.074 A 
ATOM      3  C2  UNL d   1      -2.782   3.889   4.507  0.00  0.00    -0.005 A 
ATOM      4  C3  UNL d   1      -2.985   3.220   3.300  0.00  0.00     0.006 A 
ATOM      5  C4  UNL d   1      -3.508   3.900   2.199  0.00  0.00    -0.005 A 
ATOM      6  C5  UNL d   1      -3.834   5.256   2.297  0.00  0.00    -0.074 A 
ATOM      7  C6  UNL d   1      -4.406   5.999   1.126  0.00  0.00     0.077 C 
ATOM      8  C7  UNL d   1      -3.634   5.920   3.515  0.00  0.00    -0.001 A 
ENDROOT
TORSDOF 0
ENDMDL
