MODEL 1
REMARK minimizedAffinity -1.19141507
REMARK minimizedRMSD -1
REMARK  0 active torsions:
REMARK  status: ('A' for Active; 'I' for Inactive)
ROOT
ATOM      1  C   UNL d   1      -2.637   6.000   0.903  0.00  0.00     0.077 C 
ATOM      2  C1  UNL d   1      -3.397   5.912   2.193  0.00  0.00    -0.074 A 
ATOM      3  C2  UNL d   1      -4.784   5.732   2.200  0.00  0.00    -0.005 A 
ATOM      4  C3  UNL d   1      -5.476   5.642   3.407  0.00  0.00     0.006 A 
ATOM      5  C4  UNL d   1      -4.789   5.731   4.619  0.00  0.00    -0.005 A 
ATOM      6  C5  UNL d   1      -3.402   5.911   4.632  0.00  0.00    -0.074 A 
ATOM      7  C6  UNL d   1      -2.648   5.999   5.925  0.00  0.00     0.077 C 
ATOM      8  C7  UNL d   1      -2.713   5.993   3.414  0.00  0.00    -0.001 A 
ENDROOT
TORSDOF 0
ENDMDL
