MODEL 1
REMARK minimizedAffinity -2.34156609
REMARK minimizedRMSD -1
REMARK  0 active torsions:
REMARK  status: ('A' for Active; 'I' for Inactive)
ROOT
ATOM      1  C   UNL d   1      -3.694   5.999   5.895  0.00  0.00     0.077 C 
ATOM      2  C1  UNL d   1      -3.770   5.390   4.526  0.00  0.00    -0.074 A 
ATOM      3  C2  UNL d   1      -3.012   4.262   4.199  0.00  0.00    -0.005 A 
ATOM      4  C3  UNL d   1      -3.100   3.701   2.925  0.00  0.00     0.006 A 
ATOM      5  C4  UNL d   1      -3.945   4.261   1.967  0.00  0.00    -0.005 A 
ATOM      6  C5  UNL d   1      -4.712   5.390   2.276  0.00  0.00    -0.074 A 
ATOM      7  C6  UNL d   1      -5.633   5.999   1.262  0.00  0.00     0.077 C 
ATOM      8  C7  UNL d   1      -4.623   5.943   3.561  0.00  0.00    -0.001 A 
ENDROOT
TORSDOF 0
ENDMDL
