MODEL 1
REMARK minimizedAffinity 0.517134428
REMARK minimizedRMSD -1
REMARK  0 active torsions:
REMARK  status: ('A' for Active; 'I' for Inactive)
ROOT
ATOM      1  C   UNL d   1      -2.808   6.000   5.999  0.00  0.00     0.077 C 
ATOM      2  C1  UNL d   1      -3.517   5.992   4.677  0.00  0.00    -0.074 A 
ATOM      3  C2  UNL d   1      -4.914   5.996   4.611  0.00  0.00    -0.005 A 
ATOM      4  C3  UNL d   1      -5.559   5.997   3.374  0.00  0.00     0.006 A 
ATOM      5  C4  UNL d   1      -4.815   5.995   2.194  0.00  0.00    -0.005 A 
ATOM      6  C5  UNL d   1      -3.418   5.992   2.240  0.00  0.00    -0.074 A 
ATOM      7  C6  UNL d   1      -2.603   6.000   0.981  0.00  0.00     0.077 C 
ATOM      8  C7  UNL d   1      -2.776   5.998   3.486  0.00  0.00    -0.001 A 
ENDROOT
TORSDOF 0
ENDMDL
