MODEL 1
REMARK minimizedAffinity -0.866236091
REMARK minimizedRMSD -1
REMARK  0 active torsions:
REMARK  status: ('A' for Active; 'I' for Inactive)
ROOT
ATOM      1  C   UNL d   1      -2.244   6.000   1.007  0.00  0.00     0.077 C 
ATOM      2  C1  UNL d   1      -3.132   5.869   2.209  0.00  0.00    -0.074 A 
ATOM      3  C2  UNL d   1      -4.500   5.611   2.067  0.00  0.00    -0.005 A 
ATOM      4  C3  UNL d   1      -5.311   5.482   3.194  0.00  0.00     0.006 A 
ATOM      5  C4  UNL d   1      -4.765   5.610   4.472  0.00  0.00    -0.005 A 
ATOM      6  C5  UNL d   1      -3.400   5.867   4.633  0.00  0.00    -0.074 A 
ATOM      7  C6  UNL d   1      -2.795   5.997   5.999  0.00  0.00     0.077 C 
ATOM      8  C7  UNL d   1      -2.589   5.988   3.496  0.00  0.00    -0.001 A 
ENDROOT
TORSDOF 0
ENDMDL
