MODEL 1
REMARK minimizedAffinity -1.62886822
REMARK minimizedRMSD -1
REMARK  0 active torsions:
REMARK  status: ('A' for Active; 'I' for Inactive)
ROOT
ATOM      1  C   UNL d   1      -2.516   5.997   1.049  0.00  0.00     0.077 C 
ATOM      2  C1  UNL d   1      -3.474   5.846   2.193  0.00  0.00    -0.074 A 
ATOM      3  C2  UNL d   1      -4.827   5.570   1.966  0.00  0.00    -0.005 A 
ATOM      4  C3  UNL d   1      -5.704   5.423   3.040  0.00  0.00     0.006 A 
ATOM      5  C4  UNL d   1      -5.239   5.548   4.350  0.00  0.00    -0.005 A 
ATOM      6  C5  UNL d   1      -3.890   5.823   4.596  0.00  0.00    -0.074 A 
ATOM      7  C6  UNL d   1      -3.372   5.951   5.998  0.00  0.00     0.077 C 
ATOM      8  C7  UNL d   1      -3.013   5.963   3.512  0.00  0.00    -0.001 A 
ENDROOT
TORSDOF 0
ENDMDL
