MODEL 1
REMARK minimizedAffinity -3.13826776
REMARK minimizedRMSD -1
REMARK  0 active torsions:
REMARK  status: ('A' for Active; 'I' for Inactive)
ROOT
ATOM      1  C   UNL d   1      -2.995   5.996   5.968  0.00  0.00     0.077 C 
ATOM      2  C1  UNL d   1      -3.524   5.990   4.565  0.00  0.00    -0.074 A 
ATOM      3  C2  UNL d   1      -4.900   5.996   4.315  0.00  0.00    -0.005 A 
ATOM      4  C3  UNL d   1      -5.377   6.000   3.004  0.00  0.00     0.006 A 
ATOM      5  C4  UNL d   1      -4.484   5.997   1.932  0.00  0.00    -0.005 A 
ATOM      6  C5  UNL d   1      -3.105   5.992   2.162  0.00  0.00    -0.074 A 
ATOM      7  C6  UNL d   1      -2.132   5.999   1.021  0.00  0.00     0.077 C 
ATOM      8  C7  UNL d   1      -2.634   5.995   3.482  0.00  0.00    -0.001 A 
ENDROOT
TORSDOF 0
ENDMDL
