MODEL 1
REMARK minimizedAffinity 0.25932768
REMARK minimizedRMSD -1
REMARK  0 active torsions:
REMARK  status: ('A' for Active; 'I' for Inactive)
ROOT
ATOM      1  C   UNL d   1      -3.040   5.906   5.990  0.00  0.00     0.077 C 
ATOM      2  C1  UNL d   1      -3.186   5.929   4.497  0.00  0.00    -0.074 A 
ATOM      3  C2  UNL d   1      -2.064   5.988   3.666  0.00  0.00    -0.005 A 
ATOM      4  C3  UNL d   1      -2.215   5.999   2.279  0.00  0.00     0.006 A 
ATOM      5  C4  UNL d   1      -3.489   5.951   1.711  0.00  0.00    -0.005 A 
ATOM      6  C5  UNL d   1      -4.623   5.890   2.527  0.00  0.00    -0.074 A 
ATOM      7  C6  UNL d   1      -5.999   5.827   1.933  0.00  0.00     0.077 C 
ATOM      8  C7  UNL d   1      -4.462   5.872   3.919  0.00  0.00    -0.001 A 
ENDROOT
TORSDOF 0
ENDMDL
