MODEL 1
REMARK minimizedAffinity -2.21331429
REMARK minimizedRMSD -1
REMARK  0 active torsions:
REMARK  status: ('A' for Active; 'I' for Inactive)
ROOT
ATOM      1  C   UNL d   1      -3.323   6.000   5.835  0.00  0.00     0.077 C 
ATOM      2  C1  UNL d   1      -3.478   5.232   4.556  0.00  0.00    -0.074 A 
ATOM      3  C2  UNL d   1      -4.031   5.832   3.420  0.00  0.00    -0.005 A 
ATOM      4  C3  UNL d   1      -4.160   5.108   2.235  0.00  0.00     0.006 A 
ATOM      5  C4  UNL d   1      -3.739   3.779   2.174  0.00  0.00    -0.005 A 
ATOM      6  C5  UNL d   1      -3.184   3.162   3.299  0.00  0.00    -0.074 A 
ATOM      7  C6  UNL d   1      -2.717   1.738   3.248  0.00  0.00     0.077 C 
ATOM      8  C7  UNL d   1      -3.051   3.899   4.485  0.00  0.00    -0.001 A 
ENDROOT
TORSDOF 0
ENDMDL
