MODEL 1
REMARK minimizedAffinity 9.02702522
REMARK minimizedRMSD -1
REMARK  0 active torsions:
REMARK  status: ('A' for Active; 'I' for Inactive)
ROOT
ATOM      1  C   UNL d   1       6.000   1.113  -3.780  0.00  0.00     0.077 C 
ATOM      2  C1  UNL d   1       4.874   2.102  -3.826  0.00  0.00    -0.074 A 
ATOM      3  C2  UNL d   1       5.126   3.478  -3.844  0.00  0.00    -0.005 A 
ATOM      4  C3  UNL d   1       4.069   4.386  -3.897  0.00  0.00     0.006 A 
ATOM      5  C4  UNL d   1       2.751   3.929  -3.932  0.00  0.00    -0.005 A 
ATOM      6  C5  UNL d   1       2.479   2.557  -3.916  0.00  0.00    -0.074 A 
ATOM      7  C6  UNL d   1       1.069   2.049  -3.963  0.00  0.00     0.077 C 
ATOM      8  C7  UNL d   1       3.547   1.651  -3.870  0.00  0.00    -0.001 A 
ENDROOT
TORSDOF 0
ENDMDL
