MODEL 1
REMARK minimizedAffinity -1.13572752
REMARK minimizedRMSD -1
REMARK  0 active torsions:
REMARK  status: ('A' for Active; 'I' for Inactive)
ROOT
ATOM      1  C   UNL d   1      -3.458   5.974   5.796  0.00  0.00     0.077 C 
ATOM      2  C1  UNL d   1      -3.453   5.985   4.296  0.00  0.00    -0.074 A 
ATOM      3  C2  UNL d   1      -2.251   6.000   3.582  0.00  0.00    -0.005 A 
ATOM      4  C3  UNL d   1      -2.262   6.000   2.187  0.00  0.00     0.006 A 
ATOM      5  C4  UNL d   1      -3.473   5.984   1.494  0.00  0.00    -0.005 A 
ATOM      6  C5  UNL d   1      -4.685   5.968   2.191  0.00  0.00    -0.074 A 
ATOM      7  C6  UNL d   1      -5.995   5.941   1.462  0.00  0.00     0.077 C 
ATOM      8  C7  UNL d   1      -4.665   5.961   3.593  0.00  0.00    -0.001 A 
ENDROOT
TORSDOF 0
ENDMDL
