MODEL 1
REMARK minimizedAffinity 0.606272042
REMARK minimizedRMSD -1
REMARK  0 active torsions:
REMARK  status: ('A' for Active; 'I' for Inactive)
ROOT
ATOM      1  C   UNL d   1      -2.629   6.000   5.192  0.00  0.00     0.077 C 
ATOM      2  C1  UNL d   1      -2.856   5.273   3.900  0.00  0.00    -0.074 A 
ATOM      3  C2  UNL d   1      -3.227   5.964   2.742  0.00  0.00    -0.005 A 
ATOM      4  C3  UNL d   1      -3.425   5.275   1.546  0.00  0.00     0.006 A 
ATOM      5  C4  UNL d   1      -3.255   3.891   1.495  0.00  0.00    -0.005 A 
ATOM      6  C5  UNL d   1      -2.883   3.184   2.642  0.00  0.00    -0.074 A 
ATOM      7  C6  UNL d   1      -2.686   1.697   2.603  0.00  0.00     0.077 C 
ATOM      8  C7  UNL d   1      -2.679   3.884   3.839  0.00  0.00    -0.001 A 
ENDROOT
TORSDOF 0
ENDMDL
