MODEL 1
REMARK minimizedAffinity -1.2705797
REMARK minimizedRMSD -1
REMARK  0 active torsions:
REMARK  status: ('A' for Active; 'I' for Inactive)
ROOT
ATOM      1  C   UNL d   1       2.300   4.511  -0.557  0.00  0.00     0.077 C 
ATOM      2  C1  UNL d   1       3.591   4.919   0.088  0.00  0.00    -0.074 A 
ATOM      3  C2  UNL d   1       4.565   5.618  -0.632  0.00  0.00    -0.005 A 
ATOM      4  C3  UNL d   1       5.757   6.000  -0.017  0.00  0.00     0.006 A 
ATOM      5  C4  UNL d   1       5.987   5.687   1.324  0.00  0.00    -0.005 A 
ATOM      6  C5  UNL d   1       5.024   4.989   2.060  0.00  0.00    -0.074 A 
ATOM      7  C6  UNL d   1       5.252   4.653   3.504  0.00  0.00     0.077 C 
ATOM      8  C7  UNL d   1       3.826   4.615   1.436  0.00  0.00    -0.001 A 
ENDROOT
TORSDOF 0
ENDMDL
