MODEL 1
REMARK minimizedAffinity 1.01397789
REMARK minimizedRMSD -1
REMARK  0 active torsions:
REMARK  status: ('A' for Active; 'I' for Inactive)
ROOT
ATOM      1  C   UNL d   1       5.859   0.743  -4.785  0.00  0.00     0.077 C 
ATOM      2  C1  UNL d   1       4.365   0.867  -4.799  0.00  0.00    -0.074 A 
ATOM      3  C2  UNL d   1       3.669   1.039  -6.000  0.00  0.00    -0.005 A 
ATOM      4  C3  UNL d   1       2.278   1.142  -5.998  0.00  0.00     0.006 A 
ATOM      5  C4  UNL d   1       1.570   1.075  -4.798  0.00  0.00    -0.005 A 
ATOM      6  C5  UNL d   1       2.248   0.903  -3.587  0.00  0.00    -0.074 A 
ATOM      7  C6  UNL d   1       1.502   0.819  -2.289  0.00  0.00     0.077 C 
ATOM      8  C7  UNL d   1       3.645   0.792  -3.598  0.00  0.00    -0.001 A 
ENDROOT
TORSDOF 0
ENDMDL
