MODEL 1
REMARK minimizedAffinity 3.94983149
REMARK minimizedRMSD -1
REMARK  0 active torsions:
REMARK  status: ('A' for Active; 'I' for Inactive)
ROOT
ATOM      1  C   UNL d   1      -3.590   5.874   1.630  0.00  0.00     0.077 C 
ATOM      2  C1  UNL d   1      -3.613   5.925   3.129  0.00  0.00    -0.074 A 
ATOM      3  C2  UNL d   1      -4.823   5.963   3.829  0.00  0.00    -0.005 A 
ATOM      4  C3  UNL d   1      -4.828   6.000   5.224  0.00  0.00     0.006 A 
ATOM      5  C4  UNL d   1      -3.625   5.999   5.931  0.00  0.00    -0.005 A 
ATOM      6  C5  UNL d   1      -2.405   5.960   5.248  0.00  0.00    -0.074 A 
ATOM      7  C6  UNL d   1      -1.104   5.949   5.993  0.00  0.00     0.077 C 
ATOM      8  C7  UNL d   1      -2.409   5.916   3.847  0.00  0.00    -0.001 A 
ENDROOT
TORSDOF 0
ENDMDL
