MODEL 1
REMARK minimizedAffinity -3.68525457
REMARK minimizedRMSD -1
REMARK  2 active torsions:
REMARK  status: ('A' for Active; 'I' for Inactive)
REMARK    1  A    between atoms: C2'_3  and  C1'_4 
REMARK    2  A    between atoms: C1'_4  and  C1_5 
ROOT
ATOM      1  C1  I4B d   1      -0.639   0.094  -0.261  0.00  0.00    -0.075 A 
ATOM      2  C2  I4B d   1       0.454   0.580   0.414  0.00  0.00     0.003 A 
ATOM      3  C3  I4B d   1       1.566  -0.259   0.668  0.00  0.00     0.002 A 
ATOM      4  C4  I4B d   1       1.522  -1.582   0.277  0.00  0.00    -0.004 A 
ATOM      5  C5  I4B d   1       0.424  -2.067  -0.427  0.00  0.00     0.002 A 
ATOM      6  C6  I4B d   1      -0.659  -1.220  -0.709  0.00  0.00     0.003 A 
ENDROOT
BRANCH   1   7
ATOM      7  C1' I4B d   1      -1.809   0.998  -0.483  0.00  0.00     0.060 C 
BRANCH   7   8
ATOM      8  C2' I4B d   1      -2.927   0.549   0.437  0.00  0.00    -0.013 C 
ATOM      9  C4' I4B d   1      -2.983   1.396   1.681  0.00  0.00     0.013 C 
ATOM     10  C3' I4B d   1      -4.214   0.626  -0.328  0.00  0.00     0.013 C 
ENDBRANCH   7   8
ENDBRANCH   1   7
TORSDOF 2
ENDMDL
