MODEL 1
REMARK minimizedAffinity -2.6852529
REMARK minimizedRMSD -1
REMARK  2 active torsions:
REMARK  status: ('A' for Active; 'I' for Inactive)
REMARK    1  A    between atoms: C2'_3  and  C1'_4 
REMARK    2  A    between atoms: C1'_4  and  C1_5 
ROOT
ATOM      1  C1  I4B d   1      -2.236   1.193   0.234  0.00  0.00    -0.075 A 
ATOM      2  C2  I4B d   1      -2.200   1.953   1.377  0.00  0.00     0.003 A 
ATOM      3  C3  I4B d   1      -3.338   2.033   2.216  0.00  0.00     0.002 A 
ATOM      4  C4  I4B d   1      -4.499   1.383   1.850  0.00  0.00    -0.004 A 
ATOM      5  C5  I4B d   1      -4.526   0.595   0.703  0.00  0.00     0.002 A 
ATOM      6  C6  I4B d   1      -3.384   0.489  -0.104  0.00  0.00     0.003 A 
ENDROOT
BRANCH   1   7
ATOM      7  C1' I4B d   1      -1.026   1.157  -0.646  0.00  0.00     0.060 C 
BRANCH   7   8
ATOM      8  C2' I4B d   1       0.163   0.773   0.211  0.00  0.00    -0.013 C 
ATOM      9  C4' I4B d   1       0.625  -0.627  -0.094  0.00  0.00     0.013 C 
ATOM     10  C3' I4B d   1       1.255   1.770  -0.040  0.00  0.00     0.013 C 
ENDBRANCH   7   8
ENDBRANCH   1   7
TORSDOF 2
ENDMDL
