MODEL 1
REMARK minimizedAffinity -3.43060112
REMARK minimizedRMSD -1
REMARK  2 active torsions:
REMARK  status: ('A' for Active; 'I' for Inactive)
REMARK    1  A    between atoms: C2'_3  and  C1'_4 
REMARK    2  A    between atoms: C1'_4  and  C1_5 
ROOT
ATOM      1  C1  I4B d   1      -1.260   0.602  -0.247  0.00  0.00    -0.075 A 
ATOM      2  C2  I4B d   1      -0.279   1.553  -0.385  0.00  0.00     0.003 A 
ATOM      3  C3  I4B d   1       1.085   1.172  -0.402  0.00  0.00     0.002 A 
ATOM      4  C4  I4B d   1       1.423  -0.154  -0.227  0.00  0.00    -0.004 A 
ATOM      5  C5  I4B d   1       0.426  -1.119  -0.110  0.00  0.00     0.002 A 
ATOM      6  C6  I4B d   1      -0.924  -0.740  -0.132  0.00  0.00     0.003 A 
ENDROOT
BRANCH   1   7
ATOM      7  C1' I4B d   1      -2.689   1.043  -0.200  0.00  0.00     0.060 C 
BRANCH   7   8
ATOM      8  C2' I4B d   1      -3.187   0.861   1.219  0.00  0.00    -0.013 C 
ATOM      9  C4' I4B d   1      -3.013   2.122   2.024  0.00  0.00     0.013 C 
ATOM     10  C3' I4B d   1      -4.629   0.454   1.155  0.00  0.00     0.013 C 
ENDBRANCH   7   8
ENDBRANCH   1   7
TORSDOF 2
ENDMDL
