MODEL 1
REMARK minimizedAffinity -4.87818003
REMARK minimizedRMSD -1
REMARK  2 active torsions:
REMARK  status: ('A' for Active; 'I' for Inactive)
REMARK    1  A    between atoms: C2'_3  and  C1'_4 
REMARK    2  A    between atoms: C1'_4  and  C1_5 
ROOT
ATOM      1  C1  I4B d   1       1.417  -0.005   0.527  0.00  0.00    -0.075 A 
ATOM      2  C2  I4B d   1       2.169  -1.130   0.756  0.00  0.00     0.003 A 
ATOM      3  C3  I4B d   1       3.568  -1.109   0.535  0.00  0.00     0.002 A 
ATOM      4  C4  I4B d   1       4.161   0.034   0.040  0.00  0.00    -0.004 A 
ATOM      5  C5  I4B d   1       3.400   1.181  -0.169  0.00  0.00     0.002 A 
ATOM      6  C6  I4B d   1       2.022   1.166   0.087  0.00  0.00     0.003 A 
ENDROOT
BRANCH   1   7
ATOM      7  C1' I4B d   1      -0.062  -0.071   0.740  0.00  0.00     0.060 C 
BRANCH   7   8
ATOM      8  C2' I4B d   1      -0.735   0.100  -0.607  0.00  0.00    -0.013 C 
ATOM      9  C4' I4B d   1      -0.679  -1.173  -1.410  0.00  0.00     0.013 C 
ATOM     10  C3' I4B d   1      -2.153   0.525  -0.365  0.00  0.00     0.013 C 
ENDBRANCH   7   8
ENDBRANCH   1   7
TORSDOF 2
ENDMDL
