MODEL 1
REMARK minimizedAffinity -4.406775
REMARK minimizedRMSD -1
REMARK  2 active torsions:
REMARK  status: ('A' for Active; 'I' for Inactive)
REMARK    1  A    between atoms: C2'_3  and  C1'_4 
REMARK    2  A    between atoms: C1'_4  and  C1_5 
ROOT
ATOM      1  C1  I4B d   1      -0.375   0.437  -0.195  0.00  0.00    -0.075 A 
ATOM      2  C2  I4B d   1      -0.474  -0.811  -0.757  0.00  0.00     0.003 A 
ATOM      3  C3  I4B d   1       0.550  -1.767  -0.556  0.00  0.00     0.002 A 
ATOM      4  C4  I4B d   1       1.673  -1.419   0.166  0.00  0.00    -0.004 A 
ATOM      5  C5  I4B d   1       1.762  -0.160   0.755  0.00  0.00     0.002 A 
ATOM      6  C6  I4B d   1       0.726   0.770   0.583  0.00  0.00     0.003 A 
ENDROOT
BRANCH   1   7
ATOM      7  C1' I4B d   1      -1.460   1.433  -0.455  0.00  0.00     0.060 C 
BRANCH   7   8
ATOM      8  C2' I4B d   1      -2.666   1.036   0.371  0.00  0.00    -0.013 C 
ATOM      9  C4' I4B d   1      -3.129   2.174   1.242  0.00  0.00     0.013 C 
ATOM     10  C3' I4B d   1      -3.749   0.599  -0.570  0.00  0.00     0.013 C 
ENDBRANCH   7   8
ENDBRANCH   1   7
TORSDOF 2
ENDMDL
