MODEL 1
REMARK minimizedAffinity -4.53058577
REMARK minimizedRMSD -1
REMARK  1 active torsions:
REMARK  status: ('A' for Active; 'I' for Inactive)
REMARK    1  A    between atoms: N_2  and  C1_3 
ROOT
ATOM      1  C1  UNL d   1       0.501  -0.239   0.984  0.00  0.00     0.143 A 
ATOM      2  C2  UNL d   1      -0.480   0.021   0.021  0.00  0.00    -0.057 A 
ATOM      3  C3  UNL d   1      -1.755   0.470   0.386  0.00  0.00     0.033 A 
ATOM      4  C4  UNL d   1      -2.081   0.639   1.728  0.00  0.00    -0.042 A 
ATOM      5  C5  UNL d   1      -1.130   0.363   2.703  0.00  0.00     0.033 A 
ATOM      6  C6  UNL d   1       0.143  -0.079   2.332  0.00  0.00    -0.057 A 
ENDROOT
BRANCH   1   7
ATOM      7  N   UNL d   1       1.755  -0.781   0.691  0.00  0.00    -0.732 N 
ATOM      8  C   UNL d   1       2.687  -0.068  -0.155  0.00  0.00     0.284 C 
ATOM      9  H3  UNL d   1       2.184  -1.227   1.499  0.00  0.00     0.395 HD
ENDBRANCH   1   7
TORSDOF 1
ENDMDL
