MODEL 1
REMARK minimizedAffinity 0.161020815
REMARK minimizedRMSD -1
REMARK  1 active torsions:
REMARK  status: ('A' for Active; 'I' for Inactive)
REMARK    1  A    between atoms: N_2  and  C1_3 
ROOT
ATOM      1  C1  UNL d   1       1.245   0.904   0.553  0.00  0.00     0.143 A 
ATOM      2  C2  UNL d   1       0.077   1.273   1.228  0.00  0.00    -0.057 A 
ATOM      3  C3  UNL d   1      -1.102   0.529   1.100  0.00  0.00     0.033 A 
ATOM      4  C4  UNL d   1      -1.141  -0.586   0.269  0.00  0.00    -0.042 A 
ATOM      5  C5  UNL d   1       0.002  -0.957  -0.432  0.00  0.00     0.033 A 
ATOM      6  C6  UNL d   1       1.178  -0.213  -0.295  0.00  0.00    -0.057 A 
ENDROOT
BRANCH   1   7
ATOM      7  N   UNL d   1       2.421   1.660   0.561  0.00  0.00    -0.732 N 
ATOM      8  C   UNL d   1       3.405   1.504  -0.488  0.00  0.00     0.284 C 
ATOM      9  H3  UNL d   1       2.260   2.625   0.841  0.00  0.00     0.395 HD
ENDBRANCH   1   7
TORSDOF 1
ENDMDL
