MODEL 1
REMARK minimizedAffinity -1.20246613
REMARK minimizedRMSD -1
REMARK  1 active torsions:
REMARK  status: ('A' for Active; 'I' for Inactive)
REMARK    1  A    between atoms: N_2  and  C1_3 
ROOT
ATOM      1  C1  UNL d   1      -0.212  -1.065  -0.872  0.00  0.00     0.143 A 
ATOM      2  C2  UNL d   1       0.696  -0.845   0.169  0.00  0.00    -0.057 A 
ATOM      3  C3  UNL d   1       0.289  -0.271   1.379  0.00  0.00     0.033 A 
ATOM      4  C4  UNL d   1      -1.033   0.123   1.559  0.00  0.00    -0.042 A 
ATOM      5  C5  UNL d   1      -1.948  -0.062   0.528  0.00  0.00     0.033 A 
ATOM      6  C6  UNL d   1      -1.536  -0.643  -0.675  0.00  0.00    -0.057 A 
ENDROOT
BRANCH   1   7
ATOM      7  N   UNL d   1       0.152  -1.541  -2.134  0.00  0.00    -0.732 N 
ATOM      8  C   UNL d   1       0.439  -0.622  -3.214  0.00  0.00     0.284 C 
ATOM      9  H3  UNL d   1       0.788  -2.333  -2.082  0.00  0.00     0.395 HD
ENDBRANCH   1   7
TORSDOF 1
ENDMDL
