MODEL 1
REMARK minimizedAffinity 6.40019274
REMARK minimizedRMSD -1
REMARK  1 active torsions:
REMARK  status: ('A' for Active; 'I' for Inactive)
REMARK    1  A    between atoms: N_2  and  C1_3 
ROOT
ATOM      1  C1  UNL d   1      -3.427  -1.420  -0.405  0.00  0.00     0.143 A 
ATOM      2  C2  UNL d   1      -4.025  -0.190  -0.111  0.00  0.00    -0.057 A 
ATOM      3  C3  UNL d   1      -3.265   0.902   0.325  0.00  0.00     0.033 A 
ATOM      4  C4  UNL d   1      -1.891   0.774   0.503  0.00  0.00    -0.042 A 
ATOM      5  C5  UNL d   1      -1.279  -0.447   0.241  0.00  0.00     0.033 A 
ATOM      6  C6  UNL d   1      -2.043  -1.531  -0.201  0.00  0.00    -0.057 A 
ENDROOT
BRANCH   1   7
ATOM      7  N   UNL d   1      -4.142  -2.570  -0.748  0.00  0.00    -0.732 N 
ATOM      8  C   UNL d   1      -5.459  -2.471  -1.339  0.00  0.00     0.284 C 
ATOM      9  H3  UNL d   1      -3.550  -3.284  -1.167  0.00  0.00     0.395 HD
ENDBRANCH   1   7
TORSDOF 1
ENDMDL
