MODEL 1
REMARK minimizedAffinity 8.78772259
REMARK minimizedRMSD -1
REMARK  1 active torsions:
REMARK  status: ('A' for Active; 'I' for Inactive)
REMARK    1  A    between atoms: N_2  and  C1_3 
ROOT
ATOM      1  C1  UNL d   1       3.746   3.608   3.055  0.00  0.00     0.143 A 
ATOM      2  C2  UNL d   1       3.420   2.710   4.076  0.00  0.00    -0.057 A 
ATOM      3  C3  UNL d   1       4.355   2.354   5.056  0.00  0.00     0.033 A 
ATOM      4  C4  UNL d   1       5.646   2.871   5.014  0.00  0.00    -0.042 A 
ATOM      5  C5  UNL d   1       5.999   3.746   3.993  0.00  0.00     0.033 A 
ATOM      6  C6  UNL d   1       5.059   4.103   3.021  0.00  0.00    -0.057 A 
ENDROOT
BRANCH   1   7
ATOM      7  N   UNL d   1       2.891   3.925   1.996  0.00  0.00    -0.732 N 
ATOM      8  C   UNL d   1       1.789   3.052   1.651  0.00  0.00     0.284 C 
ATOM      9  H3  UNL d   1       2.662   4.915   1.964  0.00  0.00     0.395 HD
ENDBRANCH   1   7
TORSDOF 1
ENDMDL
