MODEL 1
REMARK minimizedAffinity 1.54192805
REMARK minimizedRMSD -1
REMARK  0 active torsions:
REMARK  status: ('A' for Active; 'I' for Inactive)
ROOT
ATOM      1  C1  BNZ d   1       1.356  -3.812   5.155  0.00  0.00     0.000 A 
ATOM      2  C2  BNZ d   1       0.060  -3.829   4.715  0.00  0.00     0.000 A 
ATOM      3  C3  BNZ d   1      -0.741  -4.915   4.935  0.00  0.00     0.000 A 
ATOM      4  C4  BNZ d   1      -0.232  -5.997   5.558  0.00  0.00     0.000 A 
ATOM      5  C5  BNZ d   1       1.076  -6.000   6.000  0.00  0.00     0.000 A 
ATOM      6  C6  BNZ d   1       1.867  -4.890   5.811  0.00  0.00     0.000 A 
ENDROOT
TORSDOF 0
ENDMDL
