MODEL 1
REMARK minimizedAffinity -2.28381801
REMARK minimizedRMSD -1
REMARK  0 active torsions:
REMARK  status: ('A' for Active; 'I' for Inactive)
ROOT
ATOM      1  C1  BNZ d   1       3.912   0.377   1.180  0.00  0.00     0.000 A 
ATOM      2  C2  BNZ d   1       4.064  -0.966   0.963  0.00  0.00     0.000 A 
ATOM      3  C3  BNZ d   1       3.081  -1.693   0.353  0.00  0.00     0.000 A 
ATOM      4  C4  BNZ d   1       1.931  -1.084  -0.005  0.00  0.00     0.000 A 
ATOM      5  C5  BNZ d   1       1.759   0.268   0.215  0.00  0.00     0.000 A 
ATOM      6  C6  BNZ d   1       2.766   1.004   0.795  0.00  0.00     0.000 A 
ENDROOT
TORSDOF 0
ENDMDL
