MODEL 1
REMARK minimizedAffinity 3.49914646
REMARK minimizedRMSD -1
REMARK  0 active torsions:
REMARK  status: ('A' for Active; 'I' for Inactive)
ROOT
ATOM      1  C1  BNZ d   1       4.066   0.046   1.906  0.00  0.00     0.000 A 
ATOM      2  C2  BNZ d   1       3.672   1.265   1.423  0.00  0.00     0.000 A 
ATOM      3  C3  BNZ d   1       2.852   1.354   0.332  0.00  0.00     0.000 A 
ATOM      4  C4  BNZ d   1       2.461   0.227  -0.297  0.00  0.00     0.000 A 
ATOM      5  C5  BNZ d   1       2.858  -1.009   0.172  0.00  0.00     0.000 A 
ATOM      6  C6  BNZ d   1       3.651  -1.096   1.293  0.00  0.00     0.000 A 
ENDROOT
TORSDOF 0
ENDMDL
