MODEL 1
REMARK minimizedAffinity 1.77974832
REMARK minimizedRMSD -1
REMARK  0 active torsions:
REMARK  status: ('A' for Active; 'I' for Inactive)
ROOT
ATOM      1  C1  BNZ d   1       1.528   1.334   0.924  0.00  0.00     0.000 A 
ATOM      2  C2  BNZ d   1       2.108   0.106   0.743  0.00  0.00     0.000 A 
ATOM      3  C3  BNZ d   1       3.352  -0.005   0.187  0.00  0.00     0.000 A 
ATOM      4  C4  BNZ d   1       3.997   1.106  -0.222  0.00  0.00     0.000 A 
ATOM      5  C5  BNZ d   1       3.422   2.350  -0.055  0.00  0.00     0.000 A 
ATOM      6  C6  BNZ d   1       2.187   2.461   0.540  0.00  0.00     0.000 A 
ENDROOT
TORSDOF 0
ENDMDL
