MODEL 1
REMARK minimizedAffinity -1.69375384
REMARK minimizedRMSD -1
REMARK  0 active torsions:
REMARK  status: ('A' for Active; 'I' for Inactive)
ROOT
ATOM      1  C1  BNZ d   1       1.985   0.767   1.149  0.00  0.00     0.000 A 
ATOM      2  C2  BNZ d   1       1.152   0.532   2.210  0.00  0.00     0.000 A 
ATOM      3  C3  BNZ d   1      -0.131   1.004   2.209  0.00  0.00     0.000 A 
ATOM      4  C4  BNZ d   1      -0.566   1.742   1.168  0.00  0.00     0.000 A 
ATOM      5  C5  BNZ d   1       0.265   1.995   0.095  0.00  0.00     0.000 A 
ATOM      6  C6  BNZ d   1       1.544   1.485   0.081  0.00  0.00     0.000 A 
ENDROOT
TORSDOF 0
ENDMDL
