MODEL 1
REMARK minimizedAffinity -0.716244638
REMARK minimizedRMSD -1
REMARK  0 active torsions:
REMARK  status: ('A' for Active; 'I' for Inactive)
ROOT
ATOM      1  C1  BNZ d   1       2.901  -0.299  -0.005  0.00  0.00     0.000 A 
ATOM      2  C2  BNZ d   1       2.265   0.725   0.645  0.00  0.00     0.000 A 
ATOM      3  C3  BNZ d   1       2.579   2.027   0.374  0.00  0.00     0.000 A 
ATOM      4  C4  BNZ d   1       3.555   2.303  -0.515  0.00  0.00     0.000 A 
ATOM      5  C5  BNZ d   1       4.211   1.282  -1.172  0.00  0.00     0.000 A 
ATOM      6  C6  BNZ d   1       3.866  -0.027  -0.925  0.00  0.00     0.000 A 
ENDROOT
TORSDOF 0
ENDMDL
