MODEL 1
REMARK minimizedAffinity -1.08070445
REMARK minimizedRMSD -1
REMARK  0 active torsions:
REMARK  status: ('A' for Active; 'I' for Inactive)
ROOT
ATOM      1  C1  BNZ d   1       3.314  -0.216   0.325  0.00  0.00     0.000 A 
ATOM      2  C2  BNZ d   1       2.724   0.983   0.624  0.00  0.00     0.000 A 
ATOM      3  C3  BNZ d   1       1.491   1.299   0.125  0.00  0.00     0.000 A 
ATOM      4  C4  BNZ d   1       0.869   0.436  -0.704  0.00  0.00     0.000 A 
ATOM      5  C5  BNZ d   1       1.456  -0.773  -1.022  0.00  0.00     0.000 A 
ATOM      6  C6  BNZ d   1       2.680  -1.105  -0.486  0.00  0.00     0.000 A 
ENDROOT
TORSDOF 0
ENDMDL
