MODEL 1
REMARK minimizedAffinity 1.2921797
REMARK minimizedRMSD -1
REMARK  0 active torsions:
REMARK  status: ('A' for Active; 'I' for Inactive)
ROOT
ATOM      1  C1  BNZ d   1      -0.408   1.095   5.250  0.00  0.00     0.000 A 
ATOM      2  C2  BNZ d   1       0.500   1.772   4.481  0.00  0.00     0.000 A 
ATOM      3  C3  BNZ d   1       1.811   1.386   4.442  0.00  0.00     0.000 A 
ATOM      4  C4  BNZ d   1       2.219   0.350   5.203  0.00  0.00     0.000 A 
ATOM      5  C5  BNZ d   1       1.318  -0.337   5.991  0.00  0.00     0.000 A 
ATOM      6  C6  BNZ d   1      -0.008   0.030   5.997  0.00  0.00     0.000 A 
ENDROOT
TORSDOF 0
ENDMDL
