MODEL 1
REMARK minimizedAffinity 10.8663235
REMARK minimizedRMSD -1
REMARK  0 active torsions:
REMARK  status: ('A' for Active; 'I' for Inactive)
ROOT
ATOM      1  C1  DEN d   1       0.013  -0.266   3.917  0.00  0.00     0.130 A 
ATOM      2  C2  DEN d   1      -0.865  -0.932   2.959  0.00  0.00    -0.031 A 
ATOM      3  C3  DEN d   1      -0.034  -1.424   1.843  0.00  0.00     0.027 A 
ATOM      4  C4  DEN d   1       2.516  -1.225   1.509  0.00  0.00     0.027 A 
ATOM      5  C5  DEN d   1       3.684  -0.733   2.049  0.00  0.00    -0.003 A 
ATOM      6  C6  DEN d   1       3.706  -0.028   3.223  0.00  0.00     0.001 A 
ATOM      7  C7  DEN d   1       2.542   0.167   3.919  0.00  0.00     0.017 A 
ATOM      8  C8  DEN d   1       1.359  -0.319   3.377  0.00  0.00    -0.094 A 
ATOM      9  C9  DEN d   1       1.360  -1.040   2.195  0.00  0.00    -0.072 A 
ENDROOT
TORSDOF 0
ENDMDL
