MODEL 1
REMARK minimizedAffinity 16.3175945
REMARK minimizedRMSD -1
REMARK  0 active torsions:
REMARK  status: ('A' for Active; 'I' for Inactive)
ROOT
ATOM      1  C1  DEN d   1       4.097   0.137  -4.496  0.00  0.00     0.130 A 
ATOM      2  C2  DEN d   1       4.380   0.444  -3.096  0.00  0.00    -0.031 A 
ATOM      3  C3  DEN d   1       5.176  -0.667  -2.537  0.00  0.00     0.027 A 
ATOM      4  C4  DEN d   1       6.000  -2.818  -3.698  0.00  0.00     0.027 A 
ATOM      5  C5  DEN d   1       5.998  -3.527  -4.879  0.00  0.00    -0.003 A 
ATOM      6  C6  DEN d   1       5.340  -3.084  -5.996  0.00  0.00     0.001 A 
ATOM      7  C7  DEN d   1       4.693  -1.877  -5.969  0.00  0.00     0.017 A 
ATOM      8  C8  DEN d   1       4.683  -1.160  -4.779  0.00  0.00    -0.094 A 
ATOM      9  C9  DEN d   1       5.365  -1.619  -3.665  0.00  0.00    -0.072 A 
ENDROOT
TORSDOF 0
ENDMDL
