MODEL 1
REMARK minimizedAffinity 13.6711407
REMARK minimizedRMSD -1
REMARK  0 active torsions:
REMARK  status: ('A' for Active; 'I' for Inactive)
ROOT
ATOM      1  C1  DEN d   1       5.329  -1.503  -5.999  0.00  0.00     0.130 A 
ATOM      2  C2  DEN d   1       5.914  -2.840  -5.928  0.00  0.00    -0.031 A 
ATOM      3  C3  DEN d   1       5.998  -3.226  -4.506  0.00  0.00     0.027 A 
ATOM      4  C4  DEN d   1       5.280  -1.894  -2.417  0.00  0.00     0.027 A 
ATOM      5  C5  DEN d   1       4.743  -0.706  -1.974  0.00  0.00    -0.003 A 
ATOM      6  C6  DEN d   1       4.397   0.305  -2.831  0.00  0.00     0.001 A 
ATOM      7  C7  DEN d   1       4.544   0.128  -4.182  0.00  0.00     0.017 A 
ATOM      8  C8  DEN d   1       5.092  -1.064  -4.636  0.00  0.00    -0.094 A 
ATOM      9  C9  DEN d   1       5.424  -2.078  -3.754  0.00  0.00    -0.072 A 
ENDROOT
TORSDOF 0
ENDMDL
