MODEL 1
REMARK minimizedAffinity 26.5664711
REMARK minimizedRMSD -1
REMARK  0 active torsions:
REMARK  status: ('A' for Active; 'I' for Inactive)
ROOT
ATOM      1  C1  DEN d   1       3.672   1.301   2.904  0.00  0.00     0.130 A 
ATOM      2  C2  DEN d   1       4.259   1.090   1.584  0.00  0.00    -0.031 A 
ATOM      3  C3  DEN d   1       3.331   0.252   0.799  0.00  0.00     0.027 A 
ATOM      4  C4  DEN d   1       1.050  -0.730   1.495  0.00  0.00     0.027 A 
ATOM      5  C5  DEN d   1       0.138  -0.833   2.522  0.00  0.00    -0.003 A 
ATOM      6  C6  DEN d   1       0.354  -0.265   3.750  0.00  0.00     0.001 A 
ATOM      7  C7  DEN d   1       1.490   0.470   3.967  0.00  0.00     0.017 A 
ATOM      8  C8  DEN d   1       2.417   0.572   2.938  0.00  0.00    -0.094 A 
ATOM      9  C9  DEN d   1       2.174   0.001   1.700  0.00  0.00    -0.072 A 
ENDROOT
TORSDOF 0
ENDMDL
