MODEL 1
REMARK minimizedAffinity 20.2999973
REMARK minimizedRMSD -1
REMARK  0 active torsions:
REMARK  status: ('A' for Active; 'I' for Inactive)
ROOT
ATOM      1  C1  DEN d   1      -4.152   5.188  -0.628  0.00  0.00     0.130 A 
ATOM      2  C2  DEN d   1      -4.775   3.901  -0.329  0.00  0.00    -0.031 A 
ATOM      3  C3  DEN d   1      -4.367   2.943  -1.376  0.00  0.00     0.027 A 
ATOM      4  C4  DEN d   1      -2.837   3.322  -3.417  0.00  0.00     0.027 A 
ATOM      5  C5  DEN d   1      -2.083   4.252  -4.097  0.00  0.00    -0.003 A 
ATOM      6  C6  DEN d   1      -1.993   5.557  -3.691  0.00  0.00     0.001 A 
ATOM      7  C7  DEN d   1      -2.633   5.958  -2.548  0.00  0.00     0.017 A 
ATOM      8  C8  DEN d   1      -3.402   5.027  -1.861  0.00  0.00    -0.094 A 
ATOM      9  C9  DEN d   1      -3.470   3.710  -2.281  0.00  0.00    -0.072 A 
ENDROOT
TORSDOF 0
ENDMDL
