MODEL 1
REMARK minimizedAffinity 7.93032312
REMARK minimizedRMSD -1
REMARK  0 active torsions:
REMARK  status: ('A' for Active; 'I' for Inactive)
ROOT
ATOM      1  C1  DEN d   1      -1.138  -1.559   3.647  0.00  0.00     0.130 A 
ATOM      2  C2  DEN d   1      -1.834  -2.784   3.263  0.00  0.00    -0.031 A 
ATOM      3  C3  DEN d   1      -1.034  -3.454   2.218  0.00  0.00     0.027 A 
ATOM      4  C4  DEN d   1       1.205  -2.720   1.167  0.00  0.00     0.027 A 
ATOM      5  C5  DEN d   1       2.176  -1.744   1.164  0.00  0.00    -0.003 A 
ATOM      6  C6  DEN d   1       2.094  -0.629   1.956  0.00  0.00     0.001 A 
ATOM      7  C7  DEN d   1       1.041  -0.486   2.819  0.00  0.00     0.017 A 
ATOM      8  C8  DEN d   1       0.053  -1.463   2.824  0.00  0.00    -0.094 A 
ATOM      9  C9  DEN d   1       0.160  -2.588   2.024  0.00  0.00    -0.072 A 
ENDROOT
TORSDOF 0
ENDMDL
