MODEL 1
REMARK minimizedAffinity 15.7038937
REMARK minimizedRMSD -1
REMARK  0 active torsions:
REMARK  status: ('A' for Active; 'I' for Inactive)
ROOT
ATOM      1  C1  DEN d   1       3.986   0.097   3.396  0.00  0.00     0.130 A 
ATOM      2  C2  DEN d   1       4.541  -0.387   2.135  0.00  0.00    -0.031 A 
ATOM      3  C3  DEN d   1       3.458  -1.057   1.387  0.00  0.00     0.027 A 
ATOM      4  C4  DEN d   1       0.989  -1.387   2.053  0.00  0.00     0.027 A 
ATOM      5  C5  DEN d   1       0.052  -1.160   3.037  0.00  0.00    -0.003 A 
ATOM      6  C6  DEN d   1       0.365  -0.533   4.213  0.00  0.00     0.001 A 
ATOM      7  C7  DEN d   1       1.639  -0.071   4.418  0.00  0.00     0.017 A 
ATOM      8  C8  DEN d   1       2.591  -0.303   3.434  0.00  0.00    -0.094 A 
ATOM      9  C9  DEN d   1       2.251  -0.928   2.246  0.00  0.00    -0.072 A 
ENDROOT
TORSDOF 0
ENDMDL
