MODEL 1
REMARK minimizedAffinity 10.1028671
REMARK minimizedRMSD -1
REMARK  0 active torsions:
REMARK  status: ('A' for Active; 'I' for Inactive)
ROOT
ATOM      1  C1  DEN d   1       3.882   0.517   3.544  0.00  0.00     0.130 A 
ATOM      2  C2  DEN d   1       4.097   0.230   2.129  0.00  0.00    -0.031 A 
ATOM      3  C3  DEN d   1       2.854  -0.355   1.587  0.00  0.00     0.027 A 
ATOM      4  C4  DEN d   1       0.626  -0.835   2.796  0.00  0.00     0.027 A 
ATOM      5  C5  DEN d   1      -0.032  -0.771   4.004  0.00  0.00    -0.003 A 
ATOM      6  C6  DEN d   1       0.574  -0.308   5.142  0.00  0.00     0.001 A 
ATOM      7  C7  DEN d   1       1.864   0.151   5.086  0.00  0.00     0.017 A 
ATOM      8  C8  DEN d   1       2.536   0.082   3.873  0.00  0.00    -0.094 A 
ATOM      9  C9  DEN d   1       1.902  -0.377   2.731  0.00  0.00    -0.072 A 
ENDROOT
TORSDOF 0
ENDMDL
