MODEL 1
REMARK minimizedAffinity 15.7410936
REMARK minimizedRMSD -1
REMARK  0 active torsions:
REMARK  status: ('A' for Active; 'I' for Inactive)
ROOT
ATOM      1  C1  DEN d   1       1.085  -2.228   1.069  0.00  0.00     0.130 A 
ATOM      2  C2  DEN d   1       2.015  -1.102   1.078  0.00  0.00    -0.031 A 
ATOM      3  C3  DEN d   1       1.647  -0.215   2.199  0.00  0.00     0.027 A 
ATOM      4  C4  DEN d   1      -0.259  -0.476   3.917  0.00  0.00     0.027 A 
ATOM      5  C5  DEN d   1      -1.319  -1.265   4.307  0.00  0.00    -0.003 A 
ATOM      6  C6  DEN d   1      -1.670  -2.402   3.630  0.00  0.00     0.001 A 
ATOM      7  C7  DEN d   1      -0.926  -2.808   2.553  0.00  0.00     0.017 A 
ATOM      8  C8  DEN d   1       0.139  -2.014   2.150  0.00  0.00    -0.094 A 
ATOM      9  C9  DEN d   1       0.486  -0.874   2.855  0.00  0.00    -0.072 A 
ENDROOT
TORSDOF 0
ENDMDL
