MODEL 1
REMARK minimizedAffinity 25.2772198
REMARK minimizedRMSD -1
REMARK  0 active torsions:
REMARK  status: ('A' for Active; 'I' for Inactive)
ROOT
ATOM      1  C1  DEN d   1       3.796   1.246   3.031  0.00  0.00     0.130 A 
ATOM      2  C2  DEN d   1       4.277   1.113   1.658  0.00  0.00    -0.031 A 
ATOM      3  C3  DEN d   1       3.221   0.449   0.867  0.00  0.00     0.027 A 
ATOM      4  C4  DEN d   1       0.900  -0.377   1.630  0.00  0.00     0.027 A 
ATOM      5  C5  DEN d   1       0.048  -0.495   2.707  0.00  0.00    -0.003 A 
ATOM      6  C6  DEN d   1       0.396  -0.075   3.963  0.00  0.00     0.001 A 
ATOM      7  C7  DEN d   1       1.611   0.524   4.166  0.00  0.00     0.017 A 
ATOM      8  C8  DEN d   1       2.479   0.640   3.087  0.00  0.00    -0.094 A 
ATOM      9  C9  DEN d   1       2.103   0.220   1.822  0.00  0.00    -0.072 A 
ENDROOT
TORSDOF 0
ENDMDL
