MODEL 1
REMARK minimizedAffinity 21.3379879
REMARK minimizedRMSD -1
REMARK  0 active torsions:
REMARK  status: ('A' for Active; 'I' for Inactive)
ROOT
ATOM      1  C1  DEN d   1      -2.192   3.661  -5.323  0.00  0.00     0.130 A 
ATOM      2  C2  DEN d   1      -1.721   4.867  -5.999  0.00  0.00    -0.031 A 
ATOM      3  C3  DEN d   1      -1.854   5.998  -5.060  0.00  0.00     0.027 A 
ATOM      4  C4  DEN d   1      -2.735   6.000  -2.636  0.00  0.00     0.027 A 
ATOM      5  C5  DEN d   1      -3.260   5.216  -1.632  0.00  0.00    -0.003 A 
ATOM      6  C6  DEN d   1      -3.495   3.877  -1.798  0.00  0.00     0.001 A 
ATOM      7  C7  DEN d   1      -3.163   3.271  -2.981  0.00  0.00     0.017 A 
ATOM      8  C8  DEN d   1      -2.641   4.056  -4.000  0.00  0.00    -0.094 A 
ATOM      9  C9  DEN d   1      -2.399   5.406  -3.809  0.00  0.00    -0.072 A 
ENDROOT
TORSDOF 0
ENDMDL
