MODEL 1
REMARK minimizedAffinity 6.63138342
REMARK minimizedRMSD -1
REMARK  0 active torsions:
REMARK  status: ('A' for Active; 'I' for Inactive)
ROOT
ATOM      1  C1  DEN d   1       0.882  -2.063   1.220  0.00  0.00     0.130 A 
ATOM      2  C2  DEN d   1       1.852  -1.006   1.493  0.00  0.00    -0.031 A 
ATOM      3  C3  DEN d   1       1.561  -0.453   2.831  0.00  0.00     0.027 A 
ATOM      4  C4  DEN d   1      -0.285  -1.131   4.500  0.00  0.00     0.027 A 
ATOM      5  C5  DEN d   1      -1.357  -1.970   4.708  0.00  0.00    -0.003 A 
ATOM      6  C6  DEN d   1      -1.776  -2.868   3.762  0.00  0.00     0.001 A 
ATOM      7  C7  DEN d   1      -1.090  -2.979   2.581  0.00  0.00     0.017 A 
ATOM      8  C8  DEN d   1      -0.013  -2.132   2.361  0.00  0.00    -0.094 A 
ATOM      9  C9  DEN d   1       0.403  -1.239   3.335  0.00  0.00    -0.072 A 
ENDROOT
TORSDOF 0
ENDMDL
