MODEL 1
REMARK minimizedAffinity 9.21403217
REMARK minimizedRMSD -1
REMARK  0 active torsions:
REMARK  status: ('A' for Active; 'I' for Inactive)
ROOT
ATOM      1  C1  DEN d   1       1.898  -2.402   1.308  0.00  0.00     0.130 A 
ATOM      2  C2  DEN d   1       2.792  -1.262   1.491  0.00  0.00    -0.031 A 
ATOM      3  C3  DEN d   1       2.153  -0.328   2.440  0.00  0.00     0.027 A 
ATOM      4  C4  DEN d   1      -0.120  -0.538   3.641  0.00  0.00     0.027 A 
ATOM      5  C5  DEN d   1      -1.241  -1.324   3.793  0.00  0.00    -0.003 A 
ATOM      6  C6  DEN d   1      -1.408  -2.499   3.108  0.00  0.00     0.001 A 
ATOM      7  C7  DEN d   1      -0.418  -2.943   2.272  0.00  0.00     0.017 A 
ATOM      8  C8  DEN d   1       0.712  -2.152   2.107  0.00  0.00    -0.094 A 
ATOM      9  C9  DEN d   1       0.867  -0.974   2.818  0.00  0.00    -0.072 A 
ENDROOT
TORSDOF 0
ENDMDL
