MODEL 1
REMARK minimizedAffinity 11.2856722
REMARK minimizedRMSD -1
REMARK  0 active torsions:
REMARK  status: ('A' for Active; 'I' for Inactive)
ROOT
ATOM      1  C1  DEN d   1       0.696  -2.712   1.369  0.00  0.00     0.130 A 
ATOM      2  C2  DEN d   1       1.806  -2.764   0.423  0.00  0.00    -0.031 A 
ATOM      3  C3  DEN d   1       2.874  -1.875   0.922  0.00  0.00     0.027 A 
ATOM      4  C4  DEN d   1       2.917  -0.433   3.061  0.00  0.00     0.027 A 
ATOM      5  C5  DEN d   1       2.198  -0.052   4.172  0.00  0.00    -0.003 A 
ATOM      6  C6  DEN d   1       0.926  -0.501   4.408  0.00  0.00     0.001 A 
ATOM      7  C7  DEN d   1       0.349  -1.393   3.543  0.00  0.00     0.017 A 
ATOM      8  C8  DEN d   1       1.065  -1.776   2.416  0.00  0.00    -0.094 A 
ATOM      9  C9  DEN d   1       2.355  -1.321   2.202  0.00  0.00    -0.072 A 
ENDROOT
TORSDOF 0
ENDMDL
