MODEL 1
REMARK minimizedAffinity 5.61453819
REMARK minimizedRMSD -1
REMARK  1 active torsions:
REMARK  status: ('A' for Active; 'I' for Inactive)
REMARK    1  A    between atoms: C1_2  and  C2_3 
ROOT
ATOM      1  C2  UNL d   1      -3.507  -2.016  -5.845  0.00  0.00    -0.081 A 
ATOM      2  C3  UNL d   1      -2.397  -2.856  -5.999  0.00  0.00     0.006 A 
ATOM      3  C4  UNL d   1      -1.104  -2.366  -5.797  0.00  0.00     0.002 A 
ATOM      4  C5  UNL d   1      -0.901  -1.032  -5.428  0.00  0.00    -0.080 A 
ATOM      5  C6  UNL d   1       0.480  -0.501  -5.178  0.00  0.00     0.076 C 
ATOM      6  C7  UNL d   1      -2.008  -0.188  -5.291  0.00  0.00     0.002 A 
ATOM      7  C8  UNL d   1      -3.300  -0.677  -5.494  0.00  0.00     0.006 A 
ENDROOT
BRANCH   1   8
ATOM      8  C1  UNL d   1      -4.905  -2.557  -6.000  0.00  0.00     0.054 C 
ATOM      9  C   UNL d   1      -5.935  -1.437  -5.998  0.00  0.00     0.018 C 
ENDBRANCH   1   8
TORSDOF 1
ENDMDL
