MODEL 1
REMARK minimizedAffinity 7.55696297
REMARK minimizedRMSD -1
REMARK  1 active torsions:
REMARK  status: ('A' for Active; 'I' for Inactive)
REMARK    1  A    between atoms: C1_2  and  C2_3 
ROOT
ATOM      1  C2  UNL d   1      -1.000  -1.216  -5.200  0.00  0.00    -0.081 A 
ATOM      2  C3  UNL d   1      -2.318  -0.760  -5.077  0.00  0.00     0.006 A 
ATOM      3  C4  UNL d   1      -3.391  -1.613  -5.345  0.00  0.00     0.002 A 
ATOM      4  C5  UNL d   1      -3.164  -2.938  -5.732  0.00  0.00    -0.080 A 
ATOM      5  C6  UNL d   1      -4.307  -3.874  -5.992  0.00  0.00     0.076 C 
ATOM      6  C7  UNL d   1      -1.847  -3.390  -5.871  0.00  0.00     0.002 A 
ATOM      7  C8  UNL d   1      -0.774  -2.537  -5.605  0.00  0.00     0.006 A 
ENDROOT
BRANCH   1   8
ATOM      8  C1  UNL d   1       0.158  -0.317  -4.850  0.00  0.00     0.054 C 
ATOM      9  C   UNL d   1       1.032  -0.937  -3.769  0.00  0.00     0.018 C 
ENDBRANCH   1   8
TORSDOF 1
ENDMDL
