MODEL 1
REMARK minimizedAffinity 1.76425457
REMARK minimizedRMSD -1
REMARK  1 active torsions:
REMARK  status: ('A' for Active; 'I' for Inactive)
REMARK    1  A    between atoms: C1_2  and  C2_3 
ROOT
ATOM      1  C2  UNL d   1      -5.406   2.395   4.510  0.00  0.00    -0.081 A 
ATOM      2  C3  UNL d   1      -5.161   1.019   4.443  0.00  0.00     0.006 A 
ATOM      3  C4  UNL d   1      -4.559   0.461   3.313  0.00  0.00     0.002 A 
ATOM      4  C5  UNL d   1      -4.185   1.271   2.235  0.00  0.00    -0.080 A 
ATOM      5  C6  UNL d   1      -3.511   0.689   1.028  0.00  0.00     0.076 C 
ATOM      6  C7  UNL d   1      -4.447   2.644   2.294  0.00  0.00     0.002 A 
ATOM      7  C8  UNL d   1      -5.049   3.202   3.424  0.00  0.00     0.006 A 
ENDROOT
BRANCH   1   8
ATOM      8  C1  UNL d   1      -5.996   3.009   5.754  0.00  0.00     0.054 C 
ATOM      9  C   UNL d   1      -5.606   4.474   5.887  0.00  0.00     0.018 C 
ENDBRANCH   1   8
TORSDOF 1
ENDMDL
