MODEL 1
REMARK minimizedAffinity 2.15344882
REMARK minimizedRMSD -1
REMARK  1 active torsions:
REMARK  status: ('A' for Active; 'I' for Inactive)
REMARK    1  A    between atoms: C1_2  and  C2_3 
ROOT
ATOM      1  C2  UNL d   1      -1.791  -1.427  -5.705  0.00  0.00    -0.081 A 
ATOM      2  C3  UNL d   1      -2.751  -0.410  -5.636  0.00  0.00     0.006 A 
ATOM      3  C4  UNL d   1      -4.111  -0.710  -5.743  0.00  0.00     0.002 A 
ATOM      4  C5  UNL d   1      -4.534  -2.033  -5.913  0.00  0.00    -0.080 A 
ATOM      5  C6  UNL d   1      -5.993  -2.372  -6.000  0.00  0.00     0.076 C 
ATOM      6  C7  UNL d   1      -3.575  -3.047  -6.000  0.00  0.00     0.002 A 
ATOM      7  C8  UNL d   1      -2.215  -2.747  -5.893  0.00  0.00     0.006 A 
ENDROOT
BRANCH   1   8
ATOM      8  C1  UNL d   1      -0.328  -1.114  -5.524  0.00  0.00     0.054 C 
ATOM      9  C   UNL d   1       0.064  -1.130  -4.054  0.00  0.00     0.018 C 
ENDBRANCH   1   8
TORSDOF 1
ENDMDL
