MODEL 1
REMARK minimizedAffinity 9.97606468
REMARK minimizedRMSD -1
REMARK  1 active torsions:
REMARK  status: ('A' for Active; 'I' for Inactive)
REMARK    1  A    between atoms: C1_2  and  C2_3 
ROOT
ATOM      1  C2  UNL d   1      -0.253  -0.984  -5.130  0.00  0.00    -0.081 A 
ATOM      2  C3  UNL d   1      -0.211  -2.273  -5.676  0.00  0.00     0.006 A 
ATOM      3  C4  UNL d   1      -1.393  -2.967  -5.945  0.00  0.00     0.002 A 
ATOM      4  C5  UNL d   1      -2.636  -2.381  -5.681  0.00  0.00    -0.080 A 
ATOM      5  C6  UNL d   1      -3.913  -3.103  -5.994  0.00  0.00     0.076 C 
ATOM      6  C7  UNL d   1      -2.678  -1.100  -5.119  0.00  0.00     0.002 A 
ATOM      7  C8  UNL d   1      -1.496  -0.406  -4.849  0.00  0.00     0.006 A 
ENDROOT
BRANCH   1   8
ATOM      8  C1  UNL d   1       1.018  -0.208  -4.898  0.00  0.00     0.054 C 
ATOM      9  C   UNL d   1       1.467  -0.301  -3.447  0.00  0.00     0.018 C 
ENDBRANCH   1   8
TORSDOF 1
ENDMDL
