MODEL 1
REMARK minimizedAffinity 4.76021528
REMARK minimizedRMSD -1
REMARK  1 active torsions:
REMARK  status: ('A' for Active; 'I' for Inactive)
REMARK    1  A    between atoms: C1_2  and  C2_3 
ROOT
ATOM      1  C2  UNL d   1      -3.531  -2.063  -5.778  0.00  0.00    -0.081 A 
ATOM      2  C3  UNL d   1      -2.353  -2.786  -6.000  0.00  0.00     0.006 A 
ATOM      3  C4  UNL d   1      -1.108  -2.209  -5.737  0.00  0.00     0.002 A 
ATOM      4  C5  UNL d   1      -1.021  -0.904  -5.242  0.00  0.00    -0.080 A 
ATOM      5  C6  UNL d   1       0.308  -0.283  -4.927  0.00  0.00     0.076 C 
ATOM      6  C7  UNL d   1      -2.197  -0.175  -5.037  0.00  0.00     0.002 A 
ATOM      7  C8  UNL d   1      -3.442  -0.751  -5.300  0.00  0.00     0.006 A 
ENDROOT
BRANCH   1   8
ATOM      8  C1  UNL d   1      -4.877  -2.704  -5.999  0.00  0.00     0.054 C 
ATOM      9  C   UNL d   1      -5.996  -1.675  -5.944  0.00  0.00     0.018 C 
ENDBRANCH   1   8
TORSDOF 1
ENDMDL
