MODEL 1
REMARK minimizedAffinity 4.22154045
REMARK minimizedRMSD -1
REMARK  1 active torsions:
REMARK  status: ('A' for Active; 'I' for Inactive)
REMARK    1  A    between atoms: C1_2  and  C2_3 
ROOT
ATOM      1  C2  UNL d   1      -3.067  -1.336  -5.990  0.00  0.00    -0.081 A 
ATOM      2  C3  UNL d   1      -2.192  -2.430  -5.979  0.00  0.00     0.006 A 
ATOM      3  C4  UNL d   1      -0.811  -2.231  -5.911  0.00  0.00     0.002 A 
ATOM      4  C5  UNL d   1      -0.282  -0.938  -5.845  0.00  0.00    -0.080 A 
ATOM      5  C6  UNL d   1       1.197  -0.712  -5.741  0.00  0.00     0.076 C 
ATOM      6  C7  UNL d   1      -1.155   0.155  -5.873  0.00  0.00     0.002 A 
ATOM      7  C8  UNL d   1      -2.536  -0.042  -5.941  0.00  0.00     0.006 A 
ENDROOT
BRANCH   1   8
ATOM      8  C1  UNL d   1      -4.559  -1.548  -5.997  0.00  0.00     0.054 C 
ATOM      9  C   UNL d   1      -4.907  -3.030  -5.976  0.00  0.00     0.018 C 
ENDBRANCH   1   8
TORSDOF 1
ENDMDL
