MODEL 1
REMARK minimizedAffinity 9.35426426
REMARK minimizedRMSD -1
REMARK  1 active torsions:
REMARK  status: ('A' for Active; 'I' for Inactive)
REMARK    1  A    between atoms: C1_2  and  C2_3 
ROOT
ATOM      1  C2  UNL d   1      -3.700  -2.857  -5.903  0.00  0.00    -0.081 A 
ATOM      2  C3  UNL d   1      -4.262  -1.578  -6.000  0.00  0.00     0.006 A 
ATOM      3  C4  UNL d   1      -3.447  -0.443  -5.987  0.00  0.00     0.002 A 
ATOM      4  C5  UNL d   1      -2.058  -0.569  -5.886  0.00  0.00    -0.080 A 
ATOM      5  C6  UNL d   1      -1.169   0.640  -5.901  0.00  0.00     0.076 C 
ATOM      6  C7  UNL d   1      -1.497  -1.845  -5.772  0.00  0.00     0.002 A 
ATOM      7  C8  UNL d   1      -2.312  -2.980  -5.784  0.00  0.00     0.006 A 
ENDROOT
BRANCH   1   8
ATOM      8  C1  UNL d   1      -4.571  -4.084  -5.982  0.00  0.00     0.054 C 
ATOM      9  C   UNL d   1      -3.735  -5.356  -5.986  0.00  0.00     0.018 C 
ENDBRANCH   1   8
TORSDOF 1
ENDMDL
