MODEL 1
REMARK minimizedAffinity 12.4852581
REMARK minimizedRMSD -1
REMARK  1 active torsions:
REMARK  status: ('A' for Active; 'I' for Inactive)
REMARK    1  A    between atoms: C1_2  and  C2_3 
ROOT
ATOM      1  C2  UNL d   1       3.149   0.453  -4.685  0.00  0.00    -0.081 A 
ATOM      2  C3  UNL d   1       3.559   0.827  -3.400  0.00  0.00     0.006 A 
ATOM      3  C4  UNL d   1       2.680   0.727  -2.319  0.00  0.00     0.002 A 
ATOM      4  C5  UNL d   1       1.379   0.245  -2.504  0.00  0.00    -0.080 A 
ATOM      5  C6  UNL d   1       0.435   0.105  -1.347  0.00  0.00     0.076 C 
ATOM      6  C7  UNL d   1       0.964  -0.112  -3.791  0.00  0.00     0.002 A 
ATOM      7  C8  UNL d   1       1.843  -0.011  -4.872  0.00  0.00     0.006 A 
ENDROOT
BRANCH   1   8
ATOM      8  C1  UNL d   1       4.115   0.498  -5.841  0.00  0.00     0.054 C 
ATOM      9  C   UNL d   1       4.724   1.884  -6.000  0.00  0.00     0.018 C 
ENDBRANCH   1   8
TORSDOF 1
ENDMDL
