MODEL 1
REMARK minimizedAffinity 3.11790061
REMARK minimizedRMSD -1
REMARK  1 active torsions:
REMARK  status: ('A' for Active; 'I' for Inactive)
REMARK    1  A    between atoms: C1_2  and  C2_3 
ROOT
ATOM      1  C2  UNL d   1      -3.585  -1.885  -5.588  0.00  0.00    -0.081 A 
ATOM      2  C3  UNL d   1      -3.327  -0.734  -4.834  0.00  0.00     0.006 A 
ATOM      3  C4  UNL d   1      -2.015  -0.381  -4.507  0.00  0.00     0.002 A 
ATOM      4  C5  UNL d   1      -0.941  -1.169  -4.934  0.00  0.00    -0.080 A 
ATOM      5  C6  UNL d   1       0.473  -0.785  -4.615  0.00  0.00     0.076 C 
ATOM      6  C7  UNL d   1      -1.200  -2.329  -5.672  0.00  0.00     0.002 A 
ATOM      7  C8  UNL d   1      -2.511  -2.682  -5.999  0.00  0.00     0.006 A 
ENDROOT
BRANCH   1   8
ATOM      8  C1  UNL d   1      -4.993  -2.233  -5.998  0.00  0.00     0.054 C 
ATOM      9  C   UNL d   1      -5.951  -2.146  -4.818  0.00  0.00     0.018 C 
ENDBRANCH   1   8
TORSDOF 1
ENDMDL
