MODEL 1
REMARK minimizedAffinity 2.31610966
REMARK minimizedRMSD -1
REMARK  1 active torsions:
REMARK  status: ('A' for Active; 'I' for Inactive)
REMARK    1  A    between atoms: C1_2  and  C2_3 
ROOT
ATOM      1  C2  UNL d   1      -1.921  -1.337  -5.824  0.00  0.00    -0.081 A 
ATOM      2  C3  UNL d   1      -2.167  -2.709  -5.954  0.00  0.00     0.006 A 
ATOM      3  C4  UNL d   1      -3.477  -3.193  -5.998  0.00  0.00     0.002 A 
ATOM      4  C5  UNL d   1      -4.561  -2.312  -5.921  0.00  0.00    -0.080 A 
ATOM      5  C6  UNL d   1      -5.972  -2.815  -5.997  0.00  0.00     0.076 C 
ATOM      6  C7  UNL d   1      -4.315  -0.943  -5.773  0.00  0.00     0.002 A 
ATOM      7  C8  UNL d   1      -3.006  -0.459  -5.728  0.00  0.00     0.006 A 
ENDROOT
BRANCH   1   8
ATOM      8  C1  UNL d   1      -0.510  -0.807  -5.841  0.00  0.00     0.054 C 
ATOM      9  C   UNL d   1       0.217  -1.124  -4.542  0.00  0.00     0.018 C 
ENDBRANCH   1   8
TORSDOF 1
ENDMDL
