MODEL 1
REMARK minimizedAffinity 2.09404302
REMARK minimizedRMSD -1
REMARK  1 active torsions:
REMARK  status: ('A' for Active; 'I' for Inactive)
REMARK    1  A    between atoms: C1_2  and  C2_3 
ROOT
ATOM      1  C2  UNL d   1      -1.473  -0.894  -5.962  0.00  0.00    -0.081 A 
ATOM      2  C3  UNL d   1      -2.529   0.025  -5.978  0.00  0.00     0.006 A 
ATOM      3  C4  UNL d   1      -3.853  -0.418  -6.000  0.00  0.00     0.002 A 
ATOM      4  C5  UNL d   1      -4.144  -1.787  -5.998  0.00  0.00    -0.080 A 
ATOM      5  C6  UNL d   1      -5.561  -2.276  -5.990  0.00  0.00     0.076 C 
ATOM      6  C7  UNL d   1      -3.088  -2.705  -5.999  0.00  0.00     0.002 A 
ATOM      7  C8  UNL d   1      -1.764  -2.262  -5.978  0.00  0.00     0.006 A 
ENDROOT
BRANCH   1   8
ATOM      8  C1  UNL d   1      -0.045  -0.419  -5.873  0.00  0.00     0.054 C 
ATOM      9  C   UNL d   1       0.543  -0.687  -4.495  0.00  0.00     0.018 C 
ENDBRANCH   1   8
TORSDOF 1
ENDMDL
