MODEL 1
REMARK minimizedAffinity 7.83901453
REMARK minimizedRMSD -1
REMARK  1 active torsions:
REMARK  status: ('A' for Active; 'I' for Inactive)
REMARK    1  A    between atoms: C1_2  and  C2_3 
ROOT
ATOM      1  C2  UNL d   1      -1.690  -1.840  -5.774  0.00  0.00    -0.081 A 
ATOM      2  C3  UNL d   1      -2.333  -0.609  -5.597  0.00  0.00     0.006 A 
ATOM      3  C4  UNL d   1      -3.728  -0.529  -5.615  0.00  0.00     0.002 A 
ATOM      4  C5  UNL d   1      -4.501  -1.680  -5.803  0.00  0.00    -0.080 A 
ATOM      5  C6  UNL d   1      -6.000  -1.613  -5.795  0.00  0.00     0.076 C 
ATOM      6  C7  UNL d   1      -3.858  -2.907  -5.998  0.00  0.00     0.002 A 
ATOM      7  C8  UNL d   1      -2.464  -2.986  -5.980  0.00  0.00     0.006 A 
ENDROOT
BRANCH   1   8
ATOM      8  C1  UNL d   1      -0.188  -1.938  -5.690  0.00  0.00     0.054 C 
ATOM      9  C   UNL d   1       0.356  -1.129  -4.522  0.00  0.00     0.018 C 
ENDBRANCH   1   8
TORSDOF 1
ENDMDL
