MODEL 1
REMARK minimizedAffinity 3.19192266
REMARK minimizedRMSD -1
REMARK  1 active torsions:
REMARK  status: ('A' for Active; 'I' for Inactive)
REMARK    1  A    between atoms: C1_2  and  C2_3 
ROOT
ATOM      1  C2  UNL d   1      -2.530  -1.092  -5.443  0.00  0.00    -0.081 A 
ATOM      2  C3  UNL d   1      -2.291   0.163  -4.870  0.00  0.00     0.006 A 
ATOM      3  C4  UNL d   1      -1.016   0.500  -4.409  0.00  0.00     0.002 A 
ATOM      4  C5  UNL d   1       0.041  -0.410  -4.519  0.00  0.00    -0.080 A 
ATOM      5  C6  UNL d   1       1.422  -0.050  -4.055  0.00  0.00     0.076 C 
ATOM      6  C7  UNL d   1      -0.202  -1.670  -5.075  0.00  0.00     0.002 A 
ATOM      7  C8  UNL d   1      -1.476  -2.007  -5.536  0.00  0.00     0.006 A 
ENDROOT
BRANCH   1   8
ATOM      8  C1  UNL d   1      -3.889  -1.434  -6.000  0.00  0.00     0.054 C 
ATOM      9  C   UNL d   1      -4.125  -2.937  -6.000  0.00  0.00     0.018 C 
ENDBRANCH   1   8
TORSDOF 1
ENDMDL
