MODEL 1
REMARK minimizedAffinity 11.3758459
REMARK minimizedRMSD -1
REMARK  1 active torsions:
REMARK  status: ('A' for Active; 'I' for Inactive)
REMARK    1  A    between atoms: C1_2  and  C2_3 
ROOT
ATOM      1  C2  UNL d   1       2.785  -3.133   0.360  0.00  0.00    -0.076 A 
ATOM      2  C3  UNL d   1       1.454  -3.510   0.610  0.00  0.00     0.004 A 
ATOM      3  C4  UNL d   1       0.433  -2.562   0.643  0.00  0.00    -0.003 A 
ATOM      4  C5  UNL d   1       0.727  -1.220   0.426  0.00  0.00     0.000 A 
ATOM      5  C6  UNL d   1       2.039  -0.830   0.159  0.00  0.00     0.000 A 
ATOM      6  C7  UNL d   1       3.077  -1.776   0.106  0.00  0.00    -0.073 A 
ATOM      7  C8  UNL d   1       4.474  -1.299  -0.180  0.00  0.00     0.078 C 
ENDROOT
BRANCH   1   8
ATOM      8  C1  UNL d   1       3.853  -4.202   0.364  0.00  0.00     0.053 C 
ATOM      9  C   UNL d   1       4.280  -4.595   1.770  0.00  0.00     0.018 C 
ENDBRANCH   1   8
TORSDOF 1
ENDMDL
