MODEL 1
REMARK minimizedAffinity 5.89227819
REMARK minimizedRMSD -1
REMARK  1 active torsions:
REMARK  status: ('A' for Active; 'I' for Inactive)
REMARK    1  A    between atoms: C1_2  and  C2_3 
ROOT
ATOM      1  C2  UNL d   1       2.602   2.346  -5.930  0.00  0.00    -0.076 A 
ATOM      2  C3  UNL d   1       1.917   3.573  -5.944  0.00  0.00     0.004 A 
ATOM      3  C4  UNL d   1       2.610   4.782  -5.974  0.00  0.00    -0.003 A 
ATOM      4  C5  UNL d   1       4.000   4.783  -5.992  0.00  0.00     0.000 A 
ATOM      5  C6  UNL d   1       4.696   3.575  -5.997  0.00  0.00     0.000 A 
ATOM      6  C7  UNL d   1       4.013   2.347  -5.983  0.00  0.00    -0.073 A 
ATOM      7  C8  UNL d   1       4.814   1.075  -5.982  0.00  0.00     0.078 C 
ENDROOT
BRANCH   1   8
ATOM      8  C1  UNL d   1       1.797   1.067  -5.870  0.00  0.00     0.053 C 
ATOM      9  C   UNL d   1       0.298   1.321  -5.889  0.00  0.00     0.018 C 
ENDBRANCH   1   8
TORSDOF 1
ENDMDL
