MODEL 1
REMARK minimizedAffinity 8.85295486
REMARK minimizedRMSD -1
REMARK  1 active torsions:
REMARK  status: ('A' for Active; 'I' for Inactive)
REMARK    1  A    between atoms: C1_2  and  C2_3 
ROOT
ATOM      1  C2  UNL d   1       1.957   4.527   3.486  0.00  0.00    -0.076 A 
ATOM      2  C3  UNL d   1       3.177   4.453   4.181  0.00  0.00     0.004 A 
ATOM      3  C4  UNL d   1       3.366   5.146   5.375  0.00  0.00    -0.003 A 
ATOM      4  C5  UNL d   1       2.338   5.925   5.895  0.00  0.00     0.000 A 
ATOM      5  C6  UNL d   1       1.115   5.996   5.229  0.00  0.00     0.000 A 
ATOM      6  C7  UNL d   1       0.902   5.291   4.032  0.00  0.00    -0.073 A 
ATOM      7  C8  UNL d   1      -0.434   5.409   3.353  0.00  0.00     0.078 C 
ENDROOT
BRANCH   1   8
ATOM      8  C1  UNL d   1       1.818   3.775   2.182  0.00  0.00     0.053 C 
ATOM      9  C   UNL d   1       3.110   3.088   1.766  0.00  0.00     0.018 C 
ENDBRANCH   1   8
TORSDOF 1
ENDMDL
