MODEL 1
REMARK minimizedAffinity 1.25172281
REMARK minimizedRMSD -1
REMARK  1 active torsions:
REMARK  status: ('A' for Active; 'I' for Inactive)
REMARK    1  A    between atoms: C1_2  and  C2_3 
ROOT
ATOM      1  C2  UNL d   1       3.820  -3.178   2.412  0.00  0.00    -0.076 A 
ATOM      2  C3  UNL d   1       4.612  -4.257   1.983  0.00  0.00     0.004 A 
ATOM      3  C4  UNL d   1       4.373  -4.881   0.760  0.00  0.00    -0.003 A 
ATOM      4  C5  UNL d   1       3.338  -4.436  -0.055  0.00  0.00     0.000 A 
ATOM      5  C6  UNL d   1       2.553  -3.355   0.347  0.00  0.00     0.000 A 
ATOM      6  C7  UNL d   1       2.791  -2.704   1.569  0.00  0.00    -0.073 A 
ATOM      7  C8  UNL d   1       1.910  -1.548   1.955  0.00  0.00     0.078 C 
ENDROOT
BRANCH   1   8
ATOM      8  C1  UNL d   1       4.109  -2.558   3.760  0.00  0.00     0.053 C 
ATOM      9  C   UNL d   1       5.245  -3.256   4.491  0.00  0.00     0.018 C 
ENDBRANCH   1   8
TORSDOF 1
ENDMDL
