MODEL 1
REMARK minimizedAffinity -2.06245708
REMARK minimizedRMSD -1
REMARK  1 active torsions:
REMARK  status: ('A' for Active; 'I' for Inactive)
REMARK    1  A    between atoms: C1_2  and  C2_3 
ROOT
ATOM      1  C2  UNL d   1       2.769   4.564  -5.841  0.00  0.00    -0.076 A 
ATOM      2  C3  UNL d   1       3.641   3.462  -5.860  0.00  0.00     0.004 A 
ATOM      3  C4  UNL d   1       3.151   2.159  -5.938  0.00  0.00    -0.003 A 
ATOM      4  C5  UNL d   1       1.779   1.938  -6.000  0.00  0.00     0.000 A 
ATOM      5  C6  UNL d   1       0.900   3.020  -6.000  0.00  0.00     0.000 A 
ATOM      6  C7  UNL d   1       1.379   4.340  -5.938  0.00  0.00    -0.073 A 
ATOM      7  C8  UNL d   1       0.385   5.469  -5.935  0.00  0.00     0.078 C 
ENDROOT
BRANCH   1   8
ATOM      8  C1  UNL d   1       3.357   5.952  -5.728  0.00  0.00     0.053 C 
ATOM      9  C   UNL d   1       4.854   5.974  -5.998  0.00  0.00     0.018 C 
ENDBRANCH   1   8
TORSDOF 1
ENDMDL
