MODEL 1
REMARK minimizedAffinity -1.84536648
REMARK minimizedRMSD -1
REMARK  1 active torsions:
REMARK  status: ('A' for Active; 'I' for Inactive)
REMARK    1  A    between atoms: C1_2  and  C2_3 
ROOT
ATOM      1  C2  UNL d   1       1.325   5.100   3.954  0.00  0.00    -0.076 A 
ATOM      2  C3  UNL d   1       0.043   5.124   3.379  0.00  0.00     0.004 A 
ATOM      3  C4  UNL d   1      -1.061   5.570   4.105  0.00  0.00    -0.003 A 
ATOM      4  C5  UNL d   1      -0.899   5.999   5.418  0.00  0.00     0.000 A 
ATOM      5  C6  UNL d   1       0.369   5.998   5.999  0.00  0.00     0.000 A 
ATOM      6  C7  UNL d   1       1.494   5.568   5.275  0.00  0.00    -0.073 A 
ATOM      7  C8  UNL d   1       2.837   5.583   5.953  0.00  0.00     0.078 C 
ENDROOT
BRANCH   1   8
ATOM      8  C1  UNL d   1       2.480   4.581   3.128  0.00  0.00     0.053 C 
ATOM      9  C   UNL d   1       2.236   3.174   2.604  0.00  0.00     0.018 C 
ENDBRANCH   1   8
TORSDOF 1
ENDMDL
