MODEL 1
REMARK minimizedAffinity 6.91565609
REMARK minimizedRMSD -1
REMARK  1 active torsions:
REMARK  status: ('A' for Active; 'I' for Inactive)
REMARK    1  A    between atoms: C1_2  and  C2_3 
ROOT
ATOM      1  C2  UNL d   1       3.654  -3.366   1.061  0.00  0.00    -0.076 A 
ATOM      2  C3  UNL d   1       2.348  -3.717   1.444  0.00  0.00     0.004 A 
ATOM      3  C4  UNL d   1       1.248  -2.983   1.002  0.00  0.00    -0.003 A 
ATOM      4  C5  UNL d   1       1.437  -1.887   0.169  0.00  0.00     0.000 A 
ATOM      5  C6  UNL d   1       2.724  -1.535  -0.236  0.00  0.00     0.000 A 
ATOM      6  C7  UNL d   1       3.842  -2.274   0.187  0.00  0.00    -0.073 A 
ATOM      7  C8  UNL d   1       5.208  -1.846  -0.275  0.00  0.00     0.078 C 
ENDROOT
BRANCH   1   8
ATOM      8  C1  UNL d   1       4.809  -4.183   1.594  0.00  0.00     0.053 C 
ATOM      9  C   UNL d   1       4.610  -4.598   3.043  0.00  0.00     0.018 C 
ENDBRANCH   1   8
TORSDOF 1
ENDMDL
