MODEL 1
REMARK minimizedAffinity 3.5016737
REMARK minimizedRMSD -1
REMARK  1 active torsions:
REMARK  status: ('A' for Active; 'I' for Inactive)
REMARK    1  A    between atoms: C1_2  and  C2_3 
ROOT
ATOM      1  C2  UNL d   1       4.900  -3.873   3.706  0.00  0.00    -0.076 A 
ATOM      2  C3  UNL d   1       4.476  -5.213   3.730  0.00  0.00     0.004 A 
ATOM      3  C4  UNL d   1       4.648  -6.000   4.867  0.00  0.00    -0.003 A 
ATOM      4  C5  UNL d   1       5.247  -5.459   6.000  0.00  0.00     0.000 A 
ATOM      5  C6  UNL d   1       5.657  -4.127   6.000  0.00  0.00     0.000 A 
ATOM      6  C7  UNL d   1       5.476  -3.315   4.867  0.00  0.00    -0.073 A 
ATOM      7  C8  UNL d   1       5.943  -1.886   4.921  0.00  0.00     0.078 C 
ENDROOT
BRANCH   1   8
ATOM      8  C1  UNL d   1       4.711  -3.076   2.435  0.00  0.00     0.053 C 
ATOM      9  C   UNL d   1       4.114  -3.907   1.310  0.00  0.00     0.018 C 
ENDBRANCH   1   8
TORSDOF 1
ENDMDL
