MODEL 1
REMARK minimizedAffinity 1.0239321
REMARK minimizedRMSD -1
REMARK  1 active torsions:
REMARK  status: ('A' for Active; 'I' for Inactive)
REMARK    1  A    between atoms: C1_2  and  C2_3 
ROOT
ATOM      1  C2  UNL d   1       3.809  -3.877   2.319  0.00  0.00    -0.076 A 
ATOM      2  C3  UNL d   1       2.824  -2.875   2.260  0.00  0.00     0.004 A 
ATOM      3  C4  UNL d   1       2.281  -2.475   1.040  0.00  0.00    -0.003 A 
ATOM      4  C5  UNL d   1       2.713  -3.070  -0.140  0.00  0.00     0.000 A 
ATOM      5  C6  UNL d   1       3.676  -4.078  -0.098  0.00  0.00     0.000 A 
ATOM      6  C7  UNL d   1       4.222  -4.505   1.125  0.00  0.00    -0.073 A 
ATOM      7  C8  UNL d   1       5.262  -5.592   1.111  0.00  0.00     0.078 C 
ENDROOT
BRANCH   1   8
ATOM      8  C1  UNL d   1       4.381  -4.251   3.668  0.00  0.00     0.053 C 
ATOM      9  C   UNL d   1       4.560  -3.047   4.579  0.00  0.00     0.018 C 
ENDBRANCH   1   8
TORSDOF 1
ENDMDL
