MODEL 1
REMARK minimizedAffinity -1.18001318
REMARK minimizedRMSD -1
REMARK  1 active torsions:
REMARK  status: ('A' for Active; 'I' for Inactive)
REMARK    1  A    between atoms: C1_2  and  C2_3 
ROOT
ATOM      1  C2  UNL d   1       3.014   3.571  -5.958  0.00  0.00    -0.076 A 
ATOM      2  C3  UNL d   1       4.072   2.646  -5.924  0.00  0.00     0.004 A 
ATOM      3  C4  UNL d   1       5.399   3.073  -5.936  0.00  0.00    -0.003 A 
ATOM      4  C5  UNL d   1       5.689   4.432  -5.981  0.00  0.00     0.000 A 
ATOM      5  C6  UNL d   1       4.652   5.364  -5.997  0.00  0.00     0.000 A 
ATOM      6  C7  UNL d   1       3.309   4.951  -5.969  0.00  0.00    -0.073 A 
ATOM      7  C8  UNL d   1       2.231   5.999  -5.994  0.00  0.00     0.078 C 
ENDROOT
BRANCH   1   8
ATOM      8  C1  UNL d   1       1.595   3.048  -5.970  0.00  0.00     0.053 C 
ATOM      9  C   UNL d   1       1.531   1.535  -5.831  0.00  0.00     0.018 C 
ENDBRANCH   1   8
TORSDOF 1
ENDMDL
