MODEL 1
REMARK minimizedAffinity -3.29486418
REMARK minimizedRMSD -1
REMARK  0 active torsions:
REMARK  status: ('A' for Active; 'I' for Inactive)
ROOT
ATOM      1  C1  DEN d   1      -6.000   5.931  -4.734  0.00  0.00     0.130 A 
ATOM      2  C2  DEN d   1      -5.335   5.609  -5.993  0.00  0.00    -0.031 A 
ATOM      3  C3  DEN d   1      -4.500   4.410  -5.775  0.00  0.00     0.027 A 
ATOM      4  C4  DEN d   1      -4.177   3.028  -3.622  0.00  0.00     0.027 A 
ATOM      5  C5  DEN d   1      -4.525   2.921  -2.294  0.00  0.00    -0.003 A 
ATOM      6  C6  DEN d   1      -5.356   3.822  -1.682  0.00  0.00     0.001 A 
ATOM      7  C7  DEN d   1      -5.902   4.845  -2.411  0.00  0.00     0.017 A 
ATOM      8  C8  DEN d   1      -5.550   4.964  -3.749  0.00  0.00    -0.094 A 
ATOM      9  C9  DEN d   1      -4.718   4.035  -4.352  0.00  0.00    -0.072 A 
ENDROOT
TORSDOF 0
ENDMDL
