MODEL 1
REMARK minimizedAffinity -2.54781556
REMARK minimizedRMSD -1
REMARK  0 active torsions:
REMARK  status: ('A' for Active; 'I' for Inactive)
ROOT
ATOM      1  C1  DEN d   1      -5.998   3.998  -2.146  0.00  0.00     0.130 A 
ATOM      2  C2  DEN d   1      -5.257   2.876  -1.575  0.00  0.00    -0.031 A 
ATOM      3  C3  DEN d   1      -4.357   2.345  -2.619  0.00  0.00     0.027 A 
ATOM      4  C4  DEN d   1      -4.037   3.150  -5.048  0.00  0.00     0.027 A 
ATOM      5  C5  DEN d   1      -4.454   4.062  -5.993  0.00  0.00    -0.003 A 
ATOM      6  C6  DEN d   1      -5.430   4.987  -5.734  0.00  0.00     0.001 A 
ATOM      7  C7  DEN d   1      -5.991   5.050  -4.486  0.00  0.00     0.017 A 
ATOM      8  C8  DEN d   1      -5.582   4.129  -3.531  0.00  0.00    -0.094 A 
ATOM      9  C9  DEN d   1      -4.585   3.210  -3.808  0.00  0.00    -0.072 A 
ENDROOT
TORSDOF 0
ENDMDL
