MODEL 1
REMARK minimizedAffinity -2.89935446
REMARK minimizedRMSD -1
REMARK  0 active torsions:
REMARK  status: ('A' for Active; 'I' for Inactive)
ROOT
ATOM      1  C1  DEN d   1      -5.506   3.466  -5.735  0.00  0.00     0.130 A 
ATOM      2  C2  DEN d   1      -6.000   4.815  -6.000  0.00  0.00    -0.031 A 
ATOM      3  C3  DEN d   1      -5.988   5.564  -4.727  0.00  0.00     0.027 A 
ATOM      4  C4  DEN d   1      -5.252   4.771  -2.385  0.00  0.00     0.027 A 
ATOM      5  C5  DEN d   1      -4.770   3.703  -1.662  0.00  0.00    -0.003 A 
ATOM      6  C6  DEN d   1      -4.533   2.481  -2.234  0.00  0.00     0.001 A 
ATOM      7  C7  DEN d   1      -4.736   2.310  -3.578  0.00  0.00     0.017 A 
ATOM      8  C8  DEN d   1      -5.229   3.380  -4.312  0.00  0.00    -0.094 A 
ATOM      9  C9  DEN d   1      -5.451   4.611  -3.718  0.00  0.00    -0.072 A 
ENDROOT
TORSDOF 0
ENDMDL
