MODEL 1
REMARK minimizedAffinity -2.03567839
REMARK minimizedRMSD -1
REMARK  0 active torsions:
REMARK  status: ('A' for Active; 'I' for Inactive)
ROOT
ATOM      1  C1  DEN d   1      -4.100   2.214  -2.939  0.00  0.00     0.130 A 
ATOM      2  C2  DEN d   1      -5.082   2.393  -1.873  0.00  0.00    -0.031 A 
ATOM      3  C3  DEN d   1      -6.000   3.477  -2.276  0.00  0.00     0.027 A 
ATOM      4  C4  DEN d   1      -6.000   4.885  -4.437  0.00  0.00     0.027 A 
ATOM      5  C5  DEN d   1      -5.353   5.105  -5.633  0.00  0.00    -0.003 A 
ATOM      6  C6  DEN d   1      -4.232   4.407  -5.997  0.00  0.00     0.001 A 
ATOM      7  C7  DEN d   1      -3.750   3.422  -5.175  0.00  0.00     0.017 A 
ATOM      8  C8  DEN d   1      -4.393   3.199  -3.965  0.00  0.00    -0.094 A 
ATOM      9  C9  DEN d   1      -5.531   3.907  -3.621  0.00  0.00    -0.072 A 
ENDROOT
TORSDOF 0
ENDMDL
