MODEL 1
REMARK minimizedAffinity 10.8246298
REMARK minimizedRMSD -1
REMARK  0 active torsions:
REMARK  status: ('A' for Active; 'I' for Inactive)
ROOT
ATOM      1  C1  DEN d   1      -1.025   2.450   1.972  0.00  0.00     0.130 A 
ATOM      2  C2  DEN d   1       0.019   1.961   1.076  0.00  0.00    -0.031 A 
ATOM      3  C3  DEN d   1       0.181   2.944  -0.015  0.00  0.00     0.027 A 
ATOM      4  C4  DEN d   1      -1.072   5.165  -0.396  0.00  0.00     0.027 A 
ATOM      5  C5  DEN d   1      -2.054   5.998   0.092  0.00  0.00    -0.003 A 
ATOM      6  C6  DEN d   1      -2.780   5.693   1.213  0.00  0.00     0.001 A 
ATOM      7  C7  DEN d   1      -2.503   4.546   1.909  0.00  0.00     0.017 A 
ATOM      8  C8  DEN d   1      -1.519   3.698   1.419  0.00  0.00    -0.094 A 
ATOM      9  C9  DEN d   1      -0.789   4.030   0.291  0.00  0.00    -0.072 A 
ENDROOT
TORSDOF 0
ENDMDL
