MODEL 1
REMARK minimizedAffinity -1.39120996
REMARK minimizedRMSD -1
REMARK  0 active torsions:
REMARK  status: ('A' for Active; 'I' for Inactive)
ROOT
ATOM      1  C1  DEN d   1       1.208  -0.691  -0.548  0.00  0.00     0.130 A 
ATOM      2  C2  DEN d   1       0.781   0.399  -1.423  0.00  0.00    -0.031 A 
ATOM      3  C3  DEN d   1       0.012  -0.187  -2.539  0.00  0.00     0.027 A 
ATOM      4  C4  DEN d   1      -0.562  -2.660  -2.993  0.00  0.00     0.027 A 
ATOM      5  C5  DEN d   1      -0.408  -3.950  -2.536  0.00  0.00    -0.003 A 
ATOM      6  C6  DEN d   1       0.318  -4.245  -1.413  0.00  0.00     0.001 A 
ATOM      7  C7  DEN d   1       0.880  -3.232  -0.682  0.00  0.00     0.017 A 
ATOM      8  C8  DEN d   1       0.735  -1.929  -1.141  0.00  0.00    -0.094 A 
ATOM      9  C9  DEN d   1      -0.013  -1.650  -2.272  0.00  0.00    -0.072 A 
ENDROOT
TORSDOF 0
ENDMDL
