MODEL 1
REMARK minimizedAffinity -1.38893557
REMARK minimizedRMSD -1
REMARK  0 active torsions:
REMARK  status: ('A' for Active; 'I' for Inactive)
ROOT
ATOM      1  C1  DEN d   1      -4.706   3.705  -4.128  0.00  0.00     0.130 A 
ATOM      2  C2  DEN d   1      -3.390   4.113  -4.614  0.00  0.00    -0.031 A 
ATOM      3  C3  DEN d   1      -2.803   2.977  -5.351  0.00  0.00     0.027 A 
ATOM      4  C4  DEN d   1      -3.800   0.639  -5.790  0.00  0.00     0.027 A 
ATOM      5  C5  DEN d   1      -4.885  -0.179  -5.566  0.00  0.00    -0.003 A 
ATOM      6  C6  DEN d   1      -5.963   0.225  -4.824  0.00  0.00     0.001 A 
ATOM      7  C7  DEN d   1      -6.000   1.498  -4.317  0.00  0.00     0.017 A 
ATOM      8  C8  DEN d   1      -4.906   2.325  -4.533  0.00  0.00    -0.094 A 
ATOM      9  C9  DEN d   1      -3.831   1.902  -5.296  0.00  0.00    -0.072 A 
ENDROOT
TORSDOF 0
ENDMDL
