MODEL 1
REMARK minimizedAffinity 5.95665026
REMARK minimizedRMSD -1
REMARK  1 active torsions:
REMARK  status: ('A' for Active; 'I' for Inactive)
REMARK    1  A    between atoms: N_2  and  C1_3 
ROOT
ATOM      1  C1  UNL d   1       1.330   1.219   0.032  0.00  0.00     0.143 A 
ATOM      2  C2  UNL d   1       0.646  -0.001   0.041  0.00  0.00    -0.057 A 
ATOM      3  C3  UNL d   1       0.252  -0.621  -1.151  0.00  0.00     0.033 A 
ATOM      4  C4  UNL d   1       0.511  -0.016  -2.376  0.00  0.00    -0.042 A 
ATOM      5  C5  UNL d   1       1.168   1.209  -2.408  0.00  0.00     0.033 A 
ATOM      6  C6  UNL d   1       1.565   1.821  -1.215  0.00  0.00    -0.057 A 
ENDROOT
BRANCH   1   7
ATOM      7  N   UNL d   1       1.661   1.934   1.185  0.00  0.00    -0.732 N 
ATOM      8  C   UNL d   1       2.204   1.256   2.343  0.00  0.00     0.284 C 
ATOM      9  H3  UNL d   1       2.110   2.823   0.976  0.00  0.00     0.395 HD
ENDBRANCH   1   7
TORSDOF 1
ENDMDL
