MODEL 1
REMARK minimizedAffinity 4.12512255
REMARK minimizedRMSD -1
REMARK  1 active torsions:
REMARK  status: ('A' for Active; 'I' for Inactive)
REMARK    1  A    between atoms: N_2  and  C1_3 
ROOT
ATOM      1  C1  UNL d   1       1.178   1.639   0.121  0.00  0.00     0.143 A 
ATOM      2  C2  UNL d   1       1.227   2.238  -1.142  0.00  0.00    -0.057 A 
ATOM      3  C3  UNL d   1       1.198   1.469  -2.312  0.00  0.00     0.033 A 
ATOM      4  C4  UNL d   1       1.149   0.081  -2.238  0.00  0.00    -0.042 A 
ATOM      5  C5  UNL d   1       1.124  -0.537  -0.993  0.00  0.00     0.033 A 
ATOM      6  C6  UNL d   1       1.146   0.236   0.171  0.00  0.00    -0.057 A 
ENDROOT
BRANCH   1   7
ATOM      7  N   UNL d   1       1.302   2.343   1.321  0.00  0.00    -0.732 N 
ATOM      8  C   UNL d   1       2.260   1.927   2.323  0.00  0.00     0.284 C 
ATOM      9  H3  UNL d   1       1.251   3.350   1.187  0.00  0.00     0.395 HD
ENDBRANCH   1   7
TORSDOF 1
ENDMDL
