MODEL 1
REMARK minimizedAffinity 1.71011841
REMARK minimizedRMSD -1
REMARK  1 active torsions:
REMARK  status: ('A' for Active; 'I' for Inactive)
REMARK    1  A    between atoms: N_2  and  C1_3 
ROOT
ATOM      1  C1  UNL d   1       0.902   0.879   0.213  0.00  0.00     0.143 A 
ATOM      2  C2  UNL d   1       0.372  -0.340  -0.223  0.00  0.00    -0.057 A 
ATOM      3  C3  UNL d   1       0.482  -0.743  -1.559  0.00  0.00     0.033 A 
ATOM      4  C4  UNL d   1       1.101   0.082  -2.492  0.00  0.00    -0.042 A 
ATOM      5  C5  UNL d   1       1.612   1.310  -2.086  0.00  0.00     0.033 A 
ATOM      6  C6  UNL d   1       1.505   1.704  -0.749  0.00  0.00    -0.057 A 
ENDROOT
BRANCH   1   7
ATOM      7  N   UNL d   1       0.738   1.380   1.507  0.00  0.00    -0.732 N 
ATOM      8  C   UNL d   1       1.487   0.824   2.613  0.00  0.00     0.284 C 
ATOM      9  H3  UNL d   1       0.663   2.395   1.524  0.00  0.00     0.395 HD
ENDBRANCH   1   7
TORSDOF 1
ENDMDL
