MODEL 1
REMARK minimizedAffinity 2.53856635
REMARK minimizedRMSD -1
REMARK  1 active torsions:
REMARK  status: ('A' for Active; 'I' for Inactive)
REMARK    1  A    between atoms: N_2  and  C1_3 
ROOT
ATOM      1  C1  UNL d   1       1.828   2.308  -1.052  0.00  0.00     0.143 A 
ATOM      2  C2  UNL d   1       1.518   2.266   0.311  0.00  0.00    -0.057 A 
ATOM      3  C3  UNL d   1       1.025   1.099   0.908  0.00  0.00     0.033 A 
ATOM      4  C4  UNL d   1       0.805  -0.041   0.143  0.00  0.00    -0.042 A 
ATOM      5  C5  UNL d   1       1.082  -0.014  -1.219  0.00  0.00     0.033 A 
ATOM      6  C6  UNL d   1       1.580   1.152  -1.808  0.00  0.00    -0.057 A 
ENDROOT
BRANCH   1   7
ATOM      7  N   UNL d   1       2.227   3.467  -1.724  0.00  0.00    -0.732 N 
ATOM      8  C   UNL d   1       2.087   4.765  -1.101  0.00  0.00     0.284 C 
ATOM      9  H3  UNL d   1       3.101   3.340  -2.229  0.00  0.00     0.395 HD
ENDBRANCH   1   7
TORSDOF 1
ENDMDL
