MODEL 1
REMARK minimizedAffinity 0.570645154
REMARK minimizedRMSD -1
REMARK  1 active torsions:
REMARK  status: ('A' for Active; 'I' for Inactive)
REMARK    1  A    between atoms: N_2  and  C1_3 
ROOT
ATOM      1  C1  UNL d   1       0.540  -0.867  -1.165  0.00  0.00     0.143 A 
ATOM      2  C2  UNL d   1       0.251   0.434  -1.590  0.00  0.00    -0.057 A 
ATOM      3  C3  UNL d   1       0.600   1.546  -0.815  0.00  0.00     0.033 A 
ATOM      4  C4  UNL d   1       1.221   1.375   0.418  0.00  0.00    -0.042 A 
ATOM      5  C5  UNL d   1       1.496   0.090   0.872  0.00  0.00     0.033 A 
ATOM      6  C6  UNL d   1       1.151  -1.016   0.090  0.00  0.00    -0.057 A 
ENDROOT
BRANCH   1   7
ATOM      7  N   UNL d   1       0.130  -2.017  -1.844  0.00  0.00    -0.732 N 
ATOM      8  C   UNL d   1      -1.003  -2.785  -1.376  0.00  0.00     0.284 C 
ATOM      9  H3  UNL d   1       0.168  -1.905  -2.855  0.00  0.00     0.395 HD
ENDBRANCH   1   7
TORSDOF 1
ENDMDL
