MODEL 1
REMARK minimizedAffinity 4.95878935
REMARK minimizedRMSD -1
REMARK  1 active torsions:
REMARK  status: ('A' for Active; 'I' for Inactive)
REMARK    1  A    between atoms: N_2  and  C1_3 
ROOT
ATOM      1  C1  UNL d   1       1.355   1.079   0.433  0.00  0.00     0.143 A 
ATOM      2  C2  UNL d   1       1.462  -0.313   0.339  0.00  0.00    -0.057 A 
ATOM      3  C3  UNL d   1       1.116  -0.991  -0.836  0.00  0.00     0.033 A 
ATOM      4  C4  UNL d   1       0.627  -0.288  -1.933  0.00  0.00    -0.042 A 
ATOM      5  C5  UNL d   1       0.489   1.093  -1.853  0.00  0.00     0.033 A 
ATOM      6  C6  UNL d   1       0.842   1.765  -0.679  0.00  0.00    -0.057 A 
ENDROOT
BRANCH   1   7
ATOM      7  N   UNL d   1       1.590   1.799   1.607  0.00  0.00    -0.732 N 
ATOM      8  C   UNL d   1       1.966   1.119   2.827  0.00  0.00     0.284 C 
ATOM      9  H3  UNL d   1       2.103   2.662   1.437  0.00  0.00     0.395 HD
ENDBRANCH   1   7
TORSDOF 1
ENDMDL
