MODEL 1
REMARK minimizedAffinity 2.66390371
REMARK minimizedRMSD -1
REMARK  1 active torsions:
REMARK  status: ('A' for Active; 'I' for Inactive)
REMARK    1  A    between atoms: N_2  and  C1_3 
ROOT
ATOM      1  C1  UNL d   1       1.322   2.340  -1.179  0.00  0.00     0.143 A 
ATOM      2  C2  UNL d   1       1.378   1.130  -1.880  0.00  0.00    -0.057 A 
ATOM      3  C3  UNL d   1       1.246  -0.098  -1.220  0.00  0.00     0.033 A 
ATOM      4  C4  UNL d   1       1.085  -0.138   0.161  0.00  0.00    -0.042 A 
ATOM      5  C5  UNL d   1       1.052   1.051   0.881  0.00  0.00     0.033 A 
ATOM      6  C6  UNL d   1       1.177   2.274   0.215  0.00  0.00    -0.057 A 
ENDROOT
BRANCH   1   7
ATOM      7  N   UNL d   1       1.545   3.589  -1.765  0.00  0.00    -0.732 N 
ATOM      8  C   UNL d   1       1.700   4.770  -0.944  0.00  0.00     0.284 C 
ATOM      9  H3  UNL d   1       2.190   3.540  -2.550  0.00  0.00     0.395 HD
ENDBRANCH   1   7
TORSDOF 1
ENDMDL
