MODEL 1
REMARK minimizedAffinity 1.11855686
REMARK minimizedRMSD -1
REMARK  1 active torsions:
REMARK  status: ('A' for Active; 'I' for Inactive)
REMARK    1  A    between atoms: N_2  and  C1_3 
ROOT
ATOM      1  C1  UNL d   1       1.074   0.909   0.766  0.00  0.00     0.143 A 
ATOM      2  C2  UNL d   1       1.263  -0.467   0.598  0.00  0.00    -0.057 A 
ATOM      3  C3  UNL d   1       0.933  -1.103  -0.605  0.00  0.00     0.033 A 
ATOM      4  C4  UNL d   1       0.380  -0.376  -1.654  0.00  0.00    -0.042 A 
ATOM      5  C5  UNL d   1       0.160   0.988  -1.500  0.00  0.00     0.033 A 
ATOM      6  C6  UNL d   1       0.498   1.619  -0.299  0.00  0.00    -0.057 A 
ENDROOT
BRANCH   1   7
ATOM      7  N   UNL d   1       1.290   1.582   1.972  0.00  0.00    -0.732 N 
ATOM      8  C   UNL d   1       1.158   0.890   3.236  0.00  0.00     0.284 C 
ATOM      9  H3  UNL d   1       2.084   2.216   1.926  0.00  0.00     0.395 HD
ENDBRANCH   1   7
TORSDOF 1
ENDMDL
