MODEL 1
REMARK minimizedAffinity 0.594804406
REMARK minimizedRMSD -1
REMARK  1 active torsions:
REMARK  status: ('A' for Active; 'I' for Inactive)
REMARK    1  A    between atoms: N_2  and  C1_3 
ROOT
ATOM      1  C1  UNL d   1       2.244   1.568   1.234  0.00  0.00     0.143 A 
ATOM      2  C2  UNL d   1       0.865   1.631   1.007  0.00  0.00    -0.057 A 
ATOM      3  C3  UNL d   1       0.233   0.749   0.122  0.00  0.00     0.033 A 
ATOM      4  C4  UNL d   1       0.977  -0.196  -0.577  0.00  0.00    -0.042 A 
ATOM      5  C5  UNL d   1       2.353  -0.261  -0.386  0.00  0.00     0.033 A 
ATOM      6  C6  UNL d   1       2.977   0.618   0.505  0.00  0.00    -0.057 A 
ENDROOT
BRANCH   1   7
ATOM      7  N   UNL d   1       2.945   2.480   2.026  0.00  0.00    -0.732 N 
ATOM      8  C   UNL d   1       2.433   3.816   2.240  0.00  0.00     0.284 C 
ATOM      9  H3  UNL d   1       3.341   2.048   2.858  0.00  0.00     0.395 HD
ENDBRANCH   1   7
TORSDOF 1
ENDMDL
