MODEL 1
REMARK minimizedAffinity 3.87211967
REMARK minimizedRMSD -1
REMARK  1 active torsions:
REMARK  status: ('A' for Active; 'I' for Inactive)
REMARK    1  A    between atoms: N_2  and  C1_3 
ROOT
ATOM      1  C1  UNL d   1       1.492  -0.648  -0.196  0.00  0.00     0.143 A 
ATOM      2  C2  UNL d   1       1.137  -0.505  -1.542  0.00  0.00    -0.057 A 
ATOM      3  C3  UNL d   1       0.865   0.754  -2.092  0.00  0.00     0.033 A 
ATOM      4  C4  UNL d   1       0.916   1.893  -1.295  0.00  0.00    -0.042 A 
ATOM      5  C5  UNL d   1       1.242   1.772   0.051  0.00  0.00     0.033 A 
ATOM      6  C6  UNL d   1       1.519   0.513   0.593  0.00  0.00    -0.057 A 
ENDROOT
BRANCH   1   7
ATOM      7  N   UNL d   1       1.678  -1.881   0.432  0.00  0.00    -0.732 N 
ATOM      8  C   UNL d   1       2.921  -2.607   0.280  0.00  0.00     0.284 C 
ATOM      9  H3  UNL d   1       1.301  -1.897   1.377  0.00  0.00     0.395 HD
ENDBRANCH   1   7
TORSDOF 1
ENDMDL
