MODEL 1
REMARK minimizedAffinity -1.00845718
REMARK minimizedRMSD -1
REMARK  1 active torsions:
REMARK  status: ('A' for Active; 'I' for Inactive)
REMARK    1  A    between atoms: N_2  and  C1_3 
ROOT
ATOM      1  C1  UNL d   1       0.983  -1.562  -0.746  0.00  0.00     0.143 A 
ATOM      2  C2  UNL d   1       1.804  -1.304  -1.849  0.00  0.00    -0.057 A 
ATOM      3  C3  UNL d   1       2.123   0.006  -2.227  0.00  0.00     0.033 A 
ATOM      4  C4  UNL d   1       1.600   1.086  -1.523  0.00  0.00    -0.042 A 
ATOM      5  C5  UNL d   1       0.761   0.854  -0.439  0.00  0.00     0.033 A 
ATOM      6  C6  UNL d   1       0.452  -0.457  -0.062  0.00  0.00    -0.057 A 
ENDROOT
BRANCH   1   7
ATOM      7  N   UNL d   1       0.550  -2.839  -0.380  0.00  0.00    -0.732 N 
ATOM      8  C   UNL d   1      -0.488  -3.509  -1.133  0.00  0.00     0.284 C 
ATOM      9  H3  UNL d   1       1.319  -3.444  -0.102  0.00  0.00     0.395 HD
ENDBRANCH   1   7
TORSDOF 1
ENDMDL
