MODEL 1
REMARK minimizedAffinity -2.06106782
REMARK minimizedRMSD -1
REMARK  1 active torsions:
REMARK  status: ('A' for Active; 'I' for Inactive)
REMARK    1  A    between atoms: N_2  and  C1_3 
ROOT
ATOM      1  C1  UNL d   1       2.509   1.182   1.044  0.00  0.00     0.143 A 
ATOM      2  C2  UNL d   1       1.241   1.713   0.786  0.00  0.00    -0.057 A 
ATOM      3  C3  UNL d   1       0.517   1.342  -0.354  0.00  0.00     0.033 A 
ATOM      4  C4  UNL d   1       1.063   0.453  -1.274  0.00  0.00    -0.042 A 
ATOM      5  C5  UNL d   1       2.333  -0.068  -1.050  0.00  0.00     0.033 A 
ATOM      6  C6  UNL d   1       3.048   0.301   0.093  0.00  0.00    -0.057 A 
ENDROOT
BRANCH   1   7
ATOM      7  N   UNL d   1       3.319   1.586   2.108  0.00  0.00    -0.732 N 
ATOM      8  C   UNL d   1       3.224   2.929   2.639  0.00  0.00     0.284 C 
ATOM      9  H3  UNL d   1       3.415   0.864   2.819  0.00  0.00     0.395 HD
ENDBRANCH   1   7
TORSDOF 1
ENDMDL
