MODEL 1
REMARK minimizedAffinity 2.18495154
REMARK minimizedRMSD -1
REMARK  1 active torsions:
REMARK  status: ('A' for Active; 'I' for Inactive)
REMARK    1  A    between atoms: N_2  and  C1_3 
ROOT
ATOM      1  C1  UNL d   1       0.758  -1.158  -0.357  0.00  0.00     0.143 A 
ATOM      2  C2  UNL d   1       0.116  -0.132  -1.059  0.00  0.00    -0.057 A 
ATOM      3  C3  UNL d   1       0.164   1.194  -0.611  0.00  0.00     0.033 A 
ATOM      4  C4  UNL d   1       0.832   1.513   0.567  0.00  0.00    -0.042 A 
ATOM      5  C5  UNL d   1       1.456   0.506   1.294  0.00  0.00     0.033 A 
ATOM      6  C6  UNL d   1       1.411  -0.815   0.837  0.00  0.00    -0.057 A 
ENDROOT
BRANCH   1   7
ATOM      7  N   UNL d   1       0.665  -2.509  -0.698  0.00  0.00    -0.732 N 
ATOM      8  C   UNL d   1      -0.603  -3.084  -1.093  0.00  0.00     0.284 C 
ATOM      9  H3  UNL d   1       1.456  -2.825  -1.255  0.00  0.00     0.395 HD
ENDBRANCH   1   7
TORSDOF 1
ENDMDL
