MODEL 1
REMARK minimizedAffinity -4.56903791
REMARK minimizedRMSD -1
REMARK  0 active torsions:
REMARK  status: ('A' for Active; 'I' for Inactive)
ROOT
ATOM      1  C   UNL d   1       0.979  -3.320   0.756  0.00  0.00     0.077 C 
ATOM      2  C1  UNL d   1       1.051  -1.860   0.421  0.00  0.00    -0.074 A 
ATOM      3  C2  UNL d   1       2.272  -1.251   0.117  0.00  0.00    -0.005 A 
ATOM      4  C3  UNL d   1       2.322   0.106  -0.201  0.00  0.00     0.006 A 
ATOM      5  C4  UNL d   1       1.152   0.867  -0.219  0.00  0.00    -0.005 A 
ATOM      6  C5  UNL d   1      -0.079   0.275   0.081  0.00  0.00    -0.074 A 
ATOM      7  C6  UNL d   1      -1.346   1.076   0.057  0.00  0.00     0.077 C 
ATOM      8  C7  UNL d   1      -0.121  -1.091   0.393  0.00  0.00    -0.001 A 
ENDROOT
TORSDOF 0
ENDMDL
