MODEL 1
REMARK minimizedAffinity -4.96696615
REMARK minimizedRMSD -1
REMARK  0 active torsions:
REMARK  status: ('A' for Active; 'I' for Inactive)
ROOT
ATOM      1  C   UNL d   1       1.019  -3.110   0.417  0.00  0.00     0.077 C 
ATOM      2  C1  UNL d   1       0.954  -1.616   0.300  0.00  0.00    -0.074 A 
ATOM      3  C2  UNL d   1       2.060  -0.880  -0.138  0.00  0.00    -0.005 A 
ATOM      4  C3  UNL d   1       1.982   0.508  -0.250  0.00  0.00     0.006 A 
ATOM      5  C4  UNL d   1       0.799   1.173   0.073  0.00  0.00    -0.005 A 
ATOM      6  C5  UNL d   1      -0.318   0.455   0.512  0.00  0.00    -0.074 A 
ATOM      7  C6  UNL d   1      -1.600   1.154   0.854  0.00  0.00     0.077 C 
ATOM      8  C7  UNL d   1      -0.233  -0.940   0.616  0.00  0.00    -0.001 A 
ENDROOT
TORSDOF 0
ENDMDL
