MODEL 1
REMARK minimizedAffinity -4.042068
REMARK minimizedRMSD -1
REMARK  0 active torsions:
REMARK  status: ('A' for Active; 'I' for Inactive)
ROOT
ATOM      1  C   UNL d   1      -1.756   0.851   1.843  0.00  0.00     0.077 C 
ATOM      2  C1  UNL d   1      -0.785  -0.172   1.333  0.00  0.00    -0.074 A 
ATOM      3  C2  UNL d   1      -1.154  -1.516   1.213  0.00  0.00    -0.005 A 
ATOM      4  C3  UNL d   1      -0.244  -2.455   0.729  0.00  0.00     0.006 A 
ATOM      5  C4  UNL d   1       1.043  -2.061   0.360  0.00  0.00    -0.005 A 
ATOM      6  C5  UNL d   1       1.430  -0.722   0.472  0.00  0.00    -0.074 A 
ATOM      7  C6  UNL d   1       2.806  -0.279   0.071  0.00  0.00     0.077 C 
ATOM      8  C7  UNL d   1       0.507   0.217   0.953  0.00  0.00    -0.001 A 
ENDROOT
TORSDOF 0
ENDMDL
