MODEL 1
REMARK minimizedAffinity -2.51759148
REMARK minimizedRMSD -1
REMARK  0 active torsions:
REMARK  status: ('A' for Active; 'I' for Inactive)
ROOT
ATOM      1  C   UNL d   1      -1.899   0.083   1.610  0.00  0.00     0.077 C 
ATOM      2  C1  UNL d   1      -0.655  -0.144   0.803  0.00  0.00    -0.074 A 
ATOM      3  C2  UNL d   1      -0.170   0.841  -0.063  0.00  0.00    -0.005 A 
ATOM      4  C3  UNL d   1       0.994   0.619  -0.799  0.00  0.00     0.006 A 
ATOM      5  C4  UNL d   1       1.682  -0.588  -0.678  0.00  0.00    -0.005 A 
ATOM      6  C5  UNL d   1       1.213  -1.585   0.184  0.00  0.00    -0.074 A 
ATOM      7  C6  UNL d   1       1.946  -2.885   0.334  0.00  0.00     0.077 C 
ATOM      8  C7  UNL d   1       0.047  -1.352   0.926  0.00  0.00    -0.001 A 
ENDROOT
TORSDOF 0
ENDMDL
