MODEL 1
REMARK minimizedAffinity -5.01946592
REMARK minimizedRMSD -1
REMARK  0 active torsions:
REMARK  status: ('A' for Active; 'I' for Inactive)
ROOT
ATOM      1  C   UNL d   1       2.814   1.012  -1.354  0.00  0.00     0.077 C 
ATOM      2  C1  UNL d   1       1.760   0.262  -0.595  0.00  0.00    -0.074 A 
ATOM      3  C2  UNL d   1       0.506   0.832  -0.354  0.00  0.00    -0.005 A 
ATOM      4  C3  UNL d   1      -0.468   0.119   0.345  0.00  0.00     0.006 A 
ATOM      5  C4  UNL d   1      -0.198  -1.170   0.808  0.00  0.00    -0.005 A 
ATOM      6  C5  UNL d   1       1.050  -1.756   0.575  0.00  0.00    -0.074 A 
ATOM      7  C6  UNL d   1       1.353  -3.144   1.057  0.00  0.00     0.077 C 
ATOM      8  C7  UNL d   1       2.021  -1.036  -0.134  0.00  0.00    -0.001 A 
ENDROOT
TORSDOF 0
ENDMDL
