MODEL 1
REMARK minimizedAffinity -3.81699014
REMARK minimizedRMSD -1
REMARK  0 active torsions:
REMARK  status: ('A' for Active; 'I' for Inactive)
ROOT
ATOM      1  C   UNL d   1      -1.542   1.231  -0.003  0.00  0.00     0.077 C 
ATOM      2  C1  UNL d   1      -0.213   0.535  -0.000  0.00  0.00    -0.074 A 
ATOM      3  C2  UNL d   1       0.956   1.215  -0.357  0.00  0.00    -0.005 A 
ATOM      4  C3  UNL d   1       2.185   0.557  -0.340  0.00  0.00     0.006 A 
ATOM      5  C4  UNL d   1       2.259  -0.786   0.032  0.00  0.00    -0.005 A 
ATOM      6  C5  UNL d   1       1.101  -1.482   0.392  0.00  0.00    -0.074 A 
ATOM      7  C6  UNL d   1       1.163  -2.923   0.804  0.00  0.00     0.077 C 
ATOM      8  C7  UNL d   1      -0.130  -0.812   0.380  0.00  0.00    -0.001 A 
ENDROOT
TORSDOF 0
ENDMDL
