MODEL 1
REMARK minimizedAffinity -4.46987963
REMARK minimizedRMSD -1
REMARK  0 active torsions:
REMARK  status: ('A' for Active; 'I' for Inactive)
ROOT
ATOM      1  C   UNL d   1      -0.158  -3.155   0.807  0.00  0.00     0.077 C 
ATOM      2  C1  UNL d   1       0.379  -1.798   0.463  0.00  0.00    -0.074 A 
ATOM      3  C2  UNL d   1       1.755  -1.581   0.330  0.00  0.00    -0.005 A 
ATOM      4  C3  UNL d   1       2.239  -0.316   0.001  0.00  0.00     0.006 A 
ATOM      5  C4  UNL d   1       1.354   0.745  -0.198  0.00  0.00    -0.005 A 
ATOM      6  C5  UNL d   1      -0.024   0.548  -0.069  0.00  0.00    -0.074 A 
ATOM      7  C6  UNL d   1      -0.989   1.675  -0.289  0.00  0.00     0.077 C 
ATOM      8  C7  UNL d   1      -0.503  -0.729   0.255  0.00  0.00    -0.001 A 
ENDROOT
TORSDOF 0
ENDMDL
