MODEL 1
REMARK minimizedAffinity -3.8628788
REMARK minimizedRMSD -1
REMARK  0 active torsions:
REMARK  status: ('A' for Active; 'I' for Inactive)
ROOT
ATOM      1  C   UNL d   1      -1.474  -1.450   2.477  0.00  0.00     0.077 C 
ATOM      2  C1  UNL d   1      -0.643  -0.933   1.341  0.00  0.00    -0.074 A 
ATOM      3  C2  UNL d   1       0.589  -1.516   1.028  0.00  0.00    -0.005 A 
ATOM      4  C3  UNL d   1       1.347  -1.030  -0.038  0.00  0.00     0.006 A 
ATOM      5  C4  UNL d   1       0.881   0.042  -0.800  0.00  0.00    -0.005 A 
ATOM      6  C5  UNL d   1      -0.348   0.637  -0.503  0.00  0.00    -0.074 A 
ATOM      7  C6  UNL d   1      -0.868   1.784  -1.318  0.00  0.00     0.077 C 
ATOM      8  C7  UNL d   1      -1.107   0.139   0.565  0.00  0.00    -0.001 A 
ENDROOT
TORSDOF 0
ENDMDL
