MODEL 1
REMARK minimizedAffinity -3.39069581
REMARK minimizedRMSD -1
REMARK  0 active torsions:
REMARK  status: ('A' for Active; 'I' for Inactive)
ROOT
ATOM      1  C   UNL d   1      -1.628   1.485   0.190  0.00  0.00     0.077 C 
ATOM      2  C1  UNL d   1      -0.351   0.724  -0.010  0.00  0.00    -0.074 A 
ATOM      3  C2  UNL d   1       0.774   1.341  -0.564  0.00  0.00    -0.005 A 
ATOM      4  C3  UNL d   1       1.958   0.623  -0.735  0.00  0.00     0.006 A 
ATOM      5  C4  UNL d   1       2.028  -0.717  -0.354  0.00  0.00    -0.005 A 
ATOM      6  C5  UNL d   1       0.913  -1.351   0.203  0.00  0.00    -0.074 A 
ATOM      7  C6  UNL d   1       0.974  -2.788   0.627  0.00  0.00     0.077 C 
ATOM      8  C7  UNL d   1      -0.271  -0.621   0.378  0.00  0.00    -0.001 A 
ENDROOT
TORSDOF 0
ENDMDL
