MODEL 1
REMARK minimizedAffinity -4.04720974
REMARK minimizedRMSD -1
REMARK  0 active torsions:
REMARK  status: ('A' for Active; 'I' for Inactive)
ROOT
ATOM      1  C   UNL d   1       1.664  -2.842   0.571  0.00  0.00     0.077 C 
ATOM      2  C1  UNL d   1       1.100  -1.484   0.278  0.00  0.00    -0.074 A 
ATOM      3  C2  UNL d   1       1.741  -0.615  -0.611  0.00  0.00    -0.005 A 
ATOM      4  C3  UNL d   1       1.199   0.641  -0.881  0.00  0.00     0.006 A 
ATOM      5  C4  UNL d   1       0.012   1.041  -0.266  0.00  0.00    -0.005 A 
ATOM      6  C5  UNL d   1      -0.644   0.185   0.624  0.00  0.00    -0.074 A 
ATOM      7  C6  UNL d   1      -1.926   0.595   1.286  0.00  0.00     0.077 C 
ATOM      8  C7  UNL d   1      -0.097  -1.078   0.885  0.00  0.00    -0.001 A 
ENDROOT
TORSDOF 0
ENDMDL
