MODEL 1
REMARK minimizedAffinity -4.98312473
REMARK minimizedRMSD -1
REMARK  0 active torsions:
REMARK  status: ('A' for Active; 'I' for Inactive)
ROOT
ATOM      1  C   UNL d   1      -0.991   1.178   0.412  0.00  0.00     0.077 C 
ATOM      2  C1  UNL d   1      -0.082  -0.003   0.248  0.00  0.00    -0.074 A 
ATOM      3  C2  UNL d   1      -0.400  -1.240   0.819  0.00  0.00    -0.005 A 
ATOM      4  C3  UNL d   1       0.451  -2.332   0.650  0.00  0.00     0.006 A 
ATOM      5  C4  UNL d   1       1.626  -2.199  -0.090  0.00  0.00    -0.005 A 
ATOM      6  C5  UNL d   1       1.961  -0.970  -0.668  0.00  0.00    -0.074 A 
ATOM      7  C6  UNL d   1       3.216  -0.813  -1.474  0.00  0.00     0.077 C 
ATOM      8  C7  UNL d   1       1.097   0.121  -0.500  0.00  0.00    -0.001 A 
ENDROOT
TORSDOF 0
ENDMDL
