MODEL 1
REMARK minimizedAffinity -4.55471134
REMARK minimizedRMSD -1
REMARK  0 active torsions:
REMARK  status: ('A' for Active; 'I' for Inactive)
ROOT
ATOM      1  C   UNL d   1      -1.020   1.459  -0.763  0.00  0.00     0.077 C 
ATOM      2  C1  UNL d   1      -0.470   0.220  -0.120  0.00  0.00    -0.074 A 
ATOM      3  C2  UNL d   1      -1.273  -0.584   0.695  0.00  0.00    -0.005 A 
ATOM      4  C3  UNL d   1      -0.750  -1.738   1.279  0.00  0.00     0.006 A 
ATOM      5  C4  UNL d   1       0.578  -2.099   1.053  0.00  0.00    -0.005 A 
ATOM      6  C5  UNL d   1       1.396  -1.308   0.240  0.00  0.00    -0.074 A 
ATOM      7  C6  UNL d   1       2.824  -1.687  -0.021  0.00  0.00     0.077 C 
ATOM      8  C7  UNL d   1       0.862  -0.153  -0.348  0.00  0.00    -0.001 A 
ENDROOT
TORSDOF 0
ENDMDL
