MODEL 1
REMARK minimizedAffinity -4.39288616
REMARK minimizedRMSD -1
REMARK  0 active torsions:
REMARK  status: ('A' for Active; 'I' for Inactive)
ROOT
ATOM      1  C   UNL d   1      -2.070   0.527   1.889  0.00  0.00     0.077 C 
ATOM      2  C1  UNL d   1      -0.829   0.084   1.172  0.00  0.00    -0.074 A 
ATOM      3  C2  UNL d   1      -0.138   0.956   0.325  0.00  0.00    -0.005 A 
ATOM      4  C3  UNL d   1       1.020   0.533  -0.328  0.00  0.00     0.006 A 
ATOM      5  C4  UNL d   1       1.497  -0.765  -0.140  0.00  0.00    -0.005 A 
ATOM      6  C5  UNL d   1       0.819  -1.651   0.703  0.00  0.00    -0.074 A 
ATOM      7  C6  UNL d   1       1.324  -3.046   0.923  0.00  0.00     0.077 C 
ATOM      8  C7  UNL d   1      -0.339  -1.216   1.361  0.00  0.00    -0.001 A 
ENDROOT
TORSDOF 0
ENDMDL
