MODEL 1
REMARK minimizedAffinity -0.268775105
REMARK minimizedRMSD -1
REMARK  0 active torsions:
REMARK  status: ('A' for Active; 'I' for Inactive)
ROOT
ATOM      1  C   UNL d   1      -2.097   0.177   2.212  0.00  0.00     0.077 C 
ATOM      2  C1  UNL d   1      -0.847  -0.015   1.407  0.00  0.00    -0.074 A 
ATOM      3  C2  UNL d   1      -0.608   0.746   0.258  0.00  0.00    -0.005 A 
ATOM      4  C3  UNL d   1       0.564   0.562  -0.476  0.00  0.00     0.006 A 
ATOM      5  C4  UNL d   1       1.508  -0.382  -0.068  0.00  0.00    -0.005 A 
ATOM      6  C5  UNL d   1       1.286  -1.151   1.079  0.00  0.00    -0.074 A 
ATOM      7  C6  UNL d   1       2.295  -2.163   1.536  0.00  0.00     0.077 C 
ATOM      8  C7  UNL d   1       0.109  -0.956   1.814  0.00  0.00    -0.001 A 
ENDROOT
TORSDOF 0
ENDMDL
