MODEL 1
REMARK minimizedAffinity -3.09801269
REMARK minimizedRMSD -1
REMARK  0 active torsions:
REMARK  status: ('A' for Active; 'I' for Inactive)
ROOT
ATOM      1  C   UNL d   1      -1.983   0.941  -3.665  0.00  0.00     0.077 C 
ATOM      2  C1  UNL d   1      -1.594   1.047  -2.220  0.00  0.00    -0.074 A 
ATOM      3  C2  UNL d   1      -2.119   2.057  -1.407  0.00  0.00    -0.005 A 
ATOM      4  C3  UNL d   1      -1.756   2.137  -0.063  0.00  0.00     0.006 A 
ATOM      5  C4  UNL d   1      -0.865   1.211   0.481  0.00  0.00    -0.005 A 
ATOM      6  C5  UNL d   1      -0.331   0.194  -0.316  0.00  0.00    -0.074 A 
ATOM      7  C6  UNL d   1       0.620  -0.815   0.255  0.00  0.00     0.077 C 
ATOM      8  C7  UNL d   1      -0.706   0.116  -1.665  0.00  0.00    -0.001 A 
ENDROOT
TORSDOF 0
ENDMDL
