MODEL 1
REMARK minimizedAffinity -2.51006794
REMARK minimizedRMSD -1
REMARK  0 active torsions:
REMARK  status: ('A' for Active; 'I' for Inactive)
ROOT
ATOM      1  C   UNL d   1       1.138  -3.248   0.575  0.00  0.00     0.077 C 
ATOM      2  C1  UNL d   1       1.014  -1.777   0.313  0.00  0.00    -0.074 A 
ATOM      3  C2  UNL d   1       2.136  -0.942   0.355  0.00  0.00    -0.005 A 
ATOM      4  C3  UNL d   1       2.007   0.423   0.099  0.00  0.00     0.006 A 
ATOM      5  C4  UNL d   1       0.758   0.966  -0.201  0.00  0.00    -0.005 A 
ATOM      6  C5  UNL d   1      -0.375   0.148  -0.249  0.00  0.00    -0.074 A 
ATOM      7  C6  UNL d   1      -1.724   0.714  -0.579  0.00  0.00     0.077 C 
ATOM      8  C7  UNL d   1      -0.236  -1.224   0.003  0.00  0.00    -0.001 A 
ENDROOT
TORSDOF 0
ENDMDL
