MODEL 1
REMARK minimizedAffinity -2.55856872
REMARK minimizedRMSD -1
REMARK  0 active torsions:
REMARK  status: ('A' for Active; 'I' for Inactive)
ROOT
ATOM      1  C   UNL d   1      -1.506  -1.114   2.607  0.00  0.00     0.077 C 
ATOM      2  C1  UNL d   1      -0.707  -0.681   1.415  0.00  0.00    -0.074 A 
ATOM      3  C2  UNL d   1       0.510  -1.296   1.103  0.00  0.00    -0.005 A 
ATOM      4  C3  UNL d   1       1.238  -0.888  -0.014  0.00  0.00     0.006 A 
ATOM      5  C4  UNL d   1       0.757   0.137  -0.831  0.00  0.00    -0.005 A 
ATOM      6  C5  UNL d   1      -0.458   0.763  -0.535  0.00  0.00    -0.074 A 
ATOM      7  C6  UNL d   1      -0.994   1.859  -1.407  0.00  0.00     0.077 C 
ATOM      8  C7  UNL d   1      -1.187   0.343   0.586  0.00  0.00    -0.001 A 
ENDROOT
TORSDOF 0
ENDMDL
