MODEL 1
REMARK minimizedAffinity -3.00467134
REMARK minimizedRMSD -1
REMARK  3 active torsions:
REMARK  status: ('A' for Active; 'I' for Inactive)
REMARK    1  A    between atoms: C3'_2  and  C2'_3 
REMARK    2  A    between atoms: C2'_3  and  C1'_4 
REMARK    3  A    between atoms: C1'_4  and  C1_5 
ROOT
ATOM      1  C1  N4B d   1       0.161   0.144   0.111  0.00  0.00    -0.075 A 
ATOM      2  C2  N4B d   1      -0.433   1.313  -0.417  0.00  0.00     0.002 A 
ATOM      3  C3  N4B d   1      -1.361   2.005   0.322  0.00  0.00     0.002 A 
ATOM      4  C4  N4B d   1      -1.724   1.539   1.577  0.00  0.00    -0.004 A 
ATOM      5  C5  N4B d   1      -1.128   0.424   2.089  0.00  0.00     0.002 A 
ATOM      6  C6  N4B d   1      -0.190  -0.279   1.360  0.00  0.00     0.002 A 
ENDROOT
BRANCH   1   7
ATOM      7  C1' N4B d   1       1.117  -0.693  -0.694  0.00  0.00     0.057 C 
BRANCH   7   8
ATOM      8  C2' N4B d   1       0.334  -1.477  -1.744  0.00  0.00     0.009 C 
BRANCH   8   9
ATOM      9  C3' N4B d   1       0.754  -2.936  -1.794  0.00  0.00     0.004 C 
ATOM     10  C4' N4B d   1      -0.390  -3.859  -2.091  0.00  0.00     0.003 C 
ENDBRANCH   8   9
ENDBRANCH   7   8
ENDBRANCH   1   7
TORSDOF 3
ENDMDL
