MODEL 1
REMARK minimizedAffinity -1.41192746
REMARK minimizedRMSD -1
REMARK  3 active torsions:
REMARK  status: ('A' for Active; 'I' for Inactive)
REMARK    1  A    between atoms: C3'_2  and  C2'_3 
REMARK    2  A    between atoms: C2'_3  and  C1'_4 
REMARK    3  A    between atoms: C1'_4  and  C1_5 
ROOT
ATOM      1  C1  N4B d   1      -0.698   0.142   0.956  0.00  0.00    -0.075 A 
ATOM      2  C2  N4B d   1      -0.368   0.891   2.108  0.00  0.00     0.002 A 
ATOM      3  C3  N4B d   1      -1.207   1.886   2.544  0.00  0.00     0.002 A 
ATOM      4  C4  N4B d   1      -2.368   2.163   1.837  0.00  0.00    -0.004 A 
ATOM      5  C5  N4B d   1      -2.693   1.418   0.741  0.00  0.00     0.002 A 
ATOM      6  C6  N4B d   1      -1.860   0.412   0.294  0.00  0.00     0.002 A 
ENDROOT
BRANCH   1   7
ATOM      7  C1' N4B d   1       0.231  -0.898   0.392  0.00  0.00     0.057 C 
BRANCH   7   8
ATOM      8  C2' N4B d   1       0.662  -0.477  -1.010  0.00  0.00     0.009 C 
BRANCH   8   9
ATOM      9  C3' N4B d   1       1.311   0.897  -1.016  0.00  0.00     0.004 C 
ATOM     10  C4' N4B d   1       0.430   1.952  -1.617  0.00  0.00     0.003 C 
ENDBRANCH   8   9
ENDBRANCH   7   8
ENDBRANCH   1   7
TORSDOF 3
ENDMDL
