MODEL 1
REMARK minimizedAffinity 1.26724434
REMARK minimizedRMSD -1
REMARK  3 active torsions:
REMARK  status: ('A' for Active; 'I' for Inactive)
REMARK    1  A    between atoms: C3'_2  and  C2'_3 
REMARK    2  A    between atoms: C2'_3  and  C1'_4 
REMARK    3  A    between atoms: C1'_4  and  C1_5 
ROOT
ATOM      1  C1  N4B d   1      -1.084   1.506   0.114  0.00  0.00    -0.075 A 
ATOM      2  C2  N4B d   1      -1.095   2.555  -0.832  0.00  0.00     0.002 A 
ATOM      3  C3  N4B d   1      -0.167   2.575  -1.845  0.00  0.00     0.002 A 
ATOM      4  C4  N4B d   1       0.789   1.573  -1.920  0.00  0.00    -0.004 A 
ATOM      5  C5  N4B d   1       0.777   0.551  -1.017  0.00  0.00     0.002 A 
ATOM      6  C6  N4B d   1      -0.152   0.515   0.003  0.00  0.00     0.002 A 
ENDROOT
BRANCH   1   7
ATOM      7  C1' N4B d   1      -2.024   1.487   1.288  0.00  0.00     0.057 C 
BRANCH   7   8
ATOM      8  C2' N4B d   1      -1.214   1.363   2.576  0.00  0.00     0.009 C 
BRANCH   8   9
ATOM      9  C3' N4B d   1      -0.249   2.522   2.754  0.00  0.00     0.004 C 
ATOM     10  C4' N4B d   1       0.548   2.424   4.020  0.00  0.00     0.003 C 
ENDBRANCH   8   9
ENDBRANCH   7   8
ENDBRANCH   1   7
TORSDOF 3
ENDMDL
