MODEL 1
REMARK minimizedAffinity -2.1478672
REMARK minimizedRMSD -1
REMARK  3 active torsions:
REMARK  status: ('A' for Active; 'I' for Inactive)
REMARK    1  A    between atoms: C3'_2  and  C2'_3 
REMARK    2  A    between atoms: C2'_3  and  C1'_4 
REMARK    3  A    between atoms: C1'_4  and  C1_5 
ROOT
ATOM      1  C1  N4B d   1       0.463  -0.065  -0.044  0.00  0.00    -0.075 A 
ATOM      2  C2  N4B d   1       0.816   0.732  -1.155  0.00  0.00     0.002 A 
ATOM      3  C3  N4B d   1       0.114   1.881  -1.427  0.00  0.00     0.002 A 
ATOM      4  C4  N4B d   1      -0.952   2.241  -0.616  0.00  0.00    -0.004 A 
ATOM      5  C5  N4B d   1      -1.271   1.478   0.470  0.00  0.00     0.002 A 
ATOM      6  C6  N4B d   1      -0.571   0.324   0.757  0.00  0.00     0.002 A 
ENDROOT
BRANCH   1   7
ATOM      7  C1' N4B d   1       1.147  -1.374   0.242  0.00  0.00     0.057 C 
BRANCH   7   8
ATOM      8  C2' N4B d   1       1.514  -2.047  -1.077  0.00  0.00     0.009 C 
BRANCH   8   9
ATOM      9  C3' N4B d   1       1.476  -3.562  -0.972  0.00  0.00     0.004 C 
ATOM     10  C4' N4B d   1       0.475  -4.183  -1.901  0.00  0.00     0.003 C 
ENDBRANCH   8   9
ENDBRANCH   7   8
ENDBRANCH   1   7
TORSDOF 3
ENDMDL
