MODEL 1
REMARK minimizedAffinity -3.80095339
REMARK minimizedRMSD -1
REMARK  3 active torsions:
REMARK  status: ('A' for Active; 'I' for Inactive)
REMARK    1  A    between atoms: C3'_2  and  C2'_3 
REMARK    2  A    between atoms: C2'_3  and  C1'_4 
REMARK    3  A    between atoms: C1'_4  and  C1_5 
ROOT
ATOM      1  C1  N4B d   1      -0.531   1.645  -0.456  0.00  0.00    -0.075 A 
ATOM      2  C2  N4B d   1      -1.846   1.231  -0.151  0.00  0.00     0.002 A 
ATOM      3  C3  N4B d   1      -2.610   1.961   0.726  0.00  0.00     0.002 A 
ATOM      4  C4  N4B d   1      -2.076   3.094   1.322  0.00  0.00    -0.004 A 
ATOM      5  C5  N4B d   1      -0.814   3.501   1.002  0.00  0.00     0.002 A 
ATOM      6  C6  N4B d   1      -0.036   2.779   0.119  0.00  0.00     0.002 A 
ENDROOT
BRANCH   1   7
ATOM      7  C1' N4B d   1       0.372   0.832  -1.343  0.00  0.00     0.057 C 
BRANCH   7   8
ATOM      8  C2' N4B d   1       0.446  -0.595  -0.808  0.00  0.00     0.009 C 
BRANCH   8   9
ATOM      9  C3' N4B d   1       1.123  -0.658   0.550  0.00  0.00     0.004 C 
ATOM     10  C4' N4B d   1       0.146  -0.788   1.681  0.00  0.00     0.003 C 
ENDBRANCH   8   9
ENDBRANCH   7   8
ENDBRANCH   1   7
TORSDOF 3
ENDMDL
