MODEL 1
REMARK minimizedAffinity 5.64529562
REMARK minimizedRMSD -1
REMARK  3 active torsions:
REMARK  status: ('A' for Active; 'I' for Inactive)
REMARK    1  A    between atoms: C3'_2  and  C2'_3 
REMARK    2  A    between atoms: C2'_3  and  C1'_4 
REMARK    3  A    between atoms: C1'_4  and  C1_5 
ROOT
ATOM      1  C1  N4B d   1      -0.505   0.641   1.589  0.00  0.00    -0.075 A 
ATOM      2  C2  N4B d   1      -0.147   1.061   0.289  0.00  0.00     0.002 A 
ATOM      3  C3  N4B d   1       0.741   0.320  -0.451  0.00  0.00     0.002 A 
ATOM      4  C4  N4B d   1       1.297  -0.828   0.092  0.00  0.00    -0.004 A 
ATOM      5  C5  N4B d   1       0.927  -1.241   1.338  0.00  0.00     0.002 A 
ATOM      6  C6  N4B d   1       0.032  -0.508   2.093  0.00  0.00     0.002 A 
ENDROOT
BRANCH   1   7
ATOM      7  C1' N4B d   1      -1.406   1.463   2.470  0.00  0.00     0.057 C 
BRANCH   7   8
ATOM      8  C2' N4B d   1      -0.827   2.868   2.606  0.00  0.00     0.009 C 
BRANCH   8   9
ATOM      9  C3' N4B d   1       0.375   2.900   3.535  0.00  0.00     0.004 C 
ATOM     10  C4' N4B d   1       0.075   2.336   4.891  0.00  0.00     0.003 C 
ENDBRANCH   8   9
ENDBRANCH   7   8
ENDBRANCH   1   7
TORSDOF 3
ENDMDL
