MODEL 1
REMARK minimizedAffinity -2.71860623
REMARK minimizedRMSD -1
REMARK  3 active torsions:
REMARK  status: ('A' for Active; 'I' for Inactive)
REMARK    1  A    between atoms: C3'_2  and  C2'_3 
REMARK    2  A    between atoms: C2'_3  and  C1'_4 
REMARK    3  A    between atoms: C1'_4  and  C1_5 
ROOT
ATOM      1  C1  N4B d   1      -0.504   0.364   0.738  0.00  0.00    -0.075 A 
ATOM      2  C2  N4B d   1      -0.907   1.451   1.546  0.00  0.00     0.002 A 
ATOM      3  C3  N4B d   1      -2.242   1.686   1.764  0.00  0.00     0.002 A 
ATOM      4  C4  N4B d   1      -3.189   0.863   1.173  0.00  0.00    -0.004 A 
ATOM      5  C5  N4B d   1      -2.791  -0.199   0.415  0.00  0.00     0.002 A 
ATOM      6  C6  N4B d   1      -1.453  -0.450   0.191  0.00  0.00     0.002 A 
ENDROOT
BRANCH   1   7
ATOM      7  C1' N4B d   1       0.941   0.119   0.401  0.00  0.00     0.057 C 
BRANCH   7   8
ATOM      8  C2' N4B d   1       1.158   0.371  -1.088  0.00  0.00     0.009 C 
BRANCH   8   9
ATOM      9  C3' N4B d   1       1.189   1.854  -1.415  0.00  0.00     0.004 C 
ATOM     10  C4' N4B d   1      -0.163   2.400  -1.766  0.00  0.00     0.003 C 
ENDBRANCH   8   9
ENDBRANCH   7   8
ENDBRANCH   1   7
TORSDOF 3
ENDMDL
