MODEL 1
REMARK minimizedAffinity -3.84639215
REMARK minimizedRMSD -1
REMARK  3 active torsions:
REMARK  status: ('A' for Active; 'I' for Inactive)
REMARK    1  A    between atoms: C3'_2  and  C2'_3 
REMARK    2  A    between atoms: C2'_3  and  C1'_4 
REMARK    3  A    between atoms: C1'_4  and  C1_5 
ROOT
ATOM      1  C1  N4B d   1      -0.055   0.027  -0.068  0.00  0.00    -0.075 A 
ATOM      2  C2  N4B d   1      -0.032  -0.356   1.291  0.00  0.00     0.002 A 
ATOM      3  C3  N4B d   1      -0.763   0.348   2.216  0.00  0.00     0.002 A 
ATOM      4  C4  N4B d   1      -1.506   1.446   1.810  0.00  0.00    -0.004 A 
ATOM      5  C5  N4B d   1      -1.544   1.795   0.492  0.00  0.00     0.002 A 
ATOM      6  C6  N4B d   1      -0.817   1.093  -0.449  0.00  0.00     0.002 A 
ENDROOT
BRANCH   1   7
ATOM      7  C1' N4B d   1       0.795  -0.660  -1.101  0.00  0.00     0.057 C 
BRANCH   7   8
ATOM      8  C2' N4B d   1       1.129  -2.069  -0.619  0.00  0.00     0.009 C 
BRANCH   8   9
ATOM      9  C3' N4B d   1       1.108  -3.078  -1.754  0.00  0.00     0.004 C 
ATOM     10  C4' N4B d   1       0.718  -4.453  -1.301  0.00  0.00     0.003 C 
ENDBRANCH   8   9
ENDBRANCH   7   8
ENDBRANCH   1   7
TORSDOF 3
ENDMDL
