MODEL 1
REMARK minimizedAffinity -4.41090584
REMARK minimizedRMSD -1
REMARK  3 active torsions:
REMARK  status: ('A' for Active; 'I' for Inactive)
REMARK    1  A    between atoms: C3'_2  and  C2'_3 
REMARK    2  A    between atoms: C2'_3  and  C1'_4 
REMARK    3  A    between atoms: C1'_4  and  C1_5 
ROOT
ATOM      1  C1  N4B d   1      -0.258   0.235   0.347  0.00  0.00    -0.075 A 
ATOM      2  C2  N4B d   1       0.019   1.190  -0.656  0.00  0.00     0.002 A 
ATOM      3  C3  N4B d   1       1.207   1.139  -1.343  0.00  0.00     0.002 A 
ATOM      4  C4  N4B d   1       2.138   0.158  -1.033  0.00  0.00    -0.004 A 
ATOM      5  C5  N4B d   1       1.852  -0.775  -0.080  0.00  0.00     0.002 A 
ATOM      6  C6  N4B d   1       0.660  -0.738   0.616  0.00  0.00     0.002 A 
ENDROOT
BRANCH   1   7
ATOM      7  C1' N4B d   1      -1.506   0.302   1.184  0.00  0.00     0.057 C 
BRANCH   7   8
ATOM      8  C2' N4B d   1      -1.157   0.863   2.560  0.00  0.00     0.009 C 
BRANCH   8   9
ATOM      9  C3' N4B d   1      -0.994   2.373   2.533  0.00  0.00     0.004 C 
ATOM     10  C4' N4B d   1      -2.058   3.058   1.729  0.00  0.00     0.003 C 
ENDBRANCH   8   9
ENDBRANCH   7   8
ENDBRANCH   1   7
TORSDOF 3
ENDMDL
