MODEL 1
REMARK minimizedAffinity -0.618747711
REMARK minimizedRMSD -1
REMARK  2 active torsions:
REMARK  status: ('A' for Active; 'I' for Inactive)
REMARK    1  A    between atoms: C2'_3  and  C1'_4 
REMARK    2  A    between atoms: C1'_4  and  C1_5 
ROOT
ATOM      1  C1  I4B d   1       1.614   1.607   1.393  0.00  0.00    -0.075 A 
ATOM      2  C2  I4B d   1       1.307   1.248   2.682  0.00  0.00     0.003 A 
ATOM      3  C3  I4B d   1      -0.045   1.134   3.086  0.00  0.00     0.002 A 
ATOM      4  C4  I4B d   1      -1.051   1.434   2.190  0.00  0.00    -0.004 A 
ATOM      5  C5  I4B d   1      -0.737   1.776   0.878  0.00  0.00     0.002 A 
ATOM      6  C6  I4B d   1       0.603   1.851   0.473  0.00  0.00     0.003 A 
ENDROOT
BRANCH   1   7
ATOM      7  C1' I4B d   1       3.053   1.750   1.009  0.00  0.00     0.060 C 
BRANCH   7   8
ATOM      8  C2' I4B d   1       3.247   1.075  -0.334  0.00  0.00    -0.013 C 
ATOM      9  C4' I4B d   1       4.549   1.486  -0.968  0.00  0.00     0.013 C 
ATOM     10  C3' I4B d   1       3.194  -0.408  -0.117  0.00  0.00     0.013 C 
ENDBRANCH   7   8
ENDBRANCH   1   7
TORSDOF 2
ENDMDL
