MODEL 1
REMARK minimizedAffinity -0.606407762
REMARK minimizedRMSD -1
REMARK  2 active torsions:
REMARK  status: ('A' for Active; 'I' for Inactive)
REMARK    1  A    between atoms: C2'_3  and  C1'_4 
REMARK    2  A    between atoms: C1'_4  and  C1_5 
ROOT
ATOM      1  C1  I4B d   1       2.188   0.142  -0.751  0.00  0.00    -0.075 A 
ATOM      2  C2  I4B d   1       0.836   0.008  -0.555  0.00  0.00     0.003 A 
ATOM      3  C3  I4B d   1       0.217  -1.258  -0.694  0.00  0.00     0.002 A 
ATOM      4  C4  I4B d   1       0.975  -2.346  -1.077  0.00  0.00    -0.004 A 
ATOM      5  C5  I4B d   1       2.349  -2.213  -1.254  0.00  0.00     0.002 A 
ATOM      6  C6  I4B d   1       2.962  -0.964  -1.078  0.00  0.00     0.003 A 
ENDROOT
BRANCH   1   7
ATOM      7  C1' I4B d   1       2.803   1.500  -0.629  0.00  0.00     0.060 C 
BRANCH   7   8
ATOM      8  C2' I4B d   1       4.279   1.374  -0.945  0.00  0.00    -0.013 C 
ATOM      9  C4' I4B d   1       4.498   1.016  -2.392  0.00  0.00     0.013 C 
ATOM     10  C3' I4B d   1       4.938   2.677  -0.605  0.00  0.00     0.013 C 
ENDBRANCH   7   8
ENDBRANCH   1   7
TORSDOF 2
ENDMDL
