MODEL 1
REMARK minimizedAffinity 1.85912025
REMARK minimizedRMSD -1
REMARK  2 active torsions:
REMARK  status: ('A' for Active; 'I' for Inactive)
REMARK    1  A    between atoms: C2'_3  and  C1'_4 
REMARK    2  A    between atoms: C1'_4  and  C1_5 
ROOT
ATOM      1  C1  I4B d   1       1.857  -0.808  -0.502  0.00  0.00    -0.075 A 
ATOM      2  C2  I4B d   1       2.194  -2.077  -0.104  0.00  0.00     0.003 A 
ATOM      3  C3  I4B d   1       1.253  -3.130  -0.207  0.00  0.00     0.002 A 
ATOM      4  C4  I4B d   1      -0.021  -2.860  -0.662  0.00  0.00    -0.004 A 
ATOM      5  C5  I4B d   1      -0.354  -1.577  -1.086  0.00  0.00     0.002 A 
ATOM      6  C6  I4B d   1       0.594  -0.546  -1.017  0.00  0.00     0.003 A 
ENDROOT
BRANCH   1   7
ATOM      7  C1' I4B d   1       2.865   0.287  -0.349  0.00  0.00     0.060 C 
BRANCH   7   8
ATOM      8  C2' I4B d   1       2.116   1.579  -0.094  0.00  0.00    -0.013 C 
ATOM      9  C4' I4B d   1       1.304   1.498   1.171  0.00  0.00     0.013 C 
ATOM     10  C3' I4B d   1       3.121   2.690  -0.022  0.00  0.00     0.013 C 
ENDBRANCH   7   8
ENDBRANCH   1   7
TORSDOF 2
ENDMDL
