MODEL 1
REMARK minimizedAffinity 5.4358654
REMARK minimizedRMSD -1
REMARK  2 active torsions:
REMARK  status: ('A' for Active; 'I' for Inactive)
REMARK    1  A    between atoms: C2'_3  and  C1'_4 
REMARK    2  A    between atoms: C1'_4  and  C1_5 
ROOT
ATOM      1  C1  I4B d   1       2.813  -0.637  -0.931  0.00  0.00    -0.075 A 
ATOM      2  C2  I4B d   1       2.600  -1.979  -1.130  0.00  0.00     0.003 A 
ATOM      3  C3  I4B d   1       1.282  -2.498  -1.137  0.00  0.00     0.002 A 
ATOM      4  C4  I4B d   1       0.218  -1.654  -0.894  0.00  0.00    -0.004 A 
ATOM      5  C5  I4B d   1       0.434  -0.291  -0.715  0.00  0.00     0.002 A 
ATOM      6  C6  I4B d   1       1.739   0.223  -0.746  0.00  0.00     0.003 A 
ENDROOT
BRANCH   1   7
ATOM      7  C1' I4B d   1       4.219  -0.128  -0.896  0.00  0.00     0.060 C 
BRANCH   7   8
ATOM      8  C2' I4B d   1       4.273   1.150  -1.707  0.00  0.00    -0.013 C 
ATOM      9  C4' I4B d   1       4.575   2.339  -0.833  0.00  0.00     0.013 C 
ATOM     10  C3' I4B d   1       5.317   0.980  -2.770  0.00  0.00     0.013 C 
ENDBRANCH   7   8
ENDBRANCH   1   7
TORSDOF 2
ENDMDL
