MODEL 1
REMARK minimizedAffinity -0.968508899
REMARK minimizedRMSD -1
REMARK  2 active torsions:
REMARK  status: ('A' for Active; 'I' for Inactive)
REMARK    1  A    between atoms: C2'_3  and  C1'_4 
REMARK    2  A    between atoms: C1'_4  and  C1_5 
ROOT
ATOM      1  C1  I4B d   1       1.184   0.131  -0.301  0.00  0.00    -0.075 A 
ATOM      2  C2  I4B d   1      -0.001   0.490  -0.893  0.00  0.00     0.003 A 
ATOM      3  C3  I4B d   1      -0.897  -0.505  -1.355  0.00  0.00     0.002 A 
ATOM      4  C4  I4B d   1      -0.548  -1.836  -1.250  0.00  0.00    -0.004 A 
ATOM      5  C5  I4B d   1       0.644  -2.198  -0.628  0.00  0.00     0.002 A 
ATOM      6  C6  I4B d   1       1.510  -1.210  -0.139  0.00  0.00     0.003 A 
ENDROOT
BRANCH   1   7
ATOM      7  C1' I4B d   1       2.121   1.207   0.146  0.00  0.00     0.060 C 
BRANCH   7   8
ATOM      8  C2' I4B d   1       3.247   1.294  -0.864  0.00  0.00    -0.013 C 
ATOM      9  C4' I4B d   1       4.146   2.469  -0.580  0.00  0.00     0.013 C 
ATOM     10  C3' I4B d   1       4.011   0.005  -0.818  0.00  0.00     0.013 C 
ENDBRANCH   7   8
ENDBRANCH   1   7
TORSDOF 2
ENDMDL
