MODEL 1
REMARK minimizedAffinity 8.27364731
REMARK minimizedRMSD -1
REMARK  1 active torsions:
REMARK  status: ('A' for Active; 'I' for Inactive)
REMARK    1  A    between atoms: C1_2  and  C2_3 
ROOT
ATOM      1  C2  UNL d   1       4.721   3.172   0.735  0.00  0.00    -0.077 A 
ATOM      2  C3  UNL d   1       3.989   2.935   1.907  0.00  0.00     0.002 A 
ATOM      3  C4  UNL d   1       4.260   1.814   2.694  0.00  0.00     0.002 A 
ATOM      4  C5  UNL d   1       5.264   0.924   2.320  0.00  0.00    -0.004 A 
ATOM      5  C6  UNL d   1       5.996   1.150   1.155  0.00  0.00     0.002 A 
ATOM      6  C7  UNL d   1       5.726   2.269   0.367  0.00  0.00     0.002 A 
ENDROOT
BRANCH   1   7
ATOM      7  C1  UNL d   1       4.464   4.406  -0.089  0.00  0.00     0.055 C 
ATOM      8  C   UNL d   1       5.167   5.621   0.500  0.00  0.00     0.019 C 
ENDBRANCH   1   7
TORSDOF 1
ENDMDL
