MODEL 1
REMARK minimizedAffinity 3.45799613
REMARK minimizedRMSD -1
REMARK  1 active torsions:
REMARK  status: ('A' for Active; 'I' for Inactive)
REMARK    1  A    between atoms: C1_2  and  C2_3 
ROOT
ATOM      1  C2  UNL d   1      -3.363  -4.793   0.472  0.00  0.00    -0.077 A 
ATOM      2  C3  UNL d   1      -3.813  -3.468   0.561  0.00  0.00     0.002 A 
ATOM      3  C4  UNL d   1      -2.901  -2.412   0.577  0.00  0.00     0.002 A 
ATOM      4  C5  UNL d   1      -1.534  -2.668   0.501  0.00  0.00    -0.004 A 
ATOM      5  C6  UNL d   1      -1.076  -3.982   0.415  0.00  0.00     0.002 A 
ATOM      6  C7  UNL d   1      -1.986  -5.040   0.400  0.00  0.00     0.002 A 
ENDROOT
BRANCH   1   7
ATOM      7  C1  UNL d   1      -4.347  -5.931   0.405  0.00  0.00     0.055 C 
ATOM      8  C   UNL d   1      -5.771  -5.447   0.640  0.00  0.00     0.019 C 
ENDBRANCH   1   7
TORSDOF 1
ENDMDL
