MODEL 1
REMARK minimizedAffinity 13.3155031
REMARK minimizedRMSD -1
REMARK  1 active torsions:
REMARK  status: ('A' for Active; 'I' for Inactive)
REMARK    1  A    between atoms: C1_2  and  C2_3 
ROOT
ATOM      1  C2  UNL d   1      -1.150  -3.722   1.124  0.00  0.00    -0.077 A 
ATOM      2  C3  UNL d   1      -1.601  -3.548   2.440  0.00  0.00     0.002 A 
ATOM      3  C4  UNL d   1      -2.378  -2.439   2.779  0.00  0.00     0.002 A 
ATOM      4  C5  UNL d   1      -2.714  -1.498   1.808  0.00  0.00    -0.004 A 
ATOM      5  C6  UNL d   1      -2.269  -1.662   0.496  0.00  0.00     0.002 A 
ATOM      6  C7  UNL d   1      -1.491  -2.769   0.156  0.00  0.00     0.002 A 
ENDROOT
BRANCH   1   7
ATOM      7  C1  UNL d   1      -0.353  -4.943   0.745  0.00  0.00     0.055 C 
ATOM      8  C   UNL d   1      -0.401  -5.997   1.842  0.00  0.00     0.019 C 
ENDBRANCH   1   7
TORSDOF 1
ENDMDL
