MODEL 1
REMARK minimizedAffinity 8.85116863
REMARK minimizedRMSD -1
REMARK  1 active torsions:
REMARK  status: ('A' for Active; 'I' for Inactive)
REMARK    1  A    between atoms: C1_2  and  C2_3 
ROOT
ATOM      1  C2  UNL d   1      -1.691  -2.136   1.309  0.00  0.00    -0.077 A 
ATOM      2  C3  UNL d   1      -2.063  -1.327   0.226  0.00  0.00     0.002 A 
ATOM      3  C4  UNL d   1      -1.978  -1.812  -1.080  0.00  0.00     0.002 A 
ATOM      4  C5  UNL d   1      -1.525  -3.109  -1.316  0.00  0.00    -0.004 A 
ATOM      5  C6  UNL d   1      -1.150  -3.920  -0.246  0.00  0.00     0.002 A 
ATOM      6  C7  UNL d   1      -1.233  -3.436   1.061  0.00  0.00     0.002 A 
ENDROOT
BRANCH   1   7
ATOM      7  C1  UNL d   1      -1.828  -1.632   2.722  0.00  0.00     0.055 C 
ATOM      8  C   UNL d   1      -2.462  -2.680   3.624  0.00  0.00     0.019 C 
ENDBRANCH   1   7
TORSDOF 1
ENDMDL
