MODEL 1
REMARK minimizedAffinity 5.38314342
REMARK minimizedRMSD -1
REMARK  1 active torsions:
REMARK  status: ('A' for Active; 'I' for Inactive)
REMARK    1  A    between atoms: C1_2  and  C2_3 
ROOT
ATOM      1  C2  UNL d   1      -1.589  -1.976  -0.135  0.00  0.00    -0.077 A 
ATOM      2  C3  UNL d   1      -0.833  -3.079   0.286  0.00  0.00     0.002 A 
ATOM      3  C4  UNL d   1      -0.705  -3.371   1.645  0.00  0.00     0.002 A 
ATOM      4  C5  UNL d   1      -1.334  -2.568   2.594  0.00  0.00    -0.004 A 
ATOM      5  C6  UNL d   1      -2.087  -1.467   2.186  0.00  0.00     0.002 A 
ATOM      6  C7  UNL d   1      -2.215  -1.173   0.828  0.00  0.00     0.002 A 
ENDROOT
BRANCH   1   7
ATOM      7  C1  UNL d   1      -1.769  -1.689  -1.602  0.00  0.00     0.055 C 
ATOM      8  C   UNL d   1      -3.103  -1.009  -1.874  0.00  0.00     0.019 C 
ENDBRANCH   1   7
TORSDOF 1
ENDMDL
