MODEL 1
REMARK minimizedAffinity 11.3092279
REMARK minimizedRMSD -1
REMARK  1 active torsions:
REMARK  status: ('A' for Active; 'I' for Inactive)
REMARK    1  A    between atoms: C1_2  and  C2_3 
ROOT
ATOM      1  C2  UNL d   1       3.154   1.360  -1.523  0.00  0.00    -0.077 A 
ATOM      2  C3  UNL d   1       2.579   0.081  -1.529  0.00  0.00     0.002 A 
ATOM      3  C4  UNL d   1       3.026  -0.889  -2.429  0.00  0.00     0.002 A 
ATOM      4  C5  UNL d   1       4.050  -0.592  -3.325  0.00  0.00    -0.004 A 
ATOM      5  C6  UNL d   1       4.627   0.677  -3.327  0.00  0.00     0.002 A 
ATOM      6  C7  UNL d   1       4.181   1.649  -2.430  0.00  0.00     0.002 A 
ENDROOT
BRANCH   1   7
ATOM      7  C1  UNL d   1       2.707   2.392  -0.520  0.00  0.00     0.055 C 
ATOM      8  C   UNL d   1       3.868   2.861   0.345  0.00  0.00     0.019 C 
ENDBRANCH   1   7
TORSDOF 1
ENDMDL
