MODEL 1
REMARK minimizedAffinity 5.72880507
REMARK minimizedRMSD -1
REMARK  1 active torsions:
REMARK  status: ('A' for Active; 'I' for Inactive)
REMARK    1  A    between atoms: C1_2  and  C2_3 
ROOT
ATOM      1  C2  UNL d   1       3.782   2.252   2.314  0.00  0.00    -0.077 A 
ATOM      2  C3  UNL d   1       2.791   1.635   1.538  0.00  0.00     0.002 A 
ATOM      3  C4  UNL d   1       2.644   1.962   0.189  0.00  0.00     0.002 A 
ATOM      4  C5  UNL d   1       3.488   2.903  -0.397  0.00  0.00    -0.004 A 
ATOM      5  C6  UNL d   1       4.475   3.524   0.367  0.00  0.00     0.002 A 
ATOM      6  C7  UNL d   1       4.622   3.199   1.716  0.00  0.00     0.002 A 
ENDROOT
BRANCH   1   7
ATOM      7  C1  UNL d   1       3.974   1.864   3.757  0.00  0.00     0.055 C 
ATOM      8  C   UNL d   1       4.345   3.069   4.609  0.00  0.00     0.019 C 
ENDBRANCH   1   7
TORSDOF 1
ENDMDL
