MODEL 1
REMARK minimizedAffinity 7.72768831
REMARK minimizedRMSD -1
REMARK  1 active torsions:
REMARK  status: ('A' for Active; 'I' for Inactive)
REMARK    1  A    between atoms: C1_2  and  C2_3 
ROOT
ATOM      1  C2  UNL d   1       3.539  -0.020  -2.504  0.00  0.00    -0.077 A 
ATOM      2  C3  UNL d   1       4.339  -1.166  -2.610  0.00  0.00     0.002 A 
ATOM      3  C4  UNL d   1       5.563  -1.113  -3.281  0.00  0.00     0.002 A 
ATOM      4  C5  UNL d   1       5.999   0.083  -3.846  0.00  0.00    -0.004 A 
ATOM      5  C6  UNL d   1       5.209   1.228  -3.747  0.00  0.00     0.002 A 
ATOM      6  C7  UNL d   1       3.985   1.177  -3.078  0.00  0.00     0.002 A 
ENDROOT
BRANCH   1   7
ATOM      7  C1  UNL d   1       2.242  -0.062  -1.739  0.00  0.00     0.055 C 
ATOM      8  C   UNL d   1       2.164   1.062  -0.717  0.00  0.00     0.019 C 
ENDBRANCH   1   7
TORSDOF 1
ENDMDL
