MODEL 1
REMARK minimizedAffinity 14.6414318
REMARK minimizedRMSD -1
REMARK  1 active torsions:
REMARK  status: ('A' for Active; 'I' for Inactive)
REMARK    1  A    between atoms: C1_2  and  C2_3 
ROOT
ATOM      1  C2  UNL d   1       3.147   2.049   0.204  0.00  0.00    -0.077 A 
ATOM      2  C3  UNL d   1       3.480   0.688   0.243  0.00  0.00     0.002 A 
ATOM      3  C4  UNL d   1       2.831  -0.222  -0.595  0.00  0.00     0.002 A 
ATOM      4  C5  UNL d   1       1.849   0.220  -1.479  0.00  0.00    -0.004 A 
ATOM      5  C6  UNL d   1       1.509   1.572  -1.523  0.00  0.00     0.002 A 
ATOM      6  C7  UNL d   1       2.156   2.482  -0.686  0.00  0.00     0.002 A 
ENDROOT
BRANCH   1   7
ATOM      7  C1  UNL d   1       3.880   3.039   1.071  0.00  0.00     0.055 C 
ATOM      8  C   UNL d   1       4.411   4.206   0.251  0.00  0.00     0.019 C 
ENDBRANCH   1   7
TORSDOF 1
ENDMDL
