MODEL 1
REMARK minimizedAffinity 7.0938282
REMARK minimizedRMSD -1
REMARK  1 active torsions:
REMARK  status: ('A' for Active; 'I' for Inactive)
REMARK    1  A    between atoms: C1_2  and  C2_3 
ROOT
ATOM      1  C2  UNL d   1      -2.247  -2.577   1.713  0.00  0.00    -0.077 A 
ATOM      2  C3  UNL d   1      -2.627  -1.678   0.706  0.00  0.00     0.002 A 
ATOM      3  C4  UNL d   1      -2.002  -1.710  -0.542  0.00  0.00     0.002 A 
ATOM      4  C5  UNL d   1      -0.996  -2.641  -0.795  0.00  0.00    -0.004 A 
ATOM      5  C6  UNL d   1      -0.609  -3.537   0.200  0.00  0.00     0.002 A 
ATOM      6  C7  UNL d   1      -1.233  -3.505   1.449  0.00  0.00     0.002 A 
ENDROOT
BRANCH   1   7
ATOM      7  C1  UNL d   1      -2.954  -2.576   3.043  0.00  0.00     0.055 C 
ATOM      8  C   UNL d   1      -2.665  -1.302   3.823  0.00  0.00     0.019 C 
ENDBRANCH   1   7
TORSDOF 1
ENDMDL
