MODEL 1
REMARK minimizedAffinity 8.58201981
REMARK minimizedRMSD -1
REMARK  1 active torsions:
REMARK  status: ('A' for Active; 'I' for Inactive)
REMARK    1  A    between atoms: C1_2  and  C2_3 
ROOT
ATOM      1  C2  UNL d   1       0.137  -0.285  -1.811  0.00  0.00    -0.077 A 
ATOM      2  C3  UNL d   1      -0.702  -0.455  -0.701  0.00  0.00     0.002 A 
ATOM      3  C4  UNL d   1      -1.621  -1.505  -0.665  0.00  0.00     0.002 A 
ATOM      4  C5  UNL d   1      -1.707  -2.395  -1.733  0.00  0.00    -0.004 A 
ATOM      5  C6  UNL d   1      -0.878  -2.233  -2.843  0.00  0.00     0.002 A 
ATOM      6  C7  UNL d   1       0.040  -1.183  -2.881  0.00  0.00     0.002 A 
ENDROOT
BRANCH   1   7
ATOM      7  C1  UNL d   1       1.163   0.818  -1.830  0.00  0.00     0.055 C 
ATOM      8  C   UNL d   1       2.538   0.288  -2.210  0.00  0.00     0.019 C 
ENDBRANCH   1   7
TORSDOF 1
ENDMDL
