MODEL 1
REMARK minimizedAffinity 12.3078823
REMARK minimizedRMSD -1
REMARK  1 active torsions:
REMARK  status: ('A' for Active; 'I' for Inactive)
REMARK    1  A    between atoms: C1_2  and  C2_3 
ROOT
ATOM      1  C2  UNL d   1       4.876   4.568   0.503  0.00  0.00    -0.077 A 
ATOM      2  C3  UNL d   1       4.017   3.551   0.941  0.00  0.00     0.002 A 
ATOM      3  C4  UNL d   1       4.148   2.253   0.443  0.00  0.00     0.002 A 
ATOM      4  C5  UNL d   1       5.140   1.960  -0.491  0.00  0.00    -0.004 A 
ATOM      5  C6  UNL d   1       5.998   2.965  -0.934  0.00  0.00     0.002 A 
ATOM      6  C7  UNL d   1       5.868   4.264  -0.438  0.00  0.00     0.002 A 
ENDROOT
BRANCH   1   7
ATOM      7  C1  UNL d   1       4.768   5.958   1.075  0.00  0.00     0.055 C 
ATOM      8  C   UNL d   1       5.244   6.000   2.520  0.00  0.00     0.019 C 
ENDBRANCH   1   7
TORSDOF 1
ENDMDL
