MODEL 1
REMARK minimizedAffinity 5.01005268
REMARK minimizedRMSD -1
REMARK  1 active torsions:
REMARK  status: ('A' for Active; 'I' for Inactive)
REMARK    1  A    between atoms: C1_2  and  C2_3 
ROOT
ATOM      1  C2  UNL d   1      -0.710  -1.222  -1.754  0.00  0.00    -0.077 A 
ATOM      2  C3  UNL d   1      -1.914  -0.564  -1.467  0.00  0.00     0.002 A 
ATOM      3  C4  UNL d   1      -2.778  -1.065  -0.492  0.00  0.00     0.002 A 
ATOM      4  C5  UNL d   1      -2.446  -2.224   0.207  0.00  0.00    -0.004 A 
ATOM      5  C6  UNL d   1      -1.251  -2.887  -0.072  0.00  0.00     0.002 A 
ATOM      6  C7  UNL d   1      -0.387  -2.388  -1.048  0.00  0.00     0.002 A 
ENDROOT
BRANCH   1   7
ATOM      7  C1  UNL d   1       0.247  -0.655  -2.771  0.00  0.00     0.055 C 
ATOM      8  C   UNL d   1       1.514  -0.135  -2.108  0.00  0.00     0.019 C 
ENDBRANCH   1   7
TORSDOF 1
ENDMDL
