MODEL 1
REMARK minimizedAffinity 16.23452
REMARK minimizedRMSD -1
REMARK  1 active torsions:
REMARK  status: ('A' for Active; 'I' for Inactive)
REMARK    1  A    between atoms: C1_2  and  C2_3 
ROOT
ATOM      1  C2  UNL d   1      -1.012  -3.202   0.757  0.00  0.00    -0.077 A 
ATOM      2  C3  UNL d   1      -0.416  -3.066  -0.505  0.00  0.00     0.002 A 
ATOM      3  C4  UNL d   1      -0.871  -2.097  -1.400  0.00  0.00     0.002 A 
ATOM      4  C5  UNL d   1      -1.920  -1.253  -1.043  0.00  0.00    -0.004 A 
ATOM      5  C6  UNL d   1      -2.522  -1.382   0.208  0.00  0.00     0.002 A 
ATOM      6  C7  UNL d   1      -2.069  -2.351   1.105  0.00  0.00     0.002 A 
ENDROOT
BRANCH   1   7
ATOM      7  C1  UNL d   1      -0.491  -4.214   1.743  0.00  0.00     0.055 C 
ATOM      8  C   UNL d   1      -0.480  -5.614   1.147  0.00  0.00     0.019 C 
ENDBRANCH   1   7
TORSDOF 1
ENDMDL
