MODEL 1
REMARK minimizedAffinity 9.13180256
REMARK minimizedRMSD -1
REMARK  1 active torsions:
REMARK  status: ('A' for Active; 'I' for Inactive)
REMARK    1  A    between atoms: C1_2  and  C2_3 
ROOT
ATOM      1  C2  UNL d   1      -1.037  -3.489   0.144  0.00  0.00    -0.077 A 
ATOM      2  C3  UNL d   1      -1.988  -2.988   1.044  0.00  0.00     0.002 A 
ATOM      3  C4  UNL d   1      -2.626  -1.772   0.792  0.00  0.00     0.002 A 
ATOM      4  C5  UNL d   1      -2.324  -1.050  -0.360  0.00  0.00    -0.004 A 
ATOM      5  C6  UNL d   1      -1.377  -1.539  -1.260  0.00  0.00     0.002 A 
ATOM      6  C7  UNL d   1      -0.738  -2.753  -1.009  0.00  0.00     0.002 A 
ENDROOT
BRANCH   1   7
ATOM      7  C1  UNL d   1      -0.384  -4.824   0.389  0.00  0.00     0.055 C 
ATOM      8  C   UNL d   1      -0.686  -5.803  -0.737  0.00  0.00     0.019 C 
ENDBRANCH   1   7
TORSDOF 1
ENDMDL
