MODEL 1
REMARK minimizedAffinity 18.4303493
REMARK minimizedRMSD -1
REMARK  1 active torsions:
REMARK  status: ('A' for Active; 'I' for Inactive)
REMARK    1  A    between atoms: C1_2  and  C2_3 
ROOT
ATOM      1  C2  UNL d   1       3.362   2.387   4.629  0.00  0.00    -0.077 A 
ATOM      2  C3  UNL d   1       4.129   1.254   4.323  0.00  0.00     0.002 A 
ATOM      3  C4  UNL d   1       4.101   0.707   3.039  0.00  0.00     0.002 A 
ATOM      4  C5  UNL d   1       3.310   1.288   2.050  0.00  0.00    -0.004 A 
ATOM      5  C6  UNL d   1       2.542   2.414   2.344  0.00  0.00     0.002 A 
ATOM      6  C7  UNL d   1       2.568   2.961   3.627  0.00  0.00     0.002 A 
ENDROOT
BRANCH   1   7
ATOM      7  C1  UNL d   1       3.429   3.008   6.000  0.00  0.00     0.055 C 
ATOM      8  C   UNL d   1       3.361   4.526   5.924  0.00  0.00     0.019 C 
ENDBRANCH   1   7
TORSDOF 1
ENDMDL
