MODEL 1
REMARK minimizedAffinity 19.1907673
REMARK minimizedRMSD -1
REMARK  1 active torsions:
REMARK  status: ('A' for Active; 'I' for Inactive)
REMARK    1  A    between atoms: C1_2  and  C2_3 
ROOT
ATOM      1  C2  UNL d   1      -1.267  -3.707   0.372  0.00  0.00    -0.077 A 
ATOM      2  C3  UNL d   1      -0.858  -2.635  -0.434  0.00  0.00     0.002 A 
ATOM      3  C4  UNL d   1      -1.644  -1.485  -0.532  0.00  0.00     0.002 A 
ATOM      4  C5  UNL d   1      -2.842  -1.395   0.174  0.00  0.00    -0.004 A 
ATOM      5  C6  UNL d   1      -3.258  -2.457   0.976  0.00  0.00     0.002 A 
ATOM      6  C7  UNL d   1      -2.474  -3.607   1.075  0.00  0.00     0.002 A 
ENDROOT
BRANCH   1   7
ATOM      7  C1  UNL d   1      -0.396  -4.927   0.518  0.00  0.00     0.055 C 
ATOM      8  C   UNL d   1       0.070  -5.105   1.956  0.00  0.00     0.019 C 
ENDBRANCH   1   7
TORSDOF 1
ENDMDL
