MODEL 1
REMARK minimizedAffinity -4.22550344
REMARK minimizedRMSD -1
REMARK  0 active torsions:
REMARK  status: ('A' for Active; 'I' for Inactive)
ROOT
ATOM      1  C   UNL d   1      -0.018  -0.031   0.385  0.00  0.00     0.172 C 
ATOM      2  N   UNL d   1      -0.053  -1.354  -0.193  0.00  0.00    -0.070 N 
ATOM      3  C1  UNL d   1      -0.617  -2.461   0.383  0.00  0.00    -0.004 A 
ATOM      4  C2  UNL d   1      -0.443  -3.520  -0.481  0.00  0.00    -0.047 A 
ATOM      5  C3  UNL d   1       0.250  -3.033  -1.615  0.00  0.00    -0.047 A 
ATOM      6  C4  UNL d   1       0.479  -1.689  -1.410  0.00  0.00    -0.004 A 
ENDROOT
TORSDOF 0
ENDMDL
