MODEL 1
REMARK minimizedAffinity -3.13366747
REMARK minimizedRMSD -1
REMARK  0 active torsions:
REMARK  status: ('A' for Active; 'I' for Inactive)
ROOT
ATOM      1  C   UNL d   1       0.257   2.405  -0.083  0.00  0.00     0.172 C 
ATOM      2  N   UNL d   1       0.166   1.030  -0.515  0.00  0.00    -0.070 N 
ATOM      3  C1  UNL d   1       0.025   0.607  -1.810  0.00  0.00    -0.004 A 
ATOM      4  C2  UNL d   1      -0.022  -0.770  -1.801  0.00  0.00    -0.047 A 
ATOM      5  C3  UNL d   1       0.094  -1.190  -0.455  0.00  0.00    -0.047 A 
ATOM      6  C4  UNL d   1       0.209  -0.055   0.320  0.00  0.00    -0.004 A 
ENDROOT
TORSDOF 0
ENDMDL
