MODEL 1
REMARK minimizedAffinity -2.15387893
REMARK minimizedRMSD -1
REMARK  0 active torsions:
REMARK  status: ('A' for Active; 'I' for Inactive)
ROOT
ATOM      1  C   UNL d   1      -0.124  -3.474   0.124  0.00  0.00     0.172 C 
ATOM      2  N   UNL d   1      -0.484  -2.138   0.538  0.00  0.00    -0.070 N 
ATOM      3  C1  UNL d   1       0.268  -1.011   0.340  0.00  0.00    -0.004 A 
ATOM      4  C2  UNL d   1      -0.420   0.055   0.878  0.00  0.00    -0.047 A 
ATOM      5  C3  UNL d   1      -1.626  -0.449   1.421  0.00  0.00    -0.047 A 
ATOM      6  C4  UNL d   1      -1.640  -1.809   1.197  0.00  0.00    -0.004 A 
ENDROOT
TORSDOF 0
ENDMDL
