MODEL 1
REMARK minimizedAffinity -3.34060836
REMARK minimizedRMSD -1
REMARK  0 active torsions:
REMARK  status: ('A' for Active; 'I' for Inactive)
ROOT
ATOM      1  C   UNL d   1      -0.414   1.156  -0.025  0.00  0.00     0.172 C 
ATOM      2  N   UNL d   1       0.041  -0.040  -0.692  0.00  0.00    -0.070 N 
ATOM      3  C1  UNL d   1       0.313  -0.154  -2.030  0.00  0.00    -0.004 A 
ATOM      4  C2  UNL d   1       0.719  -1.449  -2.269  0.00  0.00    -0.047 A 
ATOM      5  C3  UNL d   1       0.690  -2.137  -1.033  0.00  0.00    -0.047 A 
ATOM      6  C4  UNL d   1       0.267  -1.242  -0.074  0.00  0.00    -0.004 A 
ENDROOT
TORSDOF 0
ENDMDL
