MODEL 1
REMARK minimizedAffinity -3.17571092
REMARK minimizedRMSD -1
REMARK  0 active torsions:
REMARK  status: ('A' for Active; 'I' for Inactive)
ROOT
ATOM      1  C   UNL d   1       0.652   5.727   2.627  0.00  0.00     0.172 C 
ATOM      2  N   UNL d   1       1.088   4.645   1.776  0.00  0.00    -0.070 N 
ATOM      3  C1  UNL d   1       0.334   4.036   0.809  0.00  0.00    -0.004 A 
ATOM      4  C2  UNL d   1       1.108   3.058   0.223  0.00  0.00    -0.047 A 
ATOM      5  C3  UNL d   1       2.371   3.079   0.862  0.00  0.00    -0.047 A 
ATOM      6  C4  UNL d   1       2.331   4.070   1.819  0.00  0.00    -0.004 A 
ENDROOT
TORSDOF 0
ENDMDL
