MODEL 1
REMARK minimizedAffinity -3.92901897
REMARK minimizedRMSD -1
REMARK  0 active torsions:
REMARK  status: ('A' for Active; 'I' for Inactive)
ROOT
ATOM      1  C   UNL d   1      -0.041   1.111  -0.473  0.00  0.00     0.172 C 
ATOM      2  N   UNL d   1      -0.019  -0.267  -0.042  0.00  0.00    -0.070 N 
ATOM      3  C1  UNL d   1      -0.823  -0.814   0.922  0.00  0.00    -0.004 A 
ATOM      4  C2  UNL d   1      -0.494  -2.148   1.037  0.00  0.00    -0.047 A 
ATOM      5  C3  UNL d   1       0.544  -2.410   0.112  0.00  0.00    -0.047 A 
ATOM      6  C4  UNL d   1       0.818  -1.228  -0.543  0.00  0.00    -0.004 A 
ENDROOT
TORSDOF 0
ENDMDL
