MODEL 1
REMARK minimizedAffinity -3.19365478
REMARK minimizedRMSD -1
REMARK  0 active torsions:
REMARK  status: ('A' for Active; 'I' for Inactive)
ROOT
ATOM      1  C   UNL d   1       0.222  -3.018   0.358  0.00  0.00     0.172 C 
ATOM      2  N   UNL d   1      -0.031  -1.603   0.221  0.00  0.00    -0.070 N 
ATOM      3  C1  UNL d   1      -0.778  -0.838   1.076  0.00  0.00    -0.004 A 
ATOM      4  C2  UNL d   1      -0.776   0.454   0.598  0.00  0.00    -0.047 A 
ATOM      5  C3  UNL d   1      -0.002   0.467  -0.586  0.00  0.00    -0.047 A 
ATOM      6  C4  UNL d   1       0.448  -0.820  -0.797  0.00  0.00    -0.004 A 
ENDROOT
TORSDOF 0
ENDMDL
