MODEL 1
REMARK minimizedAffinity -3.57089114
REMARK minimizedRMSD -1
REMARK  0 active torsions:
REMARK  status: ('A' for Active; 'I' for Inactive)
ROOT
ATOM      1  C   UNL d   1      -0.133  -2.957   0.407  0.00  0.00     0.172 C 
ATOM      2  N   UNL d   1      -0.067  -1.542   0.126  0.00  0.00    -0.070 N 
ATOM      3  C1  UNL d   1      -0.533  -0.544   0.940  0.00  0.00    -0.004 A 
ATOM      4  C2  UNL d   1      -0.282   0.660   0.318  0.00  0.00    -0.047 A 
ATOM      5  C3  UNL d   1       0.354   0.375  -0.914  0.00  0.00    -0.047 A 
ATOM      6  C4  UNL d   1       0.475  -0.995  -1.007  0.00  0.00    -0.004 A 
ENDROOT
TORSDOF 0
ENDMDL
