MODEL 1
REMARK minimizedAffinity -3.29550529
REMARK minimizedRMSD -1
REMARK  0 active torsions:
REMARK  status: ('A' for Active; 'I' for Inactive)
ROOT
ATOM      1  C   UNL d   1       0.300   1.138  -0.382  0.00  0.00     0.172 C 
ATOM      2  N   UNL d   1      -0.042  -0.126   0.228  0.00  0.00    -0.070 N 
ATOM      3  C1  UNL d   1      -1.010  -0.317   1.178  0.00  0.00    -0.004 A 
ATOM      4  C2  UNL d   1      -1.026  -1.657   1.500  0.00  0.00    -0.047 A 
ATOM      5  C3  UNL d   1      -0.034  -2.293   0.716  0.00  0.00    -0.047 A 
ATOM      6  C4  UNL d   1       0.560  -1.321  -0.062  0.00  0.00    -0.004 A 
ENDROOT
TORSDOF 0
ENDMDL
