MODEL 1
REMARK minimizedAffinity -2.78751183
REMARK minimizedRMSD -1
REMARK  0 active torsions:
REMARK  status: ('A' for Active; 'I' for Inactive)
ROOT
ATOM      1  C   UNL d   1       0.213  -0.444   0.291  0.00  0.00     0.172 C 
ATOM      2  N   UNL d   1       0.506   0.970   0.271  0.00  0.00    -0.070 N 
ATOM      3  C1  UNL d   1       1.568   1.574   0.890  0.00  0.00    -0.004 A 
ATOM      4  C2  UNL d   1       1.493   2.926   0.632  0.00  0.00    -0.047 A 
ATOM      5  C3  UNL d   1       0.346   3.142  -0.168  0.00  0.00    -0.047 A 
ATOM      6  C4  UNL d   1      -0.247   1.914  -0.376  0.00  0.00    -0.004 A 
ENDROOT
TORSDOF 0
ENDMDL
