MODEL 1
REMARK minimizedAffinity -3.76169515
REMARK minimizedRMSD -1
REMARK  0 active torsions:
REMARK  status: ('A' for Active; 'I' for Inactive)
ROOT
ATOM      1  C   UNL d   1      -0.290   1.059  -0.034  0.00  0.00     0.172 C 
ATOM      2  N   UNL d   1      -0.387  -0.350   0.269  0.00  0.00    -0.070 N 
ATOM      3  C1  UNL d   1      -1.183  -0.906   1.234  0.00  0.00    -0.004 A 
ATOM      4  C2  UNL d   1      -0.990  -2.270   1.206  0.00  0.00    -0.047 A 
ATOM      5  C3  UNL d   1      -0.044  -2.543   0.189  0.00  0.00    -0.047 A 
ATOM      6  C4  UNL d   1       0.313  -1.336  -0.374  0.00  0.00    -0.004 A 
ENDROOT
TORSDOF 0
ENDMDL
