MODEL 1
REMARK minimizedAffinity -2.12920213
REMARK minimizedRMSD -1
REMARK  0 active torsions:
REMARK  status: ('A' for Active; 'I' for Inactive)
ROOT
ATOM      1  C   UNL d   1      -0.262   1.307  -0.181  0.00  0.00     0.172 C 
ATOM      2  N   UNL d   1       0.806   2.202   0.198  0.00  0.00    -0.070 N 
ATOM      3  C1  UNL d   1       0.734   3.570   0.210  0.00  0.00    -0.004 A 
ATOM      4  C2  UNL d   1       1.955   4.052   0.630  0.00  0.00    -0.047 A 
ATOM      5  C3  UNL d   1       2.789   2.936   0.878  0.00  0.00    -0.047 A 
ATOM      6  C4  UNL d   1       2.052   1.804   0.603  0.00  0.00    -0.004 A 
ENDROOT
TORSDOF 0
ENDMDL
