MODEL 1
REMARK minimizedAffinity -3.46877933
REMARK minimizedRMSD -1
REMARK  0 active torsions:
REMARK  status: ('A' for Active; 'I' for Inactive)
ROOT
ATOM      1  C   UNL d   1       0.456  -2.584  -2.646  0.00  0.00     0.172 C 
ATOM      2  N   UNL d   1       0.129  -2.504  -1.242  0.00  0.00    -0.070 N 
ATOM      3  C1  UNL d   1       0.092  -1.357  -0.495  0.00  0.00    -0.004 A 
ATOM      4  C2  UNL d   1      -0.261  -1.702   0.792  0.00  0.00    -0.047 A 
ATOM      5  C3  UNL d   1      -0.442  -3.105   0.820  0.00  0.00    -0.047 A 
ATOM      6  C4  UNL d   1      -0.194  -3.576  -0.452  0.00  0.00    -0.004 A 
ENDROOT
TORSDOF 0
ENDMDL
