MODEL 1
REMARK minimizedAffinity -2.5174768
REMARK minimizedRMSD -1
REMARK  0 active torsions:
REMARK  status: ('A' for Active; 'I' for Inactive)
ROOT
ATOM      1  C   UNL d   1      -0.336   1.011   0.029  0.00  0.00     0.172 C 
ATOM      2  N   UNL d   1      -0.489  -0.354   0.476  0.00  0.00    -0.070 N 
ATOM      3  C1  UNL d   1      -0.624  -0.757   1.777  0.00  0.00    -0.004 A 
ATOM      4  C2  UNL d   1      -0.745  -2.130   1.783  0.00  0.00    -0.047 A 
ATOM      5  C3  UNL d   1      -0.679  -2.567   0.439  0.00  0.00    -0.047 A 
ATOM      6  C4  UNL d   1      -0.521  -1.447  -0.350  0.00  0.00    -0.004 A 
ENDROOT
TORSDOF 0
ENDMDL
