MODEL 1
REMARK minimizedAffinity -3.99427557
REMARK minimizedRMSD -1
REMARK  0 active torsions:
REMARK  status: ('A' for Active; 'I' for Inactive)
ROOT
ATOM      1  C   UNL d   1       0.271   0.960  -0.091  0.00  0.00     0.172 C 
ATOM      2  N   UNL d   1       0.140  -0.477  -0.145  0.00  0.00    -0.070 N 
ATOM      3  C1  UNL d   1       0.100  -1.233  -1.286  0.00  0.00    -0.004 A 
ATOM      4  C2  UNL d   1      -0.030  -2.554  -0.912  0.00  0.00    -0.047 A 
ATOM      5  C3  UNL d   1      -0.070  -2.592   0.502  0.00  0.00    -0.047 A 
ATOM      6  C4  UNL d   1       0.038  -1.293   0.951  0.00  0.00    -0.004 A 
ENDROOT
TORSDOF 0
ENDMDL
