MODEL 1
REMARK minimizedAffinity -3.50797391
REMARK minimizedRMSD -1
REMARK  0 active torsions:
REMARK  status: ('A' for Active; 'I' for Inactive)
ROOT
ATOM      1  C   UNL d   1      -0.797  -2.694   0.345  0.00  0.00     0.172 C 
ATOM      2  N   UNL d   1      -0.559  -1.283   0.144  0.00  0.00    -0.070 N 
ATOM      3  C1  UNL d   1      -1.107  -0.268   0.882  0.00  0.00    -0.004 A 
ATOM      4  C2  UNL d   1      -0.634   0.923   0.378  0.00  0.00    -0.047 A 
ATOM      5  C3  UNL d   1       0.228   0.614  -0.701  0.00  0.00    -0.047 A 
ATOM      6  C4  UNL d   1       0.256  -0.759  -0.824  0.00  0.00    -0.004 A 
ENDROOT
TORSDOF 0
ENDMDL
