MODEL 1
REMARK minimizedAffinity -3.23469996
REMARK minimizedRMSD -1
REMARK  0 active torsions:
REMARK  status: ('A' for Active; 'I' for Inactive)
ROOT
ATOM      1  C   UNL d   1       0.189   0.973  -0.038  0.00  0.00     0.172 C 
ATOM      2  N   UNL d   1      -0.044  -0.440   0.146  0.00  0.00    -0.070 N 
ATOM      3  C1  UNL d   1       0.798  -1.446  -0.247  0.00  0.00    -0.004 A 
ATOM      4  C2  UNL d   1       0.219  -2.644   0.109  0.00  0.00    -0.047 A 
ATOM      5  C3  UNL d   1      -1.014  -2.348   0.738  0.00  0.00    -0.047 A 
ATOM      6  C4  UNL d   1      -1.151  -0.976   0.748  0.00  0.00    -0.004 A 
ENDROOT
TORSDOF 0
ENDMDL
