MODEL 1
REMARK minimizedAffinity -2.88863373
REMARK minimizedRMSD -1
REMARK  0 active torsions:
REMARK  status: ('A' for Active; 'I' for Inactive)
ROOT
ATOM      1  C   UNL d   1      -0.126   0.549  -0.195  0.00  0.00     0.172 C 
ATOM      2  N   UNL d   1       0.054  -0.740   0.429  0.00  0.00    -0.070 N 
ATOM      3  C1  UNL d   1      -0.487  -1.921  -0.006  0.00  0.00    -0.004 A 
ATOM      4  C2  UNL d   1      -0.079  -2.915   0.856  0.00  0.00    -0.047 A 
ATOM      5  C3  UNL d   1       0.735  -2.311   1.844  0.00  0.00    -0.047 A 
ATOM      6  C4  UNL d   1       0.800  -0.965   1.555  0.00  0.00    -0.004 A 
ENDROOT
TORSDOF 0
ENDMDL
