MODEL 1
REMARK minimizedAffinity 3.60452986
REMARK minimizedRMSD -1
REMARK  1 active torsions:
REMARK  status: ('A' for Active; 'I' for Inactive)
REMARK    1  A    between atoms: C1_2  and  C2_3 
ROOT
ATOM      1  C2  UNL d   1       0.447   0.577   2.238  0.00  0.00    -0.081 A 
ATOM      2  C3  UNL d   1      -0.175   1.714   2.767  0.00  0.00     0.006 A 
ATOM      3  C4  UNL d   1      -1.508   1.999   2.461  0.00  0.00     0.002 A 
ATOM      4  C5  UNL d   1      -2.243   1.149   1.627  0.00  0.00    -0.080 A 
ATOM      5  C6  UNL d   1      -3.683   1.428   1.315  0.00  0.00     0.076 C 
ATOM      6  C7  UNL d   1      -1.616   0.022   1.084  0.00  0.00     0.002 A 
ATOM      7  C8  UNL d   1      -0.283  -0.263   1.390  0.00  0.00     0.006 A 
ENDROOT
BRANCH   1   8
ATOM      8  C1  UNL d   1       1.864   0.231   2.618  0.00  0.00     0.054 C 
ATOM      9  C   UNL d   1       2.311  -1.070   1.966  0.00  0.00     0.018 C 
ENDBRANCH   1   8
TORSDOF 1
ENDMDL
