MODEL 1
REMARK minimizedAffinity 7.40413618
REMARK minimizedRMSD -1
REMARK  1 active torsions:
REMARK  status: ('A' for Active; 'I' for Inactive)
REMARK    1  A    between atoms: C1_2  and  C2_3 
ROOT
ATOM      1  C2  UNL d   1       2.979   0.906  -4.672  0.00  0.00    -0.081 A 
ATOM      2  C3  UNL d   1       2.241  -0.219  -5.058  0.00  0.00     0.006 A 
ATOM      3  C4  UNL d   1       2.486  -1.463  -4.471  0.00  0.00     0.002 A 
ATOM      4  C5  UNL d   1       3.466  -1.600  -3.483  0.00  0.00    -0.080 A 
ATOM      5  C6  UNL d   1       3.718  -2.923  -2.823  0.00  0.00     0.076 C 
ATOM      6  C7  UNL d   1       4.216  -0.480  -3.109  0.00  0.00     0.002 A 
ATOM      7  C8  UNL d   1       3.972   0.764  -3.697  0.00  0.00     0.006 A 
ENDROOT
BRANCH   1   8
ATOM      8  C1  UNL d   1       2.673   2.261  -5.257  0.00  0.00     0.054 C 
ATOM      9  C   UNL d   1       3.875   2.827  -6.000  0.00  0.00     0.018 C 
ENDBRANCH   1   8
TORSDOF 1
ENDMDL
