MODEL 1
REMARK minimizedAffinity 0.0833011493
REMARK minimizedRMSD -1
REMARK  1 active torsions:
REMARK  status: ('A' for Active; 'I' for Inactive)
REMARK    1  A    between atoms: C1_2  and  C2_3 
ROOT
ATOM      1  C2  UNL d   1      -3.745  -2.025   5.119  0.00  0.00    -0.081 A 
ATOM      2  C3  UNL d   1      -3.725  -1.895   3.725  0.00  0.00     0.006 A 
ATOM      3  C4  UNL d   1      -4.279  -2.886   2.912  0.00  0.00     0.002 A 
ATOM      4  C5  UNL d   1      -4.870  -4.020   3.480  0.00  0.00    -0.080 A 
ATOM      5  C6  UNL d   1      -5.496  -5.078   2.620  0.00  0.00     0.076 C 
ATOM      6  C7  UNL d   1      -4.876  -4.159   4.872  0.00  0.00     0.002 A 
ATOM      7  C8  UNL d   1      -4.321  -3.169   5.685  0.00  0.00     0.006 A 
ENDROOT
BRANCH   1   8
ATOM      8  C1  UNL d   1      -3.206  -0.927   6.000  0.00  0.00     0.054 C 
ATOM      9  C   UNL d   1      -4.126   0.285   5.998  0.00  0.00     0.018 C 
ENDBRANCH   1   8
TORSDOF 1
ENDMDL
