MODEL 1
REMARK minimizedAffinity 0.223639607
REMARK minimizedRMSD -1
REMARK  1 active torsions:
REMARK  status: ('A' for Active; 'I' for Inactive)
REMARK    1  A    between atoms: C1_2  and  C2_3 
ROOT
ATOM      1  C2  UNL d   1      -5.609   3.511   5.033  0.00  0.00    -0.081 A 
ATOM      2  C3  UNL d   1      -5.647   2.188   5.489  0.00  0.00     0.006 A 
ATOM      3  C4  UNL d   1      -5.780   1.131   4.585  0.00  0.00     0.002 A 
ATOM      4  C5  UNL d   1      -5.868   1.379   3.211  0.00  0.00    -0.080 A 
ATOM      5  C6  UNL d   1      -5.980   0.252   2.228  0.00  0.00     0.076 C 
ATOM      6  C7  UNL d   1      -5.847   2.702   2.757  0.00  0.00     0.002 A 
ATOM      7  C8  UNL d   1      -5.715   3.759   3.660  0.00  0.00     0.006 A 
ENDROOT
BRANCH   1   8
ATOM      8  C1  UNL d   1      -5.401   4.649   6.000  0.00  0.00     0.054 C 
ATOM      9  C   UNL d   1      -5.909   5.963   5.425  0.00  0.00     0.018 C 
ENDBRANCH   1   8
TORSDOF 1
ENDMDL
