MODEL 1
REMARK minimizedAffinity -2.80194807
REMARK minimizedRMSD -1
REMARK  1 active torsions:
REMARK  status: ('A' for Active; 'I' for Inactive)
REMARK    1  A    between atoms: C1_2  and  C2_3 
ROOT
ATOM      1  C2  UNL d   1      -3.379   1.372   2.880  0.00  0.00    -0.081 A 
ATOM      2  C3  UNL d   1      -3.569   1.069   1.527  0.00  0.00     0.006 A 
ATOM      3  C4  UNL d   1      -2.488   0.690   0.727  0.00  0.00     0.002 A 
ATOM      4  C5  UNL d   1      -1.202   0.599   1.270  0.00  0.00    -0.080 A 
ATOM      5  C6  UNL d   1      -0.038   0.163   0.431  0.00  0.00     0.076 C 
ATOM      6  C7  UNL d   1      -1.009   0.918   2.618  0.00  0.00     0.002 A 
ATOM      7  C8  UNL d   1      -2.089   1.298   3.418  0.00  0.00     0.006 A 
ENDROOT
BRANCH   1   8
ATOM      8  C1  UNL d   1      -4.553   1.719   3.760  0.00  0.00     0.054 C 
ATOM      9  C   UNL d   1      -5.873   1.465   3.047  0.00  0.00     0.018 C 
ENDBRANCH   1   8
TORSDOF 1
ENDMDL
