MODEL 1
REMARK minimizedAffinity 1.34284723
REMARK minimizedRMSD -1
REMARK  1 active torsions:
REMARK  status: ('A' for Active; 'I' for Inactive)
REMARK    1  A    between atoms: C1_2  and  C2_3 
ROOT
ATOM      1  C2  UNL d   1      -2.254   0.183   0.478  0.00  0.00    -0.081 A 
ATOM      2  C3  UNL d   1      -0.927  -0.079   0.841  0.00  0.00     0.006 A 
ATOM      3  C4  UNL d   1      -0.319   0.640   1.872  0.00  0.00     0.002 A 
ATOM      4  C5  UNL d   1      -1.029   1.627   2.564  0.00  0.00    -0.080 A 
ATOM      5  C6  UNL d   1      -0.398   2.385   3.694  0.00  0.00     0.076 C 
ATOM      6  C7  UNL d   1      -2.349   1.902   2.190  0.00  0.00     0.002 A 
ATOM      7  C8  UNL d   1      -2.957   1.183   1.158  0.00  0.00     0.006 A 
ENDROOT
BRANCH   1   8
ATOM      8  C1  UNL d   1      -2.932  -0.634  -0.591  0.00  0.00     0.054 C 
ATOM      9  C   UNL d   1      -2.694  -2.123  -0.383  0.00  0.00     0.018 C 
ENDBRANCH   1   8
TORSDOF 1
ENDMDL
