MODEL 1
REMARK minimizedAffinity 5.77399063
REMARK minimizedRMSD -1
REMARK  1 active torsions:
REMARK  status: ('A' for Active; 'I' for Inactive)
REMARK    1  A    between atoms: C1_2  and  C2_3 
ROOT
ATOM      1  C2  UNL d   1       4.023   3.054  -5.957  0.00  0.00    -0.081 A 
ATOM      2  C3  UNL d   1       3.431   4.323  -5.999  0.00  0.00     0.006 A 
ATOM      3  C4  UNL d   1       2.042   4.458  -5.935  0.00  0.00     0.002 A 
ATOM      4  C5  UNL d   1       1.223   3.330  -5.820  0.00  0.00    -0.080 A 
ATOM      5  C6  UNL d   1      -0.267   3.464  -5.720  0.00  0.00     0.076 C 
ATOM      6  C7  UNL d   1       1.814   2.062  -5.796  0.00  0.00     0.002 A 
ATOM      7  C8  UNL d   1       3.202   1.925  -5.860  0.00  0.00     0.006 A 
ENDROOT
BRANCH   1   8
ATOM      8  C1  UNL d   1       5.523   2.908  -5.960  0.00  0.00     0.054 C 
ATOM      9  C   UNL d   1       5.999   2.057  -4.792  0.00  0.00     0.018 C 
ENDBRANCH   1   8
TORSDOF 1
ENDMDL
