MODEL 1
REMARK minimizedAffinity 10.8653183
REMARK minimizedRMSD -1
REMARK  1 active torsions:
REMARK  status: ('A' for Active; 'I' for Inactive)
REMARK    1  A    between atoms: C1_2  and  C2_3 
ROOT
ATOM      1  C2  UNL d   1      -4.506   1.427   2.264  0.00  0.00    -0.081 A 
ATOM      2  C3  UNL d   1      -3.404   1.850   3.017  0.00  0.00     0.006 A 
ATOM      3  C4  UNL d   1      -2.106   1.524   2.616  0.00  0.00     0.002 A 
ATOM      4  C5  UNL d   1      -1.888   0.778   1.453  0.00  0.00    -0.080 A 
ATOM      5  C6  UNL d   1      -0.499   0.447   0.995  0.00  0.00     0.076 C 
ATOM      6  C7  UNL d   1      -2.990   0.340   0.711  0.00  0.00     0.002 A 
ATOM      7  C8  UNL d   1      -4.288   0.665   1.111  0.00  0.00     0.006 A 
ENDROOT
BRANCH   1   8
ATOM      8  C1  UNL d   1      -5.904   1.831   2.658  0.00  0.00     0.054 C 
ATOM      9  C   UNL d   1      -5.999   2.109   4.152  0.00  0.00     0.018 C 
ENDBRANCH   1   8
TORSDOF 1
ENDMDL
