MODEL 1
REMARK minimizedAffinity 5.47385073
REMARK minimizedRMSD -1
REMARK  1 active torsions:
REMARK  status: ('A' for Active; 'I' for Inactive)
REMARK    1  A    between atoms: C1_2  and  C2_3 
ROOT
ATOM      1  C2  UNL d   1       1.125   0.300   0.788  0.00  0.00    -0.081 A 
ATOM      2  C3  UNL d   1      -0.163  -0.104   0.417  0.00  0.00     0.006 A 
ATOM      3  C4  UNL d   1      -1.272   0.288   1.170  0.00  0.00     0.002 A 
ATOM      4  C5  UNL d   1      -1.113   1.096   2.301  0.00  0.00    -0.080 A 
ATOM      5  C6  UNL d   1      -2.299   1.549   3.101  0.00  0.00     0.076 C 
ATOM      6  C7  UNL d   1       0.175   1.486   2.682  0.00  0.00     0.002 A 
ATOM      7  C8  UNL d   1       1.285   1.094   1.930  0.00  0.00     0.006 A 
ENDROOT
BRANCH   1   8
ATOM      8  C1  UNL d   1       2.317  -0.067  -0.058  0.00  0.00     0.054 C 
ATOM      9  C   UNL d   1       3.597  -0.086   0.766  0.00  0.00     0.018 C 
ENDBRANCH   1   8
TORSDOF 1
ENDMDL
