MODEL 1
REMARK minimizedAffinity 0.462037861
REMARK minimizedRMSD -1
REMARK  1 active torsions:
REMARK  status: ('A' for Active; 'I' for Inactive)
REMARK    1  A    between atoms: C1_2  and  C2_3 
ROOT
ATOM      1  C2  UNL d   1       0.383  -0.014   1.116  0.00  0.00    -0.081 A 
ATOM      2  C3  UNL d   1      -0.856  -0.149   0.478  0.00  0.00     0.006 A 
ATOM      3  C4  UNL d   1      -1.998   0.454   1.011  0.00  0.00     0.002 A 
ATOM      4  C5  UNL d   1      -1.918   1.209   2.186  0.00  0.00    -0.080 A 
ATOM      5  C6  UNL d   1      -3.130   1.887   2.753  0.00  0.00     0.076 C 
ATOM      6  C7  UNL d   1      -0.684   1.330   2.834  0.00  0.00     0.002 A 
ATOM      7  C8  UNL d   1       0.458   0.726   2.301  0.00  0.00     0.006 A 
ENDROOT
BRANCH   1   8
ATOM      8  C1  UNL d   1       1.627  -0.609   0.509  0.00  0.00     0.054 C 
ATOM      9  C   UNL d   1       2.437   0.443  -0.236  0.00  0.00     0.018 C 
ENDBRANCH   1   8
TORSDOF 1
ENDMDL
