MODEL 1
REMARK minimizedAffinity 1.33140135
REMARK minimizedRMSD -1
REMARK  1 active torsions:
REMARK  status: ('A' for Active; 'I' for Inactive)
REMARK    1  A    between atoms: C1_2  and  C2_3 
ROOT
ATOM      1  C2  UNL d   1       1.748   4.136  -2.294  0.00  0.00    -0.081 A 
ATOM      2  C3  UNL d   1       1.282   5.455  -2.348  0.00  0.00     0.006 A 
ATOM      3  C4  UNL d   1       0.808   5.990  -3.548  0.00  0.00     0.002 A 
ATOM      4  C5  UNL d   1       0.785   5.213  -4.711  0.00  0.00    -0.080 A 
ATOM      5  C6  UNL d   1       0.250   5.765  -5.999  0.00  0.00     0.076 C 
ATOM      6  C7  UNL d   1       1.267   3.901  -4.662  0.00  0.00     0.002 A 
ATOM      7  C8  UNL d   1       1.742   3.366  -3.462  0.00  0.00     0.006 A 
ENDROOT
BRANCH   1   8
ATOM      8  C1  UNL d   1       2.200   3.535  -0.987  0.00  0.00     0.054 C 
ATOM      9  C   UNL d   1       2.910   2.207  -1.205  0.00  0.00     0.018 C 
ENDBRANCH   1   8
TORSDOF 1
ENDMDL
