MODEL 1
REMARK minimizedAffinity 5.96584606
REMARK minimizedRMSD -1
REMARK  1 active torsions:
REMARK  status: ('A' for Active; 'I' for Inactive)
REMARK    1  A    between atoms: C1_2  and  C2_3 
ROOT
ATOM      1  C2  UNL d   1       0.095   0.107   0.982  0.00  0.00    -0.081 A 
ATOM      2  C3  UNL d   1      -1.186   0.203   0.425  0.00  0.00     0.006 A 
ATOM      3  C4  UNL d   1      -2.198   0.898   1.091  0.00  0.00     0.002 A 
ATOM      4  C5  UNL d   1      -1.945   1.514   2.321  0.00  0.00    -0.080 A 
ATOM      5  C6  UNL d   1      -3.015   2.288   3.033  0.00  0.00     0.076 C 
ATOM      6  C7  UNL d   1      -0.671   1.403   2.887  0.00  0.00     0.002 A 
ATOM      7  C8  UNL d   1       0.342   0.708   2.222  0.00  0.00     0.006 A 
ENDROOT
BRANCH   1   8
ATOM      8  C1  UNL d   1       1.206  -0.586   0.236  0.00  0.00     0.054 C 
ATOM      9  C   UNL d   1       2.127   0.418  -0.442  0.00  0.00     0.018 C 
ENDBRANCH   1   8
TORSDOF 1
ENDMDL
