MODEL 1
REMARK minimizedAffinity 0.286037654
REMARK minimizedRMSD -1
REMARK  0 active torsions:
REMARK  status: ('A' for Active; 'I' for Inactive)
ROOT
ATOM      1  C1  BNZ d   1      -3.670   3.657   4.119  0.00  0.00     0.000 A 
ATOM      2  C2  BNZ d   1      -3.689   4.116   5.410  0.00  0.00     0.000 A 
ATOM      3  C3  BNZ d   1      -4.859   4.514   5.994  0.00  0.00     0.000 A 
ATOM      4  C4  BNZ d   1      -6.000   4.492   5.275  0.00  0.00     0.000 A 
ATOM      5  C5  BNZ d   1      -5.996   4.042   3.970  0.00  0.00     0.000 A 
ATOM      6  C6  BNZ d   1      -4.823   3.604   3.398  0.00  0.00     0.000 A 
ENDROOT
TORSDOF 0
ENDMDL
