MODEL 1
REMARK minimizedAffinity 2.7597661
REMARK minimizedRMSD -1
REMARK  0 active torsions:
REMARK  status: ('A' for Active; 'I' for Inactive)
ROOT
ATOM      1  C1  BNZ d   1       0.940   1.308  -2.931  0.00  0.00     0.000 A 
ATOM      2  C2  BNZ d   1       0.582   0.206  -2.203  0.00  0.00     0.000 A 
ATOM      3  C3  BNZ d   1      -0.640  -0.381  -2.376  0.00  0.00     0.000 A 
ATOM      4  C4  BNZ d   1      -1.517   0.159  -3.248  0.00  0.00     0.000 A 
ATOM      5  C5  BNZ d   1      -1.174   1.276  -3.983  0.00  0.00     0.000 A 
ATOM      6  C6  BNZ d   1       0.072   1.841  -3.834  0.00  0.00     0.000 A 
ENDROOT
TORSDOF 0
ENDMDL
