MODEL 1
REMARK minimizedAffinity 5.55099106
REMARK minimizedRMSD -1
REMARK  0 active torsions:
REMARK  status: ('A' for Active; 'I' for Inactive)
ROOT
ATOM      1  C1  BNZ d   1       3.150   4.281  -0.337  0.00  0.00     0.000 A 
ATOM      2  C2  BNZ d   1       3.509   3.964  -1.620  0.00  0.00     0.000 A 
ATOM      3  C3  BNZ d   1       4.566   3.134  -1.866  0.00  0.00     0.000 A 
ATOM      4  C4  BNZ d   1       5.287   2.654  -0.832  0.00  0.00     0.000 A 
ATOM      5  C5  BNZ d   1       4.944   2.972   0.467  0.00  0.00     0.000 A 
ATOM      6  C6  BNZ d   1       3.855   3.776   0.712  0.00  0.00     0.000 A 
ENDROOT
TORSDOF 0
ENDMDL
