MODEL 1
REMARK minimizedAffinity 3.08609509
REMARK minimizedRMSD -1
REMARK  0 active torsions:
REMARK  status: ('A' for Active; 'I' for Inactive)
ROOT
ATOM      1  C1  BNZ d   1      -1.876  -2.494   4.906  0.00  0.00     0.000 A 
ATOM      2  C2  BNZ d   1      -2.699  -2.443   6.000  0.00  0.00     0.000 A 
ATOM      3  C3  BNZ d   1      -3.904  -3.087   6.000  0.00  0.00     0.000 A 
ATOM      4  C4  BNZ d   1      -4.303  -3.747   4.893  0.00  0.00     0.000 A 
ATOM      5  C5  BNZ d   1      -3.489  -3.800   3.779  0.00  0.00     0.000 A 
ATOM      6  C6  BNZ d   1      -2.259  -3.183   3.797  0.00  0.00     0.000 A 
ENDROOT
TORSDOF 0
ENDMDL
