MODEL 1
REMARK minimizedAffinity 9.30733109
REMARK minimizedRMSD -1
REMARK  0 active torsions:
REMARK  status: ('A' for Active; 'I' for Inactive)
ROOT
ATOM      1  C1  BNZ d   1      -0.927  -2.874   1.521  0.00  0.00     0.000 A 
ATOM      2  C2  BNZ d   1      -1.215  -2.907   0.183  0.00  0.00     0.000 A 
ATOM      3  C3  BNZ d   1      -1.311  -1.751  -0.541  0.00  0.00     0.000 A 
ATOM      4  C4  BNZ d   1      -1.158  -0.565   0.082  0.00  0.00     0.000 A 
ATOM      5  C5  BNZ d   1      -0.877  -0.515   1.433  0.00  0.00     0.000 A 
ATOM      6  C6  BNZ d   1      -0.742  -1.682   2.150  0.00  0.00     0.000 A 
ENDROOT
TORSDOF 0
ENDMDL
