MODEL 1
REMARK minimizedAffinity -2.21338725
REMARK minimizedRMSD -1
REMARK  0 active torsions:
REMARK  status: ('A' for Active; 'I' for Inactive)
ROOT
ATOM      1  C1  BNZ d   1      -3.802   4.659  -4.120  0.00  0.00     0.000 A 
ATOM      2  C2  BNZ d   1      -4.903   4.951  -3.360  0.00  0.00     0.000 A 
ATOM      3  C3  BNZ d   1      -6.000   5.547  -3.917  0.00  0.00     0.000 A 
ATOM      4  C4  BNZ d   1      -5.978   5.888  -5.221  0.00  0.00     0.000 A 
ATOM      5  C5  BNZ d   1      -4.872   5.610  -5.999  0.00  0.00     0.000 A 
ATOM      6  C6  BNZ d   1      -3.785   4.973  -5.444  0.00  0.00     0.000 A 
ENDROOT
TORSDOF 0
ENDMDL
