MODEL 1
REMARK minimizedAffinity -1.90192676
REMARK minimizedRMSD -1
REMARK  0 active torsions:
REMARK  status: ('A' for Active; 'I' for Inactive)
ROOT
ATOM      1  C1  BNZ d   1      -4.949   5.790  -3.294  0.00  0.00     0.000 A 
ATOM      2  C2  BNZ d   1      -5.997   6.000  -4.151  0.00  0.00     0.000 A 
ATOM      3  C3  BNZ d   1      -5.806   6.000  -5.504  0.00  0.00     0.000 A 
ATOM      4  C4  BNZ d   1      -4.562   5.830  -5.998  0.00  0.00     0.000 A 
ATOM      5  C5  BNZ d   1      -3.494   5.626  -5.147  0.00  0.00     0.000 A 
ATOM      6  C6  BNZ d   1      -3.697   5.588  -3.787  0.00  0.00     0.000 A 
ENDROOT
TORSDOF 0
ENDMDL
