MODEL 1
REMARK minimizedAffinity 6.50515556
REMARK minimizedRMSD -1
REMARK  0 active torsions:
REMARK  status: ('A' for Active; 'I' for Inactive)
ROOT
ATOM      1  C1  BNZ d   1      -5.492   3.671   3.508  0.00  0.00     0.000 A 
ATOM      2  C2  BNZ d   1      -5.999   4.841   4.006  0.00  0.00     0.000 A 
ATOM      3  C3  BNZ d   1      -5.924   6.000   3.286  0.00  0.00     0.000 A 
ATOM      4  C4  BNZ d   1      -5.307   5.996   2.086  0.00  0.00     0.000 A 
ATOM      5  C5  BNZ d   1      -4.782   4.826   1.574  0.00  0.00     0.000 A 
ATOM      6  C6  BNZ d   1      -4.894   3.653   2.285  0.00  0.00     0.000 A 
ENDROOT
TORSDOF 0
ENDMDL
