MODEL 1
REMARK minimizedAffinity 0.48869738
REMARK minimizedRMSD -1
REMARK  0 active torsions:
REMARK  status: ('A' for Active; 'I' for Inactive)
ROOT
ATOM      1  C1  BNZ d   1       4.885   5.320   3.884  0.00  0.00     0.000 A 
ATOM      2  C2  BNZ d   1       5.452   5.986   4.938  0.00  0.00     0.000 A 
ATOM      3  C3  BNZ d   1       5.999   5.301   5.986  0.00  0.00     0.000 A 
ATOM      4  C4  BNZ d   1       5.944   3.954   5.999  0.00  0.00     0.000 A 
ATOM      5  C5  BNZ d   1       5.368   3.268   4.948  0.00  0.00     0.000 A 
ATOM      6  C6  BNZ d   1       4.853   3.959   3.876  0.00  0.00     0.000 A 
ENDROOT
TORSDOF 0
ENDMDL
