MODEL 1
REMARK minimizedAffinity -2.96912527
REMARK minimizedRMSD -1
REMARK  0 active torsions:
REMARK  status: ('A' for Active; 'I' for Inactive)
ROOT
ATOM      1  C1  BNZ d   1      -5.575   4.183  -5.142  0.00  0.00     0.000 A 
ATOM      2  C2  BNZ d   1      -4.804   3.444  -5.999  0.00  0.00     0.000 A 
ATOM      3  C3  BNZ d   1      -3.439   3.502  -5.940  0.00  0.00     0.000 A 
ATOM      4  C4  BNZ d   1      -2.849   4.328  -5.052  0.00  0.00     0.000 A 
ATOM      5  C5  BNZ d   1      -3.613   5.086  -4.188  0.00  0.00     0.000 A 
ATOM      6  C6  BNZ d   1      -4.985   4.996  -4.224  0.00  0.00     0.000 A 
ENDROOT
TORSDOF 0
ENDMDL
