MODEL 1
REMARK minimizedAffinity 0.157813355
REMARK minimizedRMSD -1
REMARK  0 active torsions:
REMARK  status: ('A' for Active; 'I' for Inactive)
ROOT
ATOM      1  C1  BNZ d   1      -4.953   3.158   5.997  0.00  0.00     0.000 A 
ATOM      2  C2  BNZ d   1      -4.174   2.053   5.778  0.00  0.00     0.000 A 
ATOM      3  C3  BNZ d   1      -2.829   2.175   5.570  0.00  0.00     0.000 A 
ATOM      4  C4  BNZ d   1      -2.271   3.403   5.541  0.00  0.00     0.000 A 
ATOM      5  C5  BNZ d   1      -3.045   4.527   5.752  0.00  0.00     0.000 A 
ATOM      6  C6  BNZ d   1      -4.392   4.397   5.999  0.00  0.00     0.000 A 
ENDROOT
TORSDOF 0
ENDMDL
