MODEL 1
REMARK minimizedAffinity -2.04370952
REMARK minimizedRMSD -1
REMARK  0 active torsions:
REMARK  status: ('A' for Active; 'I' for Inactive)
ROOT
ATOM      1  C1  BNZ d   1      -3.527   2.678   5.919  0.00  0.00     0.000 A 
ATOM      2  C2  BNZ d   1      -3.662   4.041   5.948  0.00  0.00     0.000 A 
ATOM      3  C3  BNZ d   1      -4.899   4.621   5.996  0.00  0.00     0.000 A 
ATOM      4  C4  BNZ d   1      -5.998   3.840   5.974  0.00  0.00     0.000 A 
ATOM      5  C5  BNZ d   1      -5.879   2.465   5.935  0.00  0.00     0.000 A 
ATOM      6  C6  BNZ d   1      -4.632   1.884   5.926  0.00  0.00     0.000 A 
ENDROOT
TORSDOF 0
ENDMDL
