MODEL 1
REMARK minimizedAffinity 2.88207483
REMARK minimizedRMSD -1
REMARK  0 active torsions:
REMARK  status: ('A' for Active; 'I' for Inactive)
ROOT
ATOM      1  C1  BNZ d   1      -2.923  -0.683   1.408  0.00  0.00     0.000 A 
ATOM      2  C2  BNZ d   1      -2.555  -0.292   0.148  0.00  0.00     0.000 A 
ATOM      3  C3  BNZ d   1      -1.518  -0.902  -0.500  0.00  0.00     0.000 A 
ATOM      4  C4  BNZ d   1      -0.824  -1.874   0.127  0.00  0.00     0.000 A 
ATOM      5  C5  BNZ d   1      -1.177  -2.273   1.401  0.00  0.00     0.000 A 
ATOM      6  C6  BNZ d   1      -2.246  -1.684   2.035  0.00  0.00     0.000 A 
ENDROOT
TORSDOF 0
ENDMDL
