MODEL 1
REMARK minimizedAffinity 4.83233166
REMARK minimizedRMSD -1
REMARK  0 active torsions:
REMARK  status: ('A' for Active; 'I' for Inactive)
ROOT
ATOM      1  C1  BNZ d   1      -0.347  -1.850   1.147  0.00  0.00     0.000 A 
ATOM      2  C2  BNZ d   1      -0.055  -1.517  -0.149  0.00  0.00     0.000 A 
ATOM      3  C3  BNZ d   1      -0.765  -0.546  -0.799  0.00  0.00     0.000 A 
ATOM      4  C4  BNZ d   1      -1.790   0.061  -0.167  0.00  0.00     0.000 A 
ATOM      5  C5  BNZ d   1      -2.103  -0.271   1.136  0.00  0.00     0.000 A 
ATOM      6  C6  BNZ d   1      -1.361  -1.221   1.800  0.00  0.00     0.000 A 
ENDROOT
TORSDOF 0
ENDMDL
