MODEL 1
REMARK minimizedAffinity -3.40389252
REMARK minimizedRMSD -1
REMARK  0 active torsions:
REMARK  status: ('A' for Active; 'I' for Inactive)
ROOT
ATOM      1  C1  BNZ d   1       1.453   0.841   4.035  0.00  0.00     0.000 A 
ATOM      2  C2  BNZ d   1       2.544   0.661   3.227  0.00  0.00     0.000 A 
ATOM      3  C3  BNZ d   1       2.400   0.547   1.872  0.00  0.00     0.000 A 
ATOM      4  C4  BNZ d   1       1.165   0.572   1.332  0.00  0.00     0.000 A 
ATOM      5  C5  BNZ d   1       0.054   0.743   2.135  0.00  0.00     0.000 A 
ATOM      6  C6  BNZ d   1       0.206   0.897   3.494  0.00  0.00     0.000 A 
ENDROOT
TORSDOF 0
ENDMDL
