MODEL 1
REMARK minimizedAffinity 15.5835333
REMARK minimizedRMSD -1
REMARK  0 active torsions:
REMARK  status: ('A' for Active; 'I' for Inactive)
ROOT
ATOM      1  C1  BNZ d   1      -1.936   2.931   3.195  0.00  0.00     0.000 A 
ATOM      2  C2  BNZ d   1      -1.067   3.739   2.511  0.00  0.00     0.000 A 
ATOM      3  C3  BNZ d   1      -1.061   3.761   1.145  0.00  0.00     0.000 A 
ATOM      4  C4  BNZ d   1      -1.893   2.947   0.464  0.00  0.00     0.000 A 
ATOM      5  C5  BNZ d   1      -2.769   2.120   1.139  0.00  0.00     0.000 A 
ATOM      6  C6  BNZ d   1      -2.800   2.129   2.515  0.00  0.00     0.000 A 
ENDROOT
TORSDOF 0
ENDMDL
