MODEL 1
REMARK minimizedAffinity -4.64752579
REMARK minimizedRMSD -1
REMARK  0 active torsions:
REMARK  status: ('A' for Active; 'I' for Inactive)
ROOT
ATOM      1  C   UNL d   1      -0.386   0.474   0.194  0.00  0.00     0.078 C 
ATOM      2  C1  UNL d   1       0.821   0.496  -0.695  0.00  0.00    -0.077 A 
ATOM      3  C2  UNL d   1       1.752  -0.550  -0.673  0.00  0.00    -0.001 A 
ATOM      4  C3  UNL d   1       2.876  -0.511  -1.499  0.00  0.00     0.003 A 
ATOM      5  C4  UNL d   1       3.081   0.572  -2.352  0.00  0.00    -0.005 A 
ATOM      6  C5  UNL d   1       2.162   1.619  -2.378  0.00  0.00     0.003 A 
ATOM      7  C6  UNL d   1       1.037   1.582  -1.553  0.00  0.00    -0.001 A 
ENDROOT
TORSDOF 0
ENDMDL
