MODEL 1
REMARK minimizedAffinity -5.88767529
REMARK minimizedRMSD -1
REMARK  0 active torsions:
REMARK  status: ('A' for Active; 'I' for Inactive)
ROOT
ATOM      1  C   UNL d   1      -1.066   0.123   0.663  0.00  0.00     0.078 C 
ATOM      2  C1  UNL d   1       0.181  -0.147  -0.126  0.00  0.00    -0.077 A 
ATOM      3  C2  UNL d   1       0.752   0.845  -0.933  0.00  0.00    -0.001 A 
ATOM      4  C3  UNL d   1       1.907   0.577  -1.669  0.00  0.00     0.003 A 
ATOM      5  C4  UNL d   1       2.500  -0.682  -1.607  0.00  0.00    -0.005 A 
ATOM      6  C5  UNL d   1       1.938  -1.676  -0.809  0.00  0.00     0.003 A 
ATOM      7  C6  UNL d   1       0.783  -1.410  -0.071  0.00  0.00    -0.001 A 
ENDROOT
TORSDOF 0
ENDMDL
