MODEL 1
REMARK minimizedAffinity -4.76713991
REMARK minimizedRMSD -1
REMARK  0 active torsions:
REMARK  status: ('A' for Active; 'I' for Inactive)
ROOT
ATOM      1  C   UNL d   1       3.038  -0.363  -1.843  0.00  0.00     0.078 C 
ATOM      2  C1  UNL d   1       1.742  -0.485  -1.098  0.00  0.00    -0.077 A 
ATOM      3  C2  UNL d   1       1.339  -1.709  -0.549  0.00  0.00    -0.001 A 
ATOM      4  C3  UNL d   1       0.125  -1.810   0.133  0.00  0.00     0.003 A 
ATOM      5  C4  UNL d   1      -0.695  -0.693   0.271  0.00  0.00    -0.005 A 
ATOM      6  C5  UNL d   1      -0.303   0.528  -0.274  0.00  0.00     0.003 A 
ATOM      7  C6  UNL d   1       0.910   0.632  -0.956  0.00  0.00    -0.001 A 
ENDROOT
TORSDOF 0
ENDMDL
