MODEL 1
REMARK minimizedAffinity -5.44503641
REMARK minimizedRMSD -1
REMARK  0 active torsions:
REMARK  status: ('A' for Active; 'I' for Inactive)
ROOT
ATOM      1  C   UNL d   1      -0.811   0.738   0.369  0.00  0.00     0.078 C 
ATOM      2  C1  UNL d   1       0.406   0.549  -0.487  0.00  0.00    -0.077 A 
ATOM      3  C2  UNL d   1       0.748   1.483  -1.472  0.00  0.00    -0.001 A 
ATOM      4  C3  UNL d   1       1.878   1.289  -2.268  0.00  0.00     0.003 A 
ATOM      5  C4  UNL d   1       2.674   0.160  -2.088  0.00  0.00    -0.005 A 
ATOM      6  C5  UNL d   1       2.340  -0.777  -1.112  0.00  0.00     0.003 A 
ATOM      7  C6  UNL d   1       1.211  -0.585  -0.315  0.00  0.00    -0.001 A 
ENDROOT
TORSDOF 0
ENDMDL
