MODEL 1
REMARK minimizedAffinity -4.54687595
REMARK minimizedRMSD -1
REMARK  0 active torsions:
REMARK  status: ('A' for Active; 'I' for Inactive)
ROOT
ATOM      1  C   UNL d   1       3.283  -0.669  -1.514  0.00  0.00     0.078 C 
ATOM      2  C1  UNL d   1       1.923  -0.528  -0.897  0.00  0.00    -0.077 A 
ATOM      3  C2  UNL d   1       1.243  -1.642  -0.389  0.00  0.00    -0.001 A 
ATOM      4  C3  UNL d   1      -0.026  -1.497   0.174  0.00  0.00     0.003 A 
ATOM      5  C4  UNL d   1      -0.626  -0.241   0.233  0.00  0.00    -0.005 A 
ATOM      6  C5  UNL d   1       0.042   0.872  -0.272  0.00  0.00     0.003 A 
ATOM      7  C6  UNL d   1       1.311   0.730  -0.835  0.00  0.00    -0.001 A 
ENDROOT
TORSDOF 0
ENDMDL
