MODEL 1
REMARK minimizedAffinity -5.53075552
REMARK minimizedRMSD -1
REMARK  0 active torsions:
REMARK  status: ('A' for Active; 'I' for Inactive)
ROOT
ATOM      1  C   UNL d   1      -0.802   0.289   0.821  0.00  0.00     0.078 C 
ATOM      2  C1  UNL d   1       0.381  -0.131   0.002  0.00  0.00    -0.077 A 
ATOM      3  C2  UNL d   1       1.138   0.809  -0.707  0.00  0.00    -0.001 A 
ATOM      4  C3  UNL d   1       2.232   0.402  -1.474  0.00  0.00     0.003 A 
ATOM      5  C4  UNL d   1       2.577  -0.946  -1.539  0.00  0.00    -0.005 A 
ATOM      6  C5  UNL d   1       1.829  -1.889  -0.838  0.00  0.00     0.003 A 
ATOM      7  C6  UNL d   1       0.735  -1.485  -0.071  0.00  0.00    -0.001 A 
ENDROOT
TORSDOF 0
ENDMDL
