MODEL 1
REMARK minimizedAffinity -2.32098293
REMARK minimizedRMSD -1
REMARK  0 active torsions:
REMARK  status: ('A' for Active; 'I' for Inactive)
ROOT
ATOM      1  C   UNL d   1       3.502  -0.639  -1.390  0.00  0.00     0.078 C 
ATOM      2  C1  UNL d   1       2.204  -0.555  -0.644  0.00  0.00    -0.077 A 
ATOM      3  C2  UNL d   1       1.085  -1.287  -1.059  0.00  0.00    -0.001 A 
ATOM      4  C3  UNL d   1      -0.120  -1.192  -0.361  0.00  0.00     0.003 A 
ATOM      5  C4  UNL d   1      -0.217  -0.365   0.756  0.00  0.00    -0.005 A 
ATOM      6  C5  UNL d   1       0.890   0.369   1.176  0.00  0.00     0.003 A 
ATOM      7  C6  UNL d   1       2.096   0.276   0.479  0.00  0.00    -0.001 A 
ENDROOT
TORSDOF 0
ENDMDL
