MODEL 1
REMARK minimizedAffinity -4.51993799
REMARK minimizedRMSD -1
REMARK  0 active torsions:
REMARK  status: ('A' for Active; 'I' for Inactive)
ROOT
ATOM      1  C   UNL d   1       2.655  -0.675  -0.560  0.00  0.00     0.078 C 
ATOM      2  C1  UNL d   1       1.198  -0.459  -0.280  0.00  0.00    -0.077 A 
ATOM      3  C2  UNL d   1       0.673   0.832  -0.148  0.00  0.00    -0.001 A 
ATOM      4  C3  UNL d   1      -0.684   1.018   0.122  0.00  0.00     0.003 A 
ATOM      5  C4  UNL d   1      -1.526  -0.082   0.265  0.00  0.00    -0.005 A 
ATOM      6  C5  UNL d   1      -1.012  -1.371   0.138  0.00  0.00     0.003 A 
ATOM      7  C6  UNL d   1       0.344  -1.559  -0.133  0.00  0.00    -0.001 A 
ENDROOT
TORSDOF 0
ENDMDL
