MODEL 1
REMARK minimizedAffinity -1.58484662
REMARK minimizedRMSD -1
REMARK  0 active torsions:
REMARK  status: ('A' for Active; 'I' for Inactive)
ROOT
ATOM      1  C   UNL d   1      -0.010   2.221  -1.221  0.00  0.00     0.078 C 
ATOM      2  C1  UNL d   1       0.827   1.010  -1.504  0.00  0.00    -0.077 A 
ATOM      3  C2  UNL d   1       0.846  -0.076  -0.621  0.00  0.00    -0.001 A 
ATOM      4  C3  UNL d   1       1.638  -1.193  -0.892  0.00  0.00     0.003 A 
ATOM      5  C4  UNL d   1       2.418  -1.234  -2.046  0.00  0.00    -0.005 A 
ATOM      6  C5  UNL d   1       2.407  -0.157  -2.930  0.00  0.00     0.003 A 
ATOM      7  C6  UNL d   1       1.616   0.961  -2.660  0.00  0.00    -0.001 A 
ENDROOT
TORSDOF 0
ENDMDL
