MODEL 1
REMARK minimizedAffinity -5.26616192
REMARK minimizedRMSD -1
REMARK  0 active torsions:
REMARK  status: ('A' for Active; 'I' for Inactive)
ROOT
ATOM      1  C   UNL d   1       0.633  -1.048   0.320  0.00  0.00     0.078 C 
ATOM      2  C1  UNL d   1       1.459  -0.275  -0.665  0.00  0.00    -0.077 A 
ATOM      3  C2  UNL d   1       1.084   1.013  -1.066  0.00  0.00    -0.001 A 
ATOM      4  C3  UNL d   1       1.857   1.716  -1.991  0.00  0.00     0.003 A 
ATOM      5  C4  UNL d   1       3.008   1.140  -2.524  0.00  0.00    -0.005 A 
ATOM      6  C5  UNL d   1       3.388  -0.142  -2.132  0.00  0.00     0.003 A 
ATOM      7  C6  UNL d   1       2.616  -0.848  -1.207  0.00  0.00    -0.001 A 
ENDROOT
TORSDOF 0
ENDMDL
