MODEL 1
REMARK minimizedAffinity -4.8591404
REMARK minimizedRMSD -1
REMARK  0 active torsions:
REMARK  status: ('A' for Active; 'I' for Inactive)
ROOT
ATOM      1  C   UNL d   1       3.377  -0.385  -1.139  0.00  0.00     0.078 C 
ATOM      2  C1  UNL d   1       1.938  -0.369  -0.716  0.00  0.00    -0.077 A 
ATOM      3  C2  UNL d   1       1.226   0.834  -0.625  0.00  0.00    -0.001 A 
ATOM      4  C3  UNL d   1      -0.110   0.834  -0.220  0.00  0.00     0.003 A 
ATOM      5  C4  UNL d   1      -0.745  -0.365   0.097  0.00  0.00    -0.005 A 
ATOM      6  C5  UNL d   1      -0.044  -1.566   0.012  0.00  0.00     0.003 A 
ATOM      7  C6  UNL d   1       1.292  -1.568  -0.392  0.00  0.00    -0.001 A 
ENDROOT
TORSDOF 0
ENDMDL
