MODEL 1
REMARK minimizedAffinity -3.90047908
REMARK minimizedRMSD -1
REMARK  0 active torsions:
REMARK  status: ('A' for Active; 'I' for Inactive)
ROOT
ATOM      1  C   UNL d   1       2.974  -0.150  -1.182  0.00  0.00     0.078 C 
ATOM      2  C1  UNL d   1       1.563   0.270  -0.893  0.00  0.00    -0.077 A 
ATOM      3  C2  UNL d   1       0.734  -0.503  -0.072  0.00  0.00    -0.001 A 
ATOM      4  C3  UNL d   1      -0.579  -0.105   0.181  0.00  0.00     0.003 A 
ATOM      5  C4  UNL d   1      -1.076   1.067  -0.385  0.00  0.00    -0.005 A 
ATOM      6  C5  UNL d   1      -0.259   1.843  -1.205  0.00  0.00     0.003 A 
ATOM      7  C6  UNL d   1       1.055   1.446  -1.459  0.00  0.00    -0.001 A 
ENDROOT
TORSDOF 0
ENDMDL
