MODEL 1
REMARK minimizedAffinity -5.71647072
REMARK minimizedRMSD -1
REMARK  0 active torsions:
REMARK  status: ('A' for Active; 'I' for Inactive)
ROOT
ATOM      1  C   UNL d   1      -1.042   0.378   0.260  0.00  0.00     0.078 C 
ATOM      2  C1  UNL d   1       0.189   0.225  -0.582  0.00  0.00    -0.077 A 
ATOM      3  C2  UNL d   1       0.852  -1.005  -0.674  0.00  0.00    -0.001 A 
ATOM      4  C3  UNL d   1       2.003  -1.130  -1.453  0.00  0.00     0.003 A 
ATOM      5  C4  UNL d   1       2.502  -0.029  -2.146  0.00  0.00    -0.005 A 
ATOM      6  C5  UNL d   1       1.850   1.199  -2.059  0.00  0.00     0.003 A 
ATOM      7  C6  UNL d   1       0.699   1.327  -1.280  0.00  0.00    -0.001 A 
ENDROOT
TORSDOF 0
ENDMDL
