MODEL 1
REMARK minimizedAffinity -4.56916857
REMARK minimizedRMSD -1
REMARK  0 active torsions:
REMARK  status: ('A' for Active; 'I' for Inactive)
ROOT
ATOM      1  C   UNL d   1       3.170  -0.631  -1.232  0.00  0.00     0.078 C 
ATOM      2  C1  UNL d   1       1.749  -0.568  -0.756  0.00  0.00    -0.077 A 
ATOM      3  C2  UNL d   1       1.058   0.649  -0.705  0.00  0.00    -0.001 A 
ATOM      4  C3  UNL d   1      -0.261   0.693  -0.251  0.00  0.00     0.003 A 
ATOM      5  C4  UNL d   1      -0.900  -0.476   0.157  0.00  0.00    -0.005 A 
ATOM      6  C5  UNL d   1      -0.220  -1.691   0.112  0.00  0.00     0.003 A 
ATOM      7  C6  UNL d   1       1.099  -1.738  -0.342  0.00  0.00    -0.001 A 
ENDROOT
TORSDOF 0
ENDMDL
