MODEL 1
REMARK minimizedAffinity -2.30976319
REMARK minimizedRMSD -1
REMARK  0 active torsions:
REMARK  status: ('A' for Active; 'I' for Inactive)
ROOT
ATOM      1  C   UNL d   1      -1.599   0.828   1.166  0.00  0.00     0.078 C 
ATOM      2  C1  UNL d   1      -0.545  -0.031   0.535  0.00  0.00    -0.077 A 
ATOM      3  C2  UNL d   1      -0.492  -1.408   0.783  0.00  0.00    -0.001 A 
ATOM      4  C3  UNL d   1       0.501  -2.194   0.196  0.00  0.00     0.003 A 
ATOM      5  C4  UNL d   1       1.450  -1.612  -0.642  0.00  0.00    -0.005 A 
ATOM      6  C5  UNL d   1       1.407  -0.242  -0.893  0.00  0.00     0.003 A 
ATOM      7  C6  UNL d   1       0.415   0.545  -0.307  0.00  0.00    -0.001 A 
ENDROOT
TORSDOF 0
ENDMDL
