MODEL 1
REMARK minimizedAffinity -4.95048618
REMARK minimizedRMSD -1
REMARK  0 active torsions:
REMARK  status: ('A' for Active; 'I' for Inactive)
ROOT
ATOM      1  C   UNL d   1       3.511  -0.408  -1.926  0.00  0.00     0.078 C 
ATOM      2  C1  UNL d   1       2.313  -0.691  -1.069  0.00  0.00    -0.077 A 
ATOM      3  C2  UNL d   1       1.999  -1.999  -0.678  0.00  0.00    -0.001 A 
ATOM      4  C3  UNL d   1       0.876  -2.249   0.112  0.00  0.00     0.003 A 
ATOM      5  C4  UNL d   1       0.057  -1.197   0.517  0.00  0.00    -0.005 A 
ATOM      6  C5  UNL d   1       0.361   0.107   0.131  0.00  0.00     0.003 A 
ATOM      7  C6  UNL d   1       1.483   0.359  -0.659  0.00  0.00    -0.001 A 
ENDROOT
TORSDOF 0
ENDMDL
