MODEL 1
REMARK minimizedAffinity -2.87414646
REMARK minimizedRMSD -1
REMARK  0 active torsions:
REMARK  status: ('A' for Active; 'I' for Inactive)
ROOT
ATOM      1  N1  IND d   1      -1.186  -0.700   0.508  0.00  0.00    -0.196 N 
ATOM      2  C2  IND d   1      -2.004   0.371   0.279  0.00  0.00     0.054 A 
ATOM      3  C3  IND d   1      -1.522   1.123  -0.736  0.00  0.00    -0.031 A 
ATOM      4  C4  IND d   1       0.538   0.728  -2.229  0.00  0.00     0.051 A 
ATOM      5  C5  IND d   1       1.616  -0.097  -2.380  0.00  0.00    -0.031 A 
ATOM      6  C6  IND d   1       1.819  -1.190  -1.561  0.00  0.00     0.015 A 
ATOM      7  C7  IND d   1       0.940  -1.505  -0.564  0.00  0.00    -0.016 A 
ATOM      8  C8  IND d   1      -0.153  -0.665  -0.403  0.00  0.00    -0.047 A 
ATOM      9  C9  IND d   1      -0.341   0.469  -1.203  0.00  0.00    -0.096 A 
ATOM     10  HN1 IND d   1      -1.297  -1.295   1.118  0.00  0.00     0.298 HD
ENDROOT
TORSDOF 0
ENDMDL
