MODEL 1
REMARK minimizedAffinity -5.32972479
REMARK minimizedRMSD -1
REMARK  0 active torsions:
REMARK  status: ('A' for Active; 'I' for Inactive)
ROOT
ATOM      1  N1  IND d   1       1.910  -0.742   0.582  0.00  0.00    -0.196 N 
ATOM      2  C2  IND d   1       1.582  -0.914  -0.734  0.00  0.00     0.054 A 
ATOM      3  C3  IND d   1       0.312  -0.508  -0.959  0.00  0.00    -0.031 A 
ATOM      4  C4  IND d   1      -1.373   0.566   0.663  0.00  0.00     0.051 A 
ATOM      5  C5  IND d   1      -1.543   0.893   1.980  0.00  0.00    -0.031 A 
ATOM      6  C6  IND d   1      -0.550   0.690   2.915  0.00  0.00     0.015 A 
ATOM      7  C7  IND d   1       0.660   0.160   2.566  0.00  0.00    -0.016 A 
ATOM      8  C8  IND d   1       0.834  -0.179   1.232  0.00  0.00    -0.047 A 
ATOM      9  C9  IND d   1      -0.186  -0.015   0.286  0.00  0.00    -0.096 A 
ATOM     10  HN1 IND d   1       2.662  -0.951   0.943  0.00  0.00     0.298 HD
ENDROOT
TORSDOF 0
ENDMDL
