MODEL 1
REMARK minimizedAffinity -2.93876815
REMARK minimizedRMSD -1
REMARK  0 active torsions:
REMARK  status: ('A' for Active; 'I' for Inactive)
ROOT
ATOM      1  N1  IND d   1       1.039  -0.834  -0.175  0.00  0.00    -0.196 N 
ATOM      2  C2  IND d   1       2.043  -0.928   0.748  0.00  0.00     0.054 A 
ATOM      3  C3  IND d   1       1.622  -0.474   1.949  0.00  0.00    -0.031 A 
ATOM      4  C4  IND d   1      -0.705   0.374   2.653  0.00  0.00     0.051 A 
ATOM      5  C5  IND d   1      -1.938   0.678   2.149  0.00  0.00    -0.031 A 
ATOM      6  C6  IND d   1      -2.250   0.487   0.818  0.00  0.00     0.015 A 
ATOM      7  C7  IND d   1      -1.338  -0.028  -0.060  0.00  0.00    -0.016 A 
ATOM      8  C8  IND d   1      -0.082  -0.331   0.447  0.00  0.00    -0.047 A 
ATOM      9  C9  IND d   1       0.253  -0.100   1.787  0.00  0.00    -0.096 A 
ATOM     10  HN1 IND d   1       1.098  -1.052  -1.005  0.00  0.00     0.298 HD
ENDROOT
TORSDOF 0
ENDMDL
