MODEL 1
REMARK minimizedAffinity -1.49000502
REMARK minimizedRMSD -1
REMARK  0 active torsions:
REMARK  status: ('A' for Active; 'I' for Inactive)
ROOT
ATOM      1  N1  IND d   1       1.099   0.011  -0.095  0.00  0.00    -0.196 N 
ATOM      2  C2  IND d   1      -0.166  -0.307   0.317  0.00  0.00     0.054 A 
ATOM      3  C3  IND d   1      -0.983  -0.459  -0.749  0.00  0.00    -0.031 A 
ATOM      4  C4  IND d   1      -0.436  -0.333  -3.261  0.00  0.00     0.051 A 
ATOM      5  C5  IND d   1       0.576  -0.034  -4.129  0.00  0.00    -0.031 A 
ATOM      6  C6  IND d   1       1.841   0.300  -3.688  0.00  0.00     0.015 A 
ATOM      7  C7  IND d   1       2.144   0.335  -2.357  0.00  0.00    -0.016 A 
ATOM      8  C8  IND d   1       1.117   0.039  -1.472  0.00  0.00    -0.047 A 
ATOM      9  C9  IND d   1      -0.179  -0.258  -1.913  0.00  0.00    -0.096 A 
ATOM     10  HN1 IND d   1       1.769   0.167   0.420  0.00  0.00     0.298 HD
ENDROOT
TORSDOF 0
ENDMDL
