MODEL 1
REMARK minimizedAffinity -0.724851191
REMARK minimizedRMSD -1
REMARK  0 active torsions:
REMARK  status: ('A' for Active; 'I' for Inactive)
ROOT
ATOM      1  N1  IND d   1      -0.149  -1.465  -2.969  0.00  0.00    -0.196 N 
ATOM      2  C2  IND d   1       0.710  -0.712  -3.719  0.00  0.00     0.054 A 
ATOM      3  C3  IND d   1       1.047   0.417  -3.056  0.00  0.00    -0.031 A 
ATOM      4  C4  IND d   1       0.387   1.183  -0.689  0.00  0.00     0.051 A 
ATOM      5  C5  IND d   1      -0.410   0.846   0.369  0.00  0.00    -0.031 A 
ATOM      6  C6  IND d   1      -1.175  -0.302   0.369  0.00  0.00     0.015 A 
ATOM      7  C7  IND d   1      -1.161  -1.167  -0.688  0.00  0.00    -0.016 A 
ATOM      8  C8  IND d   1      -0.358  -0.825  -1.767  0.00  0.00    -0.047 A 
ATOM      9  C9  IND d   1       0.387   0.361  -1.791  0.00  0.00    -0.096 A 
ATOM     10  HN1 IND d   1      -0.500  -2.213  -3.208  0.00  0.00     0.298 HD
ENDROOT
TORSDOF 0
ENDMDL
