MODEL 1
REMARK minimizedAffinity -2.82602525
REMARK minimizedRMSD -1
REMARK  0 active torsions:
REMARK  status: ('A' for Active; 'I' for Inactive)
ROOT
ATOM      1  N1  IND d   1       0.872  -0.945  -0.192  0.00  0.00    -0.196 N 
ATOM      2  C2  IND d   1       0.782  -0.642  -1.522  0.00  0.00     0.054 A 
ATOM      3  C3  IND d   1      -0.248   0.205  -1.744  0.00  0.00    -0.031 A 
ATOM      4  C4  IND d   1      -1.855   1.301  -0.058  0.00  0.00     0.051 A 
ATOM      5  C5  IND d   1      -2.189   1.303   1.267  0.00  0.00    -0.031 A 
ATOM      6  C6  IND d   1      -1.505   0.543   2.193  0.00  0.00     0.015 A 
ATOM      7  C7  IND d   1      -0.448  -0.243   1.828  0.00  0.00    -0.016 A 
ATOM      8  C8  IND d   1      -0.111  -0.253   0.482  0.00  0.00    -0.047 A 
ATOM      9  C9  IND d   1      -0.829   0.484  -0.469  0.00  0.00    -0.096 A 
ATOM     10  HN1 IND d   1       1.445  -1.478   0.164  0.00  0.00     0.298 HD
ENDROOT
TORSDOF 0
ENDMDL
