MODEL 1
REMARK minimizedAffinity -1.23352754
REMARK minimizedRMSD -1
REMARK  0 active torsions:
REMARK  status: ('A' for Active; 'I' for Inactive)
ROOT
ATOM      1  N1  IND d   1       1.420  -0.868   0.081  0.00  0.00    -0.196 N 
ATOM      2  C2  IND d   1       2.310  -0.972   1.113  0.00  0.00     0.054 A 
ATOM      3  C3  IND d   1       1.795  -0.422   2.235  0.00  0.00    -0.031 A 
ATOM      4  C4  IND d   1      -0.528   0.614   2.632  0.00  0.00     0.051 A 
ATOM      5  C5  IND d   1      -1.676   0.966   1.979  0.00  0.00    -0.031 A 
ATOM      6  C6  IND d   1      -1.855   0.718   0.634  0.00  0.00     0.015 A 
ATOM      7  C7  IND d   1      -0.893   0.094  -0.110  0.00  0.00    -0.016 A 
ATOM      8  C8  IND d   1       0.276  -0.259   0.548  0.00  0.00    -0.047 A 
ATOM      9  C9  IND d   1       0.481   0.029   1.903  0.00  0.00    -0.096 A 
ATOM     10  HN1 IND d   1       1.552  -1.138  -0.725  0.00  0.00     0.298 HD
ENDROOT
TORSDOF 0
ENDMDL
