MODEL 1
REMARK minimizedAffinity -1.97477651
REMARK minimizedRMSD -1
REMARK  0 active torsions:
REMARK  status: ('A' for Active; 'I' for Inactive)
ROOT
ATOM      1  N1  IND d   1      -0.315  -1.315  -1.251  0.00  0.00    -0.196 N 
ATOM      2  C2  IND d   1      -0.382  -0.547  -0.122  0.00  0.00     0.054 A 
ATOM      3  C3  IND d   1       0.213   0.648  -0.330  0.00  0.00    -0.031 A 
ATOM      4  C4  IND d   1       1.272   1.597  -2.477  0.00  0.00     0.051 A 
ATOM      5  C5  IND d   1       1.603   1.253  -3.758  0.00  0.00    -0.031 A 
ATOM      6  C6  IND d   1       1.302   0.011  -4.280  0.00  0.00     0.015 A 
ATOM      7  C7  IND d   1       0.647  -0.933  -3.541  0.00  0.00    -0.016 A 
ATOM      8  C8  IND d   1       0.316  -0.590  -2.238  0.00  0.00    -0.047 A 
ATOM      9  C9  IND d   1       0.656   0.653  -1.689  0.00  0.00    -0.096 A 
ATOM     10  HN1 IND d   1      -0.617  -2.116  -1.332  0.00  0.00     0.298 HD
ENDROOT
TORSDOF 0
ENDMDL
