MODEL 1
REMARK minimizedAffinity -2.84279585
REMARK minimizedRMSD -1
REMARK  0 active torsions:
REMARK  status: ('A' for Active; 'I' for Inactive)
ROOT
ATOM      1  C   UNL d   1       2.505   2.767   1.497  0.00  0.00     0.020 A 
ATOM      2  C1  UNL d   1       2.447   3.585   0.370  0.00  0.00     0.020 A 
ATOM      3  C2  UNL d   1       1.743   3.167  -0.761  0.00  0.00     0.034 A 
ATOM      4  C3  UNL d   1       1.094   1.926  -0.768  0.00  0.00     0.017 A 
ATOM      5  C4  UNL d   1       1.153   1.106   0.364  0.00  0.00     0.017 A 
ATOM      6  C5  UNL d   1       1.859   1.530   1.494  0.00  0.00     0.034 A 
ATOM      7 Cl   UNL d   1       0.378  -0.438   0.432  0.00  0.00    -0.070 Cl
ATOM      8 Cl1  UNL d   1       0.242   1.473  -2.201  0.00  0.00    -0.070 Cl
ENDROOT
TORSDOF 0
ENDMDL
