MODEL 1
REMARK minimizedAffinity -1.11554027
REMARK minimizedRMSD -1
REMARK  0 active torsions:
REMARK  status: ('A' for Active; 'I' for Inactive)
ROOT
ATOM      1  C   UNL d   1       0.371   1.250  -1.026  0.00  0.00     0.020 A 
ATOM      2  C1  UNL d   1       0.646   0.066  -1.709  0.00  0.00     0.020 A 
ATOM      3  C2  UNL d   1       0.206  -1.156  -1.195  0.00  0.00     0.034 A 
ATOM      4  C3  UNL d   1      -0.510  -1.196   0.006  0.00  0.00     0.017 A 
ATOM      5  C4  UNL d   1      -0.786  -0.008   0.692  0.00  0.00     0.017 A 
ATOM      6  C5  UNL d   1      -0.343   1.213   0.172  0.00  0.00     0.034 A 
ATOM      7 Cl   UNL d   1      -1.665   0.022   2.180  0.00  0.00    -0.070 Cl
ATOM      8 Cl1  UNL d   1      -1.024  -2.742   0.584  0.00  0.00    -0.070 Cl
ENDROOT
TORSDOF 0
ENDMDL
