MODEL 1
REMARK minimizedAffinity -4.77438259
REMARK minimizedRMSD -1
REMARK  0 active torsions:
REMARK  status: ('A' for Active; 'I' for Inactive)
ROOT
ATOM      1  C   UNL d   1      -0.025  -2.703   0.297  0.00  0.00     0.020 A 
ATOM      2  C1  UNL d   1       1.046  -2.073  -0.335  0.00  0.00     0.020 A 
ATOM      3  C2  UNL d   1       1.127  -0.679  -0.349  0.00  0.00     0.034 A 
ATOM      4  C3  UNL d   1       0.135   0.089   0.271  0.00  0.00     0.017 A 
ATOM      5  C4  UNL d   1      -0.940  -0.544   0.906  0.00  0.00     0.017 A 
ATOM      6  C5  UNL d   1      -1.016  -1.940   0.916  0.00  0.00     0.034 A 
ATOM      7 Cl   UNL d   1      -2.202   0.337   1.692  0.00  0.00    -0.070 Cl
ATOM      8 Cl1  UNL d   1       0.299   1.809   0.217  0.00  0.00    -0.070 Cl
ENDROOT
TORSDOF 0
ENDMDL
