MODEL 1
REMARK minimizedAffinity -2.49055219
REMARK minimizedRMSD -1
REMARK  0 active torsions:
REMARK  status: ('A' for Active; 'I' for Inactive)
ROOT
ATOM      1  C   UNL d   1       0.064   1.903  -1.052  0.00  0.00     0.020 A 
ATOM      2  C1  UNL d   1      -0.148   1.496   0.265  0.00  0.00     0.020 A 
ATOM      3  C2  UNL d   1       0.068   0.165   0.628  0.00  0.00     0.034 A 
ATOM      4  C3  UNL d   1       0.497  -0.764  -0.327  0.00  0.00     0.017 A 
ATOM      5  C4  UNL d   1       0.709  -0.355  -1.649  0.00  0.00     0.017 A 
ATOM      6  C5  UNL d   1       0.492   0.979  -2.006  0.00  0.00     0.034 A 
ATOM      7 Cl   UNL d   1       1.238  -1.444  -2.883  0.00  0.00    -0.070 Cl
ATOM      8 Cl1  UNL d   1       0.744  -2.394   0.191  0.00  0.00    -0.070 Cl
ENDROOT
TORSDOF 0
ENDMDL
