MODEL 1
REMARK minimizedAffinity -2.93571138
REMARK minimizedRMSD -1
REMARK  0 active torsions:
REMARK  status: ('A' for Active; 'I' for Inactive)
ROOT
ATOM      1  C   UNL d   1       0.831  -1.976  -0.345  0.00  0.00     0.020 A 
ATOM      2  C1  UNL d   1      -0.069  -2.591   0.525  0.00  0.00     0.020 A 
ATOM      3  C2  UNL d   1      -1.004  -1.821   1.220  0.00  0.00     0.034 A 
ATOM      4  C3  UNL d   1      -1.042  -0.433   1.046  0.00  0.00     0.017 A 
ATOM      5  C4  UNL d   1      -0.138   0.183   0.173  0.00  0.00     0.017 A 
ATOM      6  C5  UNL d   1       0.797  -0.593  -0.520  0.00  0.00     0.034 A 
ATOM      7 Cl   UNL d   1      -0.123   1.891  -0.093  0.00  0.00    -0.070 Cl
ATOM      8 Cl1  UNL d   1      -2.225   0.457   1.937  0.00  0.00    -0.070 Cl
ENDROOT
TORSDOF 0
ENDMDL
