MODEL 1
REMARK minimizedAffinity -2.38532472
REMARK minimizedRMSD -1
REMARK  0 active torsions:
REMARK  status: ('A' for Active; 'I' for Inactive)
ROOT
ATOM      1  C   UNL d   1       1.988   3.371   1.658  0.00  0.00     0.020 A 
ATOM      2  C1  UNL d   1       1.868   4.157   0.512  0.00  0.00     0.020 A 
ATOM      3  C2  UNL d   1       1.160   3.676  -0.592  0.00  0.00     0.034 A 
ATOM      4  C3  UNL d   1       0.571   2.407  -0.553  0.00  0.00     0.017 A 
ATOM      5  C4  UNL d   1       0.693   1.620   0.598  0.00  0.00     0.017 A 
ATOM      6  C5  UNL d   1       1.402   2.106   1.701  0.00  0.00     0.034 A 
ATOM      7 Cl   UNL d   1      -0.006   0.044   0.721  0.00  0.00    -0.070 Cl
ATOM      8 Cl1  UNL d   1      -0.289   1.877  -1.954  0.00  0.00    -0.070 Cl
ENDROOT
TORSDOF 0
ENDMDL
