MODEL 1
REMARK minimizedAffinity -5.50168037
REMARK minimizedRMSD -1
REMARK  0 active torsions:
REMARK  status: ('A' for Active; 'I' for Inactive)
ROOT
ATOM      1  C   UNL d   1       0.384  -2.850   0.483  0.00  0.00     0.020 A 
ATOM      2  C1  UNL d   1       0.433  -3.220  -0.861  0.00  0.00     0.020 A 
ATOM      3  C2  UNL d   1       0.469  -2.239  -1.854  0.00  0.00     0.034 A 
ATOM      4  C3  UNL d   1       0.456  -0.883  -1.506  0.00  0.00     0.017 A 
ATOM      5  C4  UNL d   1       0.407  -0.513  -0.157  0.00  0.00     0.017 A 
ATOM      6  C5  UNL d   1       0.371  -1.499   0.834  0.00  0.00     0.034 A 
ATOM      7 Cl   UNL d   1       0.388   1.139   0.351  0.00  0.00    -0.070 Cl
ATOM      8 Cl1  UNL d   1       0.503   0.276  -2.786  0.00  0.00    -0.070 Cl
ENDROOT
TORSDOF 0
ENDMDL
