MODEL 1
REMARK minimizedAffinity -3.74953699
REMARK minimizedRMSD -1
REMARK  0 active torsions:
REMARK  status: ('A' for Active; 'I' for Inactive)
ROOT
ATOM      1  C   UNL d   1      -0.176  -2.945   0.016  0.00  0.00     0.020 A 
ATOM      2  C1  UNL d   1       0.772  -2.299  -0.777  0.00  0.00     0.020 A 
ATOM      3  C2  UNL d   1       0.906  -0.911  -0.712  0.00  0.00     0.034 A 
ATOM      4  C3  UNL d   1       0.092  -0.164   0.147  0.00  0.00     0.017 A 
ATOM      5  C4  UNL d   1      -0.860  -0.813   0.942  0.00  0.00     0.017 A 
ATOM      6  C5  UNL d   1      -0.990  -2.204   0.873  0.00  0.00     0.034 A 
ATOM      7 Cl   UNL d   1      -1.901   0.040   2.026  0.00  0.00    -0.070 Cl
ATOM      8 Cl1  UNL d   1       0.313   1.550   0.176  0.00  0.00    -0.070 Cl
ENDROOT
TORSDOF 0
ENDMDL
