MODEL 1
REMARK minimizedAffinity -4.45053244
REMARK minimizedRMSD -1
REMARK  0 active torsions:
REMARK  status: ('A' for Active; 'I' for Inactive)
ROOT
ATOM      1  C   UNL d   1      -0.591  -1.963   1.291  0.00  0.00     0.020 A 
ATOM      2  C1  UNL d   1       0.215  -2.602   0.350  0.00  0.00     0.020 A 
ATOM      3  C2  UNL d   1       0.681  -1.899  -0.763  0.00  0.00     0.034 A 
ATOM      4  C3  UNL d   1       0.342  -0.553  -0.937  0.00  0.00     0.017 A 
ATOM      5  C4  UNL d   1      -0.467   0.088   0.008  0.00  0.00     0.017 A 
ATOM      6  C5  UNL d   1      -0.931  -0.620   1.120  0.00  0.00     0.034 A 
ATOM      7 Cl   UNL d   1      -0.928   1.748  -0.139  0.00  0.00    -0.070 Cl
ATOM      8 Cl1  UNL d   1       0.954   0.255  -2.336  0.00  0.00    -0.070 Cl
ENDROOT
TORSDOF 0
ENDMDL
