MODEL 1
REMARK minimizedAffinity -1.4263624
REMARK minimizedRMSD -1
REMARK  0 active torsions:
REMARK  status: ('A' for Active; 'I' for Inactive)
ROOT
ATOM      1  C   UNL d   1      -0.131   1.334   0.170  0.00  0.00     0.020 A 
ATOM      2  C1  UNL d   1      -0.529   0.679   1.335  0.00  0.00     0.020 A 
ATOM      3  C2  UNL d   1      -0.468  -0.714   1.409  0.00  0.00     0.034 A 
ATOM      4  C3  UNL d   1      -0.008  -1.457   0.316  0.00  0.00     0.017 A 
ATOM      5  C4  UNL d   1       0.392  -0.799  -0.853  0.00  0.00     0.017 A 
ATOM      6  C5  UNL d   1       0.328   0.596  -0.921  0.00  0.00     0.034 A 
ATOM      7 Cl   UNL d   1       0.970  -1.648  -2.243  0.00  0.00    -0.070 Cl
ATOM      8 Cl1  UNL d   1       0.041  -3.177   0.477  0.00  0.00    -0.070 Cl
ENDROOT
TORSDOF 0
ENDMDL
