MODEL 1
REMARK minimizedAffinity -2.1518209
REMARK minimizedRMSD -1
REMARK  0 active torsions:
REMARK  status: ('A' for Active; 'I' for Inactive)
ROOT
ATOM      1  C   UNL d   1      -0.165   1.377  -0.360  0.00  0.00     0.020 A 
ATOM      2  C1  UNL d   1      -0.602   0.813   0.838  0.00  0.00     0.020 A 
ATOM      3  C2  UNL d   1      -0.609  -0.575   0.995  0.00  0.00     0.034 A 
ATOM      4  C3  UNL d   1      -0.179  -1.403  -0.048  0.00  0.00     0.017 A 
ATOM      5  C4  UNL d   1       0.259  -0.836  -1.250  0.00  0.00     0.017 A 
ATOM      6  C5  UNL d   1       0.265   0.554  -1.401  0.00  0.00     0.034 A 
ATOM      7 Cl   UNL d   1       0.805  -1.793  -2.582  0.00  0.00    -0.070 Cl
ATOM      8 Cl1  UNL d   1      -0.215  -3.111   0.215  0.00  0.00    -0.070 Cl
ENDROOT
TORSDOF 0
ENDMDL
