MODEL 1
REMARK minimizedAffinity -4.22217989
REMARK minimizedRMSD -1
REMARK  0 active torsions:
REMARK  status: ('A' for Active; 'I' for Inactive)
ROOT
ATOM      1  C   UNL d   1       0.693   5.176   3.009  0.00  0.00     0.020 A 
ATOM      2  C1  UNL d   1      -0.512   4.485   3.126  0.00  0.00     0.020 A 
ATOM      3  C2  UNL d   1      -0.787   3.413   2.274  0.00  0.00     0.034 A 
ATOM      4  C3  UNL d   1       0.143   3.030   1.301  0.00  0.00     0.017 A 
ATOM      5  C4  UNL d   1       1.353   3.724   1.185  0.00  0.00     0.017 A 
ATOM      6  C5  UNL d   1       1.624   4.796   2.040  0.00  0.00     0.034 A 
ATOM      7 Cl   UNL d   1       2.550   3.310   0.009  0.00  0.00    -0.070 Cl
ATOM      8 Cl1  UNL d   1      -0.263   1.695   0.282  0.00  0.00    -0.070 Cl
ENDROOT
TORSDOF 0
ENDMDL
