MODEL 1
REMARK minimizedAffinity -2.76083755
REMARK minimizedRMSD -1
REMARK  0 active torsions:
REMARK  status: ('A' for Active; 'I' for Inactive)
ROOT
ATOM      1  C   UNL d   1       0.563   0.167   0.120  0.00  0.00     0.020 A 
ATOM      2  C1  UNL d   1      -0.691   0.633   0.515  0.00  0.00     0.020 A 
ATOM      3  C2  UNL d   1      -1.717  -0.273   0.790  0.00  0.00     0.034 A 
ATOM      4  C3  UNL d   1      -1.493  -1.649   0.670  0.00  0.00     0.017 A 
ATOM      5  C4  UNL d   1      -0.235  -2.116   0.274  0.00  0.00     0.017 A 
ATOM      6  C5  UNL d   1       0.790  -1.205  -0.000  0.00  0.00     0.034 A 
ATOM      7 Cl   UNL d   1       0.118  -3.800   0.104  0.00  0.00    -0.070 Cl
ATOM      8 Cl1  UNL d   1      -2.808  -2.711   1.026  0.00  0.00    -0.070 Cl
ENDROOT
TORSDOF 0
ENDMDL
