MODEL 1
REMARK minimizedAffinity -2.91925383
REMARK minimizedRMSD -1
REMARK  0 active torsions:
REMARK  status: ('A' for Active; 'I' for Inactive)
ROOT
ATOM      1  C   UNL d   1      -0.480  -3.218   0.234  0.00  0.00     0.020 A 
ATOM      2  C1  UNL d   1      -0.459  -2.383   1.351  0.00  0.00     0.020 A 
ATOM      3  C2  UNL d   1      -0.137  -1.032   1.207  0.00  0.00     0.034 A 
ATOM      4  C3  UNL d   1       0.165  -0.511  -0.057  0.00  0.00     0.017 A 
ATOM      5  C4  UNL d   1       0.144  -1.349  -1.177  0.00  0.00     0.017 A 
ATOM      6  C5  UNL d   1      -0.179  -2.702  -1.027  0.00  0.00     0.034 A 
ATOM      7 Cl   UNL d   1       0.506  -0.779  -2.768  0.00  0.00    -0.070 Cl
ATOM      8 Cl1  UNL d   1       0.554   1.169  -0.161  0.00  0.00    -0.070 Cl
ENDROOT
TORSDOF 0
ENDMDL
