MODEL 1
REMARK minimizedAffinity -3.13229084
REMARK minimizedRMSD -1
REMARK  0 active torsions:
REMARK  status: ('A' for Active; 'I' for Inactive)
ROOT
ATOM      1  C   UNL d   1       1.729   3.439   2.056  0.00  0.00     0.020 A 
ATOM      2  C1  UNL d   1       1.960   4.008   0.804  0.00  0.00     0.020 A 
ATOM      3  C2  UNL d   1       1.675   3.283  -0.355  0.00  0.00     0.034 A 
ATOM      4  C3  UNL d   1       1.159   1.985  -0.265  0.00  0.00     0.017 A 
ATOM      5  C4  UNL d   1       0.927   1.415   0.992  0.00  0.00     0.017 A 
ATOM      6  C5  UNL d   1       1.214   2.145   2.150  0.00  0.00     0.034 A 
ATOM      7 Cl   UNL d   1       0.292  -0.181   1.184  0.00  0.00    -0.070 Cl
ATOM      8 Cl1  UNL d   1       0.830   1.147  -1.740  0.00  0.00    -0.070 Cl
ENDROOT
TORSDOF 0
ENDMDL
