MODEL 1
REMARK minimizedAffinity -4.68595743
REMARK minimizedRMSD -1
REMARK  0 active torsions:
REMARK  status: ('A' for Active; 'I' for Inactive)
ROOT
ATOM      1  C   UNL d   1       0.389  -3.339  -0.995  0.00  0.00     0.020 A 
ATOM      2  C1  UNL d   1       0.216  -2.859   0.303  0.00  0.00     0.020 A 
ATOM      3  C2  UNL d   1       0.119  -1.485   0.532  0.00  0.00     0.034 A 
ATOM      4  C3  UNL d   1       0.195  -0.586  -0.538  0.00  0.00     0.017 A 
ATOM      5  C4  UNL d   1       0.369  -1.069  -1.840  0.00  0.00     0.017 A 
ATOM      6  C5  UNL d   1       0.465  -2.446  -2.064  0.00  0.00     0.034 A 
ATOM      7 Cl   UNL d   1       0.471  -0.021  -3.211  0.00  0.00    -0.070 Cl
ATOM      8 Cl1  UNL d   1       0.068   1.100  -0.182  0.00  0.00    -0.070 Cl
ENDROOT
TORSDOF 0
ENDMDL
