MODEL 1
REMARK minimizedAffinity -2.10229611
REMARK minimizedRMSD -1
REMARK  0 active torsions:
REMARK  status: ('A' for Active; 'I' for Inactive)
ROOT
ATOM      1  C   UNL d   1      -0.098   1.300   0.372  0.00  0.00     0.020 A 
ATOM      2  C1  UNL d   1      -0.346   0.589   1.545  0.00  0.00     0.020 A 
ATOM      3  C2  UNL d   1      -0.465  -0.802   1.506  0.00  0.00     0.034 A 
ATOM      4  C3  UNL d   1      -0.336  -1.486   0.292  0.00  0.00     0.017 A 
ATOM      5  C4  UNL d   1      -0.086  -0.771  -0.885  0.00  0.00     0.017 A 
ATOM      6  C5  UNL d   1       0.032   0.621  -0.841  0.00  0.00     0.034 A 
ATOM      7 Cl   UNL d   1       0.086  -1.545  -2.421  0.00  0.00    -0.070 Cl
ATOM      8 Cl1  UNL d   1      -0.495  -3.206   0.318  0.00  0.00    -0.070 Cl
ENDROOT
TORSDOF 0
ENDMDL
