MODEL 1
REMARK minimizedAffinity -3.07929468
REMARK minimizedRMSD -1
REMARK  0 active torsions:
REMARK  status: ('A' for Active; 'I' for Inactive)
ROOT
ATOM      1  C   UNL d   1       0.700  -2.060   0.330  0.00  0.00     0.020 A 
ATOM      2  C1  UNL d   1      -0.068  -1.457   1.326  0.00  0.00     0.020 A 
ATOM      3  C2  UNL d   1      -0.671  -0.220   1.091  0.00  0.00     0.034 A 
ATOM      4  C3  UNL d   1      -0.508   0.419  -0.144  0.00  0.00     0.017 A 
ATOM      5  C4  UNL d   1       0.262  -0.187  -1.143  0.00  0.00     0.017 A 
ATOM      6  C5  UNL d   1       0.864  -1.426  -0.902  0.00  0.00     0.034 A 
ATOM      7 Cl   UNL d   1       0.509   0.540  -2.692  0.00  0.00    -0.070 Cl
ATOM      8 Cl1  UNL d   1      -1.283   1.947  -0.367  0.00  0.00    -0.070 Cl
ENDROOT
TORSDOF 0
ENDMDL
