MODEL 1
REMARK minimizedAffinity -2.64601278
REMARK minimizedRMSD -1
REMARK  0 active torsions:
REMARK  status: ('A' for Active; 'I' for Inactive)
ROOT
ATOM      1  C   UNL d   1      -1.081   5.055   1.997  0.00  0.00     0.020 A 
ATOM      2  C1  UNL d   1      -0.017   5.954   2.053  0.00  0.00     0.020 A 
ATOM      3  C2  UNL d   1       1.224   5.600   1.518  0.00  0.00     0.034 A 
ATOM      4  C3  UNL d   1       1.404   4.345   0.926  0.00  0.00     0.017 A 
ATOM      5  C4  UNL d   1       0.334   3.444   0.870  0.00  0.00     0.017 A 
ATOM      6  C5  UNL d   1      -0.906   3.802   1.407  0.00  0.00     0.034 A 
ATOM      7 Cl   UNL d   1       0.479   1.877   0.155  0.00  0.00    -0.070 Cl
ATOM      8 Cl1  UNL d   1       2.965   3.975   0.284  0.00  0.00    -0.070 Cl
ENDROOT
TORSDOF 0
ENDMDL
