MODEL 1
REMARK minimizedAffinity 5.82801247
REMARK minimizedRMSD -1
REMARK  2 active torsions:
REMARK  status: ('A' for Active; 'I' for Inactive)
REMARK    1  A    between atoms: C2'_3  and  C1'_4 
REMARK    2  A    between atoms: C1'_4  and  C1_5 
ROOT
ATOM      1  C1  I4B d   1       2.819  -1.142   0.543  0.00  0.00    -0.075 A 
ATOM      2  C2  I4B d   1       2.383  -0.052  -0.168  0.00  0.00     0.003 A 
ATOM      3  C3  I4B d   1       3.080   1.178  -0.087  0.00  0.00     0.002 A 
ATOM      4  C4  I4B d   1       4.171   1.286   0.751  0.00  0.00    -0.004 A 
ATOM      5  C5  I4B d   1       4.625   0.174   1.454  0.00  0.00     0.002 A 
ATOM      6  C6  I4B d   1       3.953  -1.051   1.340  0.00  0.00     0.003 A 
ENDROOT
BRANCH   1   7
ATOM      7  C1' I4B d   1       2.040  -2.416   0.460  0.00  0.00     0.060 C 
BRANCH   7   8
ATOM      8  C2' I4B d   1       1.573  -2.585  -0.972  0.00  0.00    -0.013 C 
ATOM      9  C4' I4B d   1       2.728  -2.888  -1.890  0.00  0.00     0.013 C 
ATOM     10  C3' I4B d   1       0.556  -3.686  -1.000  0.00  0.00     0.013 C 
ENDBRANCH   7   8
ENDBRANCH   1   7
TORSDOF 2
ENDMDL
