MODEL 1
REMARK minimizedAffinity 4.68282223
REMARK minimizedRMSD -1
REMARK  2 active torsions:
REMARK  status: ('A' for Active; 'I' for Inactive)
REMARK    1  A    between atoms: C2'_3  and  C1'_4 
REMARK    2  A    between atoms: C1'_4  and  C1_5 
ROOT
ATOM      1  C1  I4B d   1       2.311  -0.961  -0.472  0.00  0.00    -0.075 A 
ATOM      2  C2  I4B d   1       2.075  -2.238  -0.917  0.00  0.00     0.003 A 
ATOM      3  C3  I4B d   1       2.840  -2.776  -1.980  0.00  0.00     0.002 A 
ATOM      4  C4  I4B d   1       3.790  -1.990  -2.599  0.00  0.00    -0.004 A 
ATOM      5  C5  I4B d   1       4.044  -0.703  -2.132  0.00  0.00     0.002 A 
ATOM      6  C6  I4B d   1       3.309  -0.190  -1.054  0.00  0.00     0.003 A 
ENDROOT
BRANCH   1   7
ATOM      7  C1' I4B d   1       1.462  -0.413   0.631  0.00  0.00     0.060 C 
BRANCH   7   8
ATOM      8  C2' I4B d   1       0.164   0.076   0.021  0.00  0.00    -0.013 C 
ATOM      9  C4' I4B d   1      -0.947  -0.917   0.236  0.00  0.00     0.013 C 
ATOM     10  C3' I4B d   1      -0.167   1.402   0.640  0.00  0.00     0.013 C 
ENDBRANCH   7   8
ENDBRANCH   1   7
TORSDOF 2
ENDMDL
