MODEL 1
REMARK minimizedAffinity 10.7560434
REMARK minimizedRMSD -1
REMARK  2 active torsions:
REMARK  status: ('A' for Active; 'I' for Inactive)
REMARK    1  A    between atoms: C2'_3  and  C1'_4 
REMARK    2  A    between atoms: C1'_4  and  C1_5 
ROOT
ATOM      1  C1  I4B d   1      -2.487  -4.852  -2.264  0.00  0.00    -0.075 A 
ATOM      2  C2  I4B d   1      -2.273  -5.951  -1.470  0.00  0.00     0.003 A 
ATOM      3  C3  I4B d   1      -1.156  -5.996  -0.601  0.00  0.00     0.002 A 
ATOM      4  C4  I4B d   1      -0.257  -4.949  -0.594  0.00  0.00    -0.004 A 
ATOM      5  C5  I4B d   1      -0.488  -3.826  -1.383  0.00  0.00     0.002 A 
ATOM      6  C6  I4B d   1      -1.616  -3.771  -2.214  0.00  0.00     0.003 A 
ENDROOT
BRANCH   1   7
ATOM      7  C1' I4B d   1      -3.658  -4.852  -3.194  0.00  0.00     0.060 C 
BRANCH   7   8
ATOM      8  C2' I4B d   1      -3.479  -5.997  -4.171  0.00  0.00    -0.013 C 
ATOM      9  C4' I4B d   1      -4.517  -5.951  -5.261  0.00  0.00     0.013 C 
ATOM     10  C3' I4B d   1      -2.093  -5.909  -4.738  0.00  0.00     0.013 C 
ENDBRANCH   7   8
ENDBRANCH   1   7
TORSDOF 2
ENDMDL
