MODEL 1
REMARK minimizedAffinity -0.133402765
REMARK minimizedRMSD -1
REMARK  2 active torsions:
REMARK  status: ('A' for Active; 'I' for Inactive)
REMARK    1  A    between atoms: C2'_3  and  C1'_4 
REMARK    2  A    between atoms: C1'_4  and  C1_5 
ROOT
ATOM      1  C1  I4B d   1       1.063  -1.485  -0.181  0.00  0.00    -0.075 A 
ATOM      2  C2  I4B d   1       1.142  -0.148   0.118  0.00  0.00     0.003 A 
ATOM      3  C3  I4B d   1       0.070   0.719  -0.205  0.00  0.00     0.002 A 
ATOM      4  C4  I4B d   1      -1.033   0.218  -0.867  0.00  0.00    -0.004 A 
ATOM      5  C5  I4B d   1      -1.121  -1.142  -1.149  0.00  0.00     0.002 A 
ATOM      6  C6  I4B d   1      -0.072  -2.002  -0.792  0.00  0.00     0.003 A 
ENDROOT
BRANCH   1   7
ATOM      7  C1' I4B d   1       2.228  -2.366   0.145  0.00  0.00     0.060 C 
BRANCH   7   8
ATOM      8  C2' I4B d   1       3.277  -2.170  -0.931  0.00  0.00    -0.013 C 
ATOM      9  C4' I4B d   1       2.880  -2.857  -2.211  0.00  0.00     0.013 C 
ATOM     10  C3' I4B d   1       3.454  -0.696  -1.140  0.00  0.00     0.013 C 
ENDBRANCH   7   8
ENDBRANCH   1   7
TORSDOF 2
ENDMDL
