MODEL 1
REMARK minimizedAffinity 0.34548679
REMARK minimizedRMSD -1
REMARK  1 active torsions:
REMARK  status: ('A' for Active; 'I' for Inactive)
REMARK    1  A    between atoms: C1_2  and  C2_3 
ROOT
ATOM      1  C2  UNL d   1       2.104   5.964   4.308  0.00  0.00    -0.073 A 
ATOM      2  C3  UNL d   1       2.865   5.998   5.482  0.00  0.00    -0.002 A 
ATOM      3  C4  UNL d   1       4.259   6.000   5.418  0.00  0.00     0.004 A 
ATOM      4  C5  UNL d   1       4.905   5.975   4.182  0.00  0.00    -0.004 A 
ATOM      5  C6  UNL d   1       4.162   5.954   2.997  0.00  0.00    -0.075 A 
ATOM      6  C7  UNL d   1       4.841   5.925   1.660  0.00  0.00     0.076 C 
ATOM      7  C8  UNL d   1       2.762   5.949   3.070  0.00  0.00     0.001 A 
ENDROOT
BRANCH   1   8
ATOM      8  C1  UNL d   1       0.598   5.968   4.372  0.00  0.00     0.053 C 
ATOM      9  C   UNL d   1       0.089   5.982   5.804  0.00  0.00     0.018 C 
ENDBRANCH   1   8
TORSDOF 1
ENDMDL
