MODEL 1
REMARK minimizedAffinity 4.18733788
REMARK minimizedRMSD -1
REMARK  1 active torsions:
REMARK  status: ('A' for Active; 'I' for Inactive)
REMARK    1  A    between atoms: C1_2  and  C2_3 
ROOT
ATOM      1  C2  UNL d   1       2.882   4.592   3.128  0.00  0.00    -0.073 A 
ATOM      2  C3  UNL d   1       3.806   5.343   3.863  0.00  0.00    -0.002 A 
ATOM      3  C4  UNL d   1       3.413   5.998   5.031  0.00  0.00     0.004 A 
ATOM      4  C5  UNL d   1       2.095   5.904   5.478  0.00  0.00    -0.004 A 
ATOM      5  C6  UNL d   1       1.159   5.149   4.764  0.00  0.00    -0.075 A 
ATOM      6  C7  UNL d   1      -0.263   5.040   5.230  0.00  0.00     0.076 C 
ATOM      7  C8  UNL d   1       1.562   4.496   3.591  0.00  0.00     0.001 A 
ENDROOT
BRANCH   1   8
ATOM      8  C1  UNL d   1       3.304   3.877   1.871  0.00  0.00     0.053 C 
ATOM      9  C   UNL d   1       3.660   4.847   0.756  0.00  0.00     0.018 C 
ENDBRANCH   1   8
TORSDOF 1
ENDMDL
