MODEL 1
REMARK minimizedAffinity 3.41096497
REMARK minimizedRMSD -1
REMARK  1 active torsions:
REMARK  status: ('A' for Active; 'I' for Inactive)
REMARK    1  A    between atoms: C1_2  and  C2_3 
ROOT
ATOM      1  C2  UNL d   1       3.658   5.991   3.133  0.00  0.00    -0.073 A 
ATOM      2  C3  UNL d   1       4.397   5.987   4.322  0.00  0.00    -0.002 A 
ATOM      3  C4  UNL d   1       3.747   5.994   5.556  0.00  0.00     0.004 A 
ATOM      4  C5  UNL d   1       2.353   5.999   5.615  0.00  0.00    -0.004 A 
ATOM      5  C6  UNL d   1       1.597   5.992   4.439  0.00  0.00    -0.075 A 
ATOM      6  C7  UNL d   1       0.097   5.999   4.485  0.00  0.00     0.076 C 
ATOM      7  C8  UNL d   1       2.258   5.987   3.203  0.00  0.00     0.001 A 
ENDROOT
BRANCH   1   8
ATOM      8  C1  UNL d   1       4.356   5.977   1.798  0.00  0.00     0.053 C 
ATOM      9  C   UNL d   1       5.870   6.000   1.945  0.00  0.00     0.018 C 
ENDBRANCH   1   8
TORSDOF 1
ENDMDL
