MODEL 1
REMARK minimizedAffinity 1.65765464
REMARK minimizedRMSD -1
REMARK  1 active torsions:
REMARK  status: ('A' for Active; 'I' for Inactive)
REMARK    1  A    between atoms: C1_2  and  C2_3 
ROOT
ATOM      1  C2  UNL d   1       3.516   5.914   3.530  0.00  0.00    -0.073 A 
ATOM      2  C3  UNL d   1       4.154   5.998   4.773  0.00  0.00    -0.002 A 
ATOM      3  C4  UNL d   1       3.405   5.999   5.951  0.00  0.00     0.004 A 
ATOM      4  C5  UNL d   1       2.014   5.909   5.899  0.00  0.00    -0.004 A 
ATOM      5  C6  UNL d   1       1.360   5.812   4.666  0.00  0.00    -0.075 A 
ATOM      6  C7  UNL d   1      -0.136   5.716   4.593  0.00  0.00     0.076 C 
ATOM      7  C8  UNL d   1       2.118   5.814   3.488  0.00  0.00     0.001 A 
ENDROOT
BRANCH   1   8
ATOM      8  C1  UNL d   1       4.321   5.906   2.256  0.00  0.00     0.053 C 
ATOM      9  C   UNL d   1       3.437   5.998   1.023  0.00  0.00     0.018 C 
ENDBRANCH   1   8
TORSDOF 1
ENDMDL
