MODEL 1
REMARK minimizedAffinity 17.1138382
REMARK minimizedRMSD -1
REMARK  0 active torsions:
REMARK  status: ('A' for Active; 'I' for Inactive)
ROOT
ATOM      1  C4' PXY d   1       0.127   1.480   1.510  0.00  0.00     0.077 C 
ATOM      2  C1' PXY d   1      -0.654   4.713  -3.218  0.00  0.00     0.077 C 
ATOM      3  C1  PXY d   1      -0.458   3.857  -1.982  0.00  0.00    -0.082 A 
ATOM      4  C2  PXY d   1       0.048   4.397  -0.886  0.00  0.00     0.003 A 
ATOM      5  C3  PXY d   1       0.261   3.630   0.231  0.00  0.00     0.003 A 
ATOM      6  C4  PXY d   1      -0.097   2.309   0.242  0.00  0.00    -0.082 A 
ATOM      7  C5  PXY d   1      -0.624   1.752  -0.869  0.00  0.00     0.003 A 
ATOM      8  C6  PXY d   1      -0.794   2.538  -2.006  0.00  0.00     0.003 A 
ENDROOT
TORSDOF 0
ENDMDL
