MODEL 1
REMARK minimizedAffinity 10.3561869
REMARK minimizedRMSD -1
REMARK  0 active torsions:
REMARK  status: ('A' for Active; 'I' for Inactive)
ROOT
ATOM      1  C4' PXY d   1      -0.265   4.506  -3.434  0.00  0.00     0.077 C 
ATOM      2  C1' PXY d   1       0.229   1.763   1.631  0.00  0.00     0.077 C 
ATOM      3  C1  PXY d   1       0.100   2.494   0.309  0.00  0.00    -0.082 A 
ATOM      4  C2  PXY d   1      -0.500   1.901  -0.710  0.00  0.00     0.003 A 
ATOM      5  C3  PXY d   1      -0.596   2.535  -1.922  0.00  0.00     0.003 A 
ATOM      6  C4  PXY d   1      -0.121   3.809  -2.077  0.00  0.00    -0.082 A 
ATOM      7  C5  PXY d   1       0.484   4.425  -1.039  0.00  0.00     0.003 A 
ATOM      8  C6  PXY d   1       0.608   3.749   0.171  0.00  0.00     0.003 A 
ENDROOT
TORSDOF 0
ENDMDL
