MODEL 1
REMARK minimizedAffinity 14.1612711
REMARK minimizedRMSD -1
REMARK  0 active torsions:
REMARK  status: ('A' for Active; 'I' for Inactive)
ROOT
ATOM      1  C4' PXY d   1       3.404  -2.580   5.363  0.00  0.00     0.077 C 
ATOM      2  C1' PXY d   1      -1.219   0.663   4.128  0.00  0.00     0.077 C 
ATOM      3  C1  PXY d   1      -0.008  -0.193   4.440  0.00  0.00    -0.082 A 
ATOM      4  C2  PXY d   1       0.337  -0.404   5.700  0.00  0.00     0.003 A 
ATOM      5  C3  PXY d   1       1.448  -1.149   6.000  0.00  0.00     0.003 A 
ATOM      6  C4  PXY d   1       2.183  -1.729   5.001  0.00  0.00    -0.082 A 
ATOM      7  C5  PXY d   1       1.831  -1.528   3.713  0.00  0.00     0.003 A 
ATOM      8  C6  PXY d   1       0.724  -0.734   3.429  0.00  0.00     0.003 A 
ENDROOT
TORSDOF 0
ENDMDL
