MODEL 1
REMARK minimizedAffinity -2.22927284
REMARK minimizedRMSD -1
REMARK  0 active torsions:
REMARK  status: ('A' for Active; 'I' for Inactive)
ROOT
ATOM      1  C4' PXY d   1       0.451  -0.064   4.332  0.00  0.00     0.077 C 
ATOM      2  C1' PXY d   1      -0.642   3.481  -0.101  0.00  0.00     0.077 C 
ATOM      3  C1  PXY d   1      -0.367   2.554   1.067  0.00  0.00    -0.082 A 
ATOM      4  C2  PXY d   1       0.883   2.268   1.395  0.00  0.00     0.003 A 
ATOM      5  C3  PXY d   1       1.149   1.407   2.428  0.00  0.00     0.003 A 
ATOM      6  C4  PXY d   1       0.127   0.874   3.166  0.00  0.00    -0.082 A 
ATOM      7  C5  PXY d   1      -1.151   1.169   2.845  0.00  0.00     0.003 A 
ATOM      8  C6  PXY d   1      -1.401   2.013   1.767  0.00  0.00     0.003 A 
ENDROOT
TORSDOF 0
ENDMDL
