MODEL 1
REMARK minimizedAffinity 6.32899427
REMARK minimizedRMSD -1
REMARK  0 active torsions:
REMARK  status: ('A' for Active; 'I' for Inactive)
ROOT
ATOM      1  C4' PXY d   1       0.219   2.023   4.245  0.00  0.00     0.077 C 
ATOM      2  C1' PXY d   1       0.213   3.625  -1.310  0.00  0.00     0.077 C 
ATOM      3  C1  PXY d   1       0.217   3.192   0.143  0.00  0.00    -0.082 A 
ATOM      4  C2  PXY d   1      -0.401   3.934   1.048  0.00  0.00     0.003 A 
ATOM      5  C3  PXY d   1      -0.380   3.575   2.371  0.00  0.00     0.003 A 
ATOM      6  C4  PXY d   1       0.233   2.416   2.765  0.00  0.00    -0.082 A 
ATOM      7  C5  PXY d   1       0.857   1.648   1.846  0.00  0.00     0.003 A 
ATOM      8  C6  PXY d   1       0.860   2.052   0.514  0.00  0.00     0.003 A 
ENDROOT
TORSDOF 0
ENDMDL
