MODEL 1
REMARK minimizedAffinity 1.20766985
REMARK minimizedRMSD -1
REMARK  0 active torsions:
REMARK  status: ('A' for Active; 'I' for Inactive)
ROOT
ATOM      1  C4' PXY d   1       1.861  -5.567   2.312  0.00  0.00     0.077 C 
ATOM      2  C1' PXY d   1      -0.525  -6.000  -2.935  0.00  0.00     0.077 C 
ATOM      3  C1  PXY d   1       0.089  -5.882  -1.555  0.00  0.00    -0.082 A 
ATOM      4  C2  PXY d   1       1.395  -5.714  -1.432  0.00  0.00     0.003 A 
ATOM      5  C3  PXY d   1       1.972  -5.637  -0.190  0.00  0.00     0.003 A 
ATOM      6  C4  PXY d   1       1.196  -5.681   0.937  0.00  0.00    -0.082 A 
ATOM      7  C5  PXY d   1      -0.139  -5.843   0.820  0.00  0.00     0.003 A 
ATOM      8  C6  PXY d   1      -0.700  -5.959  -0.448  0.00  0.00     0.003 A 
ENDROOT
TORSDOF 0
ENDMDL
