MODEL 1
REMARK minimizedAffinity -3.72678852
REMARK minimizedRMSD -1
REMARK  0 active torsions:
REMARK  status: ('A' for Active; 'I' for Inactive)
ROOT
ATOM      1  C4' PXY d   1       0.275   2.617  -1.285  0.00  0.00     0.077 C 
ATOM      2  C1' PXY d   1       1.396  -0.381   3.529  0.00  0.00     0.077 C 
ATOM      3  C1  PXY d   1       1.094   0.413   2.273  0.00  0.00    -0.082 A 
ATOM      4  C2  PXY d   1       1.314  -0.131   1.087  0.00  0.00     0.003 A 
ATOM      5  C3  PXY d   1       1.076   0.584  -0.058  0.00  0.00     0.003 A 
ATOM      6  C4  PXY d   1       0.557   1.849   0.010  0.00  0.00    -0.082 A 
ATOM      7  C5  PXY d   1       0.319   2.407   1.216  0.00  0.00     0.003 A 
ATOM      8  C6  PXY d   1       0.606   1.679   2.368  0.00  0.00     0.003 A 
ENDROOT
TORSDOF 0
ENDMDL
