MODEL 1
REMARK minimizedAffinity -2.14424539
REMARK minimizedRMSD -1
REMARK  0 active torsions:
REMARK  status: ('A' for Active; 'I' for Inactive)
ROOT
ATOM      1  C4' PXY d   1       1.500  -2.047  -0.240  0.00  0.00     0.077 C 
ATOM      2  C1' PXY d   1       0.623   3.226   1.961  0.00  0.00     0.077 C 
ATOM      3  C1  PXY d   1       0.848   1.838   1.395  0.00  0.00    -0.082 A 
ATOM      4  C2  PXY d   1       1.741   1.660   0.435  0.00  0.00     0.003 A 
ATOM      5  C3  PXY d   1       1.935   0.417  -0.111  0.00  0.00     0.003 A 
ATOM      6  C4  PXY d   1       1.246  -0.665   0.368  0.00  0.00    -0.082 A 
ATOM      7  C5  PXY d   1       0.341  -0.494   1.355  0.00  0.00     0.003 A 
ATOM      8  C6  PXY d   1       0.129   0.783   1.867  0.00  0.00     0.003 A 
ENDROOT
TORSDOF 0
ENDMDL
