MODEL 1
REMARK minimizedAffinity -5.1798439
REMARK minimizedRMSD -1
REMARK  1 active torsions:
REMARK  status: ('A' for Active; 'I' for Inactive)
REMARK    1  A    between atoms: C1_2  and  C2_3 
ROOT
ATOM      1  C2  UNL d   1      -0.353   0.001   0.257  0.00  0.00    -0.077 A 
ATOM      2  C3  UNL d   1      -1.639  -0.471   0.551  0.00  0.00     0.002 A 
ATOM      3  C4  UNL d   1      -2.087  -0.526   1.872  0.00  0.00     0.002 A 
ATOM      4  C5  UNL d   1      -1.257  -0.106   2.909  0.00  0.00    -0.004 A 
ATOM      5  C6  UNL d   1       0.025   0.365   2.627  0.00  0.00     0.002 A 
ATOM      6  C7  UNL d   1       0.475   0.419   1.307  0.00  0.00     0.002 A 
ENDROOT
BRANCH   1   7
ATOM      7  C1  UNL d   1       0.114   0.107  -1.171  0.00  0.00     0.055 C 
ATOM      8  C   UNL d   1       0.282   1.560  -1.593  0.00  0.00     0.019 C 
ENDBRANCH   1   7
TORSDOF 1
ENDMDL
