MODEL 1
REMARK minimizedAffinity -4.20798492
REMARK minimizedRMSD -1
REMARK  1 active torsions:
REMARK  status: ('A' for Active; 'I' for Inactive)
REMARK    1  A    between atoms: C1_2  and  C2_3 
ROOT
ATOM      1  C2  UNL d   1      -0.842  -0.210   0.738  0.00  0.00    -0.077 A 
ATOM      2  C3  UNL d   1      -0.675   0.424  -0.502  0.00  0.00     0.002 A 
ATOM      3  C4  UNL d   1       0.281   1.429  -0.658  0.00  0.00     0.002 A 
ATOM      4  C5  UNL d   1       1.080   1.806   0.420  0.00  0.00    -0.004 A 
ATOM      5  C6  UNL d   1       0.920   1.183   1.657  0.00  0.00     0.002 A 
ATOM      6  C7  UNL d   1      -0.036   0.179   1.815  0.00  0.00     0.002 A 
ENDROOT
BRANCH   1   7
ATOM      7  C1  UNL d   1      -1.839  -1.329   0.895  0.00  0.00     0.055 C 
ATOM      8  C   UNL d   1      -1.502  -2.207   2.091  0.00  0.00     0.019 C 
ENDBRANCH   1   7
TORSDOF 1
ENDMDL
