MODEL 1
REMARK minimizedAffinity -5.22411251
REMARK minimizedRMSD -1
REMARK  1 active torsions:
REMARK  status: ('A' for Active; 'I' for Inactive)
REMARK    1  A    between atoms: C1_2  and  C2_3 
ROOT
ATOM      1  C2  UNL d   1      -0.346   0.407   1.090  0.00  0.00    -0.077 A 
ATOM      2  C3  UNL d   1      -0.030  -0.288   2.266  0.00  0.00     0.002 A 
ATOM      3  C4  UNL d   1      -1.045  -0.789   3.085  0.00  0.00     0.002 A 
ATOM      4  C5  UNL d   1      -2.380  -0.604   2.734  0.00  0.00    -0.004 A 
ATOM      5  C6  UNL d   1      -2.705   0.087   1.567  0.00  0.00     0.002 A 
ATOM      6  C7  UNL d   1      -1.692   0.589   0.749  0.00  0.00     0.002 A 
ENDROOT
BRANCH   1   7
ATOM      7  C1  UNL d   1       0.746   0.905   0.181  0.00  0.00     0.055 C 
ATOM      8  C   UNL d   1       1.032  -0.088  -0.937  0.00  0.00     0.019 C 
ENDBRANCH   1   7
TORSDOF 1
ENDMDL
