MODEL 1
REMARK minimizedAffinity -2.47282529
REMARK minimizedRMSD -1
REMARK  1 active torsions:
REMARK  status: ('A' for Active; 'I' for Inactive)
REMARK    1  A    between atoms: C1_2  and  C2_3 
ROOT
ATOM      1  C2  UNL d   1      -0.204   0.383   0.286  0.00  0.00    -0.077 A 
ATOM      2  C3  UNL d   1      -1.121  -0.651   0.523  0.00  0.00     0.002 A 
ATOM      3  C4  UNL d   1      -1.291  -1.163   1.810  0.00  0.00     0.002 A 
ATOM      4  C5  UNL d   1      -0.551  -0.646   2.871  0.00  0.00    -0.004 A 
ATOM      5  C6  UNL d   1       0.365   0.381   2.646  0.00  0.00     0.002 A 
ATOM      6  C7  UNL d   1       0.537   0.894   1.360  0.00  0.00     0.002 A 
ENDROOT
BRANCH   1   7
ATOM      7  C1  UNL d   1      -0.055   0.971  -1.093  0.00  0.00     0.055 C 
ATOM      8  C   UNL d   1       0.704   0.030  -2.016  0.00  0.00     0.019 C 
ENDBRANCH   1   7
TORSDOF 1
ENDMDL
