MODEL 1
REMARK minimizedAffinity -2.79585862
REMARK minimizedRMSD -1
REMARK  1 active torsions:
REMARK  status: ('A' for Active; 'I' for Inactive)
REMARK    1  A    between atoms: C1_2  and  C2_3 
ROOT
ATOM      1  C2  UNL d   1      -0.391   0.338   1.398  0.00  0.00    -0.077 A 
ATOM      2  C3  UNL d   1       0.020   0.143   2.724  0.00  0.00     0.002 A 
ATOM      3  C4  UNL d   1      -0.893   0.270   3.773  0.00  0.00     0.002 A 
ATOM      4  C5  UNL d   1      -2.223   0.587   3.506  0.00  0.00    -0.004 A 
ATOM      5  C6  UNL d   1      -2.641   0.785   2.191  0.00  0.00     0.002 A 
ATOM      6  C7  UNL d   1      -1.730   0.660   1.141  0.00  0.00     0.002 A 
ENDROOT
BRANCH   1   7
ATOM      7  C1  UNL d   1       0.581   0.153   0.262  0.00  0.00     0.055 C 
ATOM      8  C   UNL d   1      -0.085   0.403  -1.083  0.00  0.00     0.019 C 
ENDBRANCH   1   7
TORSDOF 1
ENDMDL
