MODEL 1
REMARK minimizedAffinity -4.97897911
REMARK minimizedRMSD -1
REMARK  1 active torsions:
REMARK  status: ('A' for Active; 'I' for Inactive)
REMARK    1  A    between atoms: C1_2  and  C2_3 
ROOT
ATOM      1  C2  UNL d   1       0.535  -0.373  -2.029  0.00  0.00    -0.077 A 
ATOM      2  C3  UNL d   1       1.899  -0.575  -2.284  0.00  0.00     0.002 A 
ATOM      3  C4  UNL d   1       2.324  -1.688  -3.011  0.00  0.00     0.002 A 
ATOM      4  C5  UNL d   1       1.392  -2.605  -3.492  0.00  0.00    -0.004 A 
ATOM      5  C6  UNL d   1       0.034  -2.414  -3.242  0.00  0.00     0.002 A 
ATOM      6  C7  UNL d   1      -0.393  -1.303  -2.515  0.00  0.00     0.002 A 
ENDROOT
BRANCH   1   7
ATOM      7  C1  UNL d   1       0.070   0.853  -1.287  0.00  0.00     0.055 C 
ATOM      8  C   UNL d   1      -1.424   0.796  -1.004  0.00  0.00     0.019 C 
ENDBRANCH   1   7
TORSDOF 1
ENDMDL
