MODEL 1
REMARK minimizedAffinity -5.20213795
REMARK minimizedRMSD -1
REMARK  1 active torsions:
REMARK  status: ('A' for Active; 'I' for Inactive)
REMARK    1  A    between atoms: C1_2  and  C2_3 
ROOT
ATOM      1  C2  UNL d   1      -0.545   0.213   0.555  0.00  0.00    -0.077 A 
ATOM      2  C3  UNL d   1      -1.887  -0.106   0.807  0.00  0.00     0.002 A 
ATOM      3  C4  UNL d   1      -2.295  -0.483   2.088  0.00  0.00     0.002 A 
ATOM      4  C5  UNL d   1      -1.369  -0.540   3.127  0.00  0.00    -0.004 A 
ATOM      5  C6  UNL d   1      -0.032  -0.227   2.887  0.00  0.00     0.002 A 
ATOM      6  C7  UNL d   1       0.378   0.149   1.607  0.00  0.00     0.002 A 
ENDROOT
BRANCH   1   7
ATOM      7  C1  UNL d   1      -0.112   0.667  -0.814  0.00  0.00     0.055 C 
ATOM      8  C   UNL d   1       0.201  -0.518  -1.717  0.00  0.00     0.019 C 
ENDBRANCH   1   7
TORSDOF 1
ENDMDL
