MODEL 1
REMARK minimizedAffinity -2.71606755
REMARK minimizedRMSD -1
REMARK  1 active torsions:
REMARK  status: ('A' for Active; 'I' for Inactive)
REMARK    1  A    between atoms: C1_2  and  C2_3 
ROOT
ATOM      1  C2  UNL d   1       0.235   0.100   0.028  0.00  0.00    -0.077 A 
ATOM      2  C3  UNL d   1      -0.905  -0.451   0.630  0.00  0.00     0.002 A 
ATOM      3  C4  UNL d   1      -1.056  -0.419   2.018  0.00  0.00     0.002 A 
ATOM      4  C5  UNL d   1      -0.074   0.165   2.814  0.00  0.00    -0.004 A 
ATOM      5  C6  UNL d   1       1.064   0.714   2.225  0.00  0.00     0.002 A 
ATOM      6  C7  UNL d   1       1.218   0.682   0.838  0.00  0.00     0.002 A 
ENDROOT
BRANCH   1   7
ATOM      7  C1  UNL d   1       0.376   0.111  -1.471  0.00  0.00     0.055 C 
ATOM      8  C   UNL d   1       1.840   0.115  -1.889  0.00  0.00     0.019 C 
ENDBRANCH   1   7
TORSDOF 1
ENDMDL
