MODEL 1
REMARK minimizedAffinity -3.2255764
REMARK minimizedRMSD -1
REMARK  1 active torsions:
REMARK  status: ('A' for Active; 'I' for Inactive)
REMARK    1  A    between atoms: C1_2  and  C2_3 
ROOT
ATOM      1  C2  UNL d   1       0.885  -0.208  -2.068  0.00  0.00    -0.077 A 
ATOM      2  C3  UNL d   1       2.164   0.364  -2.106  0.00  0.00     0.002 A 
ATOM      3  C4  UNL d   1       3.142  -0.148  -2.961  0.00  0.00     0.002 A 
ATOM      4  C5  UNL d   1       2.849  -1.231  -3.787  0.00  0.00    -0.004 A 
ATOM      5  C6  UNL d   1       1.581  -1.808  -3.755  0.00  0.00     0.002 A 
ATOM      6  C7  UNL d   1       0.603  -1.299  -2.900  0.00  0.00     0.002 A 
ENDROOT
BRANCH   1   7
ATOM      7  C1  UNL d   1      -0.186   0.374  -1.182  0.00  0.00     0.055 C 
ATOM      8  C   UNL d   1      -0.098  -0.183   0.232  0.00  0.00     0.019 C 
ENDBRANCH   1   7
TORSDOF 1
ENDMDL
