MODEL 1
REMARK minimizedAffinity -4.84585047
REMARK minimizedRMSD -1
REMARK  1 active torsions:
REMARK  status: ('A' for Active; 'I' for Inactive)
REMARK    1  A    between atoms: C1_2  and  C2_3 
ROOT
ATOM      1  C2  UNL d   1      -0.305   0.148   0.155  0.00  0.00    -0.077 A 
ATOM      2  C3  UNL d   1      -1.676   0.087   0.442  0.00  0.00     0.002 A 
ATOM      3  C4  UNL d   1      -2.115  -0.139   1.748  0.00  0.00     0.002 A 
ATOM      4  C5  UNL d   1      -1.190  -0.302   2.777  0.00  0.00    -0.004 A 
ATOM      5  C6  UNL d   1       0.175  -0.244   2.502  0.00  0.00     0.002 A 
ATOM      6  C7  UNL d   1       0.616  -0.020   1.197  0.00  0.00     0.002 A 
ENDROOT
BRANCH   1   7
ATOM      7  C1  UNL d   1       0.170   0.440  -1.245  0.00  0.00     0.055 C 
ATOM      8  C   UNL d   1       0.654  -0.824  -1.940  0.00  0.00     0.019 C 
ENDBRANCH   1   7
TORSDOF 1
ENDMDL
