MODEL 1
REMARK minimizedAffinity 4.18685532
REMARK minimizedRMSD -1
REMARK  0 active torsions:
REMARK  status: ('A' for Active; 'I' for Inactive)
ROOT
ATOM      1  C   UNL d   1       4.468   1.489   2.728  0.00  0.00    -0.002 A 
ATOM      2  C1  UNL d   1       3.670   2.053   3.713  0.00  0.00     0.010 A 
ATOM      3  C2  UNL d   1       3.647   3.436   3.904  0.00  0.00     0.041 A 
ATOM      4  C3  UNL d   1       4.446   4.251   3.079  0.00  0.00    -0.075 A 
ATOM      5  S   UNL d   1       4.578   5.969   3.130  0.00  0.00     0.015 SA
ATOM      6  C4  UNL d   1       5.697   5.996   1.844  0.00  0.00     0.022 A 
ATOM      7  C5  UNL d   1       5.974   4.733   1.376  0.00  0.00     0.026 A 
ATOM      8  C6  UNL d   1       5.258   3.707   2.079  0.00  0.00    -0.082 A 
ATOM      9  C7  UNL d   1       5.259   2.301   1.911  0.00  0.00     0.045 A 
ENDROOT
TORSDOF 0
ENDMDL
