MODEL 1
REMARK minimizedAffinity 17.4823513
REMARK minimizedRMSD -1
REMARK  0 active torsions:
REMARK  status: ('A' for Active; 'I' for Inactive)
ROOT
ATOM      1  C   UNL d   1       5.753   0.580   1.586  0.00  0.00    -0.002 A 
ATOM      2  C1  UNL d   1       5.999   1.783   0.939  0.00  0.00     0.010 A 
ATOM      3  C2  UNL d   1       6.000   2.985   1.650  0.00  0.00     0.041 A 
ATOM      4  C3  UNL d   1       5.749   2.957   3.036  0.00  0.00    -0.075 A 
ATOM      5  S   UNL d   1       5.701   4.303   4.112  0.00  0.00     0.015 SA
ATOM      6  C4  UNL d   1       5.354   3.314   5.455  0.00  0.00     0.022 A 
ATOM      7  C5  UNL d   1       5.273   1.985   5.110  0.00  0.00     0.026 A 
ATOM      8  C6  UNL d   1       5.499   1.758   3.710  0.00  0.00    -0.082 A 
ATOM      9  C7  UNL d   1       5.504   0.556   2.961  0.00  0.00     0.045 A 
ENDROOT
TORSDOF 0
ENDMDL
