MODEL 1
REMARK minimizedAffinity 24.7297554
REMARK minimizedRMSD -1
REMARK  0 active torsions:
REMARK  status: ('A' for Active; 'I' for Inactive)
ROOT
ATOM      1  C   UNL d   1      -1.137  -2.723  -1.612  0.00  0.00    -0.002 A 
ATOM      2  C1  UNL d   1      -1.996  -3.148  -2.615  0.00  0.00     0.010 A 
ATOM      3  C2  UNL d   1      -1.834  -2.698  -3.927  0.00  0.00     0.041 A 
ATOM      4  C3  UNL d   1      -0.783  -1.806  -4.216  0.00  0.00    -0.075 A 
ATOM      5  S   UNL d   1      -0.392  -1.123  -5.750  0.00  0.00     0.015 SA
ATOM      6  C4  UNL d   1       0.925  -0.251  -5.110  0.00  0.00     0.022 A 
ATOM      7  C5  UNL d   1       1.077  -0.464  -3.761  0.00  0.00     0.026 A 
ATOM      8  C6  UNL d   1       0.096  -1.364  -3.223  0.00  0.00    -0.082 A 
ATOM      9  C7  UNL d   1      -0.095  -1.838  -1.903  0.00  0.00     0.045 A 
ENDROOT
TORSDOF 0
ENDMDL
