MODEL 1
REMARK minimizedAffinity 21.4624462
REMARK minimizedRMSD -1
REMARK  0 active torsions:
REMARK  status: ('A' for Active; 'I' for Inactive)
ROOT
ATOM      1  C   UNL d   1      -1.914  -1.624   1.217  0.00  0.00    -0.002 A 
ATOM      2  C1  UNL d   1      -2.579  -2.603   1.942  0.00  0.00     0.010 A 
ATOM      3  C2  UNL d   1      -1.916  -3.321   2.939  0.00  0.00     0.041 A 
ATOM      4  C3  UNL d   1      -0.561  -3.034   3.200  0.00  0.00    -0.075 A 
ATOM      5  S   UNL d   1       0.453  -3.785   4.375  0.00  0.00     0.015 SA
ATOM      6  C4  UNL d   1       1.792  -2.822   3.943  0.00  0.00     0.022 A 
ATOM      7  C5  UNL d   1       1.490  -1.944   2.929  0.00  0.00     0.026 A 
ATOM      8  C6  UNL d   1       0.129  -2.052   2.484  0.00  0.00    -0.082 A 
ATOM      9  C7  UNL d   1      -0.571  -1.342   1.479  0.00  0.00     0.045 A 
ENDROOT
TORSDOF 0
ENDMDL
