MODEL 1
REMARK minimizedAffinity 18.4874668
REMARK minimizedRMSD -1
REMARK  0 active torsions:
REMARK  status: ('A' for Active; 'I' for Inactive)
ROOT
ATOM      1  C   UNL d   1       1.975  -1.328   3.379  0.00  0.00    -0.002 A 
ATOM      2  C1  UNL d   1       1.458  -2.577   3.692  0.00  0.00     0.010 A 
ATOM      3  C2  UNL d   1       2.183  -3.467   4.487  0.00  0.00     0.041 A 
ATOM      4  C3  UNL d   1       3.448  -3.076   4.968  0.00  0.00    -0.075 A 
ATOM      5  S   UNL d   1       4.514  -4.001   5.958  0.00  0.00     0.015 SA
ATOM      6  C4  UNL d   1       5.681  -2.759   5.990  0.00  0.00     0.022 A 
ATOM      7  C5  UNL d   1       5.284  -1.659   5.268  0.00  0.00     0.026 A 
ATOM      8  C6  UNL d   1       3.990  -1.823   4.667  0.00  0.00    -0.082 A 
ATOM      9  C7  UNL d   1       3.231  -0.944   3.858  0.00  0.00     0.045 A 
ENDROOT
TORSDOF 0
ENDMDL
