MODEL 1
REMARK minimizedAffinity 19.5440159
REMARK minimizedRMSD -1
REMARK  0 active torsions:
REMARK  status: ('A' for Active; 'I' for Inactive)
ROOT
ATOM      1  C   UNL d   1      -1.073  -6.000  -4.802  0.00  0.00    -0.002 A 
ATOM      2  C1  UNL d   1      -0.982  -5.068  -5.826  0.00  0.00     0.010 A 
ATOM      3  C2  UNL d   1      -0.946  -3.702  -5.542  0.00  0.00     0.041 A 
ATOM      4  C3  UNL d   1      -1.001  -3.283  -4.198  0.00  0.00    -0.075 A 
ATOM      5  S   UNL d   1      -0.971  -1.662  -3.612  0.00  0.00     0.015 SA
ATOM      6  C4  UNL d   1      -1.077  -2.168  -1.988  0.00  0.00     0.022 A 
ATOM      7  C5  UNL d   1      -1.135  -3.537  -1.877  0.00  0.00     0.026 A 
ATOM      8  C6  UNL d   1      -1.092  -4.202  -3.149  0.00  0.00    -0.082 A 
ATOM      9  C7  UNL d   1      -1.128  -5.581  -3.470  0.00  0.00     0.045 A 
ENDROOT
TORSDOF 0
ENDMDL
