MODEL 1
REMARK minimizedAffinity 27.1324749
REMARK minimizedRMSD -1
REMARK  0 active torsions:
REMARK  status: ('A' for Active; 'I' for Inactive)
ROOT
ATOM      1  C   UNL d   1       0.441   1.402   2.534  0.00  0.00    -0.002 A 
ATOM      2  C1  UNL d   1       1.070   0.430   1.768  0.00  0.00     0.010 A 
ATOM      3  C2  UNL d   1       0.378  -0.714   1.366  0.00  0.00     0.041 A 
ATOM      4  C3  UNL d   1      -0.969  -0.866   1.748  0.00  0.00    -0.075 A 
ATOM      5  S   UNL d   1      -2.014  -2.184   1.370  0.00  0.00     0.015 SA
ATOM      6  C4  UNL d   1      -3.320  -1.488   2.216  0.00  0.00     0.022 A 
ATOM      7  C5  UNL d   1      -2.984  -0.280   2.779  0.00  0.00     0.026 A 
ATOM      8  C6  UNL d   1      -1.624   0.099   2.519  0.00  0.00    -0.082 A 
ATOM      9  C7  UNL d   1      -0.895   1.247   2.912  0.00  0.00     0.045 A 
ENDROOT
TORSDOF 0
ENDMDL
