MODEL 1
REMARK minimizedAffinity 6.24277544
REMARK minimizedRMSD -1
REMARK  0 active torsions:
REMARK  status: ('A' for Active; 'I' for Inactive)
ROOT
ATOM      1  C   UNL d   1      -4.179   0.002   0.140  0.00  0.00    -0.002 A 
ATOM      2  C1  UNL d   1      -5.236   0.835   0.479  0.00  0.00     0.010 A 
ATOM      3  C2  UNL d   1      -5.857   0.722   1.725  0.00  0.00     0.041 A 
ATOM      4  C3  UNL d   1      -5.392  -0.250   2.633  0.00  0.00    -0.075 A 
ATOM      5  S   UNL d   1      -5.998  -0.568   4.215  0.00  0.00     0.015 SA
ATOM      6  C4  UNL d   1      -4.868  -1.816   4.478  0.00  0.00     0.022 A 
ATOM      7  C5  UNL d   1      -4.040  -1.999   3.395  0.00  0.00     0.026 A 
ATOM      8  C6  UNL d   1      -4.328  -1.099   2.314  0.00  0.00    -0.082 A 
ATOM      9  C7  UNL d   1      -3.720  -0.960   1.043  0.00  0.00     0.045 A 
ENDROOT
TORSDOF 0
ENDMDL
