MODEL 1
REMARK minimizedAffinity 12.1992502
REMARK minimizedRMSD -1
REMARK  0 active torsions:
REMARK  status: ('A' for Active; 'I' for Inactive)
ROOT
ATOM      1  C   UNL d   1       0.533   2.923   0.576  0.00  0.00    -0.002 A 
ATOM      2  C1  UNL d   1      -0.187   1.749   0.408  0.00  0.00     0.010 A 
ATOM      3  C2  UNL d   1      -1.011   1.574  -0.705  0.00  0.00     0.041 A 
ATOM      4  C3  UNL d   1      -1.098   2.609  -1.658  0.00  0.00    -0.075 A 
ATOM      5  S   UNL d   1      -2.042   2.617  -3.100  0.00  0.00     0.015 SA
ATOM      6  C4  UNL d   1      -1.511   4.178  -3.528  0.00  0.00     0.022 A 
ATOM      7  C5  UNL d   1      -0.634   4.696  -2.604  0.00  0.00     0.026 A 
ATOM      8  C6  UNL d   1      -0.382   3.800  -1.511  0.00  0.00    -0.082 A 
ATOM      9  C7  UNL d   1       0.444   3.947  -0.371  0.00  0.00     0.045 A 
ENDROOT
TORSDOF 0
ENDMDL
