MODEL 1
REMARK minimizedAffinity 14.7409563
REMARK minimizedRMSD -1
REMARK  0 active torsions:
REMARK  status: ('A' for Active; 'I' for Inactive)
ROOT
ATOM      1  C   UNL d   1      -5.999  -1.174   3.762  0.00  0.00    -0.002 A 
ATOM      2  C1  UNL d   1      -4.931  -2.051   3.889  0.00  0.00     0.010 A 
ATOM      3  C2  UNL d   1      -3.618  -1.593   3.763  0.00  0.00     0.041 A 
ATOM      4  C3  UNL d   1      -3.394  -0.226   3.508  0.00  0.00    -0.075 A 
ATOM      5  S   UNL d   1      -1.872   0.561   3.317  0.00  0.00     0.015 SA
ATOM      6  C4  UNL d   1      -2.604   2.079   3.064  0.00  0.00     0.022 A 
ATOM      7  C5  UNL d   1      -3.976   2.006   3.120  0.00  0.00     0.026 A 
ATOM      8  C6  UNL d   1      -4.454   0.677   3.378  0.00  0.00    -0.082 A 
ATOM      9  C7  UNL d   1      -5.774   0.182   3.509  0.00  0.00     0.045 A 
ENDROOT
TORSDOF 0
ENDMDL
