MODEL 1
REMARK minimizedAffinity 8.64615154
REMARK minimizedRMSD -1
REMARK  0 active torsions:
REMARK  status: ('A' for Active; 'I' for Inactive)
ROOT
ATOM      1  C   UNL d   1      -4.813  -3.061   5.104  0.00  0.00    -0.002 A 
ATOM      2  C1  UNL d   1      -5.590  -2.301   5.966  0.00  0.00     0.010 A 
ATOM      3  C2  UNL d   1      -6.000  -1.015   5.607  0.00  0.00     0.041 A 
ATOM      4  C3  UNL d   1      -5.613  -0.503   4.353  0.00  0.00    -0.075 A 
ATOM      5  S   UNL d   1      -5.998   1.046   3.699  0.00  0.00     0.015 SA
ATOM      6  C4  UNL d   1      -5.140   0.734   2.260  0.00  0.00     0.022 A 
ATOM      7  C5  UNL d   1      -4.567  -0.516   2.261  0.00  0.00     0.026 A 
ATOM      8  C6  UNL d   1      -4.831  -1.250   3.467  0.00  0.00    -0.082 A 
ATOM      9  C7  UNL d   1      -4.431  -2.549   3.862  0.00  0.00     0.045 A 
ENDROOT
TORSDOF 0
ENDMDL
