MODEL 1
REMARK minimizedAffinity 13.2741098
REMARK minimizedRMSD -1
REMARK  0 active torsions:
REMARK  status: ('A' for Active; 'I' for Inactive)
ROOT
ATOM      1  C   UNL d   1      -5.940  -2.544   5.999  0.00  0.00    -0.002 A 
ATOM      2  C1  UNL d   1      -5.961  -3.568   5.063  0.00  0.00     0.010 A 
ATOM      3  C2  UNL d   1      -5.980  -3.282   3.696  0.00  0.00     0.041 A 
ATOM      4  C3  UNL d   1      -5.977  -1.935   3.282  0.00  0.00    -0.075 A 
ATOM      5  S   UNL d   1      -5.998  -1.345   1.662  0.00  0.00     0.015 SA
ATOM      6  C4  UNL d   1      -5.980   0.280   2.174  0.00  0.00     0.022 A 
ATOM      7  C5  UNL d   1      -5.958   0.389   3.545  0.00  0.00     0.026 A 
ATOM      8  C6  UNL d   1      -5.956  -0.886   4.206  0.00  0.00    -0.082 A 
ATOM      9  C7  UNL d   1      -5.938  -1.209   5.584  0.00  0.00     0.045 A 
ENDROOT
TORSDOF 0
ENDMDL
