MODEL 1
REMARK minimizedAffinity 18.3456688
REMARK minimizedRMSD -1
REMARK  0 active torsions:
REMARK  status: ('A' for Active; 'I' for Inactive)
ROOT
ATOM      1  C   UNL d   1       5.193  -5.990  -1.571  0.00  0.00    -0.002 A 
ATOM      2  C1  UNL d   1       5.741  -5.048  -0.713  0.00  0.00     0.010 A 
ATOM      3  C2  UNL d   1       4.930  -4.096  -0.092  0.00  0.00     0.041 A 
ATOM      4  C3  UNL d   1       3.545  -4.108  -0.349  0.00  0.00    -0.075 A 
ATOM      5  S   UNL d   1       2.358  -3.040   0.300  0.00  0.00     0.015 SA
ATOM      6  C4  UNL d   1       1.095  -3.810  -0.546  0.00  0.00     0.022 A 
ATOM      7  C5  UNL d   1       1.550  -4.858  -1.310  0.00  0.00     0.026 A 
ATOM      8  C6  UNL d   1       2.969  -5.048  -1.208  0.00  0.00    -0.082 A 
ATOM      9  C7  UNL d   1       3.818  -6.000  -1.824  0.00  0.00     0.045 A 
ENDROOT
TORSDOF 0
ENDMDL
