MODEL 1
REMARK minimizedAffinity 13.6316891
REMARK minimizedRMSD -1
REMARK  0 active torsions:
REMARK  status: ('A' for Active; 'I' for Inactive)
ROOT
ATOM      1  C   UNL d   1      -5.999  -5.238  -5.557  0.00  0.00    -0.002 A 
ATOM      2  C1  UNL d   1      -5.824  -3.918  -5.950  0.00  0.00     0.010 A 
ATOM      3  C2  UNL d   1      -4.559  -3.329  -5.915  0.00  0.00     0.041 A 
ATOM      4  C3  UNL d   1      -3.461  -4.096  -5.475  0.00  0.00    -0.075 A 
ATOM      5  S   UNL d   1      -1.820  -3.584  -5.350  0.00  0.00     0.015 SA
ATOM      6  C4  UNL d   1      -1.312  -5.105  -4.772  0.00  0.00     0.022 A 
ATOM      7  C5  UNL d   1      -2.357  -5.993  -4.671  0.00  0.00     0.026 A 
ATOM      8  C6  UNL d   1      -3.613  -5.426  -5.075  0.00  0.00    -0.082 A 
ATOM      9  C7  UNL d   1      -4.908  -5.995  -5.121  0.00  0.00     0.045 A 
ENDROOT
TORSDOF 0
ENDMDL
