MODEL 1
REMARK minimizedAffinity 10.956996
REMARK minimizedRMSD -1
REMARK  0 active torsions:
REMARK  status: ('A' for Active; 'I' for Inactive)
ROOT
ATOM      1  C   UNL d   1      -5.971  -5.254  -5.297  0.00  0.00    -0.002 A 
ATOM      2  C1  UNL d   1      -5.693  -4.067  -5.960  0.00  0.00     0.010 A 
ATOM      3  C2  UNL d   1      -4.395  -3.554  -5.982  0.00  0.00     0.041 A 
ATOM      4  C3  UNL d   1      -3.371  -4.261  -5.322  0.00  0.00    -0.075 A 
ATOM      5  S   UNL d   1      -1.706  -3.823  -5.216  0.00  0.00     0.015 SA
ATOM      6  C4  UNL d   1      -1.326  -5.202  -4.290  0.00  0.00     0.022 A 
ATOM      7  C5  UNL d   1      -2.429  -5.988  -4.057  0.00  0.00     0.026 A 
ATOM      8  C6  UNL d   1      -3.626  -5.459  -4.648  0.00  0.00    -0.082 A 
ATOM      9  C7  UNL d   1      -4.953  -5.953  -4.643  0.00  0.00     0.045 A 
ENDROOT
TORSDOF 0
ENDMDL
