MODEL 1
REMARK minimizedAffinity 5.38131952
REMARK minimizedRMSD -1
REMARK  0 active torsions:
REMARK  status: ('A' for Active; 'I' for Inactive)
ROOT
ATOM      1  C   UNL d   1      -0.749  -1.597  -2.233  0.00  0.00     0.020 A 
ATOM      2  C1  UNL d   1      -0.008  -0.420  -2.139  0.00  0.00     0.020 A 
ATOM      3  C2  UNL d   1       1.257  -0.436  -1.549  0.00  0.00     0.034 A 
ATOM      4  C3  UNL d   1       1.786  -1.632  -1.051  0.00  0.00     0.017 A 
ATOM      5  C4  UNL d   1       1.042  -2.814  -1.145  0.00  0.00     0.017 A 
ATOM      6  C5  UNL d   1      -0.225  -2.792  -1.737  0.00  0.00     0.034 A 
ATOM      7 Cl   UNL d   1       1.628  -4.328  -0.553  0.00  0.00    -0.070 Cl
ATOM      8 Cl1  UNL d   1       3.358  -1.579  -0.334  0.00  0.00    -0.070 Cl
ENDROOT
TORSDOF 0
ENDMDL
