MODEL 1
REMARK minimizedAffinity 10.0994492
REMARK minimizedRMSD -1
REMARK  0 active torsions:
REMARK  status: ('A' for Active; 'I' for Inactive)
ROOT
ATOM      1  C   UNL d   1       0.414  -1.214  -2.518  0.00  0.00     0.020 A 
ATOM      2  C1  UNL d   1      -0.807  -1.850  -2.737  0.00  0.00     0.020 A 
ATOM      3  C2  UNL d   1      -1.991  -1.262  -2.287  0.00  0.00     0.034 A 
ATOM      4  C3  UNL d   1      -1.957  -0.033  -1.617  0.00  0.00     0.017 A 
ATOM      5  C4  UNL d   1      -0.730   0.605  -1.398  0.00  0.00     0.017 A 
ATOM      6  C5  UNL d   1       0.452   0.011  -1.851  0.00  0.00     0.034 A 
ATOM      7 Cl   UNL d   1      -0.608   2.122  -0.579  0.00  0.00    -0.070 Cl
ATOM      8 Cl1  UNL d   1      -3.460   0.636  -1.089  0.00  0.00    -0.070 Cl
ENDROOT
TORSDOF 0
ENDMDL
