MODEL 1
REMARK minimizedAffinity -1.3788842
REMARK minimizedRMSD -1
REMARK  0 active torsions:
REMARK  status: ('A' for Active; 'I' for Inactive)
ROOT
ATOM      1  C   UNL d   1      -0.069  -1.298  -1.158  0.00  0.00     0.020 A 
ATOM      2  C1  UNL d   1      -1.373  -1.782  -1.252  0.00  0.00     0.020 A 
ATOM      3  C2  UNL d   1      -2.447  -0.890  -1.298  0.00  0.00     0.034 A 
ATOM      4  C3  UNL d   1      -2.218   0.490  -1.250  0.00  0.00     0.017 A 
ATOM      5  C4  UNL d   1      -0.909   0.975  -1.155  0.00  0.00     0.017 A 
ATOM      6  C5  UNL d   1       0.163   0.077  -1.109  0.00  0.00     0.034 A 
ATOM      7 Cl   UNL d   1      -0.548   2.664  -1.090  0.00  0.00    -0.070 Cl
ATOM      8 Cl1  UNL d   1      -3.593   1.535  -1.311  0.00  0.00    -0.070 Cl
ENDROOT
TORSDOF 0
ENDMDL
