MODEL 1
REMARK minimizedAffinity 9.43703079
REMARK minimizedRMSD -1
REMARK  0 active torsions:
REMARK  status: ('A' for Active; 'I' for Inactive)
ROOT
ATOM      1  C   UNL d   1       1.580  -3.078  -5.762  0.00  0.00     0.020 A 
ATOM      2  C1  UNL d   1       0.856  -3.319  -4.596  0.00  0.00     0.020 A 
ATOM      3  C2  UNL d   1       1.390  -4.137  -3.598  0.00  0.00     0.034 A 
ATOM      4  C3  UNL d   1       2.653  -4.717  -3.765  0.00  0.00     0.017 A 
ATOM      5  C4  UNL d   1       3.379  -4.474  -4.937  0.00  0.00     0.017 A 
ATOM      6  C5  UNL d   1       2.839  -3.655  -5.933  0.00  0.00     0.034 A 
ATOM      7 Cl   UNL d   1       4.944  -5.155  -5.215  0.00  0.00    -0.070 Cl
ATOM      8 Cl1  UNL d   1       3.253  -5.717  -2.491  0.00  0.00    -0.070 Cl
ENDROOT
TORSDOF 0
ENDMDL
