MODEL 1
REMARK minimizedAffinity 9.11363029
REMARK minimizedRMSD -1
REMARK  0 active torsions:
REMARK  status: ('A' for Active; 'I' for Inactive)
ROOT
ATOM      1  C   UNL d   1      -0.043  -1.598  -3.666  0.00  0.00     0.020 A 
ATOM      2  C1  UNL d   1      -1.368  -1.990  -3.851  0.00  0.00     0.020 A 
ATOM      3  C2  UNL d   1      -2.358  -1.541  -2.974  0.00  0.00     0.034 A 
ATOM      4  C3  UNL d   1      -2.024  -0.698  -1.908  0.00  0.00     0.017 A 
ATOM      5  C4  UNL d   1      -0.694  -0.305  -1.723  0.00  0.00     0.017 A 
ATOM      6  C5  UNL d   1       0.293  -0.757  -2.604  0.00  0.00     0.034 A 
ATOM      7 Cl   UNL d   1      -0.205   0.734  -0.431  0.00  0.00    -0.070 Cl
ATOM      8 Cl1  UNL d   1      -3.299  -0.181  -0.862  0.00  0.00    -0.070 Cl
ENDROOT
TORSDOF 0
ENDMDL
