MODEL 1
REMARK minimizedAffinity 11.5548429
REMARK minimizedRMSD -1
REMARK  0 active torsions:
REMARK  status: ('A' for Active; 'I' for Inactive)
ROOT
ATOM      1  C   UNL d   1      -4.495  -0.884  -0.767  0.00  0.00     0.020 A 
ATOM      2  C1  UNL d   1      -4.251   0.348  -0.162  0.00  0.00     0.020 A 
ATOM      3  C2  UNL d   1      -2.995   0.947  -0.280  0.00  0.00     0.034 A 
ATOM      4  C3  UNL d   1      -1.978   0.315  -1.005  0.00  0.00     0.017 A 
ATOM      5  C4  UNL d   1      -2.225  -0.922  -1.612  0.00  0.00     0.017 A 
ATOM      6  C5  UNL d   1      -3.484  -1.518  -1.491  0.00  0.00     0.034 A 
ATOM      7 Cl   UNL d   1      -1.021  -1.764  -2.523  0.00  0.00    -0.070 Cl
ATOM      8 Cl1  UNL d   1      -0.450   1.113  -1.110  0.00  0.00    -0.070 Cl
ENDROOT
TORSDOF 0
ENDMDL
