MODEL 1
REMARK minimizedAffinity 5.41987419
REMARK minimizedRMSD -1
REMARK  0 active torsions:
REMARK  status: ('A' for Active; 'I' for Inactive)
ROOT
ATOM      1  C   UNL d   1      -3.183  -0.504  -1.539  0.00  0.00     0.020 A 
ATOM      2  C1  UNL d   1      -2.952  -1.111  -0.306  0.00  0.00     0.020 A 
ATOM      3  C2  UNL d   1      -3.665  -0.697   0.821  0.00  0.00     0.034 A 
ATOM      4  C3  UNL d   1      -4.613   0.327   0.716  0.00  0.00     0.017 A 
ATOM      5  C4  UNL d   1      -4.845   0.936  -0.522  0.00  0.00     0.017 A 
ATOM      6  C5  UNL d   1      -4.128   0.517  -1.647  0.00  0.00     0.034 A 
ATOM      7 Cl   UNL d   1      -5.998   2.206  -0.730  0.00  0.00    -0.070 Cl
ATOM      8 Cl1  UNL d   1      -5.459   0.789   2.151  0.00  0.00    -0.070 Cl
ENDROOT
TORSDOF 0
ENDMDL
