MODEL 1
REMARK minimizedAffinity 5.94507074
REMARK minimizedRMSD -1
REMARK  0 active torsions:
REMARK  status: ('A' for Active; 'I' for Inactive)
ROOT
ATOM      1  C   UNL d   1       5.301  -1.297  -1.096  0.00  0.00     0.020 A 
ATOM      2  C1  UNL d   1       4.526  -1.906  -0.110  0.00  0.00     0.020 A 
ATOM      3  C2  UNL d   1       3.918  -3.138  -0.361  0.00  0.00     0.034 A 
ATOM      4  C3  UNL d   1       4.085  -3.765  -1.601  0.00  0.00     0.017 A 
ATOM      5  C4  UNL d   1       4.864  -3.154  -2.590  0.00  0.00     0.017 A 
ATOM      6  C5  UNL d   1       5.470  -1.920  -2.334  0.00  0.00     0.034 A 
ATOM      7 Cl   UNL d   1       5.115  -3.867  -4.145  0.00  0.00    -0.070 Cl
ATOM      8 Cl1  UNL d   1       3.304  -5.288  -1.843  0.00  0.00    -0.070 Cl
ENDROOT
TORSDOF 0
ENDMDL
