MODEL 1
REMARK minimizedAffinity 0.270606279
REMARK minimizedRMSD -1
REMARK  0 active torsions:
REMARK  status: ('A' for Active; 'I' for Inactive)
ROOT
ATOM      1  N1  IND d   1       3.676   0.641   0.803  0.00  0.00    -0.196 N 
ATOM      2  C2  IND d   1       5.041   0.583   0.782  0.00  0.00     0.054 A 
ATOM      3  C3  IND d   1       5.460  -0.692   0.946  0.00  0.00    -0.031 A 
ATOM      4  C4  IND d   1       4.078  -2.853   1.163  0.00  0.00     0.051 A 
ATOM      5  C5  IND d   1       2.792  -3.302   1.273  0.00  0.00    -0.031 A 
ATOM      6  C6  IND d   1       1.713  -2.443   1.229  0.00  0.00     0.015 A 
ATOM      7  C7  IND d   1       1.880  -1.098   1.060  0.00  0.00    -0.016 A 
ATOM      8  C8  IND d   1       3.185  -0.637   0.955  0.00  0.00    -0.047 A 
ATOM      9  C9  IND d   1       4.285  -1.499   1.042  0.00  0.00    -0.096 A 
ATOM     10  HN1 IND d   1       3.203   1.356   0.733  0.00  0.00     0.298 HD
ENDROOT
TORSDOF 0
ENDMDL
