MODEL 1
REMARK minimizedAffinity 11.6007557
REMARK minimizedRMSD -1
REMARK  0 active torsions:
REMARK  status: ('A' for Active; 'I' for Inactive)
ROOT
ATOM      1  N1  IND d   1       2.216  -4.024   0.359  0.00  0.00    -0.196 N 
ATOM      2  C2  IND d   1       3.091  -3.026   0.030  0.00  0.00     0.054 A 
ATOM      3  C3  IND d   1       2.788  -1.894   0.704  0.00  0.00    -0.031 A 
ATOM      4  C4  IND d   1       0.963  -1.481   2.471  0.00  0.00     0.051 A 
ATOM      5  C5  IND d   1      -0.105  -2.081   3.077  0.00  0.00    -0.031 A 
ATOM      6  C6  IND d   1      -0.460  -3.386   2.805  0.00  0.00     0.015 A 
ATOM      7  C7  IND d   1       0.251  -4.147   1.920  0.00  0.00    -0.016 A 
ATOM      8  C8  IND d   1       1.332  -3.539   1.298  0.00  0.00    -0.047 A 
ATOM      9  C9  IND d   1       1.671  -2.201   1.539  0.00  0.00    -0.096 A 
ATOM     10  HN1 IND d   1       2.218  -4.820   0.035  0.00  0.00     0.298 HD
ENDROOT
TORSDOF 0
ENDMDL
