MODEL 1
REMARK minimizedAffinity 15.0261345
REMARK minimizedRMSD -1
REMARK  0 active torsions:
REMARK  status: ('A' for Active; 'I' for Inactive)
ROOT
ATOM      1  N1  IND d   1       5.997   1.223   1.744  0.00  0.00    -0.196 N 
ATOM      2  C2  IND d   1       5.993   2.534   1.359  0.00  0.00     0.054 A 
ATOM      3  C3  IND d   1       6.000   2.629   0.011  0.00  0.00    -0.031 A 
ATOM      4  C4  IND d   1       5.916   0.763  -1.760  0.00  0.00     0.051 A 
ATOM      5  C5  IND d   1       5.946  -0.597  -1.895  0.00  0.00    -0.031 A 
ATOM      6  C6  IND d   1       5.992  -1.437  -0.801  0.00  0.00     0.015 A 
ATOM      7  C7  IND d   1       6.000  -0.946   0.474  0.00  0.00    -0.016 A 
ATOM      8  C8  IND d   1       5.977   0.435   0.614  0.00  0.00    -0.047 A 
ATOM      9  C9  IND d   1       5.972   1.293  -0.493  0.00  0.00    -0.096 A 
ATOM     10  HN1 IND d   1       6.011   0.938   2.555  0.00  0.00     0.298 HD
ENDROOT
TORSDOF 0
ENDMDL
