MODEL 1
REMARK minimizedAffinity 2.85763216
REMARK minimizedRMSD -1
REMARK  0 active torsions:
REMARK  status: ('A' for Active; 'I' for Inactive)
ROOT
ATOM      1  N1  IND d   1      -0.448   2.940  -2.166  0.00  0.00    -0.196 N 
ATOM      2  C2  IND d   1      -1.309   1.879  -2.126  0.00  0.00     0.054 A 
ATOM      3  C3  IND d   1      -1.190   1.135  -3.248  0.00  0.00    -0.031 A 
ATOM      4  C4  IND d   1       0.423   1.416  -5.235  0.00  0.00     0.051 A 
ATOM      5  C5  IND d   1       1.372   2.260  -5.740  0.00  0.00    -0.031 A 
ATOM      6  C6  IND d   1       1.773   3.394  -5.065  0.00  0.00     0.015 A 
ATOM      7  C7  IND d   1       1.246   3.724  -3.849  0.00  0.00    -0.016 A 
ATOM      8  C8  IND d   1       0.276   2.873  -3.336  0.00  0.00    -0.047 A 
ATOM      9  C9  IND d   1      -0.165   1.743  -4.036  0.00  0.00    -0.096 A 
ATOM     10  HN1 IND d   1      -0.372   3.548  -1.562  0.00  0.00     0.298 HD
ENDROOT
TORSDOF 0
ENDMDL
