MODEL 1
REMARK minimizedAffinity 8.99035835
REMARK minimizedRMSD -1
REMARK  0 active torsions:
REMARK  status: ('A' for Active; 'I' for Inactive)
ROOT
ATOM      1  N1  IND d   1      -0.522  -1.641   3.750  0.00  0.00    -0.196 N 
ATOM      2  C2  IND d   1      -1.357  -0.649   3.318  0.00  0.00     0.054 A 
ATOM      3  C3  IND d   1      -1.127  -0.374   2.014  0.00  0.00    -0.031 A 
ATOM      4  C4  IND d   1       0.502  -1.500   0.369  0.00  0.00     0.051 A 
ATOM      5  C5  IND d   1       1.500  -2.432   0.309  0.00  0.00    -0.031 A 
ATOM      6  C6  IND d   1       1.881  -3.165   1.415  0.00  0.00     0.015 A 
ATOM      7  C7  IND d   1       1.267  -3.000   2.624  0.00  0.00    -0.016 A 
ATOM      8  C8  IND d   1       0.258  -2.050   2.691  0.00  0.00    -0.047 A 
ATOM      9  C9  IND d   1      -0.104  -1.273   1.582  0.00  0.00    -0.096 A 
ATOM     10  HN1 IND d   1      -0.490  -1.957   4.549  0.00  0.00     0.298 HD
ENDROOT
TORSDOF 0
ENDMDL
