MODEL 1
REMARK minimizedAffinity 6.95198965
REMARK minimizedRMSD -1
REMARK  0 active torsions:
REMARK  status: ('A' for Active; 'I' for Inactive)
ROOT
ATOM      1  N1  IND d   1      -0.583   3.383  -2.913  0.00  0.00    -0.196 N 
ATOM      2  C2  IND d   1      -1.482   2.356  -2.990  0.00  0.00     0.054 A 
ATOM      3  C3  IND d   1      -1.174   1.537  -4.020  0.00  0.00    -0.031 A 
ATOM      4  C4  IND d   1       0.818   1.633  -5.647  0.00  0.00     0.051 A 
ATOM      5  C5  IND d   1       1.888   2.409  -5.995  0.00  0.00    -0.031 A 
ATOM      6  C6  IND d   1       2.197   3.571  -5.318  0.00  0.00     0.015 A 
ATOM      7  C7  IND d   1       1.450   3.997  -4.256  0.00  0.00    -0.016 A 
ATOM      8  C8  IND d   1       0.359   3.215  -3.905  0.00  0.00    -0.047 A 
ATOM      9  C9  IND d   1       0.016   2.057  -4.615  0.00  0.00    -0.096 A 
ATOM     10  HN1 IND d   1      -0.602   4.026  -2.342  0.00  0.00     0.298 HD
ENDROOT
TORSDOF 0
ENDMDL
