MODEL 1
REMARK minimizedAffinity 13.5624342
REMARK minimizedRMSD -1
REMARK  0 active torsions:
REMARK  status: ('A' for Active; 'I' for Inactive)
ROOT
ATOM      1  N1  IND d   1       0.440  -5.192   1.496  0.00  0.00    -0.196 N 
ATOM      2  C2  IND d   1       1.656  -4.731   1.076  0.00  0.00     0.054 A 
ATOM      3  C3  IND d   1       1.780  -3.413   1.350  0.00  0.00    -0.031 A 
ATOM      4  C4  IND d   1       0.153  -1.837   2.573  0.00  0.00     0.051 A 
ATOM      5  C5  IND d   1      -1.102  -1.791   3.111  0.00  0.00    -0.031 A 
ATOM      6  C6  IND d   1      -1.923  -2.900   3.141  0.00  0.00     0.015 A 
ATOM      7  C7  IND d   1      -1.513  -4.104   2.642  0.00  0.00    -0.016 A 
ATOM      8  C8  IND d   1      -0.242  -4.152   2.089  0.00  0.00    -0.047 A 
ATOM      9  C9  IND d   1       0.580  -3.020   2.017  0.00  0.00    -0.096 A 
ATOM     10  HN1 IND d   1       0.149  -5.996   1.404  0.00  0.00     0.298 HD
ENDROOT
TORSDOF 0
ENDMDL
