MODEL 1
REMARK minimizedAffinity -4.14544153
REMARK minimizedRMSD -1
REMARK  0 active torsions:
REMARK  status: ('A' for Active; 'I' for Inactive)
ROOT
ATOM      1  C   UNL d   1      -0.361   3.347  -0.226  0.00  0.00    -0.002 A 
ATOM      2  C1  UNL d   1       0.908   3.134  -0.746  0.00  0.00     0.010 A 
ATOM      3  C2  UNL d   1       1.478   1.859  -0.727  0.00  0.00     0.041 A 
ATOM      4  C3  UNL d   1       0.743   0.792  -0.174  0.00  0.00    -0.075 A 
ATOM      5  S   UNL d   1       1.239  -0.854  -0.045  0.00  0.00     0.015 SA
ATOM      6  C4  UNL d   1      -0.223  -1.313   0.702  0.00  0.00     0.022 A 
ATOM      7  C5  UNL d   1      -1.080  -0.249   0.856  0.00  0.00     0.026 A 
ATOM      8  C6  UNL d   1      -0.537   0.982   0.354  0.00  0.00    -0.082 A 
ATOM      9  C7  UNL d   1      -1.087   2.286   0.321  0.00  0.00     0.045 A 
ENDROOT
TORSDOF 0
ENDMDL
