MODEL 1
REMARK minimizedAffinity -5.03757954
REMARK minimizedRMSD -1
REMARK  0 active torsions:
REMARK  status: ('A' for Active; 'I' for Inactive)
ROOT
ATOM      1  C   UNL d   1       0.978   3.379  -0.195  0.00  0.00    -0.002 A 
ATOM      2  C1  UNL d   1       2.267   3.111   0.244  0.00  0.00     0.010 A 
ATOM      3  C2  UNL d   1       2.629   1.822   0.640  0.00  0.00     0.041 A 
ATOM      4  C3  UNL d   1       1.665   0.796   0.584  0.00  0.00    -0.075 A 
ATOM      5  S   UNL d   1       1.881  -0.858   1.018  0.00  0.00     0.015 SA
ATOM      6  C4  UNL d   1       0.268  -1.249   0.629  0.00  0.00     0.022 A 
ATOM      7  C5  UNL d   1      -0.432  -0.155   0.178  0.00  0.00     0.026 A 
ATOM      8  C6  UNL d   1       0.361   1.041   0.144  0.00  0.00    -0.082 A 
ATOM      9  C7  UNL d   1       0.025   2.359  -0.249  0.00  0.00     0.045 A 
ENDROOT
TORSDOF 0
ENDMDL
