MODEL 1
REMARK minimizedAffinity -5.29478598
REMARK minimizedRMSD -1
REMARK  0 active torsions:
REMARK  status: ('A' for Active; 'I' for Inactive)
ROOT
ATOM      1  C   UNL d   1       2.049   2.980   0.346  0.00  0.00    -0.002 A 
ATOM      2  C1  UNL d   1       0.808   3.601   0.313  0.00  0.00     0.010 A 
ATOM      3  C2  UNL d   1      -0.357   2.852   0.135  0.00  0.00     0.041 A 
ATOM      4  C3  UNL d   1      -0.253   1.454  -0.010  0.00  0.00    -0.075 A 
ATOM      5  S   UNL d   1      -1.543   0.334  -0.238  0.00  0.00     0.015 SA
ATOM      6  C4  UNL d   1      -0.478  -0.995  -0.297  0.00  0.00     0.022 A 
ATOM      7  C5  UNL d   1       0.833  -0.612  -0.148  0.00  0.00     0.026 A 
ATOM      8  C6  UNL d   1       0.985   0.806   0.021  0.00  0.00    -0.082 A 
ATOM      9  C7  UNL d   1       2.148   1.593   0.202  0.00  0.00     0.045 A 
ENDROOT
TORSDOF 0
ENDMDL
