MODEL 1
REMARK minimizedAffinity -4.35511637
REMARK minimizedRMSD -1
REMARK  0 active torsions:
REMARK  status: ('A' for Active; 'I' for Inactive)
ROOT
ATOM      1  C   UNL d   1       0.057   3.399   0.035  0.00  0.00    -0.002 A 
ATOM      2  C1  UNL d   1       1.181   2.990  -0.669  0.00  0.00     0.010 A 
ATOM      3  C2  UNL d   1       1.414   1.635  -0.910  0.00  0.00     0.041 A 
ATOM      4  C3  UNL d   1       0.488   0.688  -0.430  0.00  0.00    -0.075 A 
ATOM      5  S   UNL d   1       0.566  -1.025  -0.608  0.00  0.00     0.015 SA
ATOM      6  C4  UNL d   1      -0.891  -1.255   0.245  0.00  0.00     0.022 A 
ATOM      7  C5  UNL d   1      -1.437  -0.065   0.663  0.00  0.00     0.026 A 
ATOM      8  C6  UNL d   1      -0.652   1.075   0.280  0.00  0.00    -0.082 A 
ATOM      9  C7  UNL d   1      -0.859   2.456   0.510  0.00  0.00     0.045 A 
ENDROOT
TORSDOF 0
ENDMDL
