MODEL 1
REMARK minimizedAffinity -4.24083328
REMARK minimizedRMSD -1
REMARK  0 active torsions:
REMARK  status: ('A' for Active; 'I' for Inactive)
ROOT
ATOM      1  C   UNL d   1      -0.215   3.047  -0.329  0.00  0.00    -0.002 A 
ATOM      2  C1  UNL d   1       1.152   2.962  -0.547  0.00  0.00     0.010 A 
ATOM      3  C2  UNL d   1       1.829   1.756  -0.350  0.00  0.00     0.041 A 
ATOM      4  C3  UNL d   1       1.100   0.627   0.073  0.00  0.00    -0.075 A 
ATOM      5  S   UNL d   1       1.717  -0.954   0.378  0.00  0.00     0.015 SA
ATOM      6  C4  UNL d   1       0.180  -1.552   0.805  0.00  0.00     0.022 A 
ATOM      7  C5  UNL d   1      -0.792  -0.584   0.723  0.00  0.00     0.026 A 
ATOM      8  C6  UNL d   1      -0.278   0.688   0.299  0.00  0.00    -0.082 A 
ATOM      9  C7  UNL d   1      -0.934   1.925   0.091  0.00  0.00     0.045 A 
ENDROOT
TORSDOF 0
ENDMDL
