MODEL 1
REMARK minimizedAffinity -5.75505543
REMARK minimizedRMSD -1
REMARK  0 active torsions:
REMARK  status: ('A' for Active; 'I' for Inactive)
ROOT
ATOM      1  C   UNL d   1      -1.125   2.560   0.014  0.00  0.00    -0.002 A 
ATOM      2  C1  UNL d   1      -1.398   1.203   0.122  0.00  0.00     0.010 A 
ATOM      3  C2  UNL d   1      -0.361   0.279   0.263  0.00  0.00     0.041 A 
ATOM      4  C3  UNL d   1       0.968   0.746   0.297  0.00  0.00    -0.075 A 
ATOM      5  S   UNL d   1       2.399  -0.202   0.463  0.00  0.00     0.015 SA
ATOM      6  C4  UNL d   1       3.406   1.172   0.396  0.00  0.00     0.022 A 
ATOM      7  C5  UNL d   1       2.685   2.333   0.250  0.00  0.00     0.026 A 
ATOM      8  C6  UNL d   1       1.268   2.107   0.191  0.00  0.00    -0.082 A 
ATOM      9  C7  UNL d   1       0.194   3.019   0.048  0.00  0.00     0.045 A 
ENDROOT
TORSDOF 0
ENDMDL
