MODEL 1
REMARK minimizedAffinity 0.139548853
REMARK minimizedRMSD -1
REMARK  0 active torsions:
REMARK  status: ('A' for Active; 'I' for Inactive)
ROOT
ATOM      1  C   UNL d   1       0.815   3.288  -0.942  0.00  0.00    -0.002 A 
ATOM      2  C1  UNL d   1       1.599   2.178  -1.223  0.00  0.00     0.010 A 
ATOM      3  C2  UNL d   1       1.233   0.914  -0.757  0.00  0.00     0.041 A 
ATOM      4  C3  UNL d   1       0.054   0.783   0.002  0.00  0.00    -0.075 A 
ATOM      5  S   UNL d   1      -0.592  -0.666   0.677  0.00  0.00     0.015 SA
ATOM      6  C4  UNL d   1      -1.925   0.154   1.353  0.00  0.00     0.022 A 
ATOM      7  C5  UNL d   1      -1.893   1.501   1.080  0.00  0.00     0.026 A 
ATOM      8  C6  UNL d   1      -0.753   1.886   0.297  0.00  0.00    -0.082 A 
ATOM      9  C7  UNL d   1      -0.354   3.154  -0.189  0.00  0.00     0.045 A 
ENDROOT
TORSDOF 0
ENDMDL
