MODEL 1
REMARK minimizedAffinity -1.45780122
REMARK minimizedRMSD -1
REMARK  0 active torsions:
REMARK  status: ('A' for Active; 'I' for Inactive)
ROOT
ATOM      1  C   UNL d   1      -0.623   3.327  -0.206  0.00  0.00    -0.002 A 
ATOM      2  C1  UNL d   1       0.750   3.503  -0.101  0.00  0.00     0.010 A 
ATOM      3  C2  UNL d   1       1.591   2.412   0.125  0.00  0.00     0.041 A 
ATOM      4  C3  UNL d   1       1.024   1.128   0.242  0.00  0.00    -0.075 A 
ATOM      5  S   UNL d   1       1.858  -0.356   0.519  0.00  0.00     0.015 SA
ATOM      6  C4  UNL d   1       0.412  -1.258   0.503  0.00  0.00     0.022 A 
ATOM      7  C5  UNL d   1      -0.690  -0.463   0.293  0.00  0.00     0.026 A 
ATOM      8  C6  UNL d   1      -0.356   0.925   0.139  0.00  0.00    -0.082 A 
ATOM      9  C7  UNL d   1      -1.181   2.052  -0.089  0.00  0.00     0.045 A 
ENDROOT
TORSDOF 0
ENDMDL
