MODEL 1
REMARK minimizedAffinity 0.434157997
REMARK minimizedRMSD -1
REMARK  0 active torsions:
REMARK  status: ('A' for Active; 'I' for Inactive)
ROOT
ATOM      1  C   UNL d   1      -1.693   2.653   0.244  0.00  0.00    -0.002 A 
ATOM      2  C1  UNL d   1      -0.485   2.873   0.892  0.00  0.00     0.010 A 
ATOM      3  C2  UNL d   1       0.425   1.830   1.071  0.00  0.00     0.041 A 
ATOM      4  C3  UNL d   1       0.099   0.549   0.582  0.00  0.00    -0.075 A 
ATOM      5  S   UNL d   1       1.059  -0.879   0.686  0.00  0.00     0.015 SA
ATOM      6  C4  UNL d   1      -0.110  -1.814  -0.128  0.00  0.00     0.022 A 
ATOM      7  C5  UNL d   1      -1.213  -1.071  -0.477  0.00  0.00     0.026 A 
ATOM      8  C6  UNL d   1      -1.110   0.303  -0.074  0.00  0.00    -0.082 A 
ATOM      9  C7  UNL d   1      -2.013   1.382  -0.240  0.00  0.00     0.045 A 
ENDROOT
TORSDOF 0
ENDMDL
