MODEL 1
REMARK minimizedAffinity -3.53019524
REMARK minimizedRMSD -1
REMARK  0 active torsions:
REMARK  status: ('A' for Active; 'I' for Inactive)
ROOT
ATOM      1  C   UNL d   1      -1.469   2.531   0.223  0.00  0.00    -0.002 A 
ATOM      2  C1  UNL d   1      -0.368   3.352   0.023  0.00  0.00     0.010 A 
ATOM      3  C2  UNL d   1       0.926   2.830   0.076  0.00  0.00     0.041 A 
ATOM      4  C3  UNL d   1       1.097   1.456   0.334  0.00  0.00    -0.075 A 
ATOM      5  S   UNL d   1       2.587   0.596   0.444  0.00  0.00     0.015 SA
ATOM      6  C4  UNL d   1       1.797  -0.881   0.758  0.00  0.00     0.022 A 
ATOM      7  C5  UNL d   1       0.430  -0.740   0.782  0.00  0.00     0.026 A 
ATOM      8  C6  UNL d   1       0.003   0.609   0.538  0.00  0.00    -0.082 A 
ATOM      9  C7  UNL d   1      -1.296   1.168   0.478  0.00  0.00     0.045 A 
ENDROOT
TORSDOF 0
ENDMDL
