MODEL 1
REMARK minimizedAffinity -2.74400997
REMARK minimizedRMSD -1
REMARK  0 active torsions:
REMARK  status: ('A' for Active; 'I' for Inactive)
ROOT
ATOM      1  C   UNL d   1      -0.819   2.929  -0.540  0.00  0.00    -0.002 A 
ATOM      2  C1  UNL d   1      -1.294   1.673  -0.189  0.00  0.00     0.010 A 
ATOM      3  C2  UNL d   1      -0.415   0.674   0.235  0.00  0.00     0.041 A 
ATOM      4  C3  UNL d   1       0.962   0.963   0.304  0.00  0.00    -0.075 A 
ATOM      5  S   UNL d   1       2.224  -0.104   0.797  0.00  0.00     0.015 SA
ATOM      6  C4  UNL d   1       3.423   1.084   0.555  0.00  0.00     0.022 A 
ATOM      7  C5  UNL d   1       2.891   2.270   0.109  0.00  0.00     0.026 A 
ATOM      8  C6  UNL d   1       1.464   2.221  -0.042  0.00  0.00    -0.082 A 
ATOM      9  C7  UNL d   1       0.548   3.211  -0.470  0.00  0.00     0.045 A 
ENDROOT
TORSDOF 0
ENDMDL
