MODEL 1
REMARK minimizedAffinity 0.549575448
REMARK minimizedRMSD -1
REMARK  0 active torsions:
REMARK  status: ('A' for Active; 'I' for Inactive)
ROOT
ATOM      1  C   UNL d   1       0.004   3.119   0.107  0.00  0.00    -0.002 A 
ATOM      2  C1  UNL d   1      -0.806   2.545   1.076  0.00  0.00     0.010 A 
ATOM      3  C2  UNL d   1      -1.097   1.180   1.042  0.00  0.00     0.041 A 
ATOM      4  C3  UNL d   1      -0.552   0.393   0.008  0.00  0.00    -0.075 A 
ATOM      5  S   UNL d   1      -0.771  -1.300  -0.236  0.00  0.00     0.015 SA
ATOM      6  C4  UNL d   1       0.207  -1.301  -1.631  0.00  0.00     0.022 A 
ATOM      7  C5  UNL d   1       0.697  -0.049  -1.919  0.00  0.00     0.026 A 
ATOM      8  C6  UNL d   1       0.268   0.948  -0.979  0.00  0.00    -0.082 A 
ATOM      9  C7  UNL d   1       0.543   2.335  -0.917  0.00  0.00     0.045 A 
ENDROOT
TORSDOF 0
ENDMDL
