MODEL 1
REMARK minimizedAffinity -2.48280954
REMARK minimizedRMSD -1
REMARK  0 active torsions:
REMARK  status: ('A' for Active; 'I' for Inactive)
ROOT
ATOM      1  C   UNL d   1      -0.567   3.237   0.326  0.00  0.00    -0.002 A 
ATOM      2  C1  UNL d   1      -1.654   2.391   0.493  0.00  0.00     0.010 A 
ATOM      3  C2  UNL d   1      -1.498   1.007   0.398  0.00  0.00     0.041 A 
ATOM      4  C3  UNL d   1      -0.218   0.482   0.131  0.00  0.00    -0.075 A 
ATOM      5  S   UNL d   1       0.212  -1.180  -0.028  0.00  0.00     0.015 SA
ATOM      6  C4  UNL d   1       1.849  -0.806  -0.320  0.00  0.00     0.022 A 
ATOM      7  C5  UNL d   1       2.080   0.549  -0.301  0.00  0.00     0.026 A 
ATOM      8  C6  UNL d   1       0.893   1.314  -0.040  0.00  0.00    -0.082 A 
ATOM      9  C7  UNL d   1       0.702   2.713   0.061  0.00  0.00     0.045 A 
ENDROOT
TORSDOF 0
ENDMDL
