MODEL 1
REMARK minimizedAffinity 14.8558216
REMARK minimizedRMSD -1
REMARK  1 active torsions:
REMARK  status: ('A' for Active; 'I' for Inactive)
REMARK    1  A    between atoms: C1_2  and  C2_3 
ROOT
ATOM      1  C2  UNL d   1      -1.013  -3.757  -1.390  0.00  0.00    -0.076 A 
ATOM      2  C3  UNL d   1      -0.336  -4.888  -1.879  0.00  0.00     0.004 A 
ATOM      3  C4  UNL d   1      -0.118  -6.000  -1.068  0.00  0.00    -0.003 A 
ATOM      4  C5  UNL d   1      -0.574  -6.000   0.246  0.00  0.00     0.000 A 
ATOM      5  C6  UNL d   1      -1.263  -4.893   0.742  0.00  0.00     0.000 A 
ATOM      6  C7  UNL d   1      -1.505  -3.771  -0.067  0.00  0.00    -0.073 A 
ATOM      7  C8  UNL d   1      -2.248  -2.603   0.522  0.00  0.00     0.078 C 
ENDROOT
BRANCH   1   8
ATOM      8  C1  UNL d   1      -1.197  -2.569  -2.308  0.00  0.00     0.053 C 
ATOM      9  C   UNL d   1      -1.519  -2.981  -3.736  0.00  0.00     0.018 C 
ENDBRANCH   1   8
TORSDOF 1
ENDMDL
