MODEL 1
REMARK minimizedAffinity -3.16798544
REMARK minimizedRMSD -1
REMARK  1 active torsions:
REMARK  status: ('A' for Active; 'I' for Inactive)
REMARK    1  A    between atoms: C1_2  and  C2_3 
ROOT
ATOM      1  C2  UNL d   1      -4.861   5.655   3.684  0.00  0.00    -0.076 A 
ATOM      2  C3  UNL d   1      -5.154   5.622   2.310  0.00  0.00     0.004 A 
ATOM      3  C4  UNL d   1      -4.149   5.785   1.358  0.00  0.00    -0.003 A 
ATOM      4  C5  UNL d   1      -2.834   5.982   1.765  0.00  0.00     0.000 A 
ATOM      5  C6  UNL d   1      -2.523   6.000   3.124  0.00  0.00     0.000 A 
ATOM      6  C7  UNL d   1      -3.522   5.821   4.096  0.00  0.00    -0.073 A 
ATOM      7  C8  UNL d   1      -3.130   5.855   5.548  0.00  0.00     0.078 C 
ENDROOT
BRANCH   1   8
ATOM      8  C1  UNL d   1      -5.997   5.500   4.670  0.00  0.00     0.053 C 
ATOM      9  C   UNL d   1      -5.982   4.148   5.368  0.00  0.00     0.018 C 
ENDBRANCH   1   8
TORSDOF 1
ENDMDL
