MODEL 1
REMARK minimizedAffinity -4.27665997
REMARK minimizedRMSD -1
REMARK  1 active torsions:
REMARK  status: ('A' for Active; 'I' for Inactive)
REMARK    1  A    between atoms: N_2  and  C1_3 
ROOT
ATOM      1  C1  UNL d   1      -0.008   0.378   0.137  0.00  0.00     0.143 A 
ATOM      2  C2  UNL d   1       0.901   0.140   1.174  0.00  0.00    -0.057 A 
ATOM      3  C3  UNL d   1       0.488   0.130   2.512  0.00  0.00     0.033 A 
ATOM      4  C4  UNL d   1      -0.839   0.387   2.839  0.00  0.00    -0.042 A 
ATOM      5  C5  UNL d   1      -1.754   0.650   1.826  0.00  0.00     0.033 A 
ATOM      6  C6  UNL d   1      -1.338   0.653   0.492  0.00  0.00    -0.057 A 
ENDROOT
BRANCH   1   7
ATOM      7  N   UNL d   1       0.359   0.499  -1.206  0.00  0.00    -0.732 N 
ATOM      8  C   UNL d   1       0.501  -0.675  -2.039  0.00  0.00     0.284 C 
ATOM      9  H3  UNL d   1      -0.101   1.282  -1.665  0.00  0.00     0.395 HD
ENDBRANCH   1   7
TORSDOF 1
ENDMDL
