MODEL 1
REMARK minimizedAffinity -5.30316639
REMARK minimizedRMSD -1
REMARK  1 active torsions:
REMARK  status: ('A' for Active; 'I' for Inactive)
REMARK    1  A    between atoms: N_2  and  C1_3 
ROOT
ATOM      1  C1  UNL d   1      -0.488  -0.182   0.682  0.00  0.00     0.143 A 
ATOM      2  C2  UNL d   1       0.378  -0.514   1.729  0.00  0.00    -0.057 A 
ATOM      3  C3  UNL d   1      -0.106  -0.771   3.018  0.00  0.00     0.033 A 
ATOM      4  C4  UNL d   1      -1.467  -0.672   3.289  0.00  0.00    -0.042 A 
ATOM      5  C5  UNL d   1      -2.343  -0.319   2.268  0.00  0.00     0.033 A 
ATOM      6  C6  UNL d   1      -1.854  -0.070   0.982  0.00  0.00    -0.057 A 
ENDROOT
BRANCH   1   7
ATOM      7  N   UNL d   1      -0.058   0.181  -0.597  0.00  0.00    -0.732 N 
ATOM      8  C   UNL d   1       0.429  -0.820  -1.522  0.00  0.00     0.284 C 
ATOM      9  H3  UNL d   1      -0.657   0.884  -1.023  0.00  0.00     0.395 HD
ENDBRANCH   1   7
TORSDOF 1
ENDMDL
