MODEL 1
REMARK minimizedAffinity -4.40968227
REMARK minimizedRMSD -1
REMARK  1 active torsions:
REMARK  status: ('A' for Active; 'I' for Inactive)
REMARK    1  A    between atoms: N_2  and  C1_3 
ROOT
ATOM      1  C1  UNL d   1       2.798  -0.820  -2.775  0.00  0.00     0.143 A 
ATOM      2  C2  UNL d   1       2.030   0.128  -2.092  0.00  0.00    -0.057 A 
ATOM      3  C3  UNL d   1       0.634   0.034  -2.045  0.00  0.00     0.033 A 
ATOM      4  C4  UNL d   1      -0.023  -0.998  -2.707  0.00  0.00    -0.042 A 
ATOM      5  C5  UNL d   1       0.719  -1.938  -3.413  0.00  0.00     0.033 A 
ATOM      6  C6  UNL d   1       2.113  -1.842  -3.451  0.00  0.00    -0.057 A 
ENDROOT
BRANCH   1   7
ATOM      7  N   UNL d   1       4.182  -0.727  -2.942  0.00  0.00    -0.732 N 
ATOM      8  C   UNL d   1       4.816   0.560  -3.132  0.00  0.00     0.284 C 
ATOM      9  H3  UNL d   1       4.691  -1.354  -2.323  0.00  0.00     0.395 HD
ENDBRANCH   1   7
TORSDOF 1
ENDMDL
