MODEL 1
REMARK minimizedAffinity -3.60875154
REMARK minimizedRMSD -1
REMARK  1 active torsions:
REMARK  status: ('A' for Active; 'I' for Inactive)
REMARK    1  A    between atoms: N_2  and  C1_3 
ROOT
ATOM      1  C1  UNL d   1       0.875  -0.112  -1.614  0.00  0.00     0.143 A 
ATOM      2  C2  UNL d   1      -0.457  -0.263  -1.212  0.00  0.00    -0.057 A 
ATOM      3  C3  UNL d   1      -0.817  -0.218   0.140  0.00  0.00     0.033 A 
ATOM      4  C4  UNL d   1       0.156  -0.049   1.120  0.00  0.00    -0.042 A 
ATOM      5  C5  UNL d   1       1.489   0.078   0.745  0.00  0.00     0.033 A 
ATOM      6  C6  UNL d   1       1.841   0.039  -0.607  0.00  0.00    -0.057 A 
ENDROOT
BRANCH   1   7
ATOM      7  N   UNL d   1       1.308  -0.246  -2.935  0.00  0.00    -0.732 N 
ATOM      8  C   UNL d   1       1.339  -1.545  -3.573  0.00  0.00     0.284 C 
ATOM      9  H3  UNL d   1       0.968   0.503  -3.534  0.00  0.00     0.395 HD
ENDBRANCH   1   7
TORSDOF 1
ENDMDL
