MODEL 1
REMARK minimizedAffinity -5.39027023
REMARK minimizedRMSD -1
REMARK  1 active torsions:
REMARK  status: ('A' for Active; 'I' for Inactive)
REMARK    1  A    between atoms: N_2  and  C1_3 
ROOT
ATOM      1  C1  UNL d   1      -0.115   0.332   0.387  0.00  0.00     0.143 A 
ATOM      2  C2  UNL d   1       0.973   0.640   1.212  0.00  0.00    -0.057 A 
ATOM      3  C3  UNL d   1       0.932   0.393   2.589  0.00  0.00     0.033 A 
ATOM      4  C4  UNL d   1      -0.213  -0.141   3.172  0.00  0.00    -0.042 A 
ATOM      5  C5  UNL d   1      -1.315  -0.431   2.376  0.00  0.00     0.033 A 
ATOM      6  C6  UNL d   1      -1.265  -0.188   1.000  0.00  0.00    -0.057 A 
ENDROOT
BRANCH   1   7
ATOM      7  N   UNL d   1      -0.172   0.645  -0.974  0.00  0.00    -0.732 N 
ATOM      8  C   UNL d   1       0.857   0.182  -1.880  0.00  0.00     0.284 C 
ATOM      9  H3  UNL d   1      -1.116   0.581  -1.348  0.00  0.00     0.395 HD
ENDBRANCH   1   7
TORSDOF 1
ENDMDL
