MODEL 1
REMARK minimizedAffinity -3.99993086
REMARK minimizedRMSD -1
REMARK  1 active torsions:
REMARK  status: ('A' for Active; 'I' for Inactive)
REMARK    1  A    between atoms: N_2  and  C1_3 
ROOT
ATOM      1  C1  UNL d   1       0.154   0.572   0.411  0.00  0.00     0.143 A 
ATOM      2  C2  UNL d   1       1.273   1.278   0.866  0.00  0.00    -0.057 A 
ATOM      3  C3  UNL d   1       1.554   1.390   2.234  0.00  0.00     0.033 A 
ATOM      4  C4  UNL d   1       0.701   0.820   3.174  0.00  0.00    -0.042 A 
ATOM      5  C5  UNL d   1      -0.430   0.135   2.745  0.00  0.00     0.033 A 
ATOM      6  C6  UNL d   1      -0.701   0.021   1.378  0.00  0.00    -0.057 A 
ENDROOT
BRANCH   1   7
ATOM      7  N   UNL d   1      -0.232   0.509  -0.930  0.00  0.00    -0.732 N 
ATOM      8  C   UNL d   1       0.655  -0.049  -1.928  0.00  0.00     0.284 C 
ATOM      9  H3  UNL d   1      -1.206   0.235  -1.041  0.00  0.00     0.395 HD
ENDBRANCH   1   7
TORSDOF 1
ENDMDL
