MODEL 1
REMARK minimizedAffinity -4.1848321
REMARK minimizedRMSD -1
REMARK  1 active torsions:
REMARK  status: ('A' for Active; 'I' for Inactive)
REMARK    1  A    between atoms: N_2  and  C1_3 
ROOT
ATOM      1  C1  UNL d   1      -0.058  -0.122   0.441  0.00  0.00     0.143 A 
ATOM      2  C2  UNL d   1       0.310   0.656   1.543  0.00  0.00    -0.057 A 
ATOM      3  C3  UNL d   1      -0.045   0.285   2.846  0.00  0.00     0.033 A 
ATOM      4  C4  UNL d   1      -0.804  -0.860   3.066  0.00  0.00    -0.042 A 
ATOM      5  C5  UNL d   1      -1.203  -1.635   1.983  0.00  0.00     0.033 A 
ATOM      6  C6  UNL d   1      -0.839  -1.263   0.686  0.00  0.00    -0.057 A 
ENDROOT
BRANCH   1   7
ATOM      7  N   UNL d   1       0.180   0.246  -0.886  0.00  0.00    -0.732 N 
ATOM      8  C   UNL d   1       0.315  -0.760  -1.917  0.00  0.00     0.284 C 
ATOM      9  H3  UNL d   1      -0.363   1.059  -1.167  0.00  0.00     0.395 HD
ENDBRANCH   1   7
TORSDOF 1
ENDMDL
