MODEL 1
REMARK minimizedAffinity -4.38391781
REMARK minimizedRMSD -1
REMARK  1 active torsions:
REMARK  status: ('A' for Active; 'I' for Inactive)
REMARK    1  A    between atoms: N_2  and  C1_3 
ROOT
ATOM      1  C1  UNL d   1      -0.111  -0.018   0.548  0.00  0.00     0.143 A 
ATOM      2  C2  UNL d   1       0.600   0.359   1.692  0.00  0.00    -0.057 A 
ATOM      3  C3  UNL d   1      -0.016   0.402   2.949  0.00  0.00     0.033 A 
ATOM      4  C4  UNL d   1      -1.367   0.095   3.079  0.00  0.00    -0.042 A 
ATOM      5  C5  UNL d   1      -2.099  -0.259   1.951  0.00  0.00     0.033 A 
ATOM      6  C6  UNL d   1      -1.477  -0.305   0.700  0.00  0.00    -0.057 A 
ENDROOT
BRANCH   1   7
ATOM      7  N   UNL d   1       0.419   0.016  -0.744  0.00  0.00    -0.732 N 
ATOM      8  C   UNL d   1       0.033   1.056  -1.673  0.00  0.00     0.284 C 
ATOM      9  H3  UNL d   1       1.411  -0.211  -0.762  0.00  0.00     0.395 HD
ENDBRANCH   1   7
TORSDOF 1
ENDMDL
