MODEL 1
REMARK minimizedAffinity -3.73946381
REMARK minimizedRMSD -1
REMARK  1 active torsions:
REMARK  status: ('A' for Active; 'I' for Inactive)
REMARK    1  A    between atoms: N_2  and  C1_3 
ROOT
ATOM      1  C1  UNL d   1       0.762   0.462  -1.063  0.00  0.00     0.143 A 
ATOM      2  C2  UNL d   1       0.543  -0.632  -0.220  0.00  0.00    -0.057 A 
ATOM      3  C3  UNL d   1       1.023  -0.643   1.095  0.00  0.00     0.033 A 
ATOM      4  C4  UNL d   1       1.758   0.432   1.583  0.00  0.00    -0.042 A 
ATOM      5  C5  UNL d   1       2.009   1.521   0.754  0.00  0.00     0.033 A 
ATOM      6  C6  UNL d   1       1.521   1.528  -0.556  0.00  0.00    -0.057 A 
ENDROOT
BRANCH   1   7
ATOM      7  N   UNL d   1       0.395   0.492  -2.411  0.00  0.00    -0.732 N 
ATOM      8  C   UNL d   1       1.135  -0.272  -3.393  0.00  0.00     0.284 C 
ATOM      9  H3  UNL d   1      -0.614   0.468  -2.540  0.00  0.00     0.395 HD
ENDBRANCH   1   7
TORSDOF 1
ENDMDL
