MODEL 1
REMARK minimizedAffinity -4.29346895
REMARK minimizedRMSD -1
REMARK  1 active torsions:
REMARK  status: ('A' for Active; 'I' for Inactive)
REMARK    1  A    between atoms: N_2  and  C1_3 
ROOT
ATOM      1  C1  UNL d   1      -0.551  -0.068   2.420  0.00  0.00     0.143 A 
ATOM      2  C2  UNL d   1      -0.513  -0.248   1.033  0.00  0.00    -0.057 A 
ATOM      3  C3  UNL d   1       0.608   0.127   0.282  0.00  0.00     0.033 A 
ATOM      4  C4  UNL d   1       1.703   0.718   0.904  0.00  0.00    -0.042 A 
ATOM      5  C5  UNL d   1       1.678   0.929   2.278  0.00  0.00     0.033 A 
ATOM      6  C6  UNL d   1       0.558   0.546   3.023  0.00  0.00    -0.057 A 
ENDROOT
BRANCH   1   7
ATOM      7  N   UNL d   1      -1.674  -0.329   3.208  0.00  0.00    -0.732 N 
ATOM      8  C   UNL d   1      -2.970   0.204   2.845  0.00  0.00     0.284 C 
ATOM      9  H3  UNL d   1      -1.699  -1.290   3.543  0.00  0.00     0.395 HD
ENDBRANCH   1   7
TORSDOF 1
ENDMDL
