MODEL 1
REMARK minimizedAffinity -0.0464922376
REMARK minimizedRMSD -1
REMARK  1 active torsions:
REMARK  status: ('A' for Active; 'I' for Inactive)
REMARK    1  A    between atoms: N_2  and  C1_3 
ROOT
ATOM      1  C1  UNL d   1      -0.252   0.600   2.683  0.00  0.00     0.143 A 
ATOM      2  C2  UNL d   1      -0.035   0.139   1.380  0.00  0.00    -0.057 A 
ATOM      3  C3  UNL d   1       1.141   0.450   0.686  0.00  0.00     0.033 A 
ATOM      4  C4  UNL d   1       2.111   1.254   1.275  0.00  0.00    -0.042 A 
ATOM      5  C5  UNL d   1       1.905   1.745   2.560  0.00  0.00     0.033 A 
ATOM      6  C6  UNL d   1       0.732   1.425   3.250  0.00  0.00    -0.057 A 
ENDROOT
BRANCH   1   7
ATOM      7  N   UNL d   1      -1.442   0.407   3.389  0.00  0.00    -0.732 N 
ATOM      8  C   UNL d   1      -2.721   0.521   2.721  0.00  0.00     0.284 C 
ATOM      9  H3  UNL d   1      -1.383  -0.368   4.045  0.00  0.00     0.395 HD
ENDBRANCH   1   7
TORSDOF 1
ENDMDL
