MODEL 1
REMARK minimizedAffinity -5.05559063
REMARK minimizedRMSD -1
REMARK  1 active torsions:
REMARK  status: ('A' for Active; 'I' for Inactive)
REMARK    1  A    between atoms: N_2  and  C1_3 
ROOT
ATOM      1  C1  UNL d   1      -0.208  -0.068   0.456  0.00  0.00     0.143 A 
ATOM      2  C2  UNL d   1      -1.165  -0.881   1.074  0.00  0.00    -0.057 A 
ATOM      3  C3  UNL d   1      -1.003  -1.320   2.393  0.00  0.00     0.033 A 
ATOM      4  C4  UNL d   1       0.139  -0.978   3.111  0.00  0.00    -0.042 A 
ATOM      5  C5  UNL d   1       1.115  -0.192   2.509  0.00  0.00     0.033 A 
ATOM      6  C6  UNL d   1       0.943   0.250   1.194  0.00  0.00    -0.057 A 
ENDROOT
BRANCH   1   7
ATOM      7  N   UNL d   1      -0.265   0.320  -0.884  0.00  0.00    -0.732 N 
ATOM      8  C   UNL d   1       0.540  -0.352  -1.881  0.00  0.00     0.284 C 
ATOM      9  H3  UNL d   1      -1.214   0.529  -1.188  0.00  0.00     0.395 HD
ENDBRANCH   1   7
TORSDOF 1
ENDMDL
