MODEL 1
REMARK minimizedAffinity 19.097435
REMARK minimizedRMSD -1
REMARK  0 active torsions:
REMARK  status: ('A' for Active; 'I' for Inactive)
ROOT
ATOM      1  C   UNL d   1      -1.681  -0.004   1.123  0.00  0.00     0.023 A 
ATOM      2  C1  UNL d   1      -2.089  -0.758   0.022  0.00  0.00     0.003 A 
ATOM      3  C2  UNL d   1      -3.328  -1.402   0.035  0.00  0.00     0.048 A 
ATOM      4  C3  UNL d   1      -4.155  -1.287   1.152  0.00  0.00     0.023 A 
ATOM      5  C4  UNL d   1      -3.751  -0.534   2.256  0.00  0.00     0.048 A 
ATOM      6  C5  UNL d   1      -2.511   0.107   2.238  0.00  0.00     0.003 A 
ATOM      7  I   UNL d   1      -6.000  -2.244   1.175  0.00  0.00    -0.146 I 
ENDROOT
TORSDOF 0
ENDMDL
