MODEL 1
REMARK minimizedAffinity 24.6621647
REMARK minimizedRMSD -1
REMARK  0 active torsions:
REMARK  status: ('A' for Active; 'I' for Inactive)
ROOT
ATOM      1  C   UNL d   1       0.653  -3.279  -3.172  0.00  0.00     0.023 A 
ATOM      2  C1  UNL d   1       0.690  -1.913  -2.888  0.00  0.00     0.003 A 
ATOM      3  C2  UNL d   1      -0.172  -1.374  -1.932  0.00  0.00     0.048 A 
ATOM      4  C3  UNL d   1      -1.070  -2.205  -1.263  0.00  0.00     0.023 A 
ATOM      5  C4  UNL d   1      -1.111  -3.572  -1.543  0.00  0.00     0.048 A 
ATOM      6  C5  UNL d   1      -0.247  -4.107  -2.501  0.00  0.00     0.003 A 
ATOM      7  I   UNL d   1      -2.355  -1.405   0.161  0.00  0.00    -0.146 I 
ENDROOT
TORSDOF 0
ENDMDL
