MODEL 1
REMARK minimizedAffinity 13.39081
REMARK minimizedRMSD -1
REMARK  0 active torsions:
REMARK  status: ('A' for Active; 'I' for Inactive)
ROOT
ATOM      1  C   UNL d   1       2.190  -2.587  -1.799  0.00  0.00     0.023 A 
ATOM      2  C1  UNL d   1       1.110  -2.122  -2.549  0.00  0.00     0.003 A 
ATOM      3  C2  UNL d   1       0.789  -0.763  -2.545  0.00  0.00     0.048 A 
ATOM      4  C3  UNL d   1       1.553   0.126  -1.790  0.00  0.00     0.023 A 
ATOM      5  C4  UNL d   1       2.635  -0.334  -1.039  0.00  0.00     0.048 A 
ATOM      6  C5  UNL d   1       2.952  -1.694  -1.045  0.00  0.00     0.003 A 
ATOM      7  I   UNL d   1       1.076   2.149  -1.784  0.00  0.00    -0.146 I 
ENDROOT
TORSDOF 0
ENDMDL
