MODEL 1
REMARK minimizedAffinity 11.2571621
REMARK minimizedRMSD -1
REMARK  0 active torsions:
REMARK  status: ('A' for Active; 'I' for Inactive)
ROOT
ATOM      1  C   UNL d   1      -1.879   5.020  -0.359  0.00  0.00     0.023 A 
ATOM      2  C1  UNL d   1      -1.028   6.000   0.153  0.00  0.00     0.003 A 
ATOM      3  C2  UNL d   1       0.353   5.885  -0.018  0.00  0.00     0.048 A 
ATOM      4  C3  UNL d   1       0.877   4.789  -0.703  0.00  0.00     0.023 A 
ATOM      5  C4  UNL d   1       0.029   3.806  -1.217  0.00  0.00     0.048 A 
ATOM      6  C5  UNL d   1      -1.351   3.924  -1.042  0.00  0.00     0.003 A 
ATOM      7  I   UNL d   1       2.932   4.617  -0.958  0.00  0.00    -0.146 I 
ENDROOT
TORSDOF 0
ENDMDL
