MODEL 1
REMARK minimizedAffinity 18.9476509
REMARK minimizedRMSD -1
REMARK  0 active torsions:
REMARK  status: ('A' for Active; 'I' for Inactive)
ROOT
ATOM      1  C   UNL d   1      -1.865   5.632   0.124  0.00  0.00     0.023 A 
ATOM      2  C1  UNL d   1      -3.099   5.267   0.663  0.00  0.00     0.003 A 
ATOM      3  C2  UNL d   1      -3.286   5.266   2.046  0.00  0.00     0.048 A 
ATOM      4  C3  UNL d   1      -2.235   5.632   2.886  0.00  0.00     0.023 A 
ATOM      5  C4  UNL d   1      -0.999   6.000   2.352  0.00  0.00     0.048 A 
ATOM      6  C5  UNL d   1      -0.817   5.999   0.967  0.00  0.00     0.003 A 
ATOM      7  I   UNL d   1      -2.510   5.632   4.946  0.00  0.00    -0.146 I 
ENDROOT
TORSDOF 0
ENDMDL
