MODEL 1
REMARK minimizedAffinity 16.2696972
REMARK minimizedRMSD -1
REMARK  0 active torsions:
REMARK  status: ('A' for Active; 'I' for Inactive)
ROOT
ATOM      1  C   UNL d   1       0.927   0.399  -1.762  0.00  0.00     0.023 A 
ATOM      2  C1  UNL d   1       1.896  -0.487  -1.288  0.00  0.00     0.003 A 
ATOM      3  C2  UNL d   1       3.237  -0.305  -1.632  0.00  0.00     0.048 A 
ATOM      4  C3  UNL d   1       3.603   0.764  -2.448  0.00  0.00     0.023 A 
ATOM      5  C4  UNL d   1       2.638   1.653  -2.924  0.00  0.00     0.048 A 
ATOM      6  C5  UNL d   1       1.298   1.467  -2.579  0.00  0.00     0.003 A 
ATOM      7  I   UNL d   1       5.599   1.036  -2.961  0.00  0.00    -0.146 I 
ENDROOT
TORSDOF 0
ENDMDL
