MODEL 1
REMARK minimizedAffinity 7.32362461
REMARK minimizedRMSD -1
REMARK  0 active torsions:
REMARK  status: ('A' for Active; 'I' for Inactive)
ROOT
ATOM      1  C   UNL d   1       2.502   5.636  -1.550  0.00  0.00     0.023 A 
ATOM      2  C1  UNL d   1       3.767   5.048  -1.504  0.00  0.00     0.003 A 
ATOM      3  C2  UNL d   1       4.390   4.824  -0.275  0.00  0.00     0.048 A 
ATOM      4  C3  UNL d   1       3.742   5.189   0.905  0.00  0.00     0.023 A 
ATOM      5  C4  UNL d   1       2.476   5.777   0.864  0.00  0.00     0.048 A 
ATOM      6  C5  UNL d   1       1.858   6.000  -0.368  0.00  0.00     0.003 A 
ATOM      7  I   UNL d   1       4.667   4.857   2.736  0.00  0.00    -0.146 I 
ENDROOT
TORSDOF 0
ENDMDL
