MODEL 1
REMARK minimizedAffinity 16.0343895
REMARK minimizedRMSD -1
REMARK  0 active torsions:
REMARK  status: ('A' for Active; 'I' for Inactive)
ROOT
ATOM      1  C   UNL d   1       2.802   4.981  -1.502  0.00  0.00     0.023 A 
ATOM      2  C1  UNL d   1       2.066   4.606  -0.378  0.00  0.00     0.003 A 
ATOM      3  C2  UNL d   1       2.710   4.405   0.845  0.00  0.00     0.048 A 
ATOM      4  C3  UNL d   1       4.090   4.582   0.936  0.00  0.00     0.023 A 
ATOM      5  C4  UNL d   1       4.831   4.958  -0.185  0.00  0.00     0.048 A 
ATOM      6  C5  UNL d   1       4.182   5.157  -1.406  0.00  0.00     0.003 A 
ATOM      7  I   UNL d   1       5.051   4.284   2.755  0.00  0.00    -0.146 I 
ENDROOT
TORSDOF 0
ENDMDL
