MODEL 1
REMARK minimizedAffinity -1.80983758
REMARK minimizedRMSD -1
REMARK  0 active torsions:
REMARK  status: ('A' for Active; 'I' for Inactive)
ROOT
ATOM      1  C   UNL d   1       3.540   5.765  -2.029  0.00  0.00     0.023 A 
ATOM      2  C1  UNL d   1       4.877   5.970  -1.688  0.00  0.00     0.003 A 
ATOM      3  C2  UNL d   1       5.288   5.840  -0.360  0.00  0.00     0.048 A 
ATOM      4  C3  UNL d   1       4.357   5.504   0.622  0.00  0.00     0.023 A 
ATOM      5  C4  UNL d   1       3.018   5.297   0.285  0.00  0.00     0.048 A 
ATOM      6  C5  UNL d   1       2.611   5.429  -1.044  0.00  0.00     0.003 A 
ATOM      7  I   UNL d   1       4.966   5.309   2.599  0.00  0.00    -0.146 I 
ENDROOT
TORSDOF 0
ENDMDL
