MODEL 1
REMARK minimizedAffinity 12.5953693
REMARK minimizedRMSD -1
REMARK  0 active torsions:
REMARK  status: ('A' for Active; 'I' for Inactive)
ROOT
ATOM      1  C   UNL d   1      -5.275   0.198   4.688  0.00  0.00     0.023 A 
ATOM      2  C1  UNL d   1      -6.000  -0.335   3.622  0.00  0.00     0.003 A 
ATOM      3  C2  UNL d   1      -5.349  -0.678   2.435  0.00  0.00     0.048 A 
ATOM      4  C3  UNL d   1      -3.972  -0.486   2.322  0.00  0.00     0.023 A 
ATOM      5  C4  UNL d   1      -3.243   0.046   3.386  0.00  0.00     0.048 A 
ATOM      6  C5  UNL d   1      -3.898   0.388   4.570  0.00  0.00     0.003 A 
ATOM      7  I   UNL d   1      -3.001  -0.996   0.556  0.00  0.00    -0.146 I 
ENDROOT
TORSDOF 0
ENDMDL
