MODEL 1
REMARK minimizedAffinity 19.0181179
REMARK minimizedRMSD -1
REMARK  0 active torsions:
REMARK  status: ('A' for Active; 'I' for Inactive)
ROOT
ATOM      1  C   UNL d   1      -1.362   4.216   5.482  0.00  0.00     0.023 A 
ATOM      2  C1  UNL d   1      -1.613   5.487   6.000  0.00  0.00     0.003 A 
ATOM      3  C2  UNL d   1      -2.911   6.000   5.998  0.00  0.00     0.048 A 
ATOM      4  C3  UNL d   1      -3.956   5.236   5.478  0.00  0.00     0.023 A 
ATOM      5  C4  UNL d   1      -3.710   3.964   4.959  0.00  0.00     0.048 A 
ATOM      6  C5  UNL d   1      -2.410   3.455   4.962  0.00  0.00     0.003 A 
ATOM      7  I   UNL d   1      -5.890   5.997   5.475  0.00  0.00    -0.146 I 
ENDROOT
TORSDOF 0
ENDMDL
