MODEL 1
REMARK minimizedAffinity 21.5832272
REMARK minimizedRMSD -1
REMARK  0 active torsions:
REMARK  status: ('A' for Active; 'I' for Inactive)
ROOT
ATOM      1  C   UNL d   1       2.414   1.079  -1.340  0.00  0.00     0.023 A 
ATOM      2  C1  UNL d   1       2.812  -0.219  -1.019  0.00  0.00     0.003 A 
ATOM      3  C2  UNL d   1       2.019  -1.306  -1.393  0.00  0.00     0.048 A 
ATOM      4  C3  UNL d   1       0.831  -1.087  -2.089  0.00  0.00     0.023 A 
ATOM      5  C4  UNL d   1       0.429   0.210  -2.413  0.00  0.00     0.048 A 
ATOM      6  C5  UNL d   1       1.225   1.293  -2.036  0.00  0.00     0.003 A 
ATOM      7  I   UNL d   1      -0.351  -2.703  -2.648  0.00  0.00    -0.146 I 
ENDROOT
TORSDOF 0
ENDMDL
