MODEL 1
REMARK minimizedAffinity 11.5202179
REMARK minimizedRMSD -1
REMARK  0 active torsions:
REMARK  status: ('A' for Active; 'I' for Inactive)
ROOT
ATOM      1  C   UNL d   1      -5.294   0.223   5.708  0.00  0.00     0.023 A 
ATOM      2  C1  UNL d   1      -3.997   0.676   5.463  0.00  0.00     0.003 A 
ATOM      3  C2  UNL d   1      -3.403   0.458   4.218  0.00  0.00     0.048 A 
ATOM      4  C3  UNL d   1      -4.112  -0.213   3.222  0.00  0.00     0.023 A 
ATOM      5  C4  UNL d   1      -5.410  -0.667   3.462  0.00  0.00     0.048 A 
ATOM      6  C5  UNL d   1      -5.999  -0.447   4.708  0.00  0.00     0.003 A 
ATOM      7  I   UNL d   1      -3.231  -0.538   1.368  0.00  0.00    -0.146 I 
ENDROOT
TORSDOF 0
ENDMDL
