MODEL 1
REMARK minimizedAffinity 7.37187958
REMARK minimizedRMSD -1
REMARK  0 active torsions:
REMARK  status: ('A' for Active; 'I' for Inactive)
ROOT
ATOM      1  C   UNL d   1       1.900   2.517  -2.187  0.00  0.00     0.023 A 
ATOM      2  C1  UNL d   1       0.811   2.203  -3.001  0.00  0.00     0.003 A 
ATOM      3  C2  UNL d   1       0.453   0.869  -3.206  0.00  0.00     0.048 A 
ATOM      4  C3  UNL d   1       1.187  -0.146  -2.593  0.00  0.00     0.023 A 
ATOM      5  C4  UNL d   1       2.276   0.164  -1.778  0.00  0.00     0.048 A 
ATOM      6  C5  UNL d   1       2.631   1.499  -1.577  0.00  0.00     0.003 A 
ATOM      7  I   UNL d   1       0.655  -2.132  -2.897  0.00  0.00    -0.146 I 
ENDROOT
TORSDOF 0
ENDMDL
