MODEL 1
REMARK minimizedAffinity -0.88060981
REMARK minimizedRMSD -1
REMARK  0 active torsions:
REMARK  status: ('A' for Active; 'I' for Inactive)
ROOT
ATOM      1  C   UNL d   1       4.355  -1.212   4.504  0.00  0.00     0.023 A 
ATOM      2  C1  UNL d   1       5.526  -1.323   5.254  0.00  0.00     0.003 A 
ATOM      3  C2  UNL d   1       5.999  -2.582   5.629  0.00  0.00     0.048 A 
ATOM      4  C3  UNL d   1       5.297  -3.726   5.251  0.00  0.00     0.023 A 
ATOM      5  C4  UNL d   1       4.125  -3.619   4.500  0.00  0.00     0.048 A 
ATOM      6  C5  UNL d   1       3.656  -2.358   4.127  0.00  0.00     0.003 A 
ATOM      7  I   UNL d   1       5.998  -5.601   5.809  0.00  0.00    -0.146 I 
ENDROOT
TORSDOF 0
ENDMDL
