MODEL 1
REMARK minimizedAffinity 5.02525282
REMARK minimizedRMSD -1
REMARK  0 active torsions:
REMARK  status: ('A' for Active; 'I' for Inactive)
ROOT
ATOM      1  C   UNL d   1       4.342  -5.987   4.977  0.00  0.00     0.023 A 
ATOM      2  C1  UNL d   1       3.645  -4.869   4.519  0.00  0.00     0.003 A 
ATOM      3  C2  UNL d   1       4.119  -3.586   4.800  0.00  0.00     0.048 A 
ATOM      4  C3  UNL d   1       5.291  -3.428   5.539  0.00  0.00     0.023 A 
ATOM      5  C4  UNL d   1       5.993  -4.544   5.998  0.00  0.00     0.048 A 
ATOM      6  C5  UNL d   1       5.514  -5.825   5.715  0.00  0.00     0.003 A 
ATOM      7  I   UNL d   1       5.999  -1.520   5.959  0.00  0.00    -0.146 I 
ENDROOT
TORSDOF 0
ENDMDL
