MODEL 1
REMARK minimizedAffinity 12.4910669
REMARK minimizedRMSD -1
REMARK  0 active torsions:
REMARK  status: ('A' for Active; 'I' for Inactive)
ROOT
ATOM      1  C   UNL d   1       4.557  -0.348   4.247  0.00  0.00     0.023 A 
ATOM      2  C1  UNL d   1       5.622  -0.447   5.143  0.00  0.00     0.003 A 
ATOM      3  C2  UNL d   1       6.000  -1.693   5.646  0.00  0.00     0.048 A 
ATOM      4  C3  UNL d   1       5.310  -2.838   5.247  0.00  0.00     0.023 A 
ATOM      5  C4  UNL d   1       4.246  -2.744   4.349  0.00  0.00     0.048 A 
ATOM      6  C5  UNL d   1       3.870  -1.496   3.850  0.00  0.00     0.003 A 
ATOM      7  I   UNL d   1       5.872  -4.695   5.993  0.00  0.00    -0.146 I 
ENDROOT
TORSDOF 0
ENDMDL
