MODEL 1
REMARK minimizedAffinity 2.86726999
REMARK minimizedRMSD -1
REMARK  0 active torsions:
REMARK  status: ('A' for Active; 'I' for Inactive)
ROOT
ATOM      1  C   UNL d   1      -2.063   5.907   5.576  0.00  0.00     0.023 A 
ATOM      2  C1  UNL d   1      -3.392   5.902   5.998  0.00  0.00     0.003 A 
ATOM      3  C2  UNL d   1      -4.424   5.925   5.058  0.00  0.00     0.048 A 
ATOM      4  C3  UNL d   1      -4.120   5.954   3.698  0.00  0.00     0.023 A 
ATOM      5  C4  UNL d   1      -2.791   5.958   3.271  0.00  0.00     0.048 A 
ATOM      6  C5  UNL d   1      -1.762   5.935   4.214  0.00  0.00     0.003 A 
ATOM      7  I   UNL d   1      -5.655   5.989   2.297  0.00  0.00    -0.146 I 
ENDROOT
TORSDOF 0
ENDMDL
