MODEL 1
REMARK minimizedAffinity 0.667721331
REMARK minimizedRMSD -1
REMARK  0 active torsions:
REMARK  status: ('A' for Active; 'I' for Inactive)
ROOT
ATOM      1  C   UNL d   1      -5.999  -0.604   0.901  0.00  0.00     0.023 A 
ATOM      2  C1  UNL d   1      -4.856  -0.967   1.613  0.00  0.00     0.003 A 
ATOM      3  C2  UNL d   1      -3.590  -0.674   1.101  0.00  0.00     0.048 A 
ATOM      4  C3  UNL d   1      -3.475  -0.017  -0.124  0.00  0.00     0.023 A 
ATOM      5  C4  UNL d   1      -4.617   0.349  -0.839  0.00  0.00     0.048 A 
ATOM      6  C5  UNL d   1      -5.880   0.053  -0.324  0.00  0.00     0.003 A 
ATOM      7  I   UNL d   1      -1.593   0.421  -0.888  0.00  0.00    -0.146 I 
ENDROOT
TORSDOF 0
ENDMDL
