MODEL 1
REMARK minimizedAffinity 2.33871174
REMARK minimizedRMSD -1
REMARK  0 active torsions:
REMARK  status: ('A' for Active; 'I' for Inactive)
ROOT
ATOM      1  C   UNL d   1       3.745  -1.539  -2.353  0.00  0.00     0.172 C 
ATOM      2  N   UNL d   1       2.498  -2.206  -2.058  0.00  0.00    -0.070 N 
ATOM      3  C1  UNL d   1       2.354  -3.536  -1.766  0.00  0.00    -0.004 A 
ATOM      4  C2  UNL d   1       1.015  -3.777  -1.547  0.00  0.00    -0.047 A 
ATOM      5  C3  UNL d   1       0.330  -2.550  -1.715  0.00  0.00    -0.047 A 
ATOM      6  C4  UNL d   1       1.273  -1.594  -2.031  0.00  0.00    -0.004 A 
ENDROOT
TORSDOF 0
ENDMDL
