MODEL 1
REMARK minimizedAffinity -1.32348442
REMARK minimizedRMSD -1
REMARK  0 active torsions:
REMARK  status: ('A' for Active; 'I' for Inactive)
ROOT
ATOM      1  C   UNL d   1      -5.999   4.125   0.012  0.00  0.00     0.172 C 
ATOM      2  N   UNL d   1      -5.657   2.747   0.272  0.00  0.00    -0.070 N 
ATOM      3  C1  UNL d   1      -4.948   2.290   1.351  0.00  0.00    -0.004 A 
ATOM      4  C2  UNL d   1      -4.834   0.922   1.233  0.00  0.00    -0.047 A 
ATOM      5  C3  UNL d   1      -5.497   0.543   0.041  0.00  0.00    -0.047 A 
ATOM      6  C4  UNL d   1      -5.997   1.693  -0.534  0.00  0.00    -0.004 A 
ENDROOT
TORSDOF 0
ENDMDL
