MODEL 1
REMARK minimizedAffinity -1.0923512
REMARK minimizedRMSD -1
REMARK  0 active torsions:
REMARK  status: ('A' for Active; 'I' for Inactive)
ROOT
ATOM      1  C   UNL d   1      -5.091   1.441  -2.216  0.00  0.00     0.172 C 
ATOM      2  N   UNL d   1      -5.184   1.431  -0.775  0.00  0.00    -0.070 N 
ATOM      3  C1  UNL d   1      -4.529   2.283   0.074  0.00  0.00    -0.004 A 
ATOM      4  C2  UNL d   1      -4.882   1.949   1.363  0.00  0.00    -0.047 A 
ATOM      5  C3  UNL d   1      -5.780   0.857   1.287  0.00  0.00    -0.047 A 
ATOM      6  C4  UNL d   1      -5.949   0.557  -0.048  0.00  0.00    -0.004 A 
ENDROOT
TORSDOF 0
ENDMDL
