MODEL 1
REMARK minimizedAffinity 0.777919352
REMARK minimizedRMSD -1
REMARK  0 active torsions:
REMARK  status: ('A' for Active; 'I' for Inactive)
ROOT
ATOM      1  C   UNL d   1      -5.970   0.756  -1.176  0.00  0.00     0.172 C 
ATOM      2  N   UNL d   1      -5.764   1.725  -0.125  0.00  0.00    -0.070 N 
ATOM      3  C1  UNL d   1      -5.309   1.449   1.137  0.00  0.00    -0.004 A 
ATOM      4  C2  UNL d   1      -5.251   2.637   1.833  0.00  0.00    -0.047 A 
ATOM      5  C3  UNL d   1      -5.686   3.662   0.960  0.00  0.00    -0.047 A 
ATOM      6  C4  UNL d   1      -5.998   3.069  -0.246  0.00  0.00    -0.004 A 
ENDROOT
TORSDOF 0
ENDMDL
