MODEL 1
REMARK minimizedAffinity -0.846699834
REMARK minimizedRMSD -1
REMARK  0 active torsions:
REMARK  status: ('A' for Active; 'I' for Inactive)
ROOT
ATOM      1  C   UNL d   1      -5.970   2.606  -2.101  0.00  0.00     0.172 C 
ATOM      2  N   UNL d   1      -5.548   2.190  -0.784  0.00  0.00    -0.070 N 
ATOM      3  C1  UNL d   1      -4.647   2.847   0.010  0.00  0.00    -0.004 A 
ATOM      4  C2  UNL d   1      -4.517   2.133   1.182  0.00  0.00    -0.047 A 
ATOM      5  C3  UNL d   1      -5.369   1.007   1.088  0.00  0.00    -0.047 A 
ATOM      6  C4  UNL d   1      -5.995   1.067  -0.139  0.00  0.00    -0.004 A 
ENDROOT
TORSDOF 0
ENDMDL
