MODEL 1
REMARK minimizedAffinity -1.22636497
REMARK minimizedRMSD -1
REMARK  0 active torsions:
REMARK  status: ('A' for Active; 'I' for Inactive)
ROOT
ATOM      1  C   UNL d   1      -6.000   1.879  -1.775  0.00  0.00     0.172 C 
ATOM      2  N   UNL d   1      -5.461   2.505  -0.590  0.00  0.00    -0.070 N 
ATOM      3  C1  UNL d   1      -4.343   2.099   0.089  0.00  0.00    -0.004 A 
ATOM      4  C2  UNL d   1      -4.165   2.953   1.156  0.00  0.00    -0.047 A 
ATOM      5  C3  UNL d   1      -5.212   3.905   1.117  0.00  0.00    -0.047 A 
ATOM      6  C4  UNL d   1      -6.000   3.604   0.026  0.00  0.00    -0.004 A 
ENDROOT
TORSDOF 0
ENDMDL
