MODEL 1
REMARK minimizedAffinity -0.682931662
REMARK minimizedRMSD -1
REMARK  0 active torsions:
REMARK  status: ('A' for Active; 'I' for Inactive)
ROOT
ATOM      1  C   UNL d   1       1.835  -1.431   3.120  0.00  0.00     0.172 C 
ATOM      2  N   UNL d   1       2.172  -0.067   2.785  0.00  0.00    -0.070 N 
ATOM      3  C1  UNL d   1       2.731   0.351   1.607  0.00  0.00    -0.004 A 
ATOM      4  C2  UNL d   1       2.896   1.717   1.679  0.00  0.00    -0.047 A 
ATOM      5  C3  UNL d   1       2.420   2.135   2.945  0.00  0.00    -0.047 A 
ATOM      6  C4  UNL d   1       1.978   1.010   3.609  0.00  0.00    -0.004 A 
ENDROOT
TORSDOF 0
ENDMDL
