MODEL 1
REMARK minimizedAffinity -2.37526011
REMARK minimizedRMSD -1
REMARK  0 active torsions:
REMARK  status: ('A' for Active; 'I' for Inactive)
ROOT
ATOM      1  C   UNL d   1      -3.757   2.271  -2.739  0.00  0.00     0.172 C 
ATOM      2  N   UNL d   1      -4.417   2.497  -1.475  0.00  0.00    -0.070 N 
ATOM      3  C1  UNL d   1      -3.825   2.989  -0.342  0.00  0.00    -0.004 A 
ATOM      4  C2  UNL d   1      -4.788   3.057   0.642  0.00  0.00    -0.047 A 
ATOM      5  C3  UNL d   1      -6.000   2.588   0.081  0.00  0.00    -0.047 A 
ATOM      6  C4  UNL d   1      -5.742   2.248  -1.230  0.00  0.00    -0.004 A 
ENDROOT
TORSDOF 0
ENDMDL
