MODEL 1
REMARK minimizedAffinity -0.173241138
REMARK minimizedRMSD -1
REMARK  0 active torsions:
REMARK  status: ('A' for Active; 'I' for Inactive)
ROOT
ATOM      1  C   UNL d   1      -5.999  -3.362  -2.748  0.00  0.00     0.172 C 
ATOM      2  N   UNL d   1      -5.755  -4.146  -3.936  0.00  0.00    -0.070 N 
ATOM      3  C1  UNL d   1      -5.264  -3.667  -5.121  0.00  0.00    -0.004 A 
ATOM      4  C2  UNL d   1      -5.176  -4.725  -6.000  0.00  0.00    -0.047 A 
ATOM      5  C3  UNL d   1      -5.630  -5.880  -5.319  0.00  0.00    -0.047 A 
ATOM      6  C4  UNL d   1      -5.982  -5.492  -4.043  0.00  0.00    -0.004 A 
ENDROOT
TORSDOF 0
ENDMDL
