MODEL 1
REMARK minimizedAffinity -2.53904271
REMARK minimizedRMSD -1
REMARK  0 active torsions:
REMARK  status: ('A' for Active; 'I' for Inactive)
ROOT
ATOM      1  C   UNL d   1      -0.691  -4.143  -1.689  0.00  0.00     0.020 A 
ATOM      2  C1  UNL d   1      -1.550  -3.495  -2.577  0.00  0.00     0.020 A 
ATOM      3  C2  UNL d   1      -1.711  -2.109  -2.506  0.00  0.00     0.034 A 
ATOM      4  C3  UNL d   1      -1.012  -1.367  -1.547  0.00  0.00     0.017 A 
ATOM      5  C4  UNL d   1      -0.151  -2.018  -0.657  0.00  0.00     0.017 A 
ATOM      6  C5  UNL d   1       0.007  -3.406  -0.731  0.00  0.00     0.034 A 
ATOM      7 Cl   UNL d   1       0.745  -1.170   0.554  0.00  0.00    -0.070 Cl
ATOM      8 Cl1  UNL d   1      -1.259   0.343  -1.518  0.00  0.00    -0.070 Cl
ENDROOT
TORSDOF 0
ENDMDL
