MODEL 1
REMARK minimizedAffinity -2.57298326
REMARK minimizedRMSD -1
REMARK  0 active torsions:
REMARK  status: ('A' for Active; 'I' for Inactive)
ROOT
ATOM      1  C   UNL d   1       0.910  -0.524  -0.465  0.00  0.00     0.020 A 
ATOM      2  C1  UNL d   1      -0.211  -1.111   0.119  0.00  0.00     0.020 A 
ATOM      3  C2  UNL d   1      -1.286  -0.316   0.523  0.00  0.00     0.034 A 
ATOM      4  C3  UNL d   1      -1.241   1.072   0.342  0.00  0.00     0.017 A 
ATOM      5  C4  UNL d   1      -0.115   1.660  -0.245  0.00  0.00     0.017 A 
ATOM      6  C5  UNL d   1       0.958   0.859  -0.647  0.00  0.00     0.034 A 
ATOM      7 Cl   UNL d   1       0.013   3.365  -0.500  0.00  0.00    -0.070 Cl
ATOM      8 Cl1  UNL d   1      -2.606   1.994   0.864  0.00  0.00    -0.070 Cl
ENDROOT
TORSDOF 0
ENDMDL
