MODEL 1
REMARK minimizedAffinity -3.25725198
REMARK minimizedRMSD -1
REMARK  0 active torsions:
REMARK  status: ('A' for Active; 'I' for Inactive)
ROOT
ATOM      1  C   UNL d   1       1.601  -0.321   0.073  0.00  0.00     0.020 A 
ATOM      2  C1  UNL d   1       0.484  -1.017   0.534  0.00  0.00     0.020 A 
ATOM      3  C2  UNL d   1      -0.733  -0.352   0.702  0.00  0.00     0.034 A 
ATOM      4  C3  UNL d   1      -0.835   1.013   0.409  0.00  0.00     0.017 A 
ATOM      5  C4  UNL d   1       0.286   1.710  -0.054  0.00  0.00     0.017 A 
ATOM      6  C5  UNL d   1       1.502   1.040  -0.220  0.00  0.00     0.034 A 
ATOM      7 Cl   UNL d   1       0.237   3.395  -0.436  0.00  0.00    -0.070 Cl
ATOM      8 Cl1  UNL d   1      -2.371   1.771   0.640  0.00  0.00    -0.070 Cl
ENDROOT
TORSDOF 0
ENDMDL
