MODEL 1
REMARK minimizedAffinity -4.26018572
REMARK minimizedRMSD -1
REMARK  0 active torsions:
REMARK  status: ('A' for Active; 'I' for Inactive)
ROOT
ATOM      1  C   UNL d   1       1.337   1.863  -0.594  0.00  0.00     0.020 A 
ATOM      2  C1  UNL d   1       1.677   2.950   0.210  0.00  0.00     0.020 A 
ATOM      3  C2  UNL d   1       0.834   3.337   1.253  0.00  0.00     0.034 A 
ATOM      4  C3  UNL d   1      -0.353   2.637   1.496  0.00  0.00     0.017 A 
ATOM      5  C4  UNL d   1      -0.694   1.546   0.688  0.00  0.00     0.017 A 
ATOM      6  C5  UNL d   1       0.154   1.162  -0.356  0.00  0.00     0.034 A 
ATOM      7 Cl   UNL d   1      -2.142   0.633   0.926  0.00  0.00    -0.070 Cl
ATOM      8 Cl1  UNL d   1      -1.348   3.171   2.803  0.00  0.00    -0.070 Cl
ENDROOT
TORSDOF 0
ENDMDL
