MODEL 1
REMARK minimizedAffinity -3.31445885
REMARK minimizedRMSD -1
REMARK  0 active torsions:
REMARK  status: ('A' for Active; 'I' for Inactive)
ROOT
ATOM      1  C   UNL d   1       0.482   3.220   0.756  0.00  0.00     0.020 A 
ATOM      2  C1  UNL d   1      -0.781   2.677   0.519  0.00  0.00     0.020 A 
ATOM      3  C2  UNL d   1      -0.924   1.301   0.328  0.00  0.00     0.034 A 
ATOM      4  C3  UNL d   1       0.196   0.464   0.374  0.00  0.00     0.017 A 
ATOM      5  C4  UNL d   1       1.463   1.010   0.612  0.00  0.00     0.017 A 
ATOM      6  C5  UNL d   1       1.601   2.388   0.803  0.00  0.00     0.034 A 
ATOM      7 Cl   UNL d   1       2.892   0.040   0.683  0.00  0.00    -0.070 Cl
ATOM      8 Cl1  UNL d   1      -0.055  -1.228   0.130  0.00  0.00    -0.070 Cl
ENDROOT
TORSDOF 0
ENDMDL
