MODEL 1
REMARK minimizedAffinity -1.05832052
REMARK minimizedRMSD -1
REMARK  0 active torsions:
REMARK  status: ('A' for Active; 'I' for Inactive)
ROOT
ATOM      1  C   UNL d   1       1.218  -1.367   0.121  0.00  0.00     0.020 A 
ATOM      2  C1  UNL d   1       2.144  -0.326   0.052  0.00  0.00     0.020 A 
ATOM      3  C2  UNL d   1       1.728   0.992   0.253  0.00  0.00     0.034 A 
ATOM      4  C3  UNL d   1       0.384   1.272   0.524  0.00  0.00     0.017 A 
ATOM      5  C4  UNL d   1      -0.544   0.227   0.594  0.00  0.00     0.017 A 
ATOM      6  C5  UNL d   1      -0.122  -1.091   0.392  0.00  0.00     0.034 A 
ATOM      7 Cl   UNL d   1      -2.219   0.495   0.925  0.00  0.00    -0.070 Cl
ATOM      8 Cl1  UNL d   1      -0.059   2.925   0.763  0.00  0.00    -0.070 Cl
ENDROOT
TORSDOF 0
ENDMDL
