MODEL 1
REMARK minimizedAffinity -4.5609355
REMARK minimizedRMSD -1
REMARK  0 active torsions:
REMARK  status: ('A' for Active; 'I' for Inactive)
ROOT
ATOM      1  C   UNL d   1       0.740  -2.108   0.896  0.00  0.00     0.020 A 
ATOM      2  C1  UNL d   1       1.768  -1.248   0.512  0.00  0.00     0.020 A 
ATOM      3  C2  UNL d   1       1.539   0.129   0.449  0.00  0.00     0.034 A 
ATOM      4  C3  UNL d   1       0.280   0.648   0.771  0.00  0.00     0.017 A 
ATOM      5  C4  UNL d   1      -0.751  -0.216   1.157  0.00  0.00     0.017 A 
ATOM      6  C5  UNL d   1      -0.516  -1.594   1.218  0.00  0.00     0.034 A 
ATOM      7 Cl   UNL d   1      -2.331   0.350   1.569  0.00  0.00    -0.070 Cl
ATOM      8 Cl1  UNL d   1       0.068   2.360   0.672  0.00  0.00    -0.070 Cl
ENDROOT
TORSDOF 0
ENDMDL
