MODEL 1
REMARK minimizedAffinity -4.31539583
REMARK minimizedRMSD -1
REMARK  0 active torsions:
REMARK  status: ('A' for Active; 'I' for Inactive)
ROOT
ATOM      1  C   UNL d   1      -1.127   2.339   0.264  0.00  0.00     0.020 A 
ATOM      2  C1  UNL d   1      -1.900   1.208   0.520  0.00  0.00     0.020 A 
ATOM      3  C2  UNL d   1      -1.293  -0.047   0.607  0.00  0.00     0.034 A 
ATOM      4  C3  UNL d   1       0.090  -0.174   0.437  0.00  0.00     0.017 A 
ATOM      5  C4  UNL d   1       0.865   0.963   0.180  0.00  0.00     0.017 A 
ATOM      6  C5  UNL d   1       0.253   2.217   0.094  0.00  0.00     0.034 A 
ATOM      7 Cl   UNL d   1       2.578   0.886  -0.041  0.00  0.00    -0.070 Cl
ATOM      8 Cl1  UNL d   1       0.773  -1.756   0.558  0.00  0.00    -0.070 Cl
ENDROOT
TORSDOF 0
ENDMDL
