MODEL 1
REMARK minimizedAffinity -3.95733953
REMARK minimizedRMSD -1
REMARK  0 active torsions:
REMARK  status: ('A' for Active; 'I' for Inactive)
ROOT
ATOM      1  C   UNL d   1       1.458  -0.877   0.347  0.00  0.00     0.020 A 
ATOM      2  C1  UNL d   1       0.359  -1.692   0.619  0.00  0.00     0.020 A 
ATOM      3  C2  UNL d   1      -0.926  -1.147   0.640  0.00  0.00     0.034 A 
ATOM      4  C3  UNL d   1      -1.117   0.216   0.389  0.00  0.00     0.017 A 
ATOM      5  C4  UNL d   1      -0.014   1.034   0.116  0.00  0.00     0.017 A 
ATOM      6  C5  UNL d   1       1.271   0.483   0.096  0.00  0.00     0.034 A 
ATOM      7 Cl   UNL d   1      -0.170   2.725  -0.204  0.00  0.00    -0.070 Cl
ATOM      8 Cl1  UNL d   1      -2.734   0.823   0.430  0.00  0.00    -0.070 Cl
ENDROOT
TORSDOF 0
ENDMDL
