MODEL 1
REMARK minimizedAffinity -2.64490008
REMARK minimizedRMSD -1
REMARK  0 active torsions:
REMARK  status: ('A' for Active; 'I' for Inactive)
ROOT
ATOM      1  C   UNL d   1       1.351   2.233   0.790  0.00  0.00     0.020 A 
ATOM      2  C1  UNL d   1       2.152   1.114   0.568  0.00  0.00     0.020 A 
ATOM      3  C2  UNL d   1       1.564  -0.119   0.279  0.00  0.00     0.034 A 
ATOM      4  C3  UNL d   1       0.171  -0.236   0.211  0.00  0.00     0.017 A 
ATOM      5  C4  UNL d   1      -0.632   0.888   0.434  0.00  0.00     0.017 A 
ATOM      6  C5  UNL d   1      -0.038   2.120   0.723  0.00  0.00     0.034 A 
ATOM      7 Cl   UNL d   1      -2.358   0.822   0.368  0.00  0.00    -0.070 Cl
ATOM      8 Cl1  UNL d   1      -0.488  -1.792  -0.152  0.00  0.00    -0.070 Cl
ENDROOT
TORSDOF 0
ENDMDL
