MODEL 1
REMARK minimizedAffinity -4.20606232
REMARK minimizedRMSD -1
REMARK  0 active torsions:
REMARK  status: ('A' for Active; 'I' for Inactive)
ROOT
ATOM      1  C   UNL d   1       2.481   1.755   0.652  0.00  0.00     0.020 A 
ATOM      2  C1  UNL d   1       1.529   2.748   0.875  0.00  0.00     0.020 A 
ATOM      3  C2  UNL d   1       0.168   2.442   0.794  0.00  0.00     0.034 A 
ATOM      4  C3  UNL d   1      -0.243   1.140   0.490  0.00  0.00     0.017 A 
ATOM      5  C4  UNL d   1       0.713   0.143   0.266  0.00  0.00     0.017 A 
ATOM      6  C5  UNL d   1       2.074   0.455   0.348  0.00  0.00     0.034 A 
ATOM      7 Cl   UNL d   1       0.282  -1.487  -0.114  0.00  0.00    -0.070 Cl
ATOM      8 Cl1  UNL d   1      -1.942   0.833   0.407  0.00  0.00    -0.070 Cl
ENDROOT
TORSDOF 0
ENDMDL
