MODEL 1
REMARK minimizedAffinity -4.4082346
REMARK minimizedRMSD -1
REMARK  0 active torsions:
REMARK  status: ('A' for Active; 'I' for Inactive)
ROOT
ATOM      1  C   UNL d   1      -0.850  -0.769   0.605  0.00  0.00     0.020 A 
ATOM      2  C1  UNL d   1       0.312  -1.538   0.645  0.00  0.00     0.020 A 
ATOM      3  C2  UNL d   1       1.560  -0.926   0.510  0.00  0.00     0.034 A 
ATOM      4  C3  UNL d   1       1.648   0.460   0.333  0.00  0.00     0.017 A 
ATOM      5  C4  UNL d   1       0.481   1.231   0.292  0.00  0.00     0.017 A 
ATOM      6  C5  UNL d   1      -0.766   0.612   0.428  0.00  0.00     0.034 A 
ATOM      7 Cl   UNL d   1       0.510   2.946   0.077  0.00  0.00    -0.070 Cl
ATOM      8 Cl1  UNL d   1       3.224   1.151   0.173  0.00  0.00    -0.070 Cl
ENDROOT
TORSDOF 0
ENDMDL
