MODEL 1
REMARK minimizedAffinity -5.45299053
REMARK minimizedRMSD -1
REMARK  0 active torsions:
REMARK  status: ('A' for Active; 'I' for Inactive)
ROOT
ATOM      1  C   UNL d   1       0.588   3.112   0.081  0.00  0.00     0.020 A 
ATOM      2  C1  UNL d   1       1.664   2.307  -0.291  0.00  0.00     0.020 A 
ATOM      3  C2  UNL d   1       1.528   0.917  -0.292  0.00  0.00     0.034 A 
ATOM      4  C3  UNL d   1       0.314   0.328   0.078  0.00  0.00     0.017 A 
ATOM      5  C4  UNL d   1      -0.766   1.137   0.451  0.00  0.00     0.017 A 
ATOM      6  C5  UNL d   1      -0.624   2.528   0.451  0.00  0.00     0.034 A 
ATOM      7 Cl   UNL d   1      -2.295   0.483   0.921  0.00  0.00    -0.070 Cl
ATOM      8 Cl1  UNL d   1       0.217  -1.397   0.053  0.00  0.00    -0.070 Cl
ENDROOT
TORSDOF 0
ENDMDL
