MODEL 1
REMARK minimizedAffinity -2.15657496
REMARK minimizedRMSD -1
REMARK  0 active torsions:
REMARK  status: ('A' for Active; 'I' for Inactive)
ROOT
ATOM      1  C   UNL d   1       0.355   2.969   0.339  0.00  0.00     0.020 A 
ATOM      2  C1  UNL d   1       1.199   2.387  -0.606  0.00  0.00     0.020 A 
ATOM      3  C2  UNL d   1       1.067   1.033  -0.919  0.00  0.00     0.034 A 
ATOM      4  C3  UNL d   1       0.089   0.256  -0.287  0.00  0.00     0.017 A 
ATOM      5  C4  UNL d   1      -0.758   0.842   0.661  0.00  0.00     0.017 A 
ATOM      6  C5  UNL d   1      -0.621   2.198   0.971  0.00  0.00     0.034 A 
ATOM      7 Cl   UNL d   1      -1.989  -0.052   1.482  0.00  0.00    -0.070 Cl
ATOM      8 Cl1  UNL d   1      -0.019  -1.412  -0.724  0.00  0.00    -0.070 Cl
ENDROOT
TORSDOF 0
ENDMDL
