MODEL 1
REMARK minimizedAffinity -1.02145994
REMARK minimizedRMSD -1
REMARK  0 active torsions:
REMARK  status: ('A' for Active; 'I' for Inactive)
ROOT
ATOM      1  C   UNL d   1      -0.464   2.891   0.728  0.00  0.00     0.020 A 
ATOM      2  C1  UNL d   1      -1.682   2.247   0.517  0.00  0.00     0.020 A 
ATOM      3  C2  UNL d   1      -1.713   0.870   0.287  0.00  0.00     0.034 A 
ATOM      4  C3  UNL d   1      -0.523   0.133   0.268  0.00  0.00     0.017 A 
ATOM      5  C4  UNL d   1       0.699   0.781   0.480  0.00  0.00     0.017 A 
ATOM      6  C5  UNL d   1       0.724   2.160   0.709  0.00  0.00     0.034 A 
ATOM      7 Cl   UNL d   1       2.208  -0.062   0.471  0.00  0.00    -0.070 Cl
ATOM      8 Cl1  UNL d   1      -0.636  -1.567  -0.021  0.00  0.00    -0.070 Cl
ENDROOT
TORSDOF 0
ENDMDL
