MODEL 1
REMARK minimizedAffinity -1.8298862
REMARK minimizedRMSD -1
REMARK  0 active torsions:
REMARK  status: ('A' for Active; 'I' for Inactive)
ROOT
ATOM      1  C   UNL d   1       0.140  -2.956  -2.220  0.00  0.00     0.020 A 
ATOM      2  C1  UNL d   1      -1.069  -3.165  -1.558  0.00  0.00     0.020 A 
ATOM      3  C2  UNL d   1      -1.489  -2.270  -0.571  0.00  0.00     0.034 A 
ATOM      4  C3  UNL d   1      -0.699  -1.162  -0.244  0.00  0.00     0.017 A 
ATOM      5  C4  UNL d   1       0.515  -0.953  -0.909  0.00  0.00     0.017 A 
ATOM      6  C5  UNL d   1       0.930  -1.853  -1.896  0.00  0.00     0.034 A 
ATOM      7 Cl   UNL d   1       1.544   0.391  -0.560  0.00  0.00    -0.070 Cl
ATOM      8 Cl1  UNL d   1      -1.280  -0.096   0.985  0.00  0.00    -0.070 Cl
ENDROOT
TORSDOF 0
ENDMDL
