MODEL 1
REMARK minimizedAffinity -3.91249633
REMARK minimizedRMSD -1
REMARK  0 active torsions:
REMARK  status: ('A' for Active; 'I' for Inactive)
ROOT
ATOM      1  C   UNL d   1       0.955   1.892  -1.795  0.00  0.00    -0.002 A 
ATOM      2  C1  UNL d   1       0.020   1.280  -2.617  0.00  0.00     0.010 A 
ATOM      3  C2  UNL d   1      -0.545   0.054  -2.260  0.00  0.00     0.041 A 
ATOM      4  C3  UNL d   1      -0.151  -0.551  -1.050  0.00  0.00    -0.075 A 
ATOM      5  S   UNL d   1      -0.710  -2.051  -0.408  0.00  0.00     0.015 SA
ATOM      6  C4  UNL d   1       0.279  -1.913   0.973  0.00  0.00     0.022 A 
ATOM      7  C5  UNL d   1       1.024  -0.758   0.961  0.00  0.00     0.026 A 
ATOM      8  C6  UNL d   1       0.788   0.047  -0.205  0.00  0.00    -0.082 A 
ATOM      9  C7  UNL d   1       1.343   1.289  -0.595  0.00  0.00     0.045 A 
ENDROOT
TORSDOF 0
ENDMDL
