MODEL 1
REMARK minimizedAffinity -3.25039935
REMARK minimizedRMSD -1
REMARK  0 active torsions:
REMARK  status: ('A' for Active; 'I' for Inactive)
ROOT
ATOM      1  C   UNL d   1      -0.548   1.969   0.695  0.00  0.00    -0.002 A 
ATOM      2  C1  UNL d   1      -1.827   1.450   0.835  0.00  0.00     0.010 A 
ATOM      3  C2  UNL d   1      -2.040   0.070   0.806  0.00  0.00     0.041 A 
ATOM      4  C3  UNL d   1      -0.936  -0.787   0.635  0.00  0.00    -0.075 A 
ATOM      5  S   UNL d   1      -0.957  -2.510   0.570  0.00  0.00     0.015 SA
ATOM      6  C4  UNL d   1       0.732  -2.597   0.356  0.00  0.00     0.022 A 
ATOM      7  C5  UNL d   1       1.313  -1.352   0.332  0.00  0.00     0.026 A 
ATOM      8  C6  UNL d   1       0.362  -0.288   0.493  0.00  0.00    -0.082 A 
ATOM      9  C7  UNL d   1       0.546   1.115   0.526  0.00  0.00     0.045 A 
ENDROOT
TORSDOF 0
ENDMDL
