MODEL 1
REMARK minimizedAffinity -3.24910665
REMARK minimizedRMSD -1
REMARK  0 active torsions:
REMARK  status: ('A' for Active; 'I' for Inactive)
ROOT
ATOM      1  C   UNL d   1      -2.443  -2.186   0.491  0.00  0.00    -0.002 A 
ATOM      2  C1  UNL d   1      -1.623  -2.965   1.295  0.00  0.00     0.010 A 
ATOM      3  C2  UNL d   1      -0.267  -2.661   1.434  0.00  0.00     0.041 A 
ATOM      4  C3  UNL d   1       0.256  -1.548   0.746  0.00  0.00    -0.075 A 
ATOM      5  S   UNL d   1       1.885  -0.985   0.766  0.00  0.00     0.015 SA
ATOM      6  C4  UNL d   1       1.531   0.304  -0.291  0.00  0.00     0.022 A 
ATOM      7  C5  UNL d   1       0.207   0.319  -0.661  0.00  0.00     0.026 A 
ATOM      8  C6  UNL d   1      -0.550  -0.748  -0.069  0.00  0.00    -0.082 A 
ATOM      9  C7  UNL d   1      -1.920  -1.083  -0.190  0.00  0.00     0.045 A 
ENDROOT
TORSDOF 0
ENDMDL
