MODEL 1
REMARK minimizedAffinity 16.4303646
REMARK minimizedRMSD -1
REMARK  0 active torsions:
REMARK  status: ('A' for Active; 'I' for Inactive)
ROOT
ATOM      1  C   UNL d   1       2.660   5.459  -2.147  0.00  0.00     0.124 A 
ATOM      2  C1  UNL d   1       4.017   5.184  -2.060  0.00  0.00     0.062 A 
ATOM      3  C2  UNL d   1       4.654   5.183  -0.823  0.00  0.00     0.162 A 
ATOM      4  C3  UNL d   1       3.933   5.456   0.340  0.00  0.00    -0.034 A 
ATOM      5  C4  UNL d   1       2.568   5.733   0.245  0.00  0.00     0.162 A 
ATOM      6  C5  UNL d   1       1.936   5.733  -0.995  0.00  0.00     0.062 A 
ATOM      7  F   UNL d   1       0.624   5.999  -1.077  0.00  0.00    -0.097 F 
ATOM      8  F1  UNL d   1       1.844   6.000   1.342  0.00  0.00    -0.096 F 
ATOM      9  I   UNL d   1       4.880   5.455   2.193  0.00  0.00    -0.060 I 
ATOM     10  F2  UNL d   1       5.967   4.913  -0.769  0.00  0.00    -0.096 F 
ATOM     11  F3  UNL d   1       4.719   4.920  -3.172  0.00  0.00    -0.097 F 
ATOM     12  F4  UNL d   1       2.050   5.461  -3.339  0.00  0.00    -0.092 F 
ENDROOT
TORSDOF 0
ENDMDL
