MODEL 1
REMARK minimizedAffinity 21.4156952
REMARK minimizedRMSD -1
REMARK  0 active torsions:
REMARK  status: ('A' for Active; 'I' for Inactive)
ROOT
ATOM      1  C   UNL d   1      -3.375   2.667   2.687  0.00  0.00     0.124 A 
ATOM      2  C1  UNL d   1      -4.120   3.829   2.833  0.00  0.00     0.062 A 
ATOM      3  C2  UNL d   1      -3.752   4.782   3.779  0.00  0.00     0.162 A 
ATOM      4  C3  UNL d   1      -2.632   4.577   4.585  0.00  0.00    -0.034 A 
ATOM      5  C4  UNL d   1      -1.888   3.406   4.432  0.00  0.00     0.162 A 
ATOM      6  C5  UNL d   1      -2.260   2.457   3.486  0.00  0.00     0.062 A 
ATOM      7  F   UNL d   1      -1.539   1.335   3.346  0.00  0.00    -0.097 F 
ATOM      8  F1  UNL d   1      -0.806   3.178   5.191  0.00  0.00    -0.096 F 
ATOM      9  I   UNL d   1      -2.078   6.000   6.000  0.00  0.00    -0.060 I 
ATOM     10  F2  UNL d   1      -4.490   5.895   3.899  0.00  0.00    -0.096 F 
ATOM     11  F3  UNL d   1      -5.198   4.034   2.063  0.00  0.00    -0.097 F 
ATOM     12  F4  UNL d   1      -3.731   1.752   1.777  0.00  0.00    -0.092 F 
ENDROOT
TORSDOF 0
ENDMDL
