MODEL 1
REMARK minimizedAffinity 19.9239483
REMARK minimizedRMSD -1
REMARK  0 active torsions:
REMARK  status: ('A' for Active; 'I' for Inactive)
ROOT
ATOM      1  C   UNL d   1      -2.872   2.755   2.259  0.00  0.00     0.124 A 
ATOM      2  C1  UNL d   1      -3.662   3.881   2.441  0.00  0.00     0.062 A 
ATOM      3  C2  UNL d   1      -3.358   4.795   3.445  0.00  0.00     0.162 A 
ATOM      4  C3  UNL d   1      -2.257   4.588   4.276  0.00  0.00    -0.034 A 
ATOM      5  C4  UNL d   1      -1.467   3.452   4.088  0.00  0.00     0.162 A 
ATOM      6  C5  UNL d   1      -1.775   2.541   3.083  0.00  0.00     0.062 A 
ATOM      7  F   UNL d   1      -1.010   1.454   2.909  0.00  0.00    -0.097 F 
ATOM      8  F1  UNL d   1      -0.401   3.222   4.868  0.00  0.00    -0.096 F 
ATOM      9  I   UNL d   1      -1.798   5.952   5.779  0.00  0.00    -0.060 I 
ATOM     10  F2  UNL d   1      -4.139   5.875   3.598  0.00  0.00    -0.096 F 
ATOM     11  F3  UNL d   1      -4.723   4.089   1.647  0.00  0.00    -0.097 F 
ATOM     12  F4  UNL d   1      -3.167   1.876   1.293  0.00  0.00    -0.092 F 
ENDROOT
TORSDOF 0
ENDMDL
