MODEL 1
REMARK minimizedAffinity 17.8262272
REMARK minimizedRMSD -1
REMARK  0 active torsions:
REMARK  status: ('A' for Active; 'I' for Inactive)
ROOT
ATOM      1  C   UNL d   1      -4.136   1.846   2.623  0.00  0.00     0.124 A 
ATOM      2  C1  UNL d   1      -4.901   2.992   2.455  0.00  0.00     0.062 A 
ATOM      3  C2  UNL d   1      -4.531   4.179   3.081  0.00  0.00     0.162 A 
ATOM      4  C3  UNL d   1      -3.390   4.227   3.881  0.00  0.00    -0.034 A 
ATOM      5  C4  UNL d   1      -2.626   3.070   4.047  0.00  0.00     0.162 A 
ATOM      6  C5  UNL d   1      -2.999   1.886   3.419  0.00  0.00     0.062 A 
ATOM      7  F   UNL d   1      -2.259   0.781   3.583  0.00  0.00    -0.097 F 
ATOM      8  F1  UNL d   1      -1.522   3.081   4.809  0.00  0.00    -0.096 F 
ATOM      9  I   UNL d   1      -2.834   6.000   4.819  0.00  0.00    -0.060 I 
ATOM     10  F2  UNL d   1      -5.289   5.271   2.900  0.00  0.00    -0.096 F 
ATOM     11  F3  UNL d   1      -6.000   2.956   1.687  0.00  0.00    -0.097 F 
ATOM     12  F4  UNL d   1      -4.494   0.705   2.021  0.00  0.00    -0.092 F 
ENDROOT
TORSDOF 0
ENDMDL
