MODEL 1
REMARK minimizedAffinity 8.44088936
REMARK minimizedRMSD -1
REMARK  0 active torsions:
REMARK  status: ('A' for Active; 'I' for Inactive)
ROOT
ATOM      1  C   UNL d   1       2.224   2.219  -3.264  0.00  0.00     0.124 A 
ATOM      2  C1  UNL d   1       1.147   1.420  -2.906  0.00  0.00     0.062 A 
ATOM      3  C2  UNL d   1       1.354   0.247  -2.186  0.00  0.00     0.162 A 
ATOM      4  C3  UNL d   1       2.644  -0.134  -1.817  0.00  0.00    -0.034 A 
ATOM      5  C4  UNL d   1       3.723   0.674  -2.181  0.00  0.00     0.162 A 
ATOM      6  C5  UNL d   1       3.511   1.845  -2.901  0.00  0.00     0.062 A 
ATOM      7  F   UNL d   1       4.553   2.615  -3.246  0.00  0.00    -0.097 F 
ATOM      8  F1  UNL d   1       4.976   0.337  -1.843  0.00  0.00    -0.096 F 
ATOM      9  I   UNL d   1       2.958  -1.887  -0.740  0.00  0.00    -0.060 I 
ATOM     10  F2  UNL d   1       0.294  -0.506  -1.854  0.00  0.00    -0.096 F 
ATOM     11  F3  UNL d   1      -0.097   1.778  -3.256  0.00  0.00    -0.097 F 
ATOM     12  F4  UNL d   1       2.023   3.346  -3.958  0.00  0.00    -0.092 F 
ENDROOT
TORSDOF 0
ENDMDL
