MODEL 1
REMARK minimizedAffinity 23.2355862
REMARK minimizedRMSD -1
REMARK  0 active torsions:
REMARK  status: ('A' for Active; 'I' for Inactive)
ROOT
ATOM      1  C   UNL d   1       2.361   0.435  -1.601  0.00  0.00     0.124 A 
ATOM      2  C1  UNL d   1       1.403   0.678  -2.576  0.00  0.00     0.062 A 
ATOM      3  C2  UNL d   1       0.691  -0.378  -3.136  0.00  0.00     0.162 A 
ATOM      4  C3  UNL d   1       0.932  -1.688  -2.722  0.00  0.00    -0.034 A 
ATOM      5  C4  UNL d   1       1.898  -1.925  -1.742  0.00  0.00     0.162 A 
ATOM      6  C5  UNL d   1       2.607  -0.865  -1.185  0.00  0.00     0.062 A 
ATOM      7  F   UNL d   1       3.532  -1.102  -0.243  0.00  0.00    -0.097 F 
ATOM      8  F1  UNL d   1       2.155  -3.172  -1.320  0.00  0.00    -0.096 F 
ATOM      9  I   UNL d   1      -0.131  -3.270  -3.557  0.00  0.00    -0.060 I 
ATOM     10  F2  UNL d   1      -0.229  -0.114  -4.077  0.00  0.00    -0.096 F 
ATOM     11  F3  UNL d   1       1.164   1.934  -2.981  0.00  0.00    -0.097 F 
ATOM     12  F4  UNL d   1       3.046   1.454  -1.065  0.00  0.00    -0.092 F 
ENDROOT
TORSDOF 0
ENDMDL
