MODEL 1
REMARK minimizedAffinity 17.5820789
REMARK minimizedRMSD -1
REMARK  0 active torsions:
REMARK  status: ('A' for Active; 'I' for Inactive)
ROOT
ATOM      1  C   UNL d   1      -3.431  -0.548   2.368  0.00  0.00     0.124 A 
ATOM      2  C1  UNL d   1      -2.341   0.280   2.599  0.00  0.00     0.062 A 
ATOM      3  C2  UNL d   1      -1.431   0.540   1.579  0.00  0.00     0.162 A 
ATOM      4  C3  UNL d   1      -1.607  -0.028   0.317  0.00  0.00    -0.034 A 
ATOM      5  C4  UNL d   1      -2.705  -0.860   0.092  0.00  0.00     0.162 A 
ATOM      6  C5  UNL d   1      -3.612  -1.117   1.115  0.00  0.00     0.062 A 
ATOM      7  F   UNL d   1      -4.664  -1.918   0.890  0.00  0.00    -0.097 F 
ATOM      8  F1  UNL d   1      -2.904  -1.423  -1.109  0.00  0.00    -0.096 F 
ATOM      9  I   UNL d   1      -0.248   0.359  -1.211  0.00  0.00    -0.060 I 
ATOM     10  F2  UNL d   1      -0.387   1.344   1.831  0.00  0.00    -0.096 F 
ATOM     11  F3  UNL d   1      -2.164   0.830   3.809  0.00  0.00    -0.097 F 
ATOM     12  F4  UNL d   1      -4.305  -0.798   3.352  0.00  0.00    -0.092 F 
ENDROOT
TORSDOF 0
ENDMDL
