MODEL 1
REMARK minimizedAffinity 27.4480743
REMARK minimizedRMSD -1
REMARK  0 active torsions:
REMARK  status: ('A' for Active; 'I' for Inactive)
ROOT
ATOM      1  C   UNL d   1      -3.032   1.234   2.414  0.00  0.00     0.124 A 
ATOM      2  C1  UNL d   1      -3.161   2.579   2.097  0.00  0.00     0.062 A 
ATOM      3  C2  UNL d   1      -3.084   3.544   3.096  0.00  0.00     0.162 A 
ATOM      4  C3  UNL d   1      -2.875   3.168   4.423  0.00  0.00    -0.034 A 
ATOM      5  C4  UNL d   1      -2.747   1.813   4.734  0.00  0.00     0.162 A 
ATOM      6  C5  UNL d   1      -2.825   0.852   3.732  0.00  0.00     0.062 A 
ATOM      7  F   UNL d   1      -2.700  -0.447   4.040  0.00  0.00    -0.097 F 
ATOM      8  F1  UNL d   1      -2.545   1.416   6.000  0.00  0.00    -0.096 F 
ATOM      9  I   UNL d   1      -2.758   4.608   5.921  0.00  0.00    -0.060 I 
ATOM     10  F2  UNL d   1      -3.212   4.837   2.761  0.00  0.00    -0.096 F 
ATOM     11  F3  UNL d   1      -3.363   2.950   0.824  0.00  0.00    -0.097 F 
ATOM     12  F4  UNL d   1      -3.109   0.307   1.450  0.00  0.00    -0.092 F 
ENDROOT
TORSDOF 0
ENDMDL
