MODEL 1
REMARK minimizedAffinity 16.2450275
REMARK minimizedRMSD -1
REMARK  0 active torsions:
REMARK  status: ('A' for Active; 'I' for Inactive)
ROOT
ATOM      1  C   UNL d   1      -3.694  -0.168   2.035  0.00  0.00     0.124 A 
ATOM      2  C1  UNL d   1      -4.600   0.883   2.011  0.00  0.00     0.062 A 
ATOM      3  C2  UNL d   1      -4.212   2.152   2.432  0.00  0.00     0.162 A 
ATOM      4  C3  UNL d   1      -2.910   2.377   2.879  0.00  0.00    -0.034 A 
ATOM      5  C4  UNL d   1      -2.005   1.315   2.901  0.00  0.00     0.162 A 
ATOM      6  C5  UNL d   1      -2.398   0.049   2.479  0.00  0.00     0.062 A 
ATOM      7  F   UNL d   1      -1.521  -0.966   2.503  0.00  0.00    -0.097 F 
ATOM      8  F1  UNL d   1      -0.745   1.496   3.325  0.00  0.00    -0.096 F 
ATOM      9  I   UNL d   1      -2.325   4.273   3.508  0.00  0.00    -0.060 I 
ATOM     10  F2  UNL d   1      -5.109   3.149   2.398  0.00  0.00    -0.096 F 
ATOM     11  F3  UNL d   1      -5.854   0.676   1.583  0.00  0.00    -0.097 F 
ATOM     12  F4  UNL d   1      -4.071  -1.388   1.631  0.00  0.00    -0.092 F 
ENDROOT
TORSDOF 0
ENDMDL
