MODEL 1
REMARK minimizedAffinity 15.2439346
REMARK minimizedRMSD -1
REMARK  0 active torsions:
REMARK  status: ('A' for Active; 'I' for Inactive)
ROOT
ATOM      1  C   UNL d   1       2.391  -1.310  -2.250  0.00  0.00     0.124 A 
ATOM      2  C1  UNL d   1       3.001  -1.911  -1.158  0.00  0.00     0.062 A 
ATOM      3  C2  UNL d   1       2.280  -2.779  -0.343  0.00  0.00     0.162 A 
ATOM      4  C3  UNL d   1       0.940  -3.052  -0.618  0.00  0.00    -0.034 A 
ATOM      5  C4  UNL d   1       0.333  -2.443  -1.717  0.00  0.00     0.162 A 
ATOM      6  C5  UNL d   1       1.058  -1.576  -2.529  0.00  0.00     0.062 A 
ATOM      7  F   UNL d   1       0.466  -0.996  -3.583  0.00  0.00    -0.097 F 
ATOM      8  F1  UNL d   1      -0.954  -2.684  -2.010  0.00  0.00    -0.096 F 
ATOM      9  I   UNL d   1      -0.142  -4.350   0.598  0.00  0.00    -0.060 I 
ATOM     10  F2  UNL d   1       2.895  -3.346   0.705  0.00  0.00    -0.096 F 
ATOM     11  F3  UNL d   1       4.288  -1.654  -0.886  0.00  0.00    -0.097 F 
ATOM     12  F4  UNL d   1       3.086  -0.474  -3.031  0.00  0.00    -0.092 F 
ENDROOT
TORSDOF 0
ENDMDL
