MODEL 1
REMARK minimizedAffinity 15.9236889
REMARK minimizedRMSD -1
REMARK  0 active torsions:
REMARK  status: ('A' for Active; 'I' for Inactive)
ROOT
ATOM      1  C   UNL d   1      -0.135  -1.355  -2.069  0.00  0.00     0.124 A 
ATOM      2  C1  UNL d   1      -1.216  -1.314  -1.200  0.00  0.00     0.062 A 
ATOM      3  C2  UNL d   1      -1.886  -0.115  -0.972  0.00  0.00     0.162 A 
ATOM      4  C3  UNL d   1      -1.477   1.053  -1.616  0.00  0.00    -0.034 A 
ATOM      5  C4  UNL d   1      -0.387   1.004  -2.488  0.00  0.00     0.162 A 
ATOM      6  C5  UNL d   1       0.279  -0.197  -2.712  0.00  0.00     0.062 A 
ATOM      7  F   UNL d   1       1.324  -0.235  -3.551  0.00  0.00    -0.097 F 
ATOM      8  F1  UNL d   1       0.033   2.108  -3.123  0.00  0.00    -0.096 F 
ATOM      9  I   UNL d   1      -2.476   2.847  -1.278  0.00  0.00    -0.060 I 
ATOM     10  F2  UNL d   1      -2.928  -0.105  -0.128  0.00  0.00    -0.096 F 
ATOM     11  F3  UNL d   1      -1.617  -2.432  -0.577  0.00  0.00    -0.097 F 
ATOM     12  F4  UNL d   1       0.509  -2.510  -2.285  0.00  0.00    -0.092 F 
ENDROOT
TORSDOF 0
ENDMDL
