MODEL 1
REMARK minimizedAffinity 23.7290344
REMARK minimizedRMSD -1
REMARK  0 active torsions:
REMARK  status: ('A' for Active; 'I' for Inactive)
ROOT
ATOM      1  C   UNL d   1       1.019  -2.357  -3.851  0.00  0.00     0.124 A 
ATOM      2  C1  UNL d   1       1.405  -1.818  -2.632  0.00  0.00     0.062 A 
ATOM      3  C2  UNL d   1       1.221  -0.462  -2.377  0.00  0.00     0.162 A 
ATOM      4  C3  UNL d   1       0.647   0.365  -3.343  0.00  0.00    -0.034 A 
ATOM      5  C4  UNL d   1       0.263  -0.185  -4.567  0.00  0.00     0.162 A 
ATOM      6  C5  UNL d   1       0.448  -1.540  -4.817  0.00  0.00     0.062 A 
ATOM      7  F   UNL d   1       0.075  -2.060  -5.996  0.00  0.00    -0.097 F 
ATOM      8  F1  UNL d   1      -0.292   0.581  -5.518  0.00  0.00    -0.096 F 
ATOM      9  I   UNL d   1       0.371   2.393  -2.965  0.00  0.00    -0.060 I 
ATOM     10  F2  UNL d   1       1.603   0.032  -1.190  0.00  0.00    -0.096 F 
ATOM     11  F3  UNL d   1       1.957  -2.604  -1.697  0.00  0.00    -0.097 F 
ATOM     12  F4  UNL d   1       1.198  -3.662  -4.095  0.00  0.00    -0.092 F 
ENDROOT
TORSDOF 0
ENDMDL
