MODEL 1
REMARK minimizedAffinity 21.293644
REMARK minimizedRMSD -1
REMARK  0 active torsions:
REMARK  status: ('A' for Active; 'I' for Inactive)
ROOT
ATOM      1  C   UNL d   1       1.248   1.198  -2.058  0.00  0.00     0.124 A 
ATOM      2  C1  UNL d   1       1.969   1.923  -1.120  0.00  0.00     0.062 A 
ATOM      3  C2  UNL d   1       2.311   3.249  -1.372  0.00  0.00     0.162 A 
ATOM      4  C3  UNL d   1       1.931   3.859  -2.568  0.00  0.00    -0.034 A 
ATOM      5  C4  UNL d   1       1.206   3.123  -3.507  0.00  0.00     0.162 A 
ATOM      6  C5  UNL d   1       0.867   1.798  -3.250  0.00  0.00     0.062 A 
ATOM      7  F   UNL d   1       0.169   1.099  -4.158  0.00  0.00    -0.097 F 
ATOM      8  F1  UNL d   1       0.825   3.678  -4.666  0.00  0.00    -0.096 F 
ATOM      9  I   UNL d   1       2.441   5.840  -2.948  0.00  0.00    -0.060 I 
ATOM     10  F2  UNL d   1       3.009   3.925  -0.448  0.00  0.00    -0.096 F 
ATOM     11  F3  UNL d   1       2.339   1.346   0.032  0.00  0.00    -0.097 F 
ATOM     12  F4  UNL d   1       0.920  -0.077  -1.814  0.00  0.00    -0.092 F 
ENDROOT
TORSDOF 0
ENDMDL
