MODEL 1
REMARK minimizedAffinity 17.1579494
REMARK minimizedRMSD -1
REMARK  0 active torsions:
REMARK  status: ('A' for Active; 'I' for Inactive)
ROOT
ATOM      1  C   UNL d   1      -1.840   1.134   2.835  0.00  0.00     0.124 A 
ATOM      2  C1  UNL d   1      -2.486   1.614   3.966  0.00  0.00     0.062 A 
ATOM      3  C2  UNL d   1      -3.674   1.029   4.395  0.00  0.00     0.162 A 
ATOM      4  C3  UNL d   1      -4.223  -0.044   3.693  0.00  0.00    -0.034 A 
ATOM      5  C4  UNL d   1      -3.568  -0.520   2.556  0.00  0.00     0.162 A 
ATOM      6  C5  UNL d   1      -2.381   0.068   2.132  0.00  0.00     0.062 A 
ATOM      7  F   UNL d   1      -1.759  -0.398   1.039  0.00  0.00    -0.097 F 
ATOM      8  F1  UNL d   1      -4.069  -1.550   1.858  0.00  0.00    -0.096 F 
ATOM      9  I   UNL d   1      -5.999  -0.921   4.331  0.00  0.00    -0.060 I 
ATOM     10  F2  UNL d   1      -4.276   1.514   5.491  0.00  0.00    -0.096 F 
ATOM     11  F3  UNL d   1      -1.965   2.645   4.647  0.00  0.00    -0.097 F 
ATOM     12  F4  UNL d   1      -0.697   1.699   2.424  0.00  0.00    -0.092 F 
ENDROOT
TORSDOF 0
ENDMDL
