MODEL 1
REMARK minimizedAffinity -0.175164133
REMARK minimizedRMSD -1
REMARK  0 active torsions:
REMARK  status: ('A' for Active; 'I' for Inactive)
ROOT
ATOM      1  C   UNL d   1      -1.530   0.309   1.231  0.00  0.00     0.124 A 
ATOM      2  C1  UNL d   1      -2.494   0.423   2.223  0.00  0.00     0.062 A 
ATOM      3  C2  UNL d   1      -3.771  -0.092   2.020  0.00  0.00     0.162 A 
ATOM      4  C3  UNL d   1      -4.092  -0.727   0.820  0.00  0.00    -0.034 A 
ATOM      5  C4  UNL d   1      -3.117  -0.837  -0.173  0.00  0.00     0.162 A 
ATOM      6  C5  UNL d   1      -1.842  -0.321   0.034  0.00  0.00     0.062 A 
ATOM      7  F   UNL d   1      -0.911  -0.431  -0.925  0.00  0.00    -0.097 F 
ATOM      8  F1  UNL d   1      -3.391  -1.442  -1.339  0.00  0.00    -0.096 F 
ATOM      9  I   UNL d   1      -6.000  -1.499   0.513  0.00  0.00    -0.060 I 
ATOM     10  F2  UNL d   1      -4.683   0.032   2.996  0.00  0.00    -0.096 F 
ATOM     11  F3  UNL d   1      -2.196   1.032   3.380  0.00  0.00    -0.097 F 
ATOM     12  F4  UNL d   1      -0.302   0.806   1.429  0.00  0.00    -0.092 F 
ENDROOT
TORSDOF 0
ENDMDL
