MODEL 1
REMARK minimizedAffinity -3.89929843
REMARK minimizedRMSD -1
REMARK  0 active torsions:
REMARK  status: ('A' for Active; 'I' for Inactive)
ROOT
ATOM      1  C4' PXY d   1       0.775  -0.344  -2.028  0.00  0.00     0.077 C 
ATOM      2  C1' PXY d   1      -1.200   1.003   3.235  0.00  0.00     0.077 C 
ATOM      3  C1  PXY d   1      -0.671   0.656   1.857  0.00  0.00    -0.082 A 
ATOM      4  C2  PXY d   1      -1.519   0.448   0.864  0.00  0.00     0.003 A 
ATOM      5  C3  PXY d   1      -1.059   0.102  -0.381  0.00  0.00     0.003 A 
ATOM      6  C4  PXY d   1       0.286   0.018  -0.623  0.00  0.00    -0.082 A 
ATOM      7  C5  PXY d   1       1.159   0.239   0.383  0.00  0.00     0.003 A 
ATOM      8  C6  PXY d   1       0.670   0.549   1.648  0.00  0.00     0.003 A 
ENDROOT
TORSDOF 0
ENDMDL
