MODEL 1
REMARK minimizedAffinity -1.66024983
REMARK minimizedRMSD -1
REMARK  0 active torsions:
REMARK  status: ('A' for Active; 'I' for Inactive)
ROOT
ATOM      1  C4' PXY d   1      -0.642  -0.915  -2.320  0.00  0.00     0.077 C 
ATOM      2  C1' PXY d   1      -0.419   1.225   3.045  0.00  0.00     0.077 C 
ATOM      3  C1  PXY d   1      -0.490   0.659   1.641  0.00  0.00    -0.082 A 
ATOM      4  C2  PXY d   1       0.627   0.342   1.006  0.00  0.00     0.003 A 
ATOM      5  C3  PXY d   1       0.583  -0.141  -0.277  0.00  0.00     0.003 A 
ATOM      6  C4  PXY d   1      -0.619  -0.350  -0.897  0.00  0.00    -0.082 A 
ATOM      7  C5  PXY d   1      -1.764  -0.039  -0.253  0.00  0.00     0.003 A 
ATOM      8  C6  PXY d   1      -1.696   0.489   1.034  0.00  0.00     0.003 A 
ENDROOT
TORSDOF 0
ENDMDL
