MODEL 1
REMARK minimizedAffinity -0.717585683
REMARK minimizedRMSD -1
REMARK  0 active torsions:
REMARK  status: ('A' for Active; 'I' for Inactive)
ROOT
ATOM      1  C4' PXY d   1       0.558  -1.180  -2.852  0.00  0.00     0.077 C 
ATOM      2  C1' PXY d   1       0.578   1.052   2.480  0.00  0.00     0.077 C 
ATOM      3  C1  PXY d   1       0.585   0.462   1.084  0.00  0.00    -0.082 A 
ATOM      4  C2  PXY d   1      -0.160   1.010   0.138  0.00  0.00     0.003 A 
ATOM      5  C3  PXY d   1      -0.191   0.470  -1.121  0.00  0.00     0.003 A 
ATOM      6  C4  PXY d   1       0.590  -0.612  -1.430  0.00  0.00    -0.082 A 
ATOM      7  C5  PXY d   1       1.361  -1.171  -0.474  0.00  0.00     0.003 A 
ATOM      8  C6  PXY d   1       1.346  -0.632   0.810  0.00  0.00     0.003 A 
ENDROOT
TORSDOF 0
ENDMDL
