MODEL 1
REMARK minimizedAffinity -2.01504898
REMARK minimizedRMSD -1
REMARK  0 active torsions:
REMARK  status: ('A' for Active; 'I' for Inactive)
ROOT
ATOM      1  C4' PXY d   1       0.717  -0.783  -2.559  0.00  0.00     0.077 C 
ATOM      2  C1' PXY d   1      -1.066   0.887   2.680  0.00  0.00     0.077 C 
ATOM      3  C1  PXY d   1      -0.587   0.454   1.308  0.00  0.00    -0.082 A 
ATOM      4  C2  PXY d   1      -1.469   0.233   0.347  0.00  0.00     0.003 A 
ATOM      5  C3  PXY d   1      -1.055  -0.190  -0.890  0.00  0.00     0.003 A 
ATOM      6  C4  PXY d   1       0.279  -0.336  -1.162  0.00  0.00    -0.082 A 
ATOM      7  C5  PXY d   1       1.186  -0.102  -0.190  0.00  0.00     0.003 A 
ATOM      8  C6  PXY d   1       0.742   0.286   1.071  0.00  0.00     0.003 A 
ENDROOT
TORSDOF 0
ENDMDL
