MODEL 1
REMARK minimizedAffinity -4.03559351
REMARK minimizedRMSD -1
REMARK  0 active torsions:
REMARK  status: ('A' for Active; 'I' for Inactive)
ROOT
ATOM      1  C4' PXY d   1      -0.860   2.059   2.670  0.00  0.00     0.077 C 
ATOM      2  C1' PXY d   1       1.578  -1.721  -0.961  0.00  0.00     0.077 C 
ATOM      3  C1  PXY d   1       0.931  -0.725  -0.018  0.00  0.00    -0.082 A 
ATOM      4  C2  PXY d   1       1.596  -0.303   1.045  0.00  0.00     0.003 A 
ATOM      5  C3  PXY d   1       1.014   0.572   1.925  0.00  0.00     0.003 A 
ATOM      6  C4  PXY d   1      -0.243   1.062   1.686  0.00  0.00    -0.082 A 
ATOM      7  C5  PXY d   1      -0.924   0.644   0.598  0.00  0.00     0.003 A 
ATOM      8  C6  PXY d   1      -0.330  -0.277  -0.261  0.00  0.00     0.003 A 
ENDROOT
TORSDOF 0
ENDMDL
