MODEL 1
REMARK minimizedAffinity -2.8295126
REMARK minimizedRMSD -1
REMARK  0 active torsions:
REMARK  status: ('A' for Active; 'I' for Inactive)
ROOT
ATOM      1  C4' PXY d   1      -3.048  -1.388  -0.501  0.00  0.00     0.077 C 
ATOM      2  C1' PXY d   1       1.103   1.981   1.696  0.00  0.00     0.077 C 
ATOM      3  C1  PXY d   1       0.010   1.096   1.132  0.00  0.00    -0.082 A 
ATOM      4  C2  PXY d   1       0.189   0.498  -0.035  0.00  0.00     0.003 A 
ATOM      5  C3  PXY d   1      -0.802  -0.280  -0.575  0.00  0.00     0.003 A 
ATOM      6  C4  PXY d   1      -1.968  -0.493   0.111  0.00  0.00    -0.082 A 
ATOM      7  C5  PXY d   1      -2.154   0.105   1.307  0.00  0.00     0.003 A 
ATOM      8  C6  PXY d   1      -1.152   0.925   1.819  0.00  0.00     0.003 A 
ENDROOT
TORSDOF 0
ENDMDL
