MODEL 1
REMARK minimizedAffinity -1.71576595
REMARK minimizedRMSD -1
REMARK  0 active torsions:
REMARK  status: ('A' for Active; 'I' for Inactive)
ROOT
ATOM      1  C4' PXY d   1       0.157   1.503   4.531  0.00  0.00     0.077 C 
ATOM      2  C1' PXY d   1      -1.257  -0.692  -0.627  0.00  0.00     0.077 C 
ATOM      3  C1  PXY d   1      -0.875  -0.124   0.726  0.00  0.00    -0.082 A 
ATOM      4  C2  PXY d   1      -1.810   0.402   1.501  0.00  0.00     0.003 A 
ATOM      5  C3  PXY d   1      -1.477   0.949   2.714  0.00  0.00     0.003 A 
ATOM      6  C4  PXY d   1      -0.184   0.909   3.161  0.00  0.00    -0.082 A 
ATOM      7  C5  PXY d   1       0.773   0.365   2.380  0.00  0.00     0.003 A 
ATOM      8  C6  PXY d   1       0.422  -0.148   1.135  0.00  0.00     0.003 A 
ENDROOT
TORSDOF 0
ENDMDL
