MODEL 1
REMARK minimizedAffinity -5.18977785
REMARK minimizedRMSD -1
REMARK  0 active torsions:
REMARK  status: ('A' for Active; 'I' for Inactive)
ROOT
ATOM      1  C4' PXY d   1       0.062  -0.639  -1.547  0.00  0.00     0.077 C 
ATOM      2  C1' PXY d   1       0.080   1.059   3.979  0.00  0.00     0.077 C 
ATOM      3  C1  PXY d   1       0.062   0.613   2.530  0.00  0.00    -0.082 A 
ATOM      4  C2  PXY d   1       1.126   0.016   2.016  0.00  0.00     0.003 A 
ATOM      5  C3  PXY d   1       1.138  -0.364   0.699  0.00  0.00     0.003 A 
ATOM      6  C4  PXY d   1       0.032  -0.181  -0.086  0.00  0.00    -0.082 A 
ATOM      7  C5  PXY d   1      -1.061   0.417   0.434  0.00  0.00     0.003 A 
ATOM      8  C6  PXY d   1      -1.039   0.834   1.762  0.00  0.00     0.003 A 
ENDROOT
TORSDOF 0
ENDMDL
