MODEL 1
REMARK minimizedAffinity -3.33536959
REMARK minimizedRMSD -1
REMARK  0 active torsions:
REMARK  status: ('A' for Active; 'I' for Inactive)
ROOT
ATOM      1  C4' PXY d   1      -1.500   0.331   3.014  0.00  0.00     0.077 C 
ATOM      2  C1' PXY d   1       0.650   0.101  -2.347  0.00  0.00     0.077 C 
ATOM      3  C1  PXY d   1       0.098   0.164  -0.937  0.00  0.00    -0.082 A 
ATOM      4  C2  PXY d   1      -0.992  -0.520  -0.629  0.00  0.00     0.003 A 
ATOM      5  C3  PXY d   1      -1.523  -0.448   0.633  0.00  0.00     0.003 A 
ATOM      6  C4  PXY d   1      -0.902   0.289   1.605  0.00  0.00    -0.082 A 
ATOM      7  C5  PXY d   1       0.217   0.982   1.302  0.00  0.00     0.003 A 
ATOM      8  C6  PXY d   1       0.716   0.929   0.004  0.00  0.00     0.003 A 
ENDROOT
TORSDOF 0
ENDMDL
