MODEL 1
REMARK minimizedAffinity -4.4678607
REMARK minimizedRMSD -1
REMARK  0 active torsions:
REMARK  status: ('A' for Active; 'I' for Inactive)
ROOT
ATOM      1  C4' PXY d   1      -2.653  -2.835  -5.488  0.00  0.00     0.077 C 
ATOM      2  C1' PXY d   1       1.147   1.048  -3.513  0.00  0.00     0.077 C 
ATOM      3  C1  PXY d   1       0.157   0.021  -4.024  0.00  0.00    -0.082 A 
ATOM      4  C2  PXY d   1      -0.494   0.245  -5.154  0.00  0.00     0.003 A 
ATOM      5  C3  PXY d   1      -1.417  -0.659  -5.614  0.00  0.00     0.003 A 
ATOM      6  C4  PXY d   1      -1.637  -1.829  -4.939  0.00  0.00    -0.082 A 
ATOM      7  C5  PXY d   1      -0.969  -2.071  -3.791  0.00  0.00     0.003 A 
ATOM      8  C6  PXY d   1      -0.067  -1.121  -3.319  0.00  0.00     0.003 A 
ENDROOT
TORSDOF 0
ENDMDL
