MODEL 1
REMARK minimizedAffinity -2.61754227
REMARK minimizedRMSD -1
REMARK  0 active torsions:
REMARK  status: ('A' for Active; 'I' for Inactive)
ROOT
ATOM      1  C4' PXY d   1       1.949  -1.122   3.770  0.00  0.00     0.077 C 
ATOM      2  C1' PXY d   1      -0.207  -6.000   6.000  0.00  0.00     0.077 C 
ATOM      3  C1  PXY d   1       0.364  -4.718   5.426  0.00  0.00    -0.082 A 
ATOM      4  C2  PXY d   1      -0.242  -4.129   4.408  0.00  0.00     0.003 A 
ATOM      5  C3  PXY d   1       0.278  -2.987   3.857  0.00  0.00     0.003 A 
ATOM      6  C4  PXY d   1       1.402  -2.412   4.387  0.00  0.00    -0.082 A 
ATOM      7  C5  PXY d   1       2.021  -3.001   5.433  0.00  0.00     0.003 A 
ATOM      8  C6  PXY d   1       1.499  -4.182   5.951  0.00  0.00     0.003 A 
ENDROOT
TORSDOF 0
ENDMDL
