MODEL 1
REMARK minimizedAffinity -0.165457249
REMARK minimizedRMSD -1
REMARK  0 active torsions:
REMARK  status: ('A' for Active; 'I' for Inactive)
ROOT
ATOM      1  C4' PXY d   1       1.240   5.691   5.990  0.00  0.00     0.077 C 
ATOM      2  C1' PXY d   1       5.947   2.336   5.953  0.00  0.00     0.077 C 
ATOM      3  C1  PXY d   1       4.706   3.206   5.957  0.00  0.00    -0.082 A 
ATOM      4  C2  PXY d   1       4.830   4.523   5.929  0.00  0.00     0.003 A 
ATOM      5  C3  PXY d   1       3.719   5.325   5.965  0.00  0.00     0.003 A 
ATOM      6  C4  PXY d   1       2.466   4.774   5.977  0.00  0.00    -0.082 A 
ATOM      7  C5  PXY d   1       2.330   3.431   5.995  0.00  0.00     0.003 A 
ATOM      8  C6  PXY d   1       3.472   2.634   6.000  0.00  0.00     0.003 A 
ENDROOT
TORSDOF 0
ENDMDL
