MODEL 1
REMARK minimizedAffinity -0.0481029116
REMARK minimizedRMSD -1
REMARK  0 active torsions:
REMARK  status: ('A' for Active; 'I' for Inactive)
ROOT
ATOM      1  C4' PXY d   1       2.229  -0.420   5.406  0.00  0.00     0.077 C 
ATOM      2  C1' PXY d   1       3.248   5.269   5.526  0.00  0.00     0.077 C 
ATOM      3  C1  PXY d   1       2.989   3.776   5.484  0.00  0.00    -0.082 A 
ATOM      4  C2  PXY d   1       1.871   3.291   6.000  0.00  0.00     0.003 A 
ATOM      5  C3  PXY d   1       1.635   1.940   5.999  0.00  0.00     0.003 A 
ATOM      6  C4  PXY d   1       2.529   1.081   5.417  0.00  0.00    -0.082 A 
ATOM      7  C5  PXY d   1       3.667   1.569   4.879  0.00  0.00     0.003 A 
ATOM      8  C6  PXY d   1       3.906   2.939   4.927  0.00  0.00     0.003 A 
ENDROOT
TORSDOF 0
ENDMDL
