MODEL 1
REMARK minimizedAffinity 1.54225552
REMARK minimizedRMSD -1
REMARK  0 active torsions:
REMARK  status: ('A' for Active; 'I' for Inactive)
ROOT
ATOM      1  C4' PXY d   1       3.031  -0.632   5.056  0.00  0.00     0.077 C 
ATOM      2  C1' PXY d   1       3.159   5.145   5.177  0.00  0.00     0.077 C 
ATOM      3  C1  PXY d   1       3.129   3.630   5.133  0.00  0.00    -0.082 A 
ATOM      4  C2  PXY d   1       2.382   2.965   6.000  0.00  0.00     0.003 A 
ATOM      5  C3  PXY d   1       2.368   1.594   5.994  0.00  0.00     0.003 A 
ATOM      6  C4  PXY d   1       3.084   0.898   5.058  0.00  0.00    -0.082 A 
ATOM      7  C5  PXY d   1       3.840   1.569   4.163  0.00  0.00     0.003 A 
ATOM      8  C6  PXY d   1       3.873   2.960   4.212  0.00  0.00     0.003 A 
ENDROOT
TORSDOF 0
ENDMDL
