MODEL 1
REMARK minimizedAffinity 4.65313482
REMARK minimizedRMSD -1
REMARK  0 active torsions:
REMARK  status: ('A' for Active; 'I' for Inactive)
ROOT
ATOM      1  C4' PXY d   1      -5.259   1.481   2.354  0.00  0.00     0.077 C 
ATOM      2  C1' PXY d   1      -2.523  -0.596  -2.295  0.00  0.00     0.077 C 
ATOM      3  C1  PXY d   1      -3.251  -0.051  -1.083  0.00  0.00    -0.082 A 
ATOM      4  C2  PXY d   1      -2.567   0.553  -0.125  0.00  0.00     0.003 A 
ATOM      5  C3  PXY d   1      -3.206   1.023   0.993  0.00  0.00     0.003 A 
ATOM      6  C4  PXY d   1      -4.566   0.923   1.107  0.00  0.00    -0.082 A 
ATOM      7  C5  PXY d   1      -5.273   0.318   0.129  0.00  0.00     0.003 A 
ATOM      8  C6  PXY d   1      -4.601  -0.190  -0.979  0.00  0.00     0.003 A 
ENDROOT
TORSDOF 0
ENDMDL
