MODEL 1
REMARK minimizedAffinity 3.62521124
REMARK minimizedRMSD -1
REMARK  0 active torsions:
REMARK  status: ('A' for Active; 'I' for Inactive)
ROOT
ATOM      1  C4' PXY d   1       5.250   5.439   3.935  0.00  0.00     0.077 C 
ATOM      2  C1' PXY d   1       3.407   0.364   5.999  0.00  0.00     0.077 C 
ATOM      3  C1  PXY d   1       3.879   1.700   5.462  0.00  0.00    -0.082 A 
ATOM      4  C2  PXY d   1       4.797   1.735   4.510  0.00  0.00     0.003 A 
ATOM      5  C3  PXY d   1       5.259   2.935   4.035  0.00  0.00     0.003 A 
ATOM      6  C4  PXY d   1       4.737   4.112   4.501  0.00  0.00    -0.082 A 
ATOM      7  C5  PXY d   1       3.792   4.085   5.465  0.00  0.00     0.003 A 
ATOM      8  C6  PXY d   1       3.366   2.857   5.963  0.00  0.00     0.003 A 
ENDROOT
TORSDOF 0
ENDMDL
