MODEL 1
REMARK minimizedAffinity 3.36897492
REMARK minimizedRMSD -1
REMARK  0 active torsions:
REMARK  status: ('A' for Active; 'I' for Inactive)
ROOT
ATOM      1  C4' PXY d   1       1.205  -4.541   0.254  0.00  0.00     0.077 C 
ATOM      2  C1' PXY d   1       0.586  -4.730   5.998  0.00  0.00     0.077 C 
ATOM      3  C1  PXY d   1       0.757  -4.670   4.493  0.00  0.00    -0.082 A 
ATOM      4  C2  PXY d   1      -0.188  -5.163   3.708  0.00  0.00     0.003 A 
ATOM      5  C3  PXY d   1      -0.035  -5.146   2.345  0.00  0.00     0.003 A 
ATOM      6  C4  PXY d   1       1.071  -4.571   1.779  0.00  0.00    -0.082 A 
ATOM      7  C5  PXY d   1       2.034  -4.057   2.573  0.00  0.00     0.003 A 
ATOM      8  C6  PXY d   1       1.879  -4.121   3.955  0.00  0.00     0.003 A 
ENDROOT
TORSDOF 0
ENDMDL
