MODEL 1
REMARK minimizedAffinity -3.26509547
REMARK minimizedRMSD -1
REMARK  1 active torsions:
REMARK  status: ('A' for Active; 'I' for Inactive)
REMARK    1  A    between atoms: C3_4  and  O_7 
ROOT
ATOM      1  C   UNL d   1       1.699  -0.489   0.027  0.00  0.00    -0.033 A 
ATOM      2  C1  UNL d   1       0.355  -0.330  -0.318  0.00  0.00     0.039 A 
ATOM      3  C2  UNL d   1      -0.547   0.200   0.606  0.00  0.00    -0.080 A 
ATOM      4  C3  UNL d   1      -0.093   0.568   1.870  0.00  0.00     0.150 A 
ATOM      5  C4  UNL d   1       1.244   0.416   2.219  0.00  0.00    -0.007 A 
ATOM      6  C5  UNL d   1       2.143  -0.115   1.295  0.00  0.00     0.039 A 
ENDROOT
BRANCH   4   7
ATOM      7  O   UNL d   1      -0.937   1.085   2.807  0.00  0.00    -0.526 OA
ATOM      8  H5  UNL d   1      -1.835   1.106   2.435  0.00  0.00     0.418 HD
ENDBRANCH   4   7
TORSDOF 1
ENDMDL
