MODEL 1
REMARK minimizedAffinity 1.6186229
REMARK minimizedRMSD -1
REMARK  1 active torsions:
REMARK  status: ('A' for Active; 'I' for Inactive)
REMARK    1  A    between atoms: C3_4  and  O_7 
ROOT
ATOM      1  C   UNL d   1      -0.637  -0.884  -1.126  0.00  0.00    -0.033 A 
ATOM      2  C1  UNL d   1       0.147  -0.561  -0.016  0.00  0.00     0.039 A 
ATOM      3  C2  UNL d   1      -0.444  -0.009   1.122  0.00  0.00    -0.080 A 
ATOM      4  C3  UNL d   1      -1.818   0.214   1.138  0.00  0.00     0.150 A 
ATOM      5  C4  UNL d   1      -2.606  -0.108   0.038  0.00  0.00    -0.007 A 
ATOM      6  C5  UNL d   1      -2.013  -0.659  -1.098  0.00  0.00     0.039 A 
ENDROOT
BRANCH   4   7
ATOM      7  O   UNL d   1      -2.439   0.755   2.224  0.00  0.00    -0.526 OA
ATOM      8  H5  UNL d   1      -1.766   0.954   2.896  0.00  0.00     0.418 HD
ENDBRANCH   4   7
TORSDOF 1
ENDMDL
