MODEL 1
REMARK minimizedAffinity 1.14608562
REMARK minimizedRMSD -1
REMARK  1 active torsions:
REMARK  status: ('A' for Active; 'I' for Inactive)
REMARK    1  A    between atoms: C3_4  and  O_7 
ROOT
ATOM      1  C   UNL d   1      -0.580  -0.653   3.132  0.00  0.00    -0.033 A 
ATOM      2  C1  UNL d   1       0.528  -0.760   2.289  0.00  0.00     0.039 A 
ATOM      3  C2  UNL d   1       0.408  -0.450   0.933  0.00  0.00    -0.080 A 
ATOM      4  C3  UNL d   1      -0.823  -0.033   0.434  0.00  0.00     0.150 A 
ATOM      5  C4  UNL d   1      -1.930   0.079   1.269  0.00  0.00    -0.007 A 
ATOM      6  C5  UNL d   1      -1.808  -0.232   2.622  0.00  0.00     0.039 A 
ENDROOT
BRANCH   4   7
ATOM      7  O   UNL d   1      -0.990   0.276  -0.884  0.00  0.00    -0.526 OA
ATOM      8  H5  UNL d   1      -0.148   0.125  -1.344  0.00  0.00     0.418 HD
ENDBRANCH   4   7
TORSDOF 1
ENDMDL
