MODEL 1
REMARK minimizedAffinity -0.854439795
REMARK minimizedRMSD -1
REMARK  1 active torsions:
REMARK  status: ('A' for Active; 'I' for Inactive)
REMARK    1  A    between atoms: C3_4  and  O_7 
ROOT
ATOM      1  C   UNL d   1      -1.841  -0.383   3.128  0.00  0.00    -0.033 A 
ATOM      2  C1  UNL d   1      -0.658  -0.891   3.668  0.00  0.00     0.039 A 
ATOM      3  C2  UNL d   1       0.514  -0.891   2.910  0.00  0.00    -0.080 A 
ATOM      4  C3  UNL d   1       0.490  -0.380   1.615  0.00  0.00     0.150 A 
ATOM      5  C4  UNL d   1      -0.684   0.131   1.072  0.00  0.00    -0.007 A 
ATOM      6  C5  UNL d   1      -1.853   0.130   1.830  0.00  0.00     0.039 A 
ENDROOT
BRANCH   4   7
ATOM      7  O   UNL d   1       1.608  -0.364   0.835  0.00  0.00    -0.526 OA
ATOM      8  H5  UNL d   1       2.336  -0.775   1.331  0.00  0.00     0.418 HD
ENDBRANCH   4   7
TORSDOF 1
ENDMDL
