MODEL 1
REMARK minimizedAffinity -2.94770718
REMARK minimizedRMSD -1
REMARK  1 active torsions:
REMARK  status: ('A' for Active; 'I' for Inactive)
REMARK    1  A    between atoms: C3_4  and  O_7 
ROOT
ATOM      1  C   UNL d   1       0.224  -1.674  -0.216  0.00  0.00    -0.033 A 
ATOM      2  C1  UNL d   1      -1.139  -1.463  -0.434  0.00  0.00     0.039 A 
ATOM      3  C2  UNL d   1      -1.903  -0.782   0.516  0.00  0.00    -0.080 A 
ATOM      4  C3  UNL d   1      -1.292  -0.316   1.678  0.00  0.00     0.150 A 
ATOM      5  C4  UNL d   1       0.066  -0.520   1.899  0.00  0.00    -0.007 A 
ATOM      6  C5  UNL d   1       0.827  -1.201   0.950  0.00  0.00     0.039 A 
ENDROOT
BRANCH   4   7
ATOM      7  O   UNL d   1      -1.997   0.349   2.636  0.00  0.00    -0.526 OA
ATOM      8  H5  UNL d   1      -2.928   0.390   2.360  0.00  0.00     0.418 HD
ENDBRANCH   4   7
TORSDOF 1
ENDMDL
