MODEL 1
REMARK minimizedAffinity -2.35882807
REMARK minimizedRMSD -1
REMARK  1 active torsions:
REMARK  status: ('A' for Active; 'I' for Inactive)
REMARK    1  A    between atoms: C3_4  and  O_7 
ROOT
ATOM      1  C   UNL d   1      -1.936   0.379   0.830  0.00  0.00    -0.033 A 
ATOM      2  C1  UNL d   1      -2.481   0.303   2.113  0.00  0.00     0.039 A 
ATOM      3  C2  UNL d   1      -1.742  -0.260   3.155  0.00  0.00    -0.080 A 
ATOM      4  C3  UNL d   1      -0.461  -0.742   2.901  0.00  0.00     0.150 A 
ATOM      5  C4  UNL d   1       0.090  -0.667   1.626  0.00  0.00    -0.007 A 
ATOM      6  C5  UNL d   1      -0.650  -0.105   0.587  0.00  0.00     0.039 A 
ENDROOT
BRANCH   4   7
ATOM      7  O   UNL d   1       0.297  -1.305   3.885  0.00  0.00    -0.526 OA
ATOM      8  H5  UNL d   1      -0.223  -1.316   4.706  0.00  0.00     0.418 HD
ENDBRANCH   4   7
TORSDOF 1
ENDMDL
