MODEL 1
REMARK minimizedAffinity -0.302063465
REMARK minimizedRMSD -1
REMARK  1 active torsions:
REMARK  status: ('A' for Active; 'I' for Inactive)
REMARK    1  A    between atoms: C3_4  and  O_7 
ROOT
ATOM      1  C   UNL d   1       4.170   1.367  -0.261  0.00  0.00    -0.033 A 
ATOM      2  C1  UNL d   1       3.063   0.545  -0.480  0.00  0.00     0.039 A 
ATOM      3  C2  UNL d   1       2.441   0.529  -1.730  0.00  0.00    -0.080 A 
ATOM      4  C3  UNL d   1       2.935   1.337  -2.750  0.00  0.00     0.150 A 
ATOM      5  C4  UNL d   1       4.039   2.155  -2.539  0.00  0.00    -0.007 A 
ATOM      6  C5  UNL d   1       4.659   2.171  -1.291  0.00  0.00     0.039 A 
ENDROOT
BRANCH   4   7
ATOM      7  O   UNL d   1       2.358   1.358  -3.985  0.00  0.00    -0.526 OA
ATOM      8  H5  UNL d   1       1.588   0.765  -3.975  0.00  0.00     0.418 HD
ENDBRANCH   4   7
TORSDOF 1
ENDMDL
