MODEL 1
REMARK minimizedAffinity -2.06197214
REMARK minimizedRMSD -1
REMARK  1 active torsions:
REMARK  status: ('A' for Active; 'I' for Inactive)
REMARK    1  A    between atoms: C3_4  and  O_7 
ROOT
ATOM      1  C   UNL d   1      -1.371  -0.269   0.199  0.00  0.00    -0.033 A 
ATOM      2  C1  UNL d   1      -2.361   0.081   1.119  0.00  0.00     0.039 A 
ATOM      3  C2  UNL d   1      -2.067   0.118   2.484  0.00  0.00    -0.080 A 
ATOM      4  C3  UNL d   1      -0.781  -0.195   2.914  0.00  0.00     0.150 A 
ATOM      5  C4  UNL d   1       0.212  -0.541   2.002  0.00  0.00    -0.007 A 
ATOM      6  C5  UNL d   1      -0.085  -0.579   0.640  0.00  0.00     0.039 A 
ENDROOT
BRANCH   4   7
ATOM      7  O   UNL d   1      -0.447  -0.177   4.236  0.00  0.00    -0.526 OA
ATOM      8  H5  UNL d   1      -1.239   0.051   4.750  0.00  0.00     0.418 HD
ENDBRANCH   4   7
TORSDOF 1
ENDMDL
