MODEL 1
REMARK minimizedAffinity -2.30648041
REMARK minimizedRMSD -1
REMARK  1 active torsions:
REMARK  status: ('A' for Active; 'I' for Inactive)
REMARK    1  A    between atoms: C3_4  and  O_7 
ROOT
ATOM      1  C   UNL d   1      -1.018   0.137   0.667  0.00  0.00    -0.033 A 
ATOM      2  C1  UNL d   1      -1.954   0.129   1.702  0.00  0.00     0.039 A 
ATOM      3  C2  UNL d   1      -1.582  -0.295   2.979  0.00  0.00    -0.080 A 
ATOM      4  C3  UNL d   1      -0.271  -0.706   3.208  0.00  0.00     0.150 A 
ATOM      5  C4  UNL d   1       0.668  -0.697   2.182  0.00  0.00    -0.007 A 
ATOM      6  C5  UNL d   1       0.294  -0.275   0.907  0.00  0.00     0.039 A 
ENDROOT
BRANCH   4   7
ATOM      7  O   UNL d   1       0.138  -1.133   4.436  0.00  0.00    -0.526 OA
ATOM      8  H5  UNL d   1      -0.625  -1.112   5.039  0.00  0.00     0.418 HD
ENDBRANCH   4   7
TORSDOF 1
ENDMDL
