MODEL 1
REMARK minimizedAffinity 7.89612961
REMARK minimizedRMSD -1
REMARK  0 active torsions:
REMARK  status: ('A' for Active; 'I' for Inactive)
ROOT
ATOM      1  O1  BZF d   1      -5.047   1.914   4.106  0.00  0.00    -0.204 OA
ATOM      2  C2  BZF d   1      -5.016   1.968   2.726  0.00  0.00     0.174 A 
ATOM      3  C3  BZF d   1      -3.748   1.892   2.272  0.00  0.00    -0.012 A 
ATOM      4  C3A BZF d   1      -2.943   1.691   3.438  0.00  0.00    -0.107 A 
ATOM      5  C4  BZF d   1      -1.602   1.525   3.635  0.00  0.00     0.055 A 
ATOM      6  C5  BZF d   1      -1.129   1.426   4.905  0.00  0.00    -0.016 A 
ATOM      7  C6  BZF d   1      -1.966   1.494   5.999  0.00  0.00     0.022 A 
ATOM      8  C7  BZF d   1      -3.304   1.653   5.853  0.00  0.00     0.029 A 
ATOM      9  C7A BZF d   1      -3.789   1.721   4.570  0.00  0.00     0.058 A 
ENDROOT
TORSDOF 0
ENDMDL
