MODEL 1
REMARK minimizedAffinity 1.332901
REMARK minimizedRMSD -1
REMARK  0 active torsions:
REMARK  status: ('A' for Active; 'I' for Inactive)
ROOT
ATOM      1  O1  BZF d   1      -3.793  -2.235  -5.226  0.00  0.00    -0.204 OA
ATOM      2  C2  BZF d   1      -4.990  -1.548  -5.293  0.00  0.00     0.174 A 
ATOM      3  C3  BZF d   1      -6.000  -2.378  -5.625  0.00  0.00    -0.012 A 
ATOM      4  C3A BZF d   1      -5.412  -3.681  -5.684  0.00  0.00    -0.107 A 
ATOM      5  C4  BZF d   1      -5.910  -4.925  -5.950  0.00  0.00     0.055 A 
ATOM      6  C5  BZF d   1      -5.057  -5.981  -6.000  0.00  0.00    -0.016 A 
ATOM      7  C6  BZF d   1      -3.701  -5.830  -5.794  0.00  0.00     0.022 A 
ATOM      8  C7  BZF d   1      -3.161  -4.617  -5.522  0.00  0.00     0.029 A 
ATOM      9  C7A BZF d   1      -4.026  -3.552  -5.438  0.00  0.00     0.058 A 
ENDROOT
TORSDOF 0
ENDMDL
