MODEL 1
REMARK minimizedAffinity -0.558589339
REMARK minimizedRMSD -1
REMARK  0 active torsions:
REMARK  status: ('A' for Active; 'I' for Inactive)
ROOT
ATOM      1  O1  BZF d   1       0.788   0.947   0.492  0.00  0.00    -0.204 OA
ATOM      2  C2  BZF d   1       0.015  -0.014   1.114  0.00  0.00     0.174 A 
ATOM      3  C3  BZF d   1      -0.483  -0.885   0.213  0.00  0.00    -0.012 A 
ATOM      4  C3A BZF d   1       0.086  -0.495  -1.041  0.00  0.00    -0.107 A 
ATOM      5  C4  BZF d   1      -0.016  -0.986  -2.311  0.00  0.00     0.055 A 
ATOM      6  C5  BZF d   1       0.609  -0.331  -3.324  0.00  0.00    -0.016 A 
ATOM      7  C6  BZF d   1       1.339   0.819  -3.105  0.00  0.00     0.022 A 
ATOM      8  C7  BZF d   1       1.473   1.341  -1.861  0.00  0.00     0.029 A 
ATOM      9  C7A BZF d   1       0.870   0.663  -0.830  0.00  0.00     0.058 A 
ENDROOT
TORSDOF 0
ENDMDL
