MODEL 1
REMARK minimizedAffinity 3.14030886
REMARK minimizedRMSD -1
REMARK  0 active torsions:
REMARK  status: ('A' for Active; 'I' for Inactive)
ROOT
ATOM      1  O1  BZF d   1       1.638  -1.349  -0.132  0.00  0.00    -0.204 OA
ATOM      2  C2  BZF d   1       1.397  -2.491  -0.870  0.00  0.00     0.174 A 
ATOM      3  C3  BZF d   1       1.049  -2.179  -2.135  0.00  0.00    -0.012 A 
ATOM      4  C3A BZF d   1       1.163  -0.755  -2.216  0.00  0.00    -0.107 A 
ATOM      5  C4  BZF d   1       0.965   0.148  -3.221  0.00  0.00     0.055 A 
ATOM      6  C5  BZF d   1       1.090   1.474  -2.953  0.00  0.00    -0.016 A 
ATOM      7  C6  BZF d   1       1.407   1.933  -1.691  0.00  0.00     0.022 A 
ATOM      8  C7  BZF d   1       1.618   1.075  -0.663  0.00  0.00     0.029 A 
ATOM      9  C7A BZF d   1       1.524  -0.267  -0.939  0.00  0.00     0.058 A 
ENDROOT
TORSDOF 0
ENDMDL
