MODEL 1
REMARK minimizedAffinity 4.85878992
REMARK minimizedRMSD -1
REMARK  0 active torsions:
REMARK  status: ('A' for Active; 'I' for Inactive)
ROOT
ATOM      1  O1  BZF d   1      -4.906  -0.149  -6.000  0.00  0.00    -0.204 OA
ATOM      2  C2  BZF d   1      -4.385  -1.405  -5.755  0.00  0.00     0.174 A 
ATOM      3  C3  BZF d   1      -3.411  -1.345  -4.824  0.00  0.00    -0.012 A 
ATOM      4  C3A BZF d   1      -3.381   0.020  -4.397  0.00  0.00    -0.107 A 
ATOM      5  C4  BZF d   1      -2.636   0.701  -3.478  0.00  0.00     0.055 A 
ATOM      6  C5  BZF d   1      -2.804   2.043  -3.354  0.00  0.00    -0.016 A 
ATOM      7  C6  BZF d   1      -3.703   2.738  -4.136  0.00  0.00     0.022 A 
ATOM      8  C7  BZF d   1      -4.469   2.105  -5.058  0.00  0.00     0.029 A 
ATOM      9  C7A BZF d   1      -4.325   0.743  -5.163  0.00  0.00     0.058 A 
ENDROOT
TORSDOF 0
ENDMDL
