MODEL 1
REMARK minimizedAffinity 13.0857716
REMARK minimizedRMSD -1
REMARK  0 active torsions:
REMARK  status: ('A' for Active; 'I' for Inactive)
ROOT
ATOM      1  O1  BZF d   1       2.484  -4.163  -0.598  0.00  0.00    -0.204 OA
ATOM      2  C2  BZF d   1       2.469  -4.987  -1.706  0.00  0.00     0.174 A 
ATOM      3  C3  BZF d   1       1.767  -4.425  -2.712  0.00  0.00    -0.012 A 
ATOM      4  C3A BZF d   1       1.394  -3.130  -2.232  0.00  0.00    -0.107 A 
ATOM      5  C4  BZF d   1       0.698  -2.090  -2.779  0.00  0.00     0.055 A 
ATOM      6  C5  BZF d   1       0.444  -0.992  -2.019  0.00  0.00    -0.016 A 
ATOM      7  C6  BZF d   1       0.866  -0.903  -0.709  0.00  0.00     0.022 A 
ATOM      8  C7  BZF d   1       1.564  -1.906  -0.124  0.00  0.00     0.029 A 
ATOM      9  C7A BZF d   1       1.851  -3.003  -0.900  0.00  0.00     0.058 A 
ENDROOT
TORSDOF 0
ENDMDL
