MODEL 1
REMARK minimizedAffinity 1.6710614
REMARK minimizedRMSD -1
REMARK  0 active torsions:
REMARK  status: ('A' for Active; 'I' for Inactive)
ROOT
ATOM      1  O1  BZF d   1       1.881  -2.181   0.157  0.00  0.00    -0.204 OA
ATOM      2  C2  BZF d   1       1.345  -3.267  -0.507  0.00  0.00     0.174 A 
ATOM      3  C3  BZF d   1       0.648  -2.869  -1.591  0.00  0.00    -0.012 A 
ATOM      4  C3A BZF d   1       0.833  -1.452  -1.657  0.00  0.00    -0.107 A 
ATOM      5  C4  BZF d   1       0.401  -0.488  -2.523  0.00  0.00     0.055 A 
ATOM      6  C5  BZF d   1       0.697   0.813  -2.264  0.00  0.00    -0.016 A 
ATOM      7  C6  BZF d   1       1.417   1.185  -1.148  0.00  0.00     0.022 A 
ATOM      8  C7  BZF d   1       1.872   0.265  -0.264  0.00  0.00     0.029 A 
ATOM      9  C7A BZF d   1       1.603  -1.054  -0.540  0.00  0.00     0.058 A 
ENDROOT
TORSDOF 0
ENDMDL
