MODEL 1
REMARK minimizedAffinity -0.302170455
REMARK minimizedRMSD -1
REMARK  0 active torsions:
REMARK  status: ('A' for Active; 'I' for Inactive)
ROOT
ATOM      1  O1  BZF d   1       0.214   0.063   1.693  0.00  0.00    -0.204 OA
ATOM      2  C2  BZF d   1      -0.135  -1.076   0.993  0.00  0.00     0.174 A 
ATOM      3  C3  BZF d   1       0.293  -1.003  -0.284  0.00  0.00    -0.012 A 
ATOM      4  C3A BZF d   1       1.031   0.220  -0.364  0.00  0.00    -0.107 A 
ATOM      5  C4  BZF d   1       1.715   0.840  -1.371  0.00  0.00     0.055 A 
ATOM      6  C5  BZF d   1       2.264   2.061  -1.142  0.00  0.00    -0.016 A 
ATOM      7  C6  BZF d   1       2.145   2.694   0.078  0.00  0.00     0.022 A 
ATOM      8  C7  BZF d   1       1.480   2.117   1.108  0.00  0.00     0.029 A 
ATOM      9  C7A BZF d   1       0.952   0.868   0.890  0.00  0.00     0.058 A 
ENDROOT
TORSDOF 0
ENDMDL
