MODEL 1
REMARK minimizedAffinity 4.20149851
REMARK minimizedRMSD -1
REMARK  0 active torsions:
REMARK  status: ('A' for Active; 'I' for Inactive)
ROOT
ATOM      1  O1  BZF d   1      -5.227  -0.924  -3.889  0.00  0.00    -0.204 OA
ATOM      2  C2  BZF d   1      -5.999  -0.486  -4.948  0.00  0.00     0.174 A 
ATOM      3  C3  BZF d   1      -5.980  -1.381  -5.956  0.00  0.00    -0.012 A 
ATOM      4  C3A BZF d   1      -5.219  -2.488  -5.464  0.00  0.00    -0.107 A 
ATOM      5  C4  BZF d   1      -4.862  -3.693  -5.997  0.00  0.00     0.055 A 
ATOM      6  C5  BZF d   1      -4.052  -4.517  -5.282  0.00  0.00    -0.016 A 
ATOM      7  C6  BZF d   1      -3.578  -4.167  -4.035  0.00  0.00     0.022 A 
ATOM      8  C7  BZF d   1      -3.909  -2.984  -3.462  0.00  0.00     0.029 A 
ATOM      9  C7A BZF d   1      -4.754  -2.163  -4.168  0.00  0.00     0.058 A 
ENDROOT
TORSDOF 0
ENDMDL
