MODEL 1
REMARK minimizedAffinity 12.2440701
REMARK minimizedRMSD -1
REMARK  0 active torsions:
REMARK  status: ('A' for Active; 'I' for Inactive)
ROOT
ATOM      1  O1  BZF d   1       3.993  -0.855  -0.592  0.00  0.00    -0.204 OA
ATOM      2  C2  BZF d   1       3.751   0.470  -0.286  0.00  0.00     0.174 A 
ATOM      3  C3  BZF d   1       2.430   0.736  -0.323  0.00  0.00    -0.012 A 
ATOM      4  C3A BZF d   1       1.799  -0.521  -0.584  0.00  0.00    -0.107 A 
ATOM      5  C4  BZF d   1       0.497  -0.908  -0.721  0.00  0.00     0.055 A 
ATOM      6  C5  BZF d   1       0.222  -2.199  -1.046  0.00  0.00    -0.016 A 
ATOM      7  C6  BZF d   1       1.223  -3.126  -1.247  0.00  0.00     0.022 A 
ATOM      8  C7  BZF d   1       2.530  -2.790  -1.119  0.00  0.00     0.029 A 
ATOM      9  C7A BZF d   1       2.810  -1.495  -0.757  0.00  0.00     0.058 A 
ENDROOT
TORSDOF 0
ENDMDL
