MODEL 1
REMARK minimizedAffinity -1.92448914
REMARK minimizedRMSD -1
REMARK  0 active torsions:
REMARK  status: ('A' for Active; 'I' for Inactive)
ROOT
ATOM      1  O1  BZF d   1       0.206   1.111   0.363  0.00  0.00    -0.204 OA
ATOM      2  C2  BZF d   1       1.490   1.590   0.188  0.00  0.00     0.174 A 
ATOM      3  C3  BZF d   1       2.051   1.063  -0.919  0.00  0.00    -0.012 A 
ATOM      4  C3A BZF d   1       1.022   0.271  -1.521  0.00  0.00    -0.107 A 
ATOM      5  C4  BZF d   1       0.964  -0.489  -2.654  0.00  0.00     0.055 A 
ATOM      6  C5  BZF d   1      -0.166  -1.195  -2.919  0.00  0.00    -0.016 A 
ATOM      7  C6  BZF d   1      -1.255  -1.167  -2.072  0.00  0.00     0.022 A 
ATOM      8  C7  BZF d   1      -1.247  -0.423  -0.939  0.00  0.00     0.029 A 
ATOM      9  C7A BZF d   1      -0.118   0.316  -0.685  0.00  0.00     0.058 A 
ENDROOT
TORSDOF 0
ENDMDL
