MODEL 1
REMARK minimizedAffinity 9.7358427
REMARK minimizedRMSD -1
REMARK  0 active torsions:
REMARK  status: ('A' for Active; 'I' for Inactive)
ROOT
ATOM      1  O1  BZF d   1       2.029  -0.303  -0.024  0.00  0.00    -0.204 OA
ATOM      2  C2  BZF d   1       2.106   1.075  -0.082  0.00  0.00     0.174 A 
ATOM      3  C3  BZF d   1       1.483   1.543  -1.182  0.00  0.00    -0.012 A 
ATOM      4  C3A BZF d   1       0.905   0.392  -1.806  0.00  0.00    -0.107 A 
ATOM      5  C4  BZF d   1       0.147   0.213  -2.928  0.00  0.00     0.055 A 
ATOM      6  C5  BZF d   1      -0.194  -1.049  -3.300  0.00  0.00    -0.016 A 
ATOM      7  C6  BZF d   1       0.209  -2.153  -2.577  0.00  0.00     0.022 A 
ATOM      8  C7  BZF d   1       0.958  -2.025  -1.455  0.00  0.00     0.029 A 
ATOM      9  C7A BZF d   1       1.276  -0.749  -1.058  0.00  0.00     0.058 A 
ENDROOT
TORSDOF 0
ENDMDL
