MODEL 1
REMARK minimizedAffinity 5.40520525
REMARK minimizedRMSD -1
REMARK  0 active torsions:
REMARK  status: ('A' for Active; 'I' for Inactive)
ROOT
ATOM      1  O1  BZF d   1       4.367  -1.543  -0.673  0.00  0.00    -0.204 OA
ATOM      2  C2  BZF d   1       4.156  -0.224  -0.322  0.00  0.00     0.174 A 
ATOM      3  C3  BZF d   1       2.851   0.097  -0.428  0.00  0.00    -0.012 A 
ATOM      4  C3A BZF d   1       2.191  -1.122  -0.784  0.00  0.00    -0.107 A 
ATOM      5  C4  BZF d   1       0.887  -1.451  -1.016  0.00  0.00     0.055 A 
ATOM      6  C5  BZF d   1       0.585  -2.714  -1.416  0.00  0.00    -0.016 A 
ATOM      7  C6  BZF d   1       1.561  -3.671  -1.597  0.00  0.00     0.022 A 
ATOM      8  C7  BZF d   1       2.869  -3.394  -1.374  0.00  0.00     0.029 A 
ATOM      9  C7A BZF d   1       3.174  -2.127  -0.939  0.00  0.00     0.058 A 
ENDROOT
TORSDOF 0
ENDMDL
