MODEL 1
REMARK minimizedAffinity 11.0013313
REMARK minimizedRMSD -1
REMARK  0 active torsions:
REMARK  status: ('A' for Active; 'I' for Inactive)
ROOT
ATOM      1  O1  BZF d   1       2.464  -2.809  -0.537  0.00  0.00    -0.204 OA
ATOM      2  C2  BZF d   1       1.660  -3.776  -1.108  0.00  0.00     0.174 A 
ATOM      3  C3  BZF d   1       0.595  -3.214  -1.716  0.00  0.00    -0.012 A 
ATOM      4  C3A BZF d   1       0.793  -1.803  -1.593  0.00  0.00    -0.107 A 
ATOM      5  C4  BZF d   1       0.081  -0.715  -2.011  0.00  0.00     0.055 A 
ATOM      6  C5  BZF d   1       0.509   0.528  -1.664  0.00  0.00    -0.016 A 
ATOM      7  C6  BZF d   1       1.639   0.718  -0.897  0.00  0.00     0.022 A 
ATOM      8  C7  BZF d   1       2.380  -0.330  -0.462  0.00  0.00     0.029 A 
ATOM      9  C7A BZF d   1       1.969  -1.585  -0.839  0.00  0.00     0.058 A 
ENDROOT
TORSDOF 0
ENDMDL
