MODEL 1
REMARK minimizedAffinity 6.31634235
REMARK minimizedRMSD -1
REMARK  0 active torsions:
REMARK  status: ('A' for Active; 'I' for Inactive)
ROOT
ATOM      1  O1  BZF d   1       1.299   2.393   1.027  0.00  0.00    -0.204 OA
ATOM      2  C2  BZF d   1       1.382   1.538  -0.055  0.00  0.00     0.174 A 
ATOM      3  C3  BZF d   1       1.379   2.229  -1.213  0.00  0.00    -0.012 A 
ATOM      4  C3A BZF d   1       1.381   3.607  -0.828  0.00  0.00    -0.107 A 
ATOM      5  C4  BZF d   1       1.394   4.778  -1.531  0.00  0.00     0.055 A 
ATOM      6  C5  BZF d   1       1.317   5.955  -0.855  0.00  0.00    -0.016 A 
ATOM      7  C6  BZF d   1       1.221   5.997   0.520  0.00  0.00     0.022 A 
ATOM      8  C7  BZF d   1       1.210   4.862   1.261  0.00  0.00     0.029 A 
ATOM      9  C7A BZF d   1       1.320   3.672   0.583  0.00  0.00     0.058 A 
ENDROOT
TORSDOF 0
ENDMDL
