MODEL 1
REMARK minimizedAffinity 9.15516663
REMARK minimizedRMSD -1
REMARK  0 active torsions:
REMARK  status: ('A' for Active; 'I' for Inactive)
ROOT
ATOM      1  O1  BZF d   1       2.583  -3.493  -1.180  0.00  0.00    -0.204 OA
ATOM      2  C2  BZF d   1       2.367  -4.394  -2.205  0.00  0.00     0.174 A 
ATOM      3  C3  BZF d   1       1.427  -3.934  -3.056  0.00  0.00    -0.012 A 
ATOM      4  C3A BZF d   1       1.097  -2.625  -2.580  0.00  0.00    -0.107 A 
ATOM      5  C4  BZF d   1       0.237  -1.657  -3.015  0.00  0.00     0.055 A 
ATOM      6  C5  BZF d   1       0.098  -0.521  -2.283  0.00  0.00    -0.016 A 
ATOM      7  C6  BZF d   1       0.797  -0.321  -1.111  0.00  0.00     0.022 A 
ATOM      8  C7  BZF d   1       1.665  -1.250  -0.643  0.00  0.00     0.029 A 
ATOM      9  C7A BZF d   1       1.833  -2.386  -1.397  0.00  0.00     0.058 A 
ENDROOT
TORSDOF 0
ENDMDL
