MODEL 1
REMARK minimizedAffinity 8.48798275
REMARK minimizedRMSD -1
REMARK  3 active torsions:
REMARK  status: ('A' for Active; 'I' for Inactive)
REMARK    1  A    between atoms: C3'_2  and  C2'_3 
REMARK    2  A    between atoms: C2'_3  and  C1'_4 
REMARK    3  A    between atoms: C1'_4  and  C1_5 
ROOT
ATOM      1  C1  N4B d   1      -3.530   2.558   1.461  0.00  0.00    -0.075 A 
ATOM      2  C2  N4B d   1      -3.950   3.258   0.309  0.00  0.00     0.002 A 
ATOM      3  C3  N4B d   1      -5.172   3.884   0.294  0.00  0.00     0.002 A 
ATOM      4  C4  N4B d   1      -5.996   3.807   1.407  0.00  0.00    -0.004 A 
ATOM      5  C5  N4B d   1      -5.572   3.150   2.525  0.00  0.00     0.002 A 
ATOM      6  C6  N4B d   1      -4.344   2.520   2.556  0.00  0.00     0.002 A 
ENDROOT
BRANCH   1   7
ATOM      7  C1' N4B d   1      -2.239   1.786   1.494  0.00  0.00     0.057 C 
BRANCH   7   8
ATOM      8  C2' N4B d   1      -2.213   0.802   0.328  0.00  0.00     0.009 C 
BRANCH   8   9
ATOM      9  C3' N4B d   1      -1.573  -0.520   0.714  0.00  0.00     0.004 C 
ATOM     10  C4' N4B d   1      -1.610  -1.529  -0.395  0.00  0.00     0.003 C 
ENDBRANCH   8   9
ENDBRANCH   7   8
ENDBRANCH   1   7
TORSDOF 3
ENDMDL
