MODEL 1
REMARK minimizedAffinity 8.57974911
REMARK minimizedRMSD -1
REMARK  3 active torsions:
REMARK  status: ('A' for Active; 'I' for Inactive)
REMARK    1  A    between atoms: C3'_2  and  C2'_3 
REMARK    2  A    between atoms: C2'_3  and  C1'_4 
REMARK    3  A    between atoms: C1'_4  and  C1_5 
ROOT
ATOM      1  C1  N4B d   1       1.353  -0.850   1.182  0.00  0.00    -0.075 A 
ATOM      2  C2  N4B d   1       1.551  -1.615   0.011  0.00  0.00     0.002 A 
ATOM      3  C3  N4B d   1       0.478  -1.961  -0.773  0.00  0.00     0.002 A 
ATOM      4  C4  N4B d   1      -0.799  -1.572  -0.398  0.00  0.00    -0.004 A 
ATOM      5  C5  N4B d   1      -0.980  -0.813   0.721  0.00  0.00     0.002 A 
ATOM      6  C6  N4B d   1       0.090  -0.454   1.516  0.00  0.00     0.002 A 
ENDROOT
BRANCH   1   7
ATOM      7  C1' N4B d   1       2.484  -0.520   2.117  0.00  0.00     0.057 C 
BRANCH   7   8
ATOM      8  C2' N4B d   1       2.881  -1.777   2.886  0.00  0.00     0.009 C 
BRANCH   8   9
ATOM      9  C3' N4B d   1       2.180  -1.864   4.231  0.00  0.00     0.004 C 
ATOM     10  C4' N4B d   1       1.607  -3.223   4.501  0.00  0.00     0.003 C 
ENDBRANCH   8   9
ENDBRANCH   7   8
ENDBRANCH   1   7
TORSDOF 3
ENDMDL
