MODEL 1
REMARK minimizedAffinity 11.4303579
REMARK minimizedRMSD -1
REMARK  3 active torsions:
REMARK  status: ('A' for Active; 'I' for Inactive)
REMARK    1  A    between atoms: C3'_2  and  C2'_3 
REMARK    2  A    between atoms: C2'_3  and  C1'_4 
REMARK    3  A    between atoms: C1'_4  and  C1_5 
ROOT
ATOM      1  C1  N4B d   1      -3.361  -1.850  -3.051  0.00  0.00    -0.075 A 
ATOM      2  C2  N4B d   1      -3.702  -2.835  -2.099  0.00  0.00     0.002 A 
ATOM      3  C3  N4B d   1      -2.925  -3.005  -0.979  0.00  0.00     0.002 A 
ATOM      4  C4  N4B d   1      -1.797  -2.219  -0.801  0.00  0.00    -0.004 A 
ATOM      5  C5  N4B d   1      -1.489  -1.253  -1.713  0.00  0.00     0.002 A 
ATOM      6  C6  N4B d   1      -2.262  -1.067  -2.841  0.00  0.00     0.002 A 
ENDROOT
BRANCH   1   7
ATOM      7  C1' N4B d   1      -4.130  -1.684  -4.333  0.00  0.00     0.057 C 
BRANCH   7   8
ATOM      8  C2' N4B d   1      -4.000  -2.958  -5.163  0.00  0.00     0.009 C 
BRANCH   8   9
ATOM      9  C3' N4B d   1      -5.253  -3.237  -5.976  0.00  0.00     0.004 C 
ATOM     10  C4' N4B d   1      -5.618  -4.691  -5.999  0.00  0.00     0.003 C 
ENDBRANCH   8   9
ENDBRANCH   7   8
ENDBRANCH   1   7
TORSDOF 3
ENDMDL
