MODEL 1
REMARK minimizedAffinity 11.873559
REMARK minimizedRMSD -1
REMARK  3 active torsions:
REMARK  status: ('A' for Active; 'I' for Inactive)
REMARK    1  A    between atoms: C3'_2  and  C2'_3 
REMARK    2  A    between atoms: C2'_3  and  C1'_4 
REMARK    3  A    between atoms: C1'_4  and  C1_5 
ROOT
ATOM      1  C1  N4B d   1       2.000  -1.040   2.208  0.00  0.00    -0.075 A 
ATOM      2  C2  N4B d   1       2.785  -2.068   2.775  0.00  0.00     0.002 A 
ATOM      3  C3  N4B d   1       2.767  -2.277   4.132  0.00  0.00     0.002 A 
ATOM      4  C4  N4B d   1       1.990  -1.461   4.941  0.00  0.00    -0.004 A 
ATOM      5  C5  N4B d   1       1.215  -0.486   4.383  0.00  0.00     0.002 A 
ATOM      6  C6  N4B d   1       1.221  -0.268   3.020  0.00  0.00     0.002 A 
ENDROOT
BRANCH   1   7
ATOM      7  C1' N4B d   1       2.053  -0.719   0.739  0.00  0.00     0.057 C 
BRANCH   7   8
ATOM      8  C2' N4B d   1       1.641  -1.953  -0.058  0.00  0.00     0.009 C 
BRANCH   8   9
ATOM      9  C3' N4B d   1       0.472  -1.666  -0.984  0.00  0.00     0.004 C 
ATOM     10  C4' N4B d   1      -0.741  -2.487  -0.659  0.00  0.00     0.003 C 
ENDBRANCH   8   9
ENDBRANCH   7   8
ENDBRANCH   1   7
TORSDOF 3
ENDMDL
