MODEL 1
REMARK minimizedAffinity -0.778355718
REMARK minimizedRMSD -1
REMARK  0 active torsions:
REMARK  status: ('A' for Active; 'I' for Inactive)
ROOT
ATOM      1  C2' OXE d   1       0.292   0.057  -0.416  0.00  0.00     0.078 C 
ATOM      2  C1' OXE d   1      -1.413   1.983   0.710  0.00  0.00     0.078 C 
ATOM      3  C1  OXE d   1      -1.482   1.767  -0.782  0.00  0.00    -0.078 A 
ATOM      4  C2  OXE d   1      -0.612   0.856  -1.330  0.00  0.00    -0.078 A 
ATOM      5  C3  OXE d   1      -0.672   0.580  -2.693  0.00  0.00     0.003 A 
ATOM      6  C4  OXE d   1      -1.503   1.331  -3.533  0.00  0.00    -0.002 A 
ATOM      7  C5  OXE d   1      -2.369   2.291  -3.000  0.00  0.00    -0.002 A 
ATOM      8  C6  OXE d   1      -2.401   2.492  -1.624  0.00  0.00     0.003 A 
ENDROOT
TORSDOF 0
ENDMDL
