MODEL 1
REMARK minimizedAffinity -3.07952166
REMARK minimizedRMSD -1
REMARK  0 active torsions:
REMARK  status: ('A' for Active; 'I' for Inactive)
ROOT
ATOM      1  C2' OXE d   1       2.044  -1.641  -0.037  0.00  0.00     0.078 C 
ATOM      2  C1' OXE d   1      -0.040   0.223  -0.289  0.00  0.00     0.078 C 
ATOM      3  C1  OXE d   1       0.050  -0.561   0.996  0.00  0.00    -0.078 A 
ATOM      4  C2  OXE d   1       1.045  -1.504   1.093  0.00  0.00    -0.078 A 
ATOM      5  C3  OXE d   1       1.207  -2.216   2.277  0.00  0.00     0.003 A 
ATOM      6  C4  OXE d   1       0.274  -2.091   3.313  0.00  0.00    -0.002 A 
ATOM      7  C5  OXE d   1      -0.770  -1.165   3.220  0.00  0.00    -0.002 A 
ATOM      8  C6  OXE d   1      -0.871  -0.363   2.088  0.00  0.00     0.003 A 
ENDROOT
TORSDOF 0
ENDMDL
