MODEL 1
REMARK minimizedAffinity 0.175388888
REMARK minimizedRMSD -1
REMARK  0 active torsions:
REMARK  status: ('A' for Active; 'I' for Inactive)
ROOT
ATOM      1  C2' OXE d   1      -0.652  -1.240   2.663  0.00  0.00     0.078 C 
ATOM      2  C1' OXE d   1       1.669  -1.742   1.166  0.00  0.00     0.078 C 
ATOM      3  C1  OXE d   1       0.771  -0.617   0.715  0.00  0.00    -0.078 A 
ATOM      4  C2  OXE d   1      -0.387  -0.408   1.426  0.00  0.00    -0.078 A 
ATOM      5  C3  OXE d   1      -1.223   0.651   1.087  0.00  0.00     0.003 A 
ATOM      6  C4  OXE d   1      -0.975   1.409  -0.064  0.00  0.00    -0.002 A 
ATOM      7  C5  OXE d   1       0.177   1.187  -0.826  0.00  0.00    -0.002 A 
ATOM      8  C6  OXE d   1       1.080   0.209  -0.426  0.00  0.00     0.003 A 
ENDROOT
TORSDOF 0
ENDMDL
