MODEL 1
REMARK minimizedAffinity -5.02891541
REMARK minimizedRMSD -1
REMARK  0 active torsions:
REMARK  status: ('A' for Active; 'I' for Inactive)
ROOT
ATOM      1  C2' OXE d   1       1.647  -0.215  -1.265  0.00  0.00     0.078 C 
ATOM      2  C1' OXE d   1      -0.825   0.755  -0.356  0.00  0.00     0.078 C 
ATOM      3  C1  OXE d   1      -0.089  -0.227   0.521  0.00  0.00    -0.078 A 
ATOM      4  C2  OXE d   1       1.097  -0.732   0.047  0.00  0.00    -0.078 A 
ATOM      5  C3  OXE d   1       1.843  -1.599   0.840  0.00  0.00     0.003 A 
ATOM      6  C4  OXE d   1       1.323  -2.080   2.047  0.00  0.00    -0.002 A 
ATOM      7  C5  OXE d   1       0.097  -1.609   2.530  0.00  0.00    -0.002 A 
ATOM      8  C6  OXE d   1      -0.600  -0.652   1.801  0.00  0.00     0.003 A 
ENDROOT
TORSDOF 0
ENDMDL
