MODEL 1
REMARK minimizedAffinity -4.51276779
REMARK minimizedRMSD -1
REMARK  0 active torsions:
REMARK  status: ('A' for Active; 'I' for Inactive)
ROOT
ATOM      1  C2' OXE d   1      -0.629   0.774  -0.333  0.00  0.00     0.078 C 
ATOM      2  C1' OXE d   1       2.003   0.098  -1.038  0.00  0.00     0.078 C 
ATOM      3  C1  OXE d   1       1.380  -0.624   0.131  0.00  0.00    -0.078 A 
ATOM      4  C2  OXE d   1       0.109  -0.253   0.498  0.00  0.00    -0.078 A 
ATOM      5  C3  OXE d   1      -0.532  -0.925   1.535  0.00  0.00     0.003 A 
ATOM      6  C4  OXE d   1       0.161  -1.867   2.305  0.00  0.00    -0.002 A 
ATOM      7  C5  OXE d   1       1.470  -2.230   1.973  0.00  0.00    -0.002 A 
ATOM      8  C6  OXE d   1       2.078  -1.650   0.865  0.00  0.00     0.003 A 
ENDROOT
TORSDOF 0
ENDMDL
