MODEL 1
REMARK minimizedAffinity -3.08725834
REMARK minimizedRMSD -1
REMARK  0 active torsions:
REMARK  status: ('A' for Active; 'I' for Inactive)
ROOT
ATOM      1  C2' OXE d   1      -1.056   1.288  -0.107  0.00  0.00     0.078 C 
ATOM      2  C1' OXE d   1      -1.061  -0.526   2.036  0.00  0.00     0.078 C 
ATOM      3  C1  OXE d   1       0.161  -0.484   1.153  0.00  0.00    -0.078 A 
ATOM      4  C2  OXE d   1       0.135   0.373   0.079  0.00  0.00    -0.078 A 
ATOM      5  C3  OXE d   1       1.258   0.491  -0.736  0.00  0.00     0.003 A 
ATOM      6  C4  OXE d   1       2.352  -0.366  -0.563  0.00  0.00    -0.002 A 
ATOM      7  C5  OXE d   1       2.381  -1.274   0.500  0.00  0.00    -0.002 A 
ATOM      8  C6  OXE d   1       1.314  -1.316   1.391  0.00  0.00     0.003 A 
ENDROOT
TORSDOF 0
ENDMDL
