MODEL 1
REMARK minimizedAffinity -2.92258167
REMARK minimizedRMSD -1
REMARK  0 active torsions:
REMARK  status: ('A' for Active; 'I' for Inactive)
ROOT
ATOM      1  C2' OXE d   1      -2.552   2.509  -2.992  0.00  0.00     0.078 C 
ATOM      2  C1' OXE d   1      -2.095  -0.199  -3.576  0.00  0.00     0.078 C 
ATOM      3  C1  OXE d   1      -1.603   0.328  -2.251  0.00  0.00    -0.078 A 
ATOM      4  C2  OXE d   1      -1.789   1.665  -1.994  0.00  0.00    -0.078 A 
ATOM      5  C3  OXE d   1      -1.403   2.190  -0.764  0.00  0.00     0.003 A 
ATOM      6  C4  OXE d   1      -0.690   1.406   0.150  0.00  0.00    -0.002 A 
ATOM      7  C5  OXE d   1      -0.454   0.051  -0.110  0.00  0.00    -0.002 A 
ATOM      8  C6  OXE d   1      -0.940  -0.512  -1.284  0.00  0.00     0.003 A 
ENDROOT
TORSDOF 0
ENDMDL
