MODEL 1
REMARK minimizedAffinity -1.80508757
REMARK minimizedRMSD -1
REMARK  0 active torsions:
REMARK  status: ('A' for Active; 'I' for Inactive)
ROOT
ATOM      1  C2' OXE d   1       1.819  -1.757   0.884  0.00  0.00     0.078 C 
ATOM      2  C1' OXE d   1      -0.309  -1.247   2.642  0.00  0.00     0.078 C 
ATOM      3  C1  OXE d   1      -0.179  -0.370   1.422  0.00  0.00    -0.078 A 
ATOM      4  C2  OXE d   1       0.893  -0.597   0.592  0.00  0.00    -0.078 A 
ATOM      5  C3  OXE d   1       1.029   0.147  -0.576  0.00  0.00     0.003 A 
ATOM      6  C4  OXE d   1       0.173   1.225  -0.834  0.00  0.00    -0.002 A 
ATOM      7  C5  OXE d   1      -0.901   1.499   0.019  0.00  0.00    -0.002 A 
ATOM      8  C6  OXE d   1      -1.116   0.686   1.127  0.00  0.00     0.003 A 
ENDROOT
TORSDOF 0
ENDMDL
