MODEL 1
REMARK minimizedAffinity -2.09154153
REMARK minimizedRMSD -1
REMARK  0 active torsions:
REMARK  status: ('A' for Active; 'I' for Inactive)
ROOT
ATOM      1  C2' OXE d   1      -1.671   0.223   1.773  0.00  0.00     0.078 C 
ATOM      2  C1' OXE d   1      -0.914   0.922  -0.839  0.00  0.00     0.078 C 
ATOM      3  C1  OXE d   1      -0.022  -0.027  -0.078  0.00  0.00    -0.078 A 
ATOM      4  C2  OXE d   1      -0.375  -0.327   1.216  0.00  0.00    -0.078 A 
ATOM      5  C3  OXE d   1       0.383  -1.240   1.944  0.00  0.00     0.003 A 
ATOM      6  C4  OXE d   1       1.585  -1.736   1.425  0.00  0.00    -0.002 A 
ATOM      7  C5  OXE d   1       1.984  -1.413   0.124  0.00  0.00    -0.002 A 
ATOM      8  C6  OXE d   1       1.172  -0.595  -0.654  0.00  0.00     0.003 A 
ENDROOT
TORSDOF 0
ENDMDL
