MODEL 1
REMARK minimizedAffinity 3.86204481
REMARK minimizedRMSD -1
REMARK  0 active torsions:
REMARK  status: ('A' for Active; 'I' for Inactive)
ROOT
ATOM      1  C2' OXE d   1       2.249   0.778   0.230  0.00  0.00     0.078 C 
ATOM      2  C1' OXE d   1       3.093  -1.721  -0.731  0.00  0.00     0.078 C 
ATOM      3  C1  OXE d   1       1.978  -1.698   0.284  0.00  0.00    -0.078 A 
ATOM      4  C2  OXE d   1       1.603  -0.474   0.784  0.00  0.00    -0.078 A 
ATOM      5  C3  OXE d   1       0.543  -0.391   1.681  0.00  0.00     0.003 A 
ATOM      6  C4  OXE d   1      -0.043  -1.554   2.196  0.00  0.00    -0.002 A 
ATOM      7  C5  OXE d   1       0.351  -2.813   1.730  0.00  0.00    -0.002 A 
ATOM      8  C6  OXE d   1       1.328  -2.900   0.745  0.00  0.00     0.003 A 
ENDROOT
TORSDOF 0
ENDMDL
