MODEL 1
REMARK minimizedAffinity 0.13613832
REMARK minimizedRMSD -1
REMARK  0 active torsions:
REMARK  status: ('A' for Active; 'I' for Inactive)
ROOT
ATOM      1  C2' OXE d   1      -1.266   1.395   1.036  0.00  0.00     0.078 C 
ATOM      2  C1' OXE d   1       0.981   0.646  -0.471  0.00  0.00     0.078 C 
ATOM      3  C1  OXE d   1      -0.243   1.114  -1.218  0.00  0.00    -0.078 A 
ATOM      4  C2  OXE d   1      -1.353   1.434  -0.475  0.00  0.00    -0.078 A 
ATOM      5  C3  OXE d   1      -2.491   1.923  -1.111  0.00  0.00     0.003 A 
ATOM      6  C4  OXE d   1      -2.567   1.947  -2.509  0.00  0.00    -0.002 A 
ATOM      7  C5  OXE d   1      -1.460   1.587  -3.286  0.00  0.00    -0.002 A 
ATOM      8  C6  OXE d   1      -0.279   1.210  -2.657  0.00  0.00     0.003 A 
ENDROOT
TORSDOF 0
ENDMDL
