MODEL 1
REMARK minimizedAffinity -1.91693103
REMARK minimizedRMSD -1
REMARK  0 active torsions:
REMARK  status: ('A' for Active; 'I' for Inactive)
ROOT
ATOM      1  C2' OXE d   1      -1.883   1.530   0.870  0.00  0.00     0.078 C 
ATOM      2  C1' OXE d   1       0.225   0.218  -0.441  0.00  0.00     0.078 C 
ATOM      3  C1  OXE d   1      -0.863   0.824  -1.291  0.00  0.00    -0.078 A 
ATOM      4  C2  OXE d   1      -1.914   1.424  -0.640  0.00  0.00    -0.078 A 
ATOM      5  C3  OXE d   1      -2.917   2.047  -1.377  0.00  0.00     0.003 A 
ATOM      6  C4  OXE d   1      -2.944   1.935  -2.773  0.00  0.00    -0.002 A 
ATOM      7  C5  OXE d   1      -1.904   1.295  -3.454  0.00  0.00    -0.002 A 
ATOM      8  C6  OXE d   1      -0.836   0.772  -2.732  0.00  0.00     0.003 A 
ENDROOT
TORSDOF 0
ENDMDL
