MODEL 1
REMARK minimizedAffinity -4.23774004
REMARK minimizedRMSD -1
REMARK  0 active torsions:
REMARK  status: ('A' for Active; 'I' for Inactive)
ROOT
ATOM      1  C2' OXE d   1       1.783  -0.705  -0.533  0.00  0.00     0.078 C 
ATOM      2  C1' OXE d   1      -0.706   0.468   0.022  0.00  0.00     0.078 C 
ATOM      3  C1  OXE d   1      -0.108  -0.442   1.067  0.00  0.00    -0.078 A 
ATOM      4  C2  OXE d   1       1.088  -1.049   0.767  0.00  0.00    -0.078 A 
ATOM      5  C3  OXE d   1       1.709  -1.854   1.717  0.00  0.00     0.003 A 
ATOM      6  C4  OXE d   1       1.054  -2.175   2.912  0.00  0.00    -0.002 A 
ATOM      7  C5  OXE d   1      -0.183  -1.599   3.220  0.00  0.00    -0.002 A 
ATOM      8  C6  OXE d   1      -0.757  -0.699   2.329  0.00  0.00     0.003 A 
ENDROOT
TORSDOF 0
ENDMDL
