MODEL 1
REMARK minimizedAffinity -0.928065181
REMARK minimizedRMSD -1
REMARK  0 active torsions:
REMARK  status: ('A' for Active; 'I' for Inactive)
ROOT
ATOM      1  C2' OXE d   1      -1.981   0.582   0.425  0.00  0.00     0.078 C 
ATOM      2  C1' OXE d   1       0.144   2.032  -0.699  0.00  0.00     0.078 C 
ATOM      3  C1  OXE d   1      -1.131   1.920  -1.497  0.00  0.00    -0.078 A 
ATOM      4  C2  OXE d   1      -2.149   1.169  -0.960  0.00  0.00    -0.078 A 
ATOM      5  C3  OXE d   1      -3.366   1.078  -1.630  0.00  0.00     0.003 A 
ATOM      6  C4  OXE d   1      -3.510   1.616  -2.914  0.00  0.00    -0.002 A 
ATOM      7  C5  OXE d   1      -2.472   2.351  -3.497  0.00  0.00    -0.002 A 
ATOM      8  C6  OXE d   1      -1.294   2.548  -2.785  0.00  0.00     0.003 A 
ENDROOT
TORSDOF 0
ENDMDL
