MODEL 1
REMARK minimizedAffinity -4.89489412
REMARK minimizedRMSD -1
REMARK  0 active torsions:
REMARK  status: ('A' for Active; 'I' for Inactive)
ROOT
ATOM      1  C2' OXE d   1       2.363  -1.100  -0.075  0.00  0.00     0.078 C 
ATOM      2  C1' OXE d   1      -0.158   0.046  -0.530  0.00  0.00     0.078 C 
ATOM      3  C1  OXE d   1       0.051  -0.703   0.762  0.00  0.00    -0.078 A 
ATOM      4  C2  OXE d   1       1.273  -1.301   0.956  0.00  0.00    -0.078 A 
ATOM      5  C3  OXE d   1       1.537  -1.958   2.154  0.00  0.00     0.003 A 
ATOM      6  C4  OXE d   1       0.521  -2.147   3.098  0.00  0.00    -0.002 A 
ATOM      7  C5  OXE d   1      -0.744  -1.581   2.902  0.00  0.00    -0.002 A 
ATOM      8  C6  OXE d   1      -0.981  -0.821   1.762  0.00  0.00     0.003 A 
ENDROOT
TORSDOF 0
ENDMDL
