MODEL 1
REMARK minimizedAffinity 1.15135133
REMARK minimizedRMSD -1
REMARK  0 active torsions:
REMARK  status: ('A' for Active; 'I' for Inactive)
ROOT
ATOM      1  C2' OXE d   1       1.467   0.378  -0.388  0.00  0.00     0.078 C 
ATOM      2  C1' OXE d   1      -0.958  -0.292   0.859  0.00  0.00     0.078 C 
ATOM      3  C1  OXE d   1      -1.012   0.623  -0.339  0.00  0.00    -0.078 A 
ATOM      4  C2  OXE d   1       0.183   0.983  -0.914  0.00  0.00    -0.078 A 
ATOM      5  C3  OXE d   1       0.187   1.781  -2.055  0.00  0.00     0.003 A 
ATOM      6  C4  OXE d   1      -1.004   2.344  -2.529  0.00  0.00    -0.002 A 
ATOM      7  C5  OXE d   1      -2.228   2.023  -1.934  0.00  0.00    -0.002 A 
ATOM      8  C6  OXE d   1      -2.254   1.132  -0.866  0.00  0.00     0.003 A 
ENDROOT
TORSDOF 0
ENDMDL
