MODEL 1
REMARK minimizedAffinity -5.85086489
REMARK minimizedRMSD -1
REMARK  0 active torsions:
REMARK  status: ('A' for Active; 'I' for Inactive)
ROOT
ATOM      1  C2' OXE d   1       1.718   0.100  -1.093  0.00  0.00     0.078 C 
ATOM      2  C1' OXE d   1      -0.832   0.884  -0.217  0.00  0.00     0.078 C 
ATOM      3  C1  OXE d   1      -0.129  -0.209   0.550  0.00  0.00    -0.078 A 
ATOM      4  C2  OXE d   1       1.098  -0.618   0.086  0.00  0.00    -0.078 A 
ATOM      5  C3  OXE d   1       1.813  -1.585   0.788  0.00  0.00     0.003 A 
ATOM      6  C4  OXE d   1       1.228  -2.251   1.872  0.00  0.00    -0.002 A 
ATOM      7  C5  OXE d   1      -0.038  -1.877   2.336  0.00  0.00    -0.002 A 
ATOM      8  C6  OXE d   1      -0.710  -0.831   1.714  0.00  0.00     0.003 A 
ENDROOT
TORSDOF 0
ENDMDL
