MODEL 1
REMARK minimizedAffinity -5.28294086
REMARK minimizedRMSD -1
REMARK  0 active torsions:
REMARK  status: ('A' for Active; 'I' for Inactive)
ROOT
ATOM      1  C2' OXE d   1       1.805  -0.051  -0.843  0.00  0.00     0.078 C 
ATOM      2  C1' OXE d   1      -0.827   0.563  -0.084  0.00  0.00     0.078 C 
ATOM      3  C1  OXE d   1      -0.045  -0.384   0.792  0.00  0.00    -0.078 A 
ATOM      4  C2  OXE d   1       1.226  -0.715   0.388  0.00  0.00    -0.078 A 
ATOM      5  C3  OXE d   1       2.010  -1.541   1.187  0.00  0.00     0.003 A 
ATOM      6  C4  OXE d   1       1.464  -2.160   2.318  0.00  0.00    -0.002 A 
ATOM      7  C5  OXE d   1       0.158  -1.867   2.726  0.00  0.00    -0.002 A 
ATOM      8  C6  OXE d   1      -0.594  -0.950   1.999  0.00  0.00     0.003 A 
ENDROOT
TORSDOF 0
ENDMDL
