MODEL 1
REMARK minimizedAffinity -0.508660376
REMARK minimizedRMSD -1
REMARK  0 active torsions:
REMARK  status: ('A' for Active; 'I' for Inactive)
ROOT
ATOM      1  C2' OXE d   1       1.271   0.810  -0.521  0.00  0.00     0.078 C 
ATOM      2  C1' OXE d   1      -1.027  -0.236   0.705  0.00  0.00     0.078 C 
ATOM      3  C1  OXE d   1      -1.210   0.595  -0.540  0.00  0.00    -0.078 A 
ATOM      4  C2  OXE d   1      -0.084   1.141  -1.107  0.00  0.00    -0.078 A 
ATOM      5  C3  OXE d   1      -0.191   1.870  -2.288  0.00  0.00     0.003 A 
ATOM      6  C4  OXE d   1      -1.450   2.181  -2.818  0.00  0.00    -0.002 A 
ATOM      7  C5  OXE d   1      -2.612   1.667  -2.233  0.00  0.00    -0.002 A 
ATOM      8  C6  OXE d   1      -2.507   0.839  -1.121  0.00  0.00     0.003 A 
ENDROOT
TORSDOF 0
ENDMDL
