MODEL 1
REMARK minimizedAffinity -5.2485342
REMARK minimizedRMSD -1
REMARK  0 active torsions:
REMARK  status: ('A' for Active; 'I' for Inactive)
ROOT
ATOM      1  C   UNL d   1       0.177  -0.812  -0.532  0.00  0.00     0.078 C 
ATOM      2  C1  UNL d   1      -0.134   0.334   0.384  0.00  0.00    -0.077 A 
ATOM      3  C2  UNL d   1       0.135   0.255   1.756  0.00  0.00    -0.001 A 
ATOM      4  C3  UNL d   1      -0.169   1.326   2.598  0.00  0.00     0.003 A 
ATOM      5  C4  UNL d   1      -0.744   2.483   2.078  0.00  0.00    -0.005 A 
ATOM      6  C5  UNL d   1      -1.018   2.571   0.715  0.00  0.00     0.003 A 
ATOM      7  C6  UNL d   1      -0.714   1.501  -0.129  0.00  0.00    -0.001 A 
ENDROOT
TORSDOF 0
ENDMDL
