MODEL 1
REMARK minimizedAffinity -4.12660074
REMARK minimizedRMSD -1
REMARK  0 active torsions:
REMARK  status: ('A' for Active; 'I' for Inactive)
ROOT
ATOM      1  C   UNL d   1       0.367  -1.367  -0.926  0.00  0.00     0.078 C 
ATOM      2  C1  UNL d   1       0.217  -0.270   0.085  0.00  0.00    -0.077 A 
ATOM      3  C2  UNL d   1      -0.712   0.761  -0.103  0.00  0.00    -0.001 A 
ATOM      4  C3  UNL d   1      -0.835   1.781   0.842  0.00  0.00     0.003 A 
ATOM      5  C4  UNL d   1      -0.031   1.781   1.980  0.00  0.00    -0.005 A 
ATOM      6  C5  UNL d   1       0.898   0.760   2.174  0.00  0.00     0.003 A 
ATOM      7  C6  UNL d   1       1.022  -0.261   1.231  0.00  0.00    -0.001 A 
ENDROOT
TORSDOF 0
ENDMDL
