MODEL 1
REMARK minimizedAffinity -3.98358774
REMARK minimizedRMSD -1
REMARK  0 active torsions:
REMARK  status: ('A' for Active; 'I' for Inactive)
ROOT
ATOM      1  C   UNL d   1      -1.160   2.136   2.224  0.00  0.00     0.078 C 
ATOM      2  C1  UNL d   1      -0.445   1.076   1.441  0.00  0.00    -0.077 A 
ATOM      3  C2  UNL d   1       0.529   0.270   2.042  0.00  0.00    -0.001 A 
ATOM      4  C3  UNL d   1       1.195  -0.706   1.298  0.00  0.00     0.003 A 
ATOM      5  C4  UNL d   1       0.894  -0.884  -0.051  0.00  0.00    -0.005 A 
ATOM      6  C5  UNL d   1      -0.071  -0.084  -0.658  0.00  0.00     0.003 A 
ATOM      7  C6  UNL d   1      -0.738   0.892   0.084  0.00  0.00    -0.001 A 
ENDROOT
TORSDOF 0
ENDMDL
