MODEL 1
REMARK minimizedAffinity -4.98001719
REMARK minimizedRMSD -1
REMARK  0 active torsions:
REMARK  status: ('A' for Active; 'I' for Inactive)
ROOT
ATOM      1  C   UNL d   1      -0.025  -1.085  -0.205  0.00  0.00     0.078 C 
ATOM      2  C1  UNL d   1      -0.140   0.309   0.337  0.00  0.00    -0.077 A 
ATOM      3  C2  UNL d   1       0.293   0.617   1.632  0.00  0.00    -0.001 A 
ATOM      4  C3  UNL d   1       0.171   1.917   2.126  0.00  0.00     0.003 A 
ATOM      5  C4  UNL d   1      -0.385   2.918   1.332  0.00  0.00    -0.005 A 
ATOM      6  C5  UNL d   1      -0.821   2.620   0.043  0.00  0.00     0.003 A 
ATOM      7  C6  UNL d   1      -0.700   1.321  -0.453  0.00  0.00    -0.001 A 
ENDROOT
TORSDOF 0
ENDMDL
