MODEL 1
REMARK minimizedAffinity -5.38454485
REMARK minimizedRMSD -1
REMARK  0 active torsions:
REMARK  status: ('A' for Active; 'I' for Inactive)
ROOT
ATOM      1  C   UNL d   1       2.253   3.161   2.889  0.00  0.00     0.078 C 
ATOM      2  C1  UNL d   1       1.132   2.399   2.248  0.00  0.00    -0.077 A 
ATOM      3  C2  UNL d   1       1.211   1.013   2.069  0.00  0.00    -0.001 A 
ATOM      4  C3  UNL d   1       0.163   0.318   1.462  0.00  0.00     0.003 A 
ATOM      5  C4  UNL d   1      -0.971   1.002   1.028  0.00  0.00    -0.005 A 
ATOM      6  C5  UNL d   1      -1.058   2.382   1.200  0.00  0.00     0.003 A 
ATOM      7  C6  UNL d   1      -0.011   3.078   1.806  0.00  0.00    -0.001 A 
ENDROOT
TORSDOF 0
ENDMDL
