MODEL 1
REMARK minimizedAffinity -3.42705011
REMARK minimizedRMSD -1
REMARK  0 active torsions:
REMARK  status: ('A' for Active; 'I' for Inactive)
ROOT
ATOM      1  C   UNL d   1      -0.004  -1.461  -0.744  0.00  0.00     0.078 C 
ATOM      2  C1  UNL d   1      -0.030  -0.373   0.288  0.00  0.00    -0.077 A 
ATOM      3  C2  UNL d   1       0.711  -0.484   1.471  0.00  0.00    -0.001 A 
ATOM      4  C3  UNL d   1       0.670   0.532   2.427  0.00  0.00     0.003 A 
ATOM      5  C4  UNL d   1      -0.112   1.665   2.211  0.00  0.00    -0.005 A 
ATOM      6  C5  UNL d   1      -0.855   1.783   1.038  0.00  0.00     0.003 A 
ATOM      7  C6  UNL d   1      -0.815   0.768   0.081  0.00  0.00    -0.001 A 
ENDROOT
TORSDOF 0
ENDMDL
