MODEL 1
REMARK minimizedAffinity 21.3332386
REMARK minimizedRMSD -1
REMARK  1 active torsions:
REMARK  status: ('A' for Active; 'I' for Inactive)
REMARK    1  A    between atoms: C1_2  and  C2_3 
ROOT
ATOM      1  C2  UNL d   1      -2.431  -2.844  -0.993  0.00  0.00    -0.081 A 
ATOM      2  C3  UNL d   1      -3.499  -3.366  -1.734  0.00  0.00     0.006 A 
ATOM      3  C4  UNL d   1      -3.498  -3.288  -3.129  0.00  0.00     0.002 A 
ATOM      4  C5  UNL d   1      -2.427  -2.695  -3.806  0.00  0.00    -0.080 A 
ATOM      5  C6  UNL d   1      -2.399  -2.632  -5.304  0.00  0.00     0.076 C 
ATOM      6  C7  UNL d   1      -1.368  -2.158  -3.065  0.00  0.00     0.002 A 
ATOM      7  C8  UNL d   1      -1.369  -2.235  -1.671  0.00  0.00     0.006 A 
ENDROOT
BRANCH   1   8
ATOM      8  C1  UNL d   1      -2.399  -2.984   0.507  0.00  0.00     0.054 C 
ATOM      9  C   UNL d   1      -0.972  -3.128   1.019  0.00  0.00     0.018 C 
ENDBRANCH   1   8
TORSDOF 1
ENDMDL
