MODEL 1
REMARK minimizedAffinity 9.505826
REMARK minimizedRMSD -1
REMARK  1 active torsions:
REMARK  status: ('A' for Active; 'I' for Inactive)
REMARK    1  A    between atoms: C1_2  and  C2_3 
ROOT
ATOM      1  C2  UNL d   1      -4.359  -4.103  -2.792  0.00  0.00    -0.081 A 
ATOM      2  C3  UNL d   1      -3.966  -4.827  -1.660  0.00  0.00     0.006 A 
ATOM      3  C4  UNL d   1      -2.929  -4.363  -0.847  0.00  0.00     0.002 A 
ATOM      4  C5  UNL d   1      -2.274  -3.164  -1.148  0.00  0.00    -0.080 A 
ATOM      5  C6  UNL d   1      -1.180  -2.639  -0.267  0.00  0.00     0.076 C 
ATOM      6  C7  UNL d   1      -2.655  -2.450  -2.289  0.00  0.00     0.002 A 
ATOM      7  C8  UNL d   1      -3.691  -2.914  -3.102  0.00  0.00     0.006 A 
ENDROOT
BRANCH   1   8
ATOM      8  C1  UNL d   1      -5.520  -4.568  -3.634  0.00  0.00     0.054 C 
ATOM      9  C   UNL d   1      -5.987  -5.955  -3.216  0.00  0.00     0.018 C 
ENDBRANCH   1   8
TORSDOF 1
ENDMDL
