MODEL 1
REMARK minimizedAffinity 10.9832611
REMARK minimizedRMSD -1
REMARK  1 active torsions:
REMARK  status: ('A' for Active; 'I' for Inactive)
REMARK    1  A    between atoms: C1_2  and  C2_3 
ROOT
ATOM      1  C2  UNL d   1       1.116   3.292   0.417  0.00  0.00    -0.081 A 
ATOM      2  C3  UNL d   1       0.413   4.347   1.010  0.00  0.00     0.006 A 
ATOM      3  C4  UNL d   1      -0.709   4.893   0.382  0.00  0.00     0.002 A 
ATOM      4  C5  UNL d   1      -1.151   4.388  -0.846  0.00  0.00    -0.080 A 
ATOM      5  C6  UNL d   1      -2.372   4.944  -1.516  0.00  0.00     0.076 C 
ATOM      6  C7  UNL d   1      -0.439   3.345  -1.447  0.00  0.00     0.002 A 
ATOM      7  C8  UNL d   1       0.683   2.799  -0.820  0.00  0.00     0.006 A 
ENDROOT
BRANCH   1   8
ATOM      8  C1  UNL d   1       2.287   2.658   1.123  0.00  0.00     0.054 C 
ATOM      9  C   UNL d   1       1.887   1.355   1.799  0.00  0.00     0.018 C 
ENDBRANCH   1   8
TORSDOF 1
ENDMDL
