MODEL 1
REMARK minimizedAffinity 11.1075153
REMARK minimizedRMSD -1
REMARK  1 active torsions:
REMARK  status: ('A' for Active; 'I' for Inactive)
REMARK    1  A    between atoms: C1_2  and  C2_3 
ROOT
ATOM      1  C2  UNL d   1       2.186   0.935  -0.974  0.00  0.00    -0.081 A 
ATOM      2  C3  UNL d   1       1.178   1.754  -1.496  0.00  0.00     0.006 A 
ATOM      3  C4  UNL d   1       1.344   2.379  -2.734  0.00  0.00     0.002 A 
ATOM      4  C5  UNL d   1       2.515   2.188  -3.475  0.00  0.00    -0.080 A 
ATOM      5  C6  UNL d   1       2.693   2.829  -4.819  0.00  0.00     0.076 C 
ATOM      6  C7  UNL d   1       3.530   1.383  -2.946  0.00  0.00     0.002 A 
ATOM      7  C8  UNL d   1       3.365   0.759  -1.707  0.00  0.00     0.006 A 
ENDROOT
BRANCH   1   8
ATOM      8  C1  UNL d   1       1.984   0.208   0.331  0.00  0.00     0.054 C 
ATOM      9  C   UNL d   1       1.960   1.176   1.505  0.00  0.00     0.018 C 
ENDBRANCH   1   8
TORSDOF 1
ENDMDL
