MODEL 1
REMARK minimizedAffinity 15.0772991
REMARK minimizedRMSD -1
REMARK  1 active torsions:
REMARK  status: ('A' for Active; 'I' for Inactive)
REMARK    1  A    between atoms: C1_2  and  C2_3 
ROOT
ATOM      1  C2  UNL d   1       2.315   2.089  -0.856  0.00  0.00    -0.081 A 
ATOM      2  C3  UNL d   1       1.360   2.554  -1.769  0.00  0.00     0.006 A 
ATOM      3  C4  UNL d   1       1.609   2.501  -3.142  0.00  0.00     0.002 A 
ATOM      4  C5  UNL d   1       2.812   1.976  -3.626  0.00  0.00    -0.080 A 
ATOM      5  C6  UNL d   1       3.080   1.885  -5.099  0.00  0.00     0.076 C 
ATOM      6  C7  UNL d   1       3.773   1.527  -2.713  0.00  0.00     0.002 A 
ATOM      7  C8  UNL d   1       3.525   1.581  -1.340  0.00  0.00     0.006 A 
ENDROOT
BRANCH   1   8
ATOM      8  C1  UNL d   1       2.023   2.085   0.623  0.00  0.00     0.054 C 
ATOM      9  C   UNL d   1       2.009   3.499   1.188  0.00  0.00     0.018 C 
ENDBRANCH   1   8
TORSDOF 1
ENDMDL
