MODEL 1
REMARK minimizedAffinity 12.5517149
REMARK minimizedRMSD -1
REMARK  1 active torsions:
REMARK  status: ('A' for Active; 'I' for Inactive)
REMARK    1  A    between atoms: C1_2  and  C2_3 
ROOT
ATOM      1  C2  UNL d   1       2.662   1.359   1.524  0.00  0.00    -0.081 A 
ATOM      2  C3  UNL d   1       3.249   0.578   2.526  0.00  0.00     0.006 A 
ATOM      3  C4  UNL d   1       2.608   0.403   3.755  0.00  0.00     0.002 A 
ATOM      4  C5  UNL d   1       1.366   0.999   3.999  0.00  0.00    -0.080 A 
ATOM      5  C6  UNL d   1       0.653   0.794   5.302  0.00  0.00     0.076 C 
ATOM      6  C7  UNL d   1       0.787   1.794   3.004  0.00  0.00     0.002 A 
ATOM      7  C8  UNL d   1       1.428   1.970   1.776  0.00  0.00     0.006 A 
ENDROOT
BRANCH   1   8
ATOM      8  C1  UNL d   1       3.320   1.497   0.175  0.00  0.00     0.054 C 
ATOM      9  C   UNL d   1       4.037   0.215  -0.224  0.00  0.00     0.018 C 
ENDBRANCH   1   8
TORSDOF 1
ENDMDL
