MODEL 1
REMARK minimizedAffinity 2.30927444
REMARK minimizedRMSD -1
REMARK  1 active torsions:
REMARK  status: ('A' for Active; 'I' for Inactive)
REMARK    1  A    between atoms: C1_2  and  C2_3 
ROOT
ATOM      1  C2  UNL d   1       1.604   3.619  -3.476  0.00  0.00    -0.081 A 
ATOM      2  C3  UNL d   1       2.546   3.002  -4.308  0.00  0.00     0.006 A 
ATOM      3  C4  UNL d   1       3.371   3.768  -5.136  0.00  0.00     0.002 A 
ATOM      4  C5  UNL d   1       3.273   5.164  -5.139  0.00  0.00    -0.080 A 
ATOM      5  C6  UNL d   1       4.172   6.000  -6.000  0.00  0.00     0.076 C 
ATOM      6  C7  UNL d   1       2.320   5.780  -4.320  0.00  0.00     0.002 A 
ATOM      7  C8  UNL d   1       1.495   5.014  -3.494  0.00  0.00     0.006 A 
ENDROOT
BRANCH   1   8
ATOM      8  C1  UNL d   1       0.759   2.800  -2.535  0.00  0.00     0.054 C 
ATOM      9  C   UNL d   1      -0.315   3.651  -1.872  0.00  0.00     0.018 C 
ENDBRANCH   1   8
TORSDOF 1
ENDMDL
