MODEL 1
REMARK minimizedAffinity 8.64003468
REMARK minimizedRMSD -1
REMARK  1 active torsions:
REMARK  status: ('A' for Active; 'I' for Inactive)
REMARK    1  A    between atoms: C1_2  and  C2_3 
ROOT
ATOM      1  C2  UNL d   1      -5.788   3.057   4.840  0.00  0.00    -0.081 A 
ATOM      2  C3  UNL d   1      -5.329   2.418   5.999  0.00  0.00     0.006 A 
ATOM      3  C4  UNL d   1      -5.077   1.044   5.998  0.00  0.00     0.002 A 
ATOM      4  C5  UNL d   1      -5.272   0.288   4.838  0.00  0.00    -0.080 A 
ATOM      5  C6  UNL d   1      -4.976  -1.182   4.815  0.00  0.00     0.076 C 
ATOM      6  C7  UNL d   1      -5.747   0.922   3.685  0.00  0.00     0.002 A 
ATOM      7  C8  UNL d   1      -6.000   2.296   3.685  0.00  0.00     0.006 A 
ENDROOT
BRANCH   1   8
ATOM      8  C1  UNL d   1      -5.999   4.549   4.820  0.00  0.00     0.054 C 
ATOM      9  C   UNL d   1      -4.997   5.262   5.717  0.00  0.00     0.018 C 
ENDBRANCH   1   8
TORSDOF 1
ENDMDL
