MODEL 1
REMARK minimizedAffinity 10.2720919
REMARK minimizedRMSD -1
REMARK  1 active torsions:
REMARK  status: ('A' for Active; 'I' for Inactive)
REMARK    1  A    between atoms: C1_2  and  C2_3 
ROOT
ATOM      1  C2  UNL d   1      -4.474   0.688   3.362  0.00  0.00    -0.081 A 
ATOM      2  C3  UNL d   1      -4.040   2.013   3.233  0.00  0.00     0.006 A 
ATOM      3  C4  UNL d   1      -4.541   3.008   4.076  0.00  0.00     0.002 A 
ATOM      4  C5  UNL d   1      -5.477   2.694   5.067  0.00  0.00    -0.080 A 
ATOM      5  C6  UNL d   1      -6.000   3.747   5.998  0.00  0.00     0.076 C 
ATOM      6  C7  UNL d   1      -5.924   1.374   5.185  0.00  0.00     0.002 A 
ATOM      7  C8  UNL d   1      -5.425   0.379   4.342  0.00  0.00     0.006 A 
ENDROOT
BRANCH   1   8
ATOM      8  C1  UNL d   1      -3.888  -0.399   2.498  0.00  0.00     0.054 C 
ATOM      9  C   UNL d   1      -2.845  -1.206   3.256  0.00  0.00     0.018 C 
ENDBRANCH   1   8
TORSDOF 1
ENDMDL
