MODEL 1
REMARK minimizedAffinity 7.7457242
REMARK minimizedRMSD -1
REMARK  1 active torsions:
REMARK  status: ('A' for Active; 'I' for Inactive)
REMARK    1  A    between atoms: C1_2  and  C2_3 
ROOT
ATOM      1  C2  UNL d   1      -5.412   0.420   4.694  0.00  0.00    -0.081 A 
ATOM      2  C3  UNL d   1      -5.817   1.000   5.902  0.00  0.00     0.006 A 
ATOM      3  C4  UNL d   1      -5.996   2.382   6.000  0.00  0.00     0.002 A 
ATOM      4  C5  UNL d   1      -5.781   3.206   4.890  0.00  0.00    -0.080 A 
ATOM      5  C6  UNL d   1      -6.000   4.687   4.972  0.00  0.00     0.076 C 
ATOM      6  C7  UNL d   1      -5.360   2.629   3.687  0.00  0.00     0.002 A 
ATOM      7  C8  UNL d   1      -5.180   1.247   3.589  0.00  0.00     0.006 A 
ENDROOT
BRANCH   1   8
ATOM      8  C1  UNL d   1      -5.281  -1.076   4.568  0.00  0.00     0.054 C 
ATOM      9  C   UNL d   1      -3.823  -1.495   4.443  0.00  0.00     0.018 C 
ENDBRANCH   1   8
TORSDOF 1
ENDMDL
