MODEL 1
REMARK minimizedAffinity 6.98147106
REMARK minimizedRMSD -1
REMARK  1 active torsions:
REMARK  status: ('A' for Active; 'I' for Inactive)
REMARK    1  A    between atoms: C1_2  and  C2_3 
ROOT
ATOM      1  C2  UNL d   1      -3.978   1.344   3.613  0.00  0.00    -0.081 A 
ATOM      2  C3  UNL d   1      -3.368   0.142   3.236  0.00  0.00     0.006 A 
ATOM      3  C4  UNL d   1      -2.125   0.148   2.597  0.00  0.00     0.002 A 
ATOM      4  C5  UNL d   1      -1.470   1.355   2.331  0.00  0.00    -0.080 A 
ATOM      5  C6  UNL d   1      -0.123   1.374   1.673  0.00  0.00     0.076 C 
ATOM      6  C7  UNL d   1      -2.088   2.557   2.692  0.00  0.00     0.002 A 
ATOM      7  C8  UNL d   1      -3.330   2.552   3.330  0.00  0.00     0.006 A 
ENDROOT
BRANCH   1   8
ATOM      8  C1  UNL d   1      -5.287   1.337   4.360  0.00  0.00     0.054 C 
ATOM      9  C   UNL d   1      -5.272   2.332   5.512  0.00  0.00     0.018 C 
ENDBRANCH   1   8
TORSDOF 1
ENDMDL
