MODEL 1
REMARK minimizedAffinity 0.401810259
REMARK minimizedRMSD -1
REMARK  1 active torsions:
REMARK  status: ('A' for Active; 'I' for Inactive)
REMARK    1  A    between atoms: N_2  and  C1_3 
ROOT
ATOM      1  C1  UNL d   1      -4.399   4.370  -3.996  0.00  0.00     0.143 A 
ATOM      2  C2  UNL d   1      -3.220   3.781  -3.528  0.00  0.00    -0.057 A 
ATOM      3  C3  UNL d   1      -2.533   2.828  -4.290  0.00  0.00     0.033 A 
ATOM      4  C4  UNL d   1      -3.032   2.425  -5.525  0.00  0.00    -0.042 A 
ATOM      5  C5  UNL d   1      -4.215   2.980  -5.999  0.00  0.00     0.033 A 
ATOM      6  C6  UNL d   1      -4.893   3.936  -5.236  0.00  0.00    -0.057 A 
ENDROOT
BRANCH   1   7
ATOM      7  N   UNL d   1      -5.181   5.250  -3.243  0.00  0.00    -0.732 N 
ATOM      8  C   UNL d   1      -4.748   5.682  -1.931  0.00  0.00     0.284 C 
ATOM      9  H3  UNL d   1      -5.589   5.990  -3.810  0.00  0.00     0.395 HD
ENDBRANCH   1   7
TORSDOF 1
ENDMDL
