MODEL 1
REMARK minimizedAffinity -0.126295522
REMARK minimizedRMSD -1
REMARK  1 active torsions:
REMARK  status: ('A' for Active; 'I' for Inactive)
REMARK    1  A    between atoms: N_2  and  C1_3 
ROOT
ATOM      1  C1  UNL d   1      -4.668   2.285  -2.991  0.00  0.00     0.143 A 
ATOM      2  C2  UNL d   1      -5.305   1.385  -3.852  0.00  0.00    -0.057 A 
ATOM      3  C3  UNL d   1      -4.573   0.465  -4.613  0.00  0.00     0.033 A 
ATOM      4  C4  UNL d   1      -3.183   0.450  -4.547  0.00  0.00    -0.042 A 
ATOM      5  C5  UNL d   1      -2.528   1.352  -3.717  0.00  0.00     0.033 A 
ATOM      6  C6  UNL d   1      -3.265   2.263  -2.955  0.00  0.00    -0.057 A 
ENDROOT
BRANCH   1   7
ATOM      7  N   UNL d   1      -5.334   3.289  -2.284  0.00  0.00    -0.732 N 
ATOM      8  C   UNL d   1      -4.600   4.206  -1.439  0.00  0.00     0.284 C 
ATOM      9  H3  UNL d   1      -6.071   3.727  -2.832  0.00  0.00     0.395 HD
ENDBRANCH   1   7
TORSDOF 1
ENDMDL
