MODEL 1
REMARK minimizedAffinity 5.10975504
REMARK minimizedRMSD -1
REMARK  1 active torsions:
REMARK  status: ('A' for Active; 'I' for Inactive)
REMARK    1  A    between atoms: N_2  and  C1_3 
ROOT
ATOM      1  C1  UNL d   1      -4.845   0.617  -2.164  0.00  0.00     0.143 A 
ATOM      2  C2  UNL d   1      -4.823   1.919  -2.677  0.00  0.00    -0.057 A 
ATOM      3  C3  UNL d   1      -3.923   2.287  -3.684  0.00  0.00     0.033 A 
ATOM      4  C4  UNL d   1      -3.007   1.365  -4.178  0.00  0.00    -0.042 A 
ATOM      5  C5  UNL d   1      -2.993   0.073  -3.666  0.00  0.00     0.033 A 
ATOM      6  C6  UNL d   1      -3.899  -0.291  -2.664  0.00  0.00    -0.057 A 
ENDROOT
BRANCH   1   7
ATOM      7  N   UNL d   1      -5.648   0.216  -1.094  0.00  0.00    -0.732 N 
ATOM      8  C   UNL d   1      -5.998   1.150  -0.045  0.00  0.00     0.284 C 
ATOM      9  H3  UNL d   1      -6.413  -0.386  -1.387  0.00  0.00     0.395 HD
ENDBRANCH   1   7
TORSDOF 1
ENDMDL
