MODEL 1
REMARK minimizedAffinity 5.4733181
REMARK minimizedRMSD -1
REMARK  1 active torsions:
REMARK  status: ('A' for Active; 'I' for Inactive)
REMARK    1  A    between atoms: N_2  and  C1_3 
ROOT
ATOM      1  C1  UNL d   1       4.395   1.871  -0.409  0.00  0.00     0.143 A 
ATOM      2  C2  UNL d   1       4.103   0.796  -1.255  0.00  0.00    -0.057 A 
ATOM      3  C3  UNL d   1       2.884   0.113  -1.165  0.00  0.00     0.033 A 
ATOM      4  C4  UNL d   1       1.945   0.475  -0.205  0.00  0.00    -0.042 A 
ATOM      5  C5  UNL d   1       2.225   1.525   0.663  0.00  0.00     0.033 A 
ATOM      6  C6  UNL d   1       3.441   2.207   0.564  0.00  0.00    -0.057 A 
ENDROOT
BRANCH   1   7
ATOM      7  N   UNL d   1       5.629   2.527  -0.383  0.00  0.00    -0.732 N 
ATOM      8  C   UNL d   1       6.000   3.354   0.745  0.00  0.00     0.284 C 
ATOM      9  H3  UNL d   1       6.385   1.947  -0.739  0.00  0.00     0.395 HD
ENDBRANCH   1   7
TORSDOF 1
ENDMDL
