MODEL 1
REMARK minimizedAffinity 11.9792156
REMARK minimizedRMSD -1
REMARK  1 active torsions:
REMARK  status: ('A' for Active; 'I' for Inactive)
REMARK    1  A    between atoms: C1_2  and  C2_3 
ROOT
ATOM      1  C2  UNL d   1      -0.881  -1.984  -1.309  0.00  0.00    -0.081 A 
ATOM      2  C3  UNL d   1      -1.949  -1.297  -0.719  0.00  0.00     0.006 A 
ATOM      3  C4  UNL d   1      -2.361  -1.608   0.579  0.00  0.00     0.002 A 
ATOM      4  C5  UNL d   1      -1.708  -2.605   1.311  0.00  0.00    -0.080 A 
ATOM      5  C6  UNL d   1      -2.121  -2.928   2.716  0.00  0.00     0.076 C 
ATOM      6  C7  UNL d   1      -0.652  -3.304   0.716  0.00  0.00     0.002 A 
ATOM      7  C8  UNL d   1      -0.239  -2.993  -0.582  0.00  0.00     0.006 A 
ENDROOT
BRANCH   1   8
ATOM      8  C1  UNL d   1      -0.392  -1.606  -2.684  0.00  0.00     0.054 C 
ATOM      9  C   UNL d   1       0.776  -0.634  -2.608  0.00  0.00     0.018 C 
ENDBRANCH   1   8
TORSDOF 1
ENDMDL
