MODEL 1
REMARK minimizedAffinity 9.62959194
REMARK minimizedRMSD -1
REMARK  1 active torsions:
REMARK  status: ('A' for Active; 'I' for Inactive)
REMARK    1  A    between atoms: C1_2  and  C2_3 
ROOT
ATOM      1  C2  UNL d   1      -0.470  -0.910  -2.072  0.00  0.00    -0.081 A 
ATOM      2  C3  UNL d   1       0.131  -1.168  -3.310  0.00  0.00     0.006 A 
ATOM      3  C4  UNL d   1       1.470  -0.834  -3.530  0.00  0.00     0.002 A 
ATOM      4  C5  UNL d   1       2.231  -0.245  -2.515  0.00  0.00    -0.080 A 
ATOM      5  C6  UNL d   1       3.677   0.090  -2.728  0.00  0.00     0.076 C 
ATOM      6  C7  UNL d   1       1.625   0.029  -1.284  0.00  0.00     0.002 A 
ATOM      7  C8  UNL d   1       0.287  -0.303  -1.063  0.00  0.00     0.006 A 
ENDROOT
BRANCH   1   8
ATOM      8  C1  UNL d   1      -1.895  -1.327  -1.810  0.00  0.00     0.054 C 
ATOM      9  C   UNL d   1      -2.235  -1.235  -0.330  0.00  0.00     0.018 C 
ENDBRANCH   1   8
TORSDOF 1
ENDMDL
