MODEL 1
REMARK minimizedAffinity 16.0613308
REMARK minimizedRMSD -1
REMARK  1 active torsions:
REMARK  status: ('A' for Active; 'I' for Inactive)
REMARK    1  A    between atoms: C1_2  and  C2_3 
ROOT
ATOM      1  C2  UNL d   1      -4.289   4.426  -4.820  0.00  0.00    -0.081 A 
ATOM      2  C3  UNL d   1      -4.628   3.433  -5.746  0.00  0.00     0.006 A 
ATOM      3  C4  UNL d   1      -4.100   2.145  -5.628  0.00  0.00     0.002 A 
ATOM      4  C5  UNL d   1      -3.231   1.827  -4.579  0.00  0.00    -0.080 A 
ATOM      5  C6  UNL d   1      -2.681   0.440  -4.424  0.00  0.00     0.076 C 
ATOM      6  C7  UNL d   1      -2.878   2.824  -3.664  0.00  0.00     0.002 A 
ATOM      7  C8  UNL d   1      -3.405   4.112  -3.781  0.00  0.00     0.006 A 
ENDROOT
BRANCH   1   8
ATOM      8  C1  UNL d   1      -4.907   5.798  -4.906  0.00  0.00     0.054 C 
ATOM      9  C   UNL d   1      -5.997   5.848  -5.968  0.00  0.00     0.018 C 
ENDBRANCH   1   8
TORSDOF 1
ENDMDL
