MODEL 1
REMARK minimizedAffinity 14.796607
REMARK minimizedRMSD -1
REMARK  1 active torsions:
REMARK  status: ('A' for Active; 'I' for Inactive)
REMARK    1  A    between atoms: C1_2  and  C2_3 
ROOT
ATOM      1  C2  UNL d   1      -0.853  -2.533  -0.328  0.00  0.00    -0.081 A 
ATOM      2  C3  UNL d   1      -2.005  -1.878   0.124  0.00  0.00     0.006 A 
ATOM      3  C4  UNL d   1      -2.745  -1.069  -0.742  0.00  0.00     0.002 A 
ATOM      4  C5  UNL d   1      -2.351  -0.908  -2.074  0.00  0.00    -0.080 A 
ATOM      5  C6  UNL d   1      -3.154  -0.067  -3.022  0.00  0.00     0.076 C 
ATOM      6  C7  UNL d   1      -1.190  -1.548  -2.521  0.00  0.00     0.002 A 
ATOM      7  C8  UNL d   1      -0.449  -2.356  -1.656  0.00  0.00     0.006 A 
ENDROOT
BRANCH   1   8
ATOM      8  C1  UNL d   1      -0.088  -3.457   0.585  0.00  0.00     0.054 C 
ATOM      9  C   UNL d   1      -0.129  -4.892   0.080  0.00  0.00     0.018 C 
ENDBRANCH   1   8
TORSDOF 1
ENDMDL
