MODEL 1
REMARK minimizedAffinity 19.1712971
REMARK minimizedRMSD -1
REMARK  1 active torsions:
REMARK  status: ('A' for Active; 'I' for Inactive)
REMARK    1  A    between atoms: C1_2  and  C2_3 
ROOT
ATOM      1  C2  UNL d   1       4.829   3.685  -0.474  0.00  0.00    -0.081 A 
ATOM      2  C3  UNL d   1       5.135   2.861  -1.564  0.00  0.00     0.006 A 
ATOM      3  C4  UNL d   1       4.207   1.925  -2.026  0.00  0.00     0.002 A 
ATOM      4  C5  UNL d   1       2.956   1.802  -1.411  0.00  0.00    -0.080 A 
ATOM      5  C6  UNL d   1       1.940   0.821  -1.916  0.00  0.00     0.076 C 
ATOM      6  C7  UNL d   1       2.657   2.613  -0.311  0.00  0.00     0.002 A 
ATOM      7  C8  UNL d   1       3.585   3.549   0.151  0.00  0.00     0.006 A 
ENDROOT
BRANCH   1   8
ATOM      8  C1  UNL d   1       5.802   4.741  -0.015  0.00  0.00     0.054 C 
ATOM      9  C   UNL d   1       5.079   6.000   0.441  0.00  0.00     0.018 C 
ENDBRANCH   1   8
TORSDOF 1
ENDMDL
