MODEL 1
REMARK minimizedAffinity 23.8393841
REMARK minimizedRMSD -1
REMARK  1 active torsions:
REMARK  status: ('A' for Active; 'I' for Inactive)
REMARK    1  A    between atoms: C1_2  and  C2_3 
ROOT
ATOM      1  C2  UNL d   1       4.582   0.356  -3.418  0.00  0.00    -0.081 A 
ATOM      2  C3  UNL d   1       3.994  -0.778  -3.990  0.00  0.00     0.006 A 
ATOM      3  C4  UNL d   1       2.671  -1.115  -3.694  0.00  0.00     0.002 A 
ATOM      4  C5  UNL d   1       1.912  -0.320  -2.828  0.00  0.00    -0.080 A 
ATOM      5  C6  UNL d   1       0.482  -0.654  -2.526  0.00  0.00     0.076 C 
ATOM      6  C7  UNL d   1       2.506   0.803  -2.243  0.00  0.00     0.002 A 
ATOM      7  C8  UNL d   1       3.829   1.140  -2.538  0.00  0.00     0.006 A 
ENDROOT
BRANCH   1   8
ATOM      8  C1  UNL d   1       5.988   0.758  -3.785  0.00  0.00     0.054 C 
ATOM      9  C   UNL d   1       5.999   2.039  -4.608  0.00  0.00     0.018 C 
ENDBRANCH   1   8
TORSDOF 1
ENDMDL
