MODEL 1
REMARK minimizedAffinity 5.96346474
REMARK minimizedRMSD -1
REMARK  1 active torsions:
REMARK  status: ('A' for Active; 'I' for Inactive)
REMARK    1  A    between atoms: C1_2  and  C2_3 
ROOT
ATOM      1  C2  UNL d   1      -1.512  -2.328   1.564  0.00  0.00    -0.081 A 
ATOM      2  C3  UNL d   1      -0.615  -3.001   0.726  0.00  0.00     0.006 A 
ATOM      3  C4  UNL d   1      -0.639  -2.787  -0.654  0.00  0.00     0.002 A 
ATOM      4  C5  UNL d   1      -1.554  -1.891  -1.218  0.00  0.00    -0.080 A 
ATOM      5  C6  UNL d   1      -1.569  -1.629  -2.695  0.00  0.00     0.076 C 
ATOM      6  C7  UNL d   1      -2.462  -1.232  -0.382  0.00  0.00     0.002 A 
ATOM      7  C8  UNL d   1      -2.439  -1.446   0.997  0.00  0.00     0.006 A 
ENDROOT
BRANCH   1   8
ATOM      8  C1  UNL d   1      -1.446  -2.508   3.059  0.00  0.00     0.054 C 
ATOM      9  C   UNL d   1      -1.832  -1.229   3.788  0.00  0.00     0.018 C 
ENDBRANCH   1   8
TORSDOF 1
ENDMDL
