MODEL 1
REMARK minimizedAffinity 15.4891043
REMARK minimizedRMSD -1
REMARK  1 active torsions:
REMARK  status: ('A' for Active; 'I' for Inactive)
REMARK    1  A    between atoms: C1_2  and  C2_3 
ROOT
ATOM      1  C2  UNL d   1      -2.114  -2.154   1.570  0.00  0.00    -0.081 A 
ATOM      2  C3  UNL d   1      -1.085  -2.977   1.097  0.00  0.00     0.006 A 
ATOM      3  C4  UNL d   1      -0.615  -2.842  -0.212  0.00  0.00     0.002 A 
ATOM      4  C5  UNL d   1      -1.161  -1.877  -1.066  0.00  0.00    -0.080 A 
ATOM      5  C6  UNL d   1      -0.645  -1.701  -2.463  0.00  0.00     0.076 C 
ATOM      6  C7  UNL d   1      -2.201  -1.066  -0.598  0.00  0.00     0.002 A 
ATOM      7  C8  UNL d   1      -2.671  -1.201   0.710  0.00  0.00     0.006 A 
ENDROOT
BRANCH   1   8
ATOM      8  C1  UNL d   1      -2.578  -2.254   3.001  0.00  0.00     0.054 C 
ATOM      9  C   UNL d   1      -2.183  -1.018   3.798  0.00  0.00     0.018 C 
ENDBRANCH   1   8
TORSDOF 1
ENDMDL
