MODEL 1
REMARK minimizedAffinity 21.7521858
REMARK minimizedRMSD -1
REMARK  1 active torsions:
REMARK  status: ('A' for Active; 'I' for Inactive)
REMARK    1  A    between atoms: C1_2  and  C2_3 
ROOT
ATOM      1  C2  UNL d   1      -0.388   1.582  -4.421  0.00  0.00    -0.081 A 
ATOM      2  C3  UNL d   1      -0.273   0.187  -4.478  0.00  0.00     0.006 A 
ATOM      3  C4  UNL d   1       0.864  -0.451  -3.977  0.00  0.00     0.002 A 
ATOM      4  C5  UNL d   1       1.902   0.293  -3.405  0.00  0.00    -0.080 A 
ATOM      5  C6  UNL d   1       3.114  -0.382  -2.836  0.00  0.00     0.076 C 
ATOM      6  C7  UNL d   1       1.795   1.687  -3.364  0.00  0.00     0.002 A 
ATOM      7  C8  UNL d   1       0.659   2.326  -3.865  0.00  0.00     0.006 A 
ENDROOT
BRANCH   1   8
ATOM      8  C1  UNL d   1      -1.641   2.268  -4.902  0.00  0.00     0.054 C 
ATOM      9  C   UNL d   1      -2.873   1.737  -4.182  0.00  0.00     0.018 C 
ENDBRANCH   1   8
TORSDOF 1
ENDMDL
