MODEL 1
REMARK minimizedAffinity 19.6445904
REMARK minimizedRMSD -1
REMARK  1 active torsions:
REMARK  status: ('A' for Active; 'I' for Inactive)
REMARK    1  A    between atoms: C1_2  and  C2_3 
ROOT
ATOM      1  C2  UNL d   1       3.523   3.036   0.334  0.00  0.00    -0.081 A 
ATOM      2  C3  UNL d   1       4.346   2.034  -0.195  0.00  0.00     0.006 A 
ATOM      3  C4  UNL d   1       3.835   1.105  -1.104  0.00  0.00     0.002 A 
ATOM      4  C5  UNL d   1       2.496   1.165  -1.504  0.00  0.00    -0.080 A 
ATOM      5  C6  UNL d   1       1.942   0.191  -2.501  0.00  0.00     0.076 C 
ATOM      6  C7  UNL d   1       1.669   2.155  -0.962  0.00  0.00     0.002 A 
ATOM      7  C8  UNL d   1       2.179   3.084  -0.053  0.00  0.00     0.006 A 
ENDROOT
BRANCH   1   8
ATOM      8  C1  UNL d   1       4.087   4.079   1.264  0.00  0.00     0.054 C 
ATOM      9  C   UNL d   1       4.694   5.241   0.490  0.00  0.00     0.018 C 
ENDBRANCH   1   8
TORSDOF 1
ENDMDL
