MODEL 1
REMARK minimizedAffinity 14.8502779
REMARK minimizedRMSD -1
REMARK  1 active torsions:
REMARK  status: ('A' for Active; 'I' for Inactive)
REMARK    1  A    between atoms: C1_2  and  C2_3 
ROOT
ATOM      1  C2  UNL d   1       2.598   1.618  -0.813  0.00  0.00    -0.081 A 
ATOM      2  C3  UNL d   1       2.603   1.662  -2.212  0.00  0.00     0.006 A 
ATOM      3  C4  UNL d   1       1.858   0.740  -2.952  0.00  0.00     0.002 A 
ATOM      4  C5  UNL d   1       1.092  -0.236  -2.305  0.00  0.00    -0.080 A 
ATOM      5  C6  UNL d   1       0.265  -1.212  -3.087  0.00  0.00     0.076 C 
ATOM      6  C7  UNL d   1       1.102  -0.290  -0.907  0.00  0.00     0.002 A 
ATOM      7  C8  UNL d   1       1.846   0.631  -0.167  0.00  0.00     0.006 A 
ENDROOT
BRANCH   1   8
ATOM      8  C1  UNL d   1       3.348   2.652  -0.011  0.00  0.00     0.054 C 
ATOM      9  C   UNL d   1       3.344   2.312   1.472  0.00  0.00     0.018 C 
ENDBRANCH   1   8
TORSDOF 1
ENDMDL
