MODEL 1
REMARK minimizedAffinity 17.8705349
REMARK minimizedRMSD -1
REMARK  1 active torsions:
REMARK  status: ('A' for Active; 'I' for Inactive)
REMARK    1  A    between atoms: C1_2  and  C2_3 
ROOT
ATOM      1  C2  UNL d   1      -4.479   5.644  -3.983  0.00  0.00    -0.081 A 
ATOM      2  C3  UNL d   1      -5.410   6.000  -3.000  0.00  0.00     0.006 A 
ATOM      3  C4  UNL d   1      -5.128   5.789  -1.648  0.00  0.00     0.002 A 
ATOM      4  C5  UNL d   1      -3.908   5.226  -1.257  0.00  0.00    -0.080 A 
ATOM      5  C6  UNL d   1      -3.580   5.023   0.192  0.00  0.00     0.076 C 
ATOM      6  C7  UNL d   1      -2.985   4.855  -2.240  0.00  0.00     0.002 A 
ATOM      7  C8  UNL d   1      -3.267   5.065  -3.592  0.00  0.00     0.006 A 
ENDROOT
BRANCH   1   8
ATOM      8  C1  UNL d   1      -4.753   5.930  -5.438  0.00  0.00     0.054 C 
ATOM      9  C   UNL d   1      -5.940   5.124  -5.945  0.00  0.00     0.018 C 
ENDBRANCH   1   8
TORSDOF 1
ENDMDL
