MODEL 1
REMARK minimizedAffinity 20.9915447
REMARK minimizedRMSD -1
REMARK  1 active torsions:
REMARK  status: ('A' for Active; 'I' for Inactive)
REMARK    1  A    between atoms: C1_2  and  C2_3 
ROOT
ATOM      1  C2  UNL d   1       3.406   2.322  -0.118  0.00  0.00    -0.081 A 
ATOM      2  C3  UNL d   1       3.352   0.941   0.108  0.00  0.00     0.006 A 
ATOM      3  C4  UNL d   1       2.783   0.090  -0.842  0.00  0.00     0.002 A 
ATOM      4  C5  UNL d   1       2.267   0.603  -2.037  0.00  0.00    -0.080 A 
ATOM      5  C6  UNL d   1       1.681  -0.303  -3.079  0.00  0.00     0.076 C 
ATOM      6  C7  UNL d   1       2.306   1.985  -2.255  0.00  0.00     0.002 A 
ATOM      7  C8  UNL d   1       2.873   2.836  -1.305  0.00  0.00     0.006 A 
ENDROOT
BRANCH   1   8
ATOM      8  C1  UNL d   1       4.077   3.236   0.876  0.00  0.00     0.054 C 
ATOM      9  C   UNL d   1       4.950   4.268   0.177  0.00  0.00     0.018 C 
ENDBRANCH   1   8
TORSDOF 1
ENDMDL
