MODEL 1
REMARK minimizedAffinity 10.0269241
REMARK minimizedRMSD -1
REMARK  1 active torsions:
REMARK  status: ('A' for Active; 'I' for Inactive)
REMARK    1  A    between atoms: C1_2  and  C2_3 
ROOT
ATOM      1  C2  UNL d   1      -0.775  -2.100  -0.757  0.00  0.00    -0.081 A 
ATOM      2  C3  UNL d   1      -1.867  -1.416  -0.209  0.00  0.00     0.006 A 
ATOM      3  C4  UNL d   1      -2.320  -1.719   1.078  0.00  0.00     0.002 A 
ATOM      4  C5  UNL d   1      -1.684  -2.705   1.840  0.00  0.00    -0.080 A 
ATOM      5  C6  UNL d   1      -2.140  -3.019   3.233  0.00  0.00     0.076 C 
ATOM      6  C7  UNL d   1      -0.604  -3.401   1.286  0.00  0.00     0.002 A 
ATOM      7  C8  UNL d   1      -0.151  -3.099  -0.001  0.00  0.00     0.006 A 
ENDROOT
BRANCH   1   8
ATOM      8  C1  UNL d   1      -0.245  -1.731  -2.119  0.00  0.00     0.054 C 
ATOM      9  C   UNL d   1      -1.362  -1.673  -3.151  0.00  0.00     0.018 C 
ENDBRANCH   1   8
TORSDOF 1
ENDMDL
