MODEL 1
REMARK minimizedAffinity -0.109895207
REMARK minimizedRMSD -1
REMARK  3 active torsions:
REMARK  status: ('A' for Active; 'I' for Inactive)
REMARK    1  A    between atoms: C3'_2  and  C2'_3 
REMARK    2  A    between atoms: C2'_3  and  C1'_4 
REMARK    3  A    between atoms: C1'_4  and  C1_5 
ROOT
ATOM      1  C1  N4B d   1       3.464   5.290  -0.020  0.00  0.00    -0.075 A 
ATOM      2  C2  N4B d   1       4.566   5.772  -0.760  0.00  0.00     0.002 A 
ATOM      3  C3  N4B d   1       4.441   5.998  -2.109  0.00  0.00     0.002 A 
ATOM      4  C4  N4B d   1       3.234   5.733  -2.739  0.00  0.00    -0.004 A 
ATOM      5  C5  N4B d   1       2.167   5.292  -2.012  0.00  0.00     0.002 A 
ATOM      6  C6  N4B d   1       2.278   5.064  -0.655  0.00  0.00     0.002 A 
ENDROOT
BRANCH   1   7
ATOM      7  C1' N4B d   1       3.578   4.946   1.441  0.00  0.00     0.057 C 
BRANCH   7   8
ATOM      8  C2' N4B d   1       5.045   5.005   1.856  0.00  0.00     0.009 C 
BRANCH   8   9
ATOM      9  C3' N4B d   1       5.278   6.000   2.981  0.00  0.00     0.004 C 
ATOM     10  C4' N4B d   1       5.999   5.397   4.149  0.00  0.00     0.003 C 
ENDBRANCH   8   9
ENDBRANCH   7   8
ENDBRANCH   1   7
TORSDOF 3
ENDMDL
