MODEL 1
REMARK minimizedAffinity -1.32906985
REMARK minimizedRMSD -1
REMARK  3 active torsions:
REMARK  status: ('A' for Active; 'I' for Inactive)
REMARK    1  A    between atoms: C3'_2  and  C2'_3 
REMARK    2  A    between atoms: C2'_3  and  C1'_4 
REMARK    3  A    between atoms: C1'_4  and  C1_5 
ROOT
ATOM      1  C1  N4B d   1       3.345   1.996  -3.792  0.00  0.00    -0.075 A 
ATOM      2  C2  N4B d   1       4.006   0.811  -4.186  0.00  0.00     0.002 A 
ATOM      3  C3  N4B d   1       5.265   0.877  -4.732  0.00  0.00     0.002 A 
ATOM      4  C4  N4B d   1       5.871   2.111  -4.911  0.00  0.00    -0.004 A 
ATOM      5  C5  N4B d   1       5.236   3.248  -4.505  0.00  0.00     0.002 A 
ATOM      6  C6  N4B d   1       3.973   3.197  -3.950  0.00  0.00     0.002 A 
ENDROOT
BRANCH   1   7
ATOM      7  C1' N4B d   1       1.935   1.981  -3.269  0.00  0.00     0.057 C 
BRANCH   7   8
ATOM      8  C2' N4B d   1       1.307   0.621  -3.559  0.00  0.00     0.009 C 
BRANCH   8   9
ATOM      9  C3' N4B d   1       0.787  -0.045  -2.297  0.00  0.00     0.004 C 
ATOM     10  C4' N4B d   1       0.028   0.898  -1.412  0.00  0.00     0.003 C 
ENDBRANCH   8   9
ENDBRANCH   7   8
ENDBRANCH   1   7
TORSDOF 3
ENDMDL
