MODEL 1
REMARK minimizedAffinity 6.91199732
REMARK minimizedRMSD -1
REMARK  3 active torsions:
REMARK  status: ('A' for Active; 'I' for Inactive)
REMARK    1  A    between atoms: C3'_2  and  C2'_3 
REMARK    2  A    between atoms: C2'_3  and  C1'_4 
REMARK    3  A    between atoms: C1'_4  and  C1_5 
ROOT
ATOM      1  C1  N4B d   1      -0.258  -0.169  -0.921  0.00  0.00    -0.075 A 
ATOM      2  C2  N4B d   1       0.763   0.655  -1.443  0.00  0.00     0.002 A 
ATOM      3  C3  N4B d   1       2.011   0.133  -1.683  0.00  0.00     0.002 A 
ATOM      4  C4  N4B d   1       2.265  -1.199  -1.392  0.00  0.00    -0.004 A 
ATOM      5  C5  N4B d   1       1.266  -1.994  -0.911  0.00  0.00     0.002 A 
ATOM      6  C6  N4B d   1       0.007  -1.484  -0.669  0.00  0.00     0.002 A 
ENDROOT
BRANCH   1   7
ATOM      7  C1' N4B d   1      -1.613   0.377  -0.561  0.00  0.00     0.057 C 
BRANCH   7   8
ATOM      8  C2' N4B d   1      -2.646  -0.742  -0.661  0.00  0.00     0.009 C 
BRANCH   8   9
ATOM      9  C3' N4B d   1      -4.067  -0.206  -0.637  0.00  0.00     0.004 C 
ATOM     10  C4' N4B d   1      -4.833  -0.644   0.575  0.00  0.00     0.003 C 
ENDBRANCH   8   9
ENDBRANCH   7   8
ENDBRANCH   1   7
TORSDOF 3
ENDMDL
