MODEL 1
REMARK minimizedAffinity 6.26106501
REMARK minimizedRMSD -1
REMARK  3 active torsions:
REMARK  status: ('A' for Active; 'I' for Inactive)
REMARK    1  A    between atoms: C3'_2  and  C2'_3 
REMARK    2  A    between atoms: C2'_3  and  C1'_4 
REMARK    3  A    between atoms: C1'_4  and  C1_5 
ROOT
ATOM      1  C1  N4B d   1       2.943  -2.500   1.805  0.00  0.00    -0.075 A 
ATOM      2  C2  N4B d   1       3.118  -1.100   1.870  0.00  0.00     0.002 A 
ATOM      3  C3  N4B d   1       4.178  -0.572   2.565  0.00  0.00     0.002 A 
ATOM      4  C4  N4B d   1       5.061  -1.420   3.217  0.00  0.00    -0.004 A 
ATOM      5  C5  N4B d   1       4.900  -2.772   3.128  0.00  0.00     0.002 A 
ATOM      6  C6  N4B d   1       3.841  -3.316   2.429  0.00  0.00     0.002 A 
ENDROOT
BRANCH   1   7
ATOM      7  C1' N4B d   1       1.751  -3.121   1.129  0.00  0.00     0.057 C 
BRANCH   7   8
ATOM      8  C2' N4B d   1       1.853  -2.890  -0.376  0.00  0.00     0.009 C 
BRANCH   8   9
ATOM      9  C3' N4B d   1       0.940  -1.770  -0.843  0.00  0.00     0.004 C 
ATOM     10  C4' N4B d   1       1.433  -1.100  -2.091  0.00  0.00     0.003 C 
ENDBRANCH   8   9
ENDBRANCH   7   8
ENDBRANCH   1   7
TORSDOF 3
ENDMDL
