MODEL 1
REMARK minimizedAffinity 7.15221739
REMARK minimizedRMSD -1
REMARK  3 active torsions:
REMARK  status: ('A' for Active; 'I' for Inactive)
REMARK    1  A    between atoms: C3'_2  and  C2'_3 
REMARK    2  A    between atoms: C2'_3  and  C1'_4 
REMARK    3  A    between atoms: C1'_4  and  C1_5 
ROOT
ATOM      1  C1  N4B d   1      -0.085  -1.154  -1.092  0.00  0.00    -0.075 A 
ATOM      2  C2  N4B d   1      -0.226  -1.828  -2.324  0.00  0.00     0.002 A 
ATOM      3  C3  N4B d   1       0.877  -2.359  -2.947  0.00  0.00     0.002 A 
ATOM      4  C4  N4B d   1       2.129  -2.211  -2.368  0.00  0.00    -0.004 A 
ATOM      5  C5  N4B d   1       2.253  -1.581  -1.164  0.00  0.00     0.002 A 
ATOM      6  C6  N4B d   1       1.152  -1.046  -0.526  0.00  0.00     0.002 A 
ENDROOT
BRANCH   1   7
ATOM      7  C1' N4B d   1      -1.250  -0.483  -0.416  0.00  0.00     0.057 C 
BRANCH   7   8
ATOM      8  C2' N4B d   1      -2.547  -1.120  -0.905  0.00  0.00     0.009 C 
BRANCH   8   9
ATOM      9  C3' N4B d   1      -3.739  -0.197  -0.717  0.00  0.00     0.004 C 
ATOM     10  C4' N4B d   1      -4.838  -0.824   0.087  0.00  0.00     0.003 C 
ENDBRANCH   8   9
ENDBRANCH   7   8
ENDBRANCH   1   7
TORSDOF 3
ENDMDL
