MODEL 1
REMARK minimizedAffinity 0.275653005
REMARK minimizedRMSD -1
REMARK  3 active torsions:
REMARK  status: ('A' for Active; 'I' for Inactive)
REMARK    1  A    between atoms: C3'_2  and  C2'_3 
REMARK    2  A    between atoms: C2'_3  and  C1'_4 
REMARK    3  A    between atoms: C1'_4  and  C1_5 
ROOT
ATOM      1  C1  N4B d   1       1.371  -0.869  -1.176  0.00  0.00    -0.075 A 
ATOM      2  C2  N4B d   1       0.060  -0.830  -0.653  0.00  0.00     0.002 A 
ATOM      3  C3  N4B d   1      -0.674   0.328  -0.723  0.00  0.00     0.002 A 
ATOM      4  C4  N4B d   1      -0.113   1.461  -1.293  0.00  0.00    -0.004 A 
ATOM      5  C5  N4B d   1       1.144   1.409  -1.819  0.00  0.00     0.002 A 
ATOM      6  C6  N4B d   1       1.892   0.250  -1.759  0.00  0.00     0.002 A 
ENDROOT
BRANCH   1   7
ATOM      7  C1' N4B d   1       2.243  -2.088  -1.045  0.00  0.00     0.057 C 
BRANCH   7   8
ATOM      8  C2' N4B d   1       2.235  -2.555   0.408  0.00  0.00     0.009 C 
BRANCH   8   9
ATOM      9  C3' N4B d   1       1.481  -3.863   0.580  0.00  0.00     0.004 C 
ATOM     10  C4' N4B d   1       1.124  -4.143   2.009  0.00  0.00     0.003 C 
ENDBRANCH   8   9
ENDBRANCH   7   8
ENDBRANCH   1   7
TORSDOF 3
ENDMDL
