MODEL 1
REMARK minimizedAffinity 10.9515963
REMARK minimizedRMSD -1
REMARK  3 active torsions:
REMARK  status: ('A' for Active; 'I' for Inactive)
REMARK    1  A    between atoms: C3'_2  and  C2'_3 
REMARK    2  A    between atoms: C2'_3  and  C1'_4 
REMARK    3  A    between atoms: C1'_4  and  C1_5 
ROOT
ATOM      1  C1  N4B d   1       3.936   4.205  -0.368  0.00  0.00    -0.075 A 
ATOM      2  C2  N4B d   1       5.090   4.532   0.376  0.00  0.00     0.002 A 
ATOM      3  C3  N4B d   1       6.000   5.430  -0.126  0.00  0.00     0.002 A 
ATOM      4  C4  N4B d   1       5.786   5.997  -1.374  0.00  0.00    -0.004 A 
ATOM      5  C5  N4B d   1       4.655   5.695  -2.075  0.00  0.00     0.002 A 
ATOM      6  C6  N4B d   1       3.731   4.797  -1.580  0.00  0.00     0.002 A 
ENDROOT
BRANCH   1   7
ATOM      7  C1' N4B d   1       2.957   3.164   0.102  0.00  0.00     0.057 C 
BRANCH   7   8
ATOM      8  C2' N4B d   1       3.178   2.903   1.589  0.00  0.00     0.009 C 
BRANCH   8   9
ATOM      9  C3' N4B d   1       2.010   2.162   2.216  0.00  0.00     0.004 C 
ATOM     10  C4' N4B d   1       0.698   2.493   1.570  0.00  0.00     0.003 C 
ENDBRANCH   8   9
ENDBRANCH   7   8
ENDBRANCH   1   7
TORSDOF 3
ENDMDL
