MODEL 1
REMARK minimizedAffinity 6.53471422
REMARK minimizedRMSD -1
REMARK  3 active torsions:
REMARK  status: ('A' for Active; 'I' for Inactive)
REMARK    1  A    between atoms: C3'_2  and  C2'_3 
REMARK    2  A    between atoms: C2'_3  and  C1'_4 
REMARK    3  A    between atoms: C1'_4  and  C1_5 
ROOT
ATOM      1  C1  N4B d   1       2.428  -3.106  -0.510  0.00  0.00    -0.075 A 
ATOM      2  C2  N4B d   1       1.872  -2.824   0.757  0.00  0.00     0.002 A 
ATOM      3  C3  N4B d   1       1.528  -3.852   1.600  0.00  0.00     0.002 A 
ATOM      4  C4  N4B d   1       1.711  -5.164   1.192  0.00  0.00    -0.004 A 
ATOM      5  C5  N4B d   1       2.272  -5.428  -0.023  0.00  0.00     0.002 A 
ATOM      6  C6  N4B d   1       2.627  -4.405  -0.879  0.00  0.00     0.002 A 
ENDROOT
BRANCH   1   7
ATOM      7  C1' N4B d   1       2.741  -2.018  -1.501  0.00  0.00     0.057 C 
BRANCH   7   8
ATOM      8  C2' N4B d   1       1.462  -1.626  -2.234  0.00  0.00     0.009 C 
BRANCH   8   9
ATOM      9  C3' N4B d   1       1.495  -0.180  -2.700  0.00  0.00     0.004 C 
ATOM     10  C4' N4B d   1       1.062   0.783  -1.636  0.00  0.00     0.003 C 
ENDBRANCH   8   9
ENDBRANCH   7   8
ENDBRANCH   1   7
TORSDOF 3
ENDMDL
