MODEL 1
REMARK minimizedAffinity -0.784341037
REMARK minimizedRMSD -1
REMARK  3 active torsions:
REMARK  status: ('A' for Active; 'I' for Inactive)
REMARK    1  A    between atoms: C3'_2  and  C2'_3 
REMARK    2  A    between atoms: C2'_3  and  C1'_4 
REMARK    3  A    between atoms: C1'_4  and  C1_5 
ROOT
ATOM      1  C1  N4B d   1       0.811   0.181  -1.510  0.00  0.00    -0.075 A 
ATOM      2  C2  N4B d   1       2.026  -0.406  -1.926  0.00  0.00     0.002 A 
ATOM      3  C3  N4B d   1       2.316  -1.703  -1.580  0.00  0.00     0.002 A 
ATOM      4  C4  N4B d   1       1.419  -2.423  -0.805  0.00  0.00    -0.004 A 
ATOM      5  C5  N4B d   1       0.236  -1.857  -0.428  0.00  0.00     0.002 A 
ATOM      6  C6  N4B d   1      -0.070  -0.555  -0.772  0.00  0.00     0.002 A 
ENDROOT
BRANCH   1   7
ATOM      7  C1' N4B d   1       0.489   1.623  -1.791  0.00  0.00     0.057 C 
BRANCH   7   8
ATOM      8  C2' N4B d   1      -0.760   2.019  -1.009  0.00  0.00     0.009 C 
BRANCH   8   9
ATOM      9  C3' N4B d   1      -0.434   2.937   0.156  0.00  0.00     0.004 C 
ATOM     10  C4' N4B d   1      -1.660   3.474   0.833  0.00  0.00     0.003 C 
ENDBRANCH   8   9
ENDBRANCH   7   8
ENDBRANCH   1   7
TORSDOF 3
ENDMDL
