MODEL 1
REMARK minimizedAffinity 1.08808053
REMARK minimizedRMSD -1
REMARK  3 active torsions:
REMARK  status: ('A' for Active; 'I' for Inactive)
REMARK    1  A    between atoms: C3'_2  and  C2'_3 
REMARK    2  A    between atoms: C2'_3  and  C1'_4 
REMARK    3  A    between atoms: C1'_4  and  C1_5 
ROOT
ATOM      1  C1  N4B d   1       2.561   1.180  -2.270  0.00  0.00    -0.075 A 
ATOM      2  C2  N4B d   1       3.929   0.953  -2.003  0.00  0.00     0.002 A 
ATOM      3  C3  N4B d   1       4.352  -0.287  -1.589  0.00  0.00     0.002 A 
ATOM      4  C4  N4B d   1       3.426  -1.305  -1.418  0.00  0.00    -0.004 A 
ATOM      5  C5  N4B d   1       2.110  -1.085  -1.703  0.00  0.00     0.002 A 
ATOM      6  C6  N4B d   1       1.672   0.155  -2.123  0.00  0.00     0.002 A 
ENDROOT
BRANCH   1   7
ATOM      7  C1' N4B d   1       2.039   2.541  -2.641  0.00  0.00     0.057 C 
BRANCH   7   8
ATOM      8  C2' N4B d   1       3.163   3.563  -2.502  0.00  0.00     0.009 C 
BRANCH   8   9
ATOM      9  C3' N4B d   1       2.796   4.900  -3.122  0.00  0.00     0.004 C 
ATOM     10  C4' N4B d   1       3.772   5.987  -2.781  0.00  0.00     0.003 C 
ENDBRANCH   8   9
ENDBRANCH   7   8
ENDBRANCH   1   7
TORSDOF 3
ENDMDL
