MODEL 1
REMARK minimizedAffinity 5.53598976
REMARK minimizedRMSD -1
REMARK  3 active torsions:
REMARK  status: ('A' for Active; 'I' for Inactive)
REMARK    1  A    between atoms: C3'_2  and  C2'_3 
REMARK    2  A    between atoms: C2'_3  and  C1'_4 
REMARK    3  A    between atoms: C1'_4  and  C1_5 
ROOT
ATOM      1  C1  N4B d   1       1.038  -0.194  -1.135  0.00  0.00    -0.075 A 
ATOM      2  C2  N4B d   1       1.661  -0.926  -2.171  0.00  0.00     0.002 A 
ATOM      3  C3  N4B d   1       2.263  -2.129  -1.895  0.00  0.00     0.002 A 
ATOM      4  C4  N4B d   1       2.272  -2.610  -0.595  0.00  0.00    -0.004 A 
ATOM      5  C5  N4B d   1       1.646  -1.910   0.395  0.00  0.00     0.002 A 
ATOM      6  C6  N4B d   1       1.033  -0.701   0.132  0.00  0.00     0.002 A 
ENDROOT
BRANCH   1   7
ATOM      7  C1' N4B d   1       0.442   1.166  -1.372  0.00  0.00     0.057 C 
BRANCH   7   8
ATOM      8  C2' N4B d   1       0.742   2.060  -0.172  0.00  0.00     0.009 C 
BRANCH   8   9
ATOM      9  C3' N4B d   1       2.172   2.573  -0.189  0.00  0.00     0.004 C 
ATOM     10  C4' N4B d   1       2.769   2.674   1.183  0.00  0.00     0.003 C 
ENDBRANCH   8   9
ENDBRANCH   7   8
ENDBRANCH   1   7
TORSDOF 3
ENDMDL
