MODEL 1
REMARK minimizedAffinity -4.15145493
REMARK minimizedRMSD -1
REMARK  3 active torsions:
REMARK  status: ('A' for Active; 'I' for Inactive)
REMARK    1  A    between atoms: C3'_2  and  C2'_3 
REMARK    2  A    between atoms: C2'_3  and  C1'_4 
REMARK    3  A    between atoms: C1'_4  and  C1_5 
ROOT
ATOM      1  C1  N4B d   1       2.059  -2.235  -0.868  0.00  0.00    -0.075 A 
ATOM      2  C2  N4B d   1       0.775  -1.652  -0.934  0.00  0.00     0.002 A 
ATOM      3  C3  N4B d   1       0.624  -0.377  -1.423  0.00  0.00     0.002 A 
ATOM      4  C4  N4B d   1       1.740   0.337  -1.832  0.00  0.00    -0.004 A 
ATOM      5  C5  N4B d   1       2.974  -0.243  -1.788  0.00  0.00     0.002 A 
ATOM      6  C6  N4B d   1       3.140  -1.524  -1.303  0.00  0.00     0.002 A 
ENDROOT
BRANCH   1   7
ATOM      7  C1' N4B d   1       2.284  -3.593  -0.261  0.00  0.00     0.057 C 
BRANCH   7   8
ATOM      8  C2' N4B d   1       1.811  -3.578   1.189  0.00  0.00     0.009 C 
BRANCH   8   9
ATOM      9  C3' N4B d   1       1.919  -4.949   1.836  0.00  0.00     0.004 C 
ATOM     10  C4' N4B d   1       2.435  -5.996   0.895  0.00  0.00     0.003 C 
ENDBRANCH   8   9
ENDBRANCH   7   8
ENDBRANCH   1   7
TORSDOF 3
ENDMDL
