MODEL 1
REMARK minimizedAffinity 4.81871033
REMARK minimizedRMSD -1
REMARK  3 active torsions:
REMARK  status: ('A' for Active; 'I' for Inactive)
REMARK    1  A    between atoms: C3'_2  and  C2'_3 
REMARK    2  A    between atoms: C2'_3  and  C1'_4 
REMARK    3  A    between atoms: C1'_4  and  C1_5 
ROOT
ATOM      1  C1  N4B d   1       1.391  -2.760  -0.741  0.00  0.00    -0.075 A 
ATOM      2  C2  N4B d   1       1.142  -3.136   0.597  0.00  0.00     0.002 A 
ATOM      3  C3  N4B d   1       1.943  -4.069   1.208  0.00  0.00     0.002 A 
ATOM      4  C4  N4B d   1       2.983  -4.651   0.499  0.00  0.00    -0.004 A 
ATOM      5  C5  N4B d   1       3.233  -4.263  -0.785  0.00  0.00     0.002 A 
ATOM      6  C6  N4B d   1       2.438  -3.324  -1.411  0.00  0.00     0.002 A 
ENDROOT
BRANCH   1   7
ATOM      7  C1' N4B d   1       0.490  -1.809  -1.480  0.00  0.00     0.057 C 
BRANCH   7   8
ATOM      8  C2' N4B d   1       1.343  -0.850  -2.305  0.00  0.00     0.009 C 
BRANCH   8   9
ATOM      9  C3' N4B d   1       1.592   0.460  -1.578  0.00  0.00     0.004 C 
ATOM     10  C4' N4B d   1       0.378   1.340  -1.536  0.00  0.00     0.003 C 
ENDBRANCH   8   9
ENDBRANCH   7   8
ENDBRANCH   1   7
TORSDOF 3
ENDMDL
