MODEL 1
REMARK minimizedAffinity -2.52195573
REMARK minimizedRMSD -1
REMARK  0 active torsions:
REMARK  status: ('A' for Active; 'I' for Inactive)
ROOT
ATOM      1  C   UNL d   1       0.838  -0.343  -0.943  0.00  0.00     0.172 C 
ATOM      2  N   UNL d   1       0.631   0.254   0.355  0.00  0.00    -0.070 N 
ATOM      3  C1  UNL d   1       1.558   0.318   1.361  0.00  0.00    -0.004 A 
ATOM      4  C2  UNL d   1       0.976   0.962   2.431  0.00  0.00    -0.047 A 
ATOM      5  C3  UNL d   1      -0.347   1.296   2.056  0.00  0.00    -0.047 A 
ATOM      6  C4  UNL d   1      -0.534   0.846   0.766  0.00  0.00    -0.004 A 
ENDROOT
TORSDOF 0
ENDMDL
