MODEL 1
REMARK minimizedAffinity -3.03070045
REMARK minimizedRMSD -1
REMARK  0 active torsions:
REMARK  status: ('A' for Active; 'I' for Inactive)
ROOT
ATOM      1  C   UNL d   1      -0.586  -0.275  -0.019  0.00  0.00     0.172 C 
ATOM      2  N   UNL d   1      -0.364   0.092   1.360  0.00  0.00    -0.070 N 
ATOM      3  C1  UNL d   1      -1.324   0.150   2.335  0.00  0.00    -0.004 A 
ATOM      4  C2  UNL d   1      -0.711   0.538   3.507  0.00  0.00    -0.047 A 
ATOM      5  C3  UNL d   1       0.663   0.721   3.226  0.00  0.00    -0.047 A 
ATOM      6  C4  UNL d   1       0.851   0.439   1.890  0.00  0.00    -0.004 A 
ENDROOT
TORSDOF 0
ENDMDL
