MODEL 1
REMARK minimizedAffinity -3.52930856
REMARK minimizedRMSD -1
REMARK  0 active torsions:
REMARK  status: ('A' for Active; 'I' for Inactive)
ROOT
ATOM      1  C   UNL d   1      -1.950  -0.692  -0.076  0.00  0.00     0.172 C 
ATOM      2  N   UNL d   1      -1.058  -0.162   0.929  0.00  0.00    -0.070 N 
ATOM      3  C1  UNL d   1      -1.423   0.252   2.182  0.00  0.00    -0.004 A 
ATOM      4  C2  UNL d   1      -0.288   0.686   2.830  0.00  0.00    -0.047 A 
ATOM      5  C3  UNL d   1       0.798   0.528   1.936  0.00  0.00    -0.047 A 
ATOM      6  C4  UNL d   1       0.292   0.001   0.766  0.00  0.00    -0.004 A 
ENDROOT
TORSDOF 0
ENDMDL
