MODEL 1
REMARK minimizedAffinity -3.95449948
REMARK minimizedRMSD -1
REMARK  0 active torsions:
REMARK  status: ('A' for Active; 'I' for Inactive)
ROOT
ATOM      1  C   UNL d   1       0.356  -0.581  -1.001  0.00  0.00     0.172 C 
ATOM      2  N   UNL d   1      -0.167   0.073   0.175  0.00  0.00    -0.070 N 
ATOM      3  C1  UNL d   1       0.546   0.872   1.029  0.00  0.00    -0.004 A 
ATOM      4  C2  UNL d   1      -0.310   1.300   2.020  0.00  0.00    -0.047 A 
ATOM      5  C3  UNL d   1      -1.581   0.737   1.754  0.00  0.00    -0.047 A 
ATOM      6  C4  UNL d   1      -1.464  -0.018   0.606  0.00  0.00    -0.004 A 
ENDROOT
TORSDOF 0
ENDMDL
