MODEL 1
REMARK minimizedAffinity 12.8446703
REMARK minimizedRMSD -1
REMARK  1 active torsions:
REMARK  status: ('A' for Active; 'I' for Inactive)
REMARK    1  A    between atoms: C1_2  and  C2_3 
ROOT
ATOM      1  C2  UNL d   1      -1.467  -3.477  -5.095  0.00  0.00    -0.081 A 
ATOM      2  C3  UNL d   1      -0.447  -3.156  -5.999  0.00  0.00     0.006 A 
ATOM      3  C4  UNL d   1       0.332  -2.012  -5.812  0.00  0.00     0.002 A 
ATOM      4  C5  UNL d   1       0.110  -1.174  -4.715  0.00  0.00    -0.080 A 
ATOM      5  C6  UNL d   1       0.958   0.042  -4.486  0.00  0.00     0.076 C 
ATOM      6  C7  UNL d   1      -0.920  -1.484  -3.820  0.00  0.00     0.002 A 
ATOM      7  C8  UNL d   1      -1.700  -2.628  -4.007  0.00  0.00     0.006 A 
ENDROOT
BRANCH   1   8
ATOM      8  C1  UNL d   1      -2.266  -4.744  -5.258  0.00  0.00     0.054 C 
ATOM      9  C   UNL d   1      -3.569  -4.485  -6.000  0.00  0.00     0.018 C 
ENDBRANCH   1   8
TORSDOF 1
ENDMDL
