MODEL 1
REMARK minimizedAffinity 10.1906338
REMARK minimizedRMSD -1
REMARK  1 active torsions:
REMARK  status: ('A' for Active; 'I' for Inactive)
REMARK    1  A    between atoms: C1_2  and  C2_3 
ROOT
ATOM      1  C2  UNL d   1      -0.044  -1.140  -4.715  0.00  0.00    -0.081 A 
ATOM      2  C3  UNL d   1      -1.263  -1.500  -4.128  0.00  0.00     0.006 A 
ATOM      3  C4  UNL d   1      -1.886  -2.703  -4.471  0.00  0.00     0.002 A 
ATOM      4  C5  UNL d   1      -1.297  -3.567  -5.400  0.00  0.00    -0.080 A 
ATOM      5  C6  UNL d   1      -1.940  -4.875  -5.754  0.00  0.00     0.076 C 
ATOM      6  C7  UNL d   1      -0.087  -3.199  -5.999  0.00  0.00     0.002 A 
ATOM      7  C8  UNL d   1       0.536  -1.997  -5.657  0.00  0.00     0.006 A 
ENDROOT
BRANCH   1   8
ATOM      8  C1  UNL d   1       0.662   0.125  -4.299  0.00  0.00     0.054 C 
ATOM      9  C   UNL d   1       2.110   0.131  -4.768  0.00  0.00     0.018 C 
ENDBRANCH   1   8
TORSDOF 1
ENDMDL
