MODEL 1
REMARK minimizedAffinity 17.2808895
REMARK minimizedRMSD -1
REMARK  1 active torsions:
REMARK  status: ('A' for Active; 'I' for Inactive)
REMARK    1  A    between atoms: C1_2  and  C2_3 
ROOT
ATOM      1  C2  UNL d   1      -5.958   1.842  -1.382  0.00  0.00    -0.081 A 
ATOM      2  C3  UNL d   1      -5.978   2.846  -2.357  0.00  0.00     0.006 A 
ATOM      3  C4  UNL d   1      -6.000   4.193  -1.987  0.00  0.00     0.002 A 
ATOM      4  C5  UNL d   1      -5.995   4.557  -0.636  0.00  0.00    -0.080 A 
ATOM      5  C6  UNL d   1      -5.988   6.000  -0.225  0.00  0.00     0.076 C 
ATOM      6  C7  UNL d   1      -5.992   3.554   0.339  0.00  0.00     0.002 A 
ATOM      7  C8  UNL d   1      -5.971   2.207  -0.031  0.00  0.00     0.006 A 
ENDROOT
BRANCH   1   8
ATOM      8  C1  UNL d   1      -5.868   0.390  -1.778  0.00  0.00     0.054 C 
ATOM      9  C   UNL d   1      -5.013   0.208  -3.024  0.00  0.00     0.018 C 
ENDBRANCH   1   8
TORSDOF 1
ENDMDL
