MODEL 1
REMARK minimizedAffinity 7.25601816
REMARK minimizedRMSD -1
REMARK  1 active torsions:
REMARK  status: ('A' for Active; 'I' for Inactive)
REMARK    1  A    between atoms: C1_2  and  C2_3 
ROOT
ATOM      1  C2  UNL d   1       3.072  -3.477   4.659  0.00  0.00    -0.081 A 
ATOM      2  C3  UNL d   1       3.593  -2.273   4.170  0.00  0.00     0.006 A 
ATOM      3  C4  UNL d   1       2.743  -1.287   3.663  0.00  0.00     0.002 A 
ATOM      4  C5  UNL d   1       1.358  -1.486   3.643  0.00  0.00    -0.080 A 
ATOM      5  C6  UNL d   1       0.432  -0.424   3.129  0.00  0.00     0.076 C 
ATOM      6  C7  UNL d   1       0.839  -2.696   4.115  0.00  0.00     0.002 A 
ATOM      7  C8  UNL d   1       1.689  -3.682   4.622  0.00  0.00     0.006 A 
ENDROOT
BRANCH   1   8
ATOM      8  C1  UNL d   1       3.981  -4.515   5.267  0.00  0.00     0.054 C 
ATOM      9  C   UNL d   1       5.437  -4.256   4.903  0.00  0.00     0.018 C 
ENDBRANCH   1   8
TORSDOF 1
ENDMDL
