MODEL 1
REMARK minimizedAffinity -5.68211412
REMARK minimizedRMSD -1
REMARK  1 active torsions:
REMARK  status: ('A' for Active; 'I' for Inactive)
REMARK    1  A    between atoms: C1_2  and  C2_3 
ROOT
ATOM      1  C2  UNL d   1       0.468   0.620   0.704  0.00  0.00    -0.077 A 
ATOM      2  C3  UNL d   1       1.578   0.255  -0.071  0.00  0.00     0.002 A 
ATOM      3  C4  UNL d   1       2.784   0.947   0.052  0.00  0.00     0.002 A 
ATOM      4  C5  UNL d   1       2.892   2.007   0.951  0.00  0.00    -0.004 A 
ATOM      5  C6  UNL d   1       1.793   2.380   1.724  0.00  0.00     0.002 A 
ATOM      6  C7  UNL d   1       0.587   1.689   1.601  0.00  0.00     0.002 A 
ENDROOT
BRANCH   1   7
ATOM      7  C1  UNL d   1      -0.819  -0.157   0.608  0.00  0.00     0.055 C 
ATOM      8  C   UNL d   1      -1.434  -0.379   1.982  0.00  0.00     0.019 C 
ENDBRANCH   1   7
TORSDOF 1
ENDMDL
