MODEL 1
REMARK minimizedAffinity -2.43611789
REMARK minimizedRMSD -1
REMARK  1 active torsions:
REMARK  status: ('A' for Active; 'I' for Inactive)
REMARK    1  A    between atoms: C1_2  and  C2_3 
ROOT
ATOM      1  C2  UNL d   1       0.926   1.442   0.558  0.00  0.00    -0.077 A 
ATOM      2  C3  UNL d   1      -0.246   0.848   1.048  0.00  0.00     0.002 A 
ATOM      3  C4  UNL d   1      -0.793  -0.267   0.410  0.00  0.00     0.002 A 
ATOM      4  C5  UNL d   1      -0.173  -0.799  -0.719  0.00  0.00    -0.004 A 
ATOM      5  C6  UNL d   1       0.991  -0.215  -1.215  0.00  0.00     0.002 A 
ATOM      6  C7  UNL d   1       1.539   0.900  -0.579  0.00  0.00     0.002 A 
ENDROOT
BRANCH   1   7
ATOM      7  C1  UNL d   1       1.545   2.614   1.273  0.00  0.00     0.055 C 
ATOM      8  C   UNL d   1       1.842   2.280   2.728  0.00  0.00     0.019 C 
ENDBRANCH   1   7
TORSDOF 1
ENDMDL
