MODEL 1
REMARK minimizedAffinity -6.0598464
REMARK minimizedRMSD -1
REMARK  1 active torsions:
REMARK  status: ('A' for Active; 'I' for Inactive)
REMARK    1  A    between atoms: C1_2  and  C2_3 
ROOT
ATOM      1  C2  UNL d   1       1.029   0.917   0.085  0.00  0.00    -0.077 A 
ATOM      2  C3  UNL d   1       2.415   1.128   0.062  0.00  0.00     0.002 A 
ATOM      3  C4  UNL d   1       2.992   2.121   0.855  0.00  0.00     0.002 A 
ATOM      4  C5  UNL d   1       2.192   2.909   1.680  0.00  0.00    -0.004 A 
ATOM      5  C6  UNL d   1       0.812   2.708   1.709  0.00  0.00     0.002 A 
ATOM      6  C7  UNL d   1       0.234   1.717   0.916  0.00  0.00     0.002 A 
ENDROOT
BRANCH   1   7
ATOM      7  C1  UNL d   1       0.410  -0.186  -0.732  0.00  0.00     0.055 C 
ATOM      8  C   UNL d   1      -0.755  -0.833   0.003  0.00  0.00     0.019 C 
ENDBRANCH   1   7
TORSDOF 1
ENDMDL
