MODEL 1
REMARK minimizedAffinity -1.30530679
REMARK minimizedRMSD -1
REMARK  1 active torsions:
REMARK  status: ('A' for Active; 'I' for Inactive)
REMARK    1  A    between atoms: C1_2  and  C2_3 
ROOT
ATOM      1  C2  UNL d   1       1.016   0.981  -0.085  0.00  0.00    -0.077 A 
ATOM      2  C3  UNL d   1       1.471  -0.077  -0.884  0.00  0.00     0.002 A 
ATOM      3  C4  UNL d   1       0.733  -1.259  -0.978  0.00  0.00     0.002 A 
ATOM      4  C5  UNL d   1      -0.465  -1.392  -0.279  0.00  0.00    -0.004 A 
ATOM      5  C6  UNL d   1      -0.925  -0.346   0.519  0.00  0.00     0.002 A 
ATOM      6  C7  UNL d   1      -0.189   0.836   0.615  0.00  0.00     0.002 A 
ENDROOT
BRANCH   1   7
ATOM      7  C1  UNL d   1       1.785   2.275  -0.021  0.00  0.00     0.055 C 
ATOM      8  C   UNL d   1       1.658   2.927   1.348  0.00  0.00     0.019 C 
ENDBRANCH   1   7
TORSDOF 1
ENDMDL
