MODEL 1
REMARK minimizedAffinity -5.27017403
REMARK minimizedRMSD -1
REMARK  1 active torsions:
REMARK  status: ('A' for Active; 'I' for Inactive)
REMARK    1  A    between atoms: C1_2  and  C2_3 
ROOT
ATOM      1  C2  UNL d   1       0.286   0.150   0.262  0.00  0.00    -0.077 A 
ATOM      2  C3  UNL d   1       1.550   0.745   0.143  0.00  0.00     0.002 A 
ATOM      3  C4  UNL d   1       1.856   1.901   0.863  0.00  0.00     0.002 A 
ATOM      4  C5  UNL d   1       0.907   2.469   1.709  0.00  0.00    -0.004 A 
ATOM      5  C6  UNL d   1      -0.353   1.886   1.833  0.00  0.00     0.002 A 
ATOM      6  C7  UNL d   1      -0.662   0.731   1.113  0.00  0.00     0.002 A 
ENDROOT
BRANCH   1   7
ATOM      7  C1  UNL d   1      -0.030  -1.125  -0.476  0.00  0.00     0.055 C 
ATOM      8  C   UNL d   1      -1.002  -0.876  -1.620  0.00  0.00     0.019 C 
ENDBRANCH   1   7
TORSDOF 1
ENDMDL
