MODEL 1
REMARK minimizedAffinity -5.31513357
REMARK minimizedRMSD -1
REMARK  1 active torsions:
REMARK  status: ('A' for Active; 'I' for Inactive)
REMARK    1  A    between atoms: C1_2  and  C2_3 
ROOT
ATOM      1  C2  UNL d   1       0.303   0.158   0.210  0.00  0.00    -0.077 A 
ATOM      2  C3  UNL d   1       1.572   0.625  -0.161  0.00  0.00     0.002 A 
ATOM      3  C4  UNL d   1       2.060   1.827   0.354  0.00  0.00     0.002 A 
ATOM      4  C5  UNL d   1       1.289   2.570   1.245  0.00  0.00    -0.004 A 
ATOM      5  C6  UNL d   1       0.025   2.116   1.618  0.00  0.00     0.002 A 
ATOM      6  C7  UNL d   1      -0.466   0.915   1.104  0.00  0.00     0.002 A 
ENDROOT
BRANCH   1   7
ATOM      7  C1  UNL d   1      -0.206  -1.162  -0.306  0.00  0.00     0.055 C 
ATOM      8  C   UNL d   1      -0.749  -1.032  -1.722  0.00  0.00     0.019 C 
ENDBRANCH   1   7
TORSDOF 1
ENDMDL
