MODEL 1
REMARK minimizedAffinity -6.27043056
REMARK minimizedRMSD -1
REMARK  1 active torsions:
REMARK  status: ('A' for Active; 'I' for Inactive)
REMARK    1  A    between atoms: C1_2  and  C2_3 
ROOT
ATOM      1  C2  UNL d   1       0.932   0.804   0.039  0.00  0.00    -0.077 A 
ATOM      2  C3  UNL d   1       2.327   0.663   0.001  0.00  0.00     0.002 A 
ATOM      3  C4  UNL d   1       3.148   1.588   0.648  0.00  0.00     0.002 A 
ATOM      4  C5  UNL d   1       2.585   2.658   1.341  0.00  0.00    -0.004 A 
ATOM      5  C6  UNL d   1       1.199   2.808   1.382  0.00  0.00     0.002 A 
ATOM      6  C7  UNL d   1       0.377   1.885   0.735  0.00  0.00     0.002 A 
ENDROOT
BRANCH   1   7
ATOM      7  C1  UNL d   1       0.043  -0.220  -0.617  0.00  0.00     0.055 C 
ATOM      8  C   UNL d   1       0.516  -1.635  -0.319  0.00  0.00     0.019 C 
ENDBRANCH   1   7
TORSDOF 1
ENDMDL
