MODEL 1
REMARK minimizedAffinity -3.21926427
REMARK minimizedRMSD -1
REMARK  1 active torsions:
REMARK  status: ('A' for Active; 'I' for Inactive)
REMARK    1  A    between atoms: C1_2  and  C2_3 
ROOT
ATOM      1  C2  UNL d   1       0.816   0.700  -0.256  0.00  0.00    -0.077 A 
ATOM      2  C3  UNL d   1       1.966  -0.007  -0.637  0.00  0.00     0.002 A 
ATOM      3  C4  UNL d   1       3.234   0.498  -0.344  0.00  0.00     0.002 A 
ATOM      4  C5  UNL d   1       3.365   1.708   0.334  0.00  0.00    -0.004 A 
ATOM      5  C6  UNL d   1       2.228   2.419   0.715  0.00  0.00     0.002 A 
ATOM      6  C7  UNL d   1       0.959   1.917   0.422  0.00  0.00     0.002 A 
ENDROOT
BRANCH   1   7
ATOM      7  C1  UNL d   1      -0.553   0.133  -0.528  0.00  0.00     0.055 C 
ATOM      8  C   UNL d   1      -0.483  -1.350  -0.859  0.00  0.00     0.019 C 
ENDBRANCH   1   7
TORSDOF 1
ENDMDL
