MODEL 1
REMARK minimizedAffinity 6.8672576
REMARK minimizedRMSD -1
REMARK  2 active torsions:
REMARK  status: ('A' for Active; 'I' for Inactive)
REMARK    1  A    between atoms: C2'_3  and  C1'_4 
REMARK    2  A    between atoms: C1'_4  and  C1_5 
ROOT
ATOM      1  C1  I4B d   1       1.447  -3.245  -3.300  0.00  0.00    -0.075 A 
ATOM      2  C2  I4B d   1       1.238  -2.259  -2.368  0.00  0.00     0.003 A 
ATOM      3  C3  I4B d   1       1.443  -2.524  -0.992  0.00  0.00     0.002 A 
ATOM      4  C4  I4B d   1       1.805  -3.793  -0.591  0.00  0.00    -0.004 A 
ATOM      5  C5  I4B d   1       2.038  -4.786  -1.539  0.00  0.00     0.002 A 
ATOM      6  C6  I4B d   1       1.870  -4.507  -2.903  0.00  0.00     0.003 A 
ENDROOT
BRANCH   1   7
ATOM      7  C1' I4B d   1       1.189  -2.940  -4.741  0.00  0.00     0.060 C 
BRANCH   7   8
ATOM      8  C2' I4B d   1       2.220  -1.926  -5.195  0.00  0.00    -0.013 C 
ATOM      9  C4' I4B d   1       3.312  -2.581  -5.999  0.00  0.00     0.013 C 
ATOM     10  C3' I4B d   1       1.513  -0.875  -5.998  0.00  0.00     0.013 C 
ENDBRANCH   7   8
ENDBRANCH   1   7
TORSDOF 2
ENDMDL
