MODEL 1
REMARK minimizedAffinity 25.0110817
REMARK minimizedRMSD -1
REMARK  2 active torsions:
REMARK  status: ('A' for Active; 'I' for Inactive)
REMARK    1  A    between atoms: C2'_3  and  C1'_4 
REMARK    2  A    between atoms: C1'_4  and  C1_5 
ROOT
ATOM      1  C1  I4B d   1      -0.159   2.757  -1.668  0.00  0.00    -0.075 A 
ATOM      2  C2  I4B d   1      -1.456   2.409  -1.386  0.00  0.00     0.003 A 
ATOM      3  C3  I4B d   1      -1.787   1.851  -0.128  0.00  0.00     0.002 A 
ATOM      4  C4  I4B d   1      -0.788   1.613   0.794  0.00  0.00    -0.004 A 
ATOM      5  C5  I4B d   1       0.523   1.988   0.515  0.00  0.00     0.002 A 
ATOM      6  C6  I4B d   1       0.838   2.575  -0.719  0.00  0.00     0.003 A 
ENDROOT
BRANCH   1   7
ATOM      7  C1' I4B d   1       0.161   3.314  -3.019  0.00  0.00     0.060 C 
BRANCH   7   8
ATOM      8  C2' I4B d   1      -1.129   3.820  -3.633  0.00  0.00    -0.013 C 
ATOM      9  C4' I4B d   1      -0.951   5.196  -4.218  0.00  0.00     0.013 C 
ATOM     10  C3' I4B d   1      -1.560   2.837  -4.680  0.00  0.00     0.013 C 
ENDBRANCH   7   8
ENDBRANCH   1   7
TORSDOF 2
ENDMDL
