MODEL 1
REMARK minimizedAffinity 22.4541855
REMARK minimizedRMSD -1
REMARK  2 active torsions:
REMARK  status: ('A' for Active; 'I' for Inactive)
REMARK    1  A    between atoms: C2'_3  and  C1'_4 
REMARK    2  A    between atoms: C1'_4  and  C1_5 
ROOT
ATOM      1  C1  I4B d   1      -4.767   5.319  -0.957  0.00  0.00    -0.075 A 
ATOM      2  C2  I4B d   1      -3.618   5.241  -0.209  0.00  0.00     0.003 A 
ATOM      3  C3  I4B d   1      -3.649   5.533   1.176  0.00  0.00     0.002 A 
ATOM      4  C4  I4B d   1      -4.830   5.944   1.758  0.00  0.00    -0.004 A 
ATOM      5  C5  I4B d   1      -5.998   6.000   1.003  0.00  0.00     0.002 A 
ATOM      6  C6  I4B d   1      -5.969   5.674  -0.360  0.00  0.00     0.003 A 
ENDROOT
BRANCH   1   7
ATOM      7  C1' I4B d   1      -4.692   5.036  -2.424  0.00  0.00     0.060 C 
BRANCH   7   8
ATOM      8  C2' I4B d   1      -4.385   3.563  -2.601  0.00  0.00    -0.013 C 
ATOM      9  C4' I4B d   1      -5.346   2.917  -3.563  0.00  0.00     0.013 C 
ATOM     10  C3' I4B d   1      -2.970   3.440  -3.084  0.00  0.00     0.013 C 
ENDBRANCH   7   8
ENDBRANCH   1   7
TORSDOF 2
ENDMDL
