MODEL 1
REMARK minimizedAffinity 8.86934853
REMARK minimizedRMSD -1
REMARK  2 active torsions:
REMARK  status: ('A' for Active; 'I' for Inactive)
REMARK    1  A    between atoms: C2'_3  and  C1'_4 
REMARK    2  A    between atoms: C1'_4  and  C1_5 
ROOT
ATOM      1  C1  I4B d   1      -0.732   2.958   0.242  0.00  0.00    -0.075 A 
ATOM      2  C2  I4B d   1      -1.988   3.369   0.612  0.00  0.00     0.003 A 
ATOM      3  C3  I4B d   1      -2.691   2.685   1.633  0.00  0.00     0.002 A 
ATOM      4  C4  I4B d   1      -2.124   1.572   2.219  0.00  0.00    -0.004 A 
ATOM      5  C5  I4B d   1      -0.841   1.170   1.859  0.00  0.00     0.002 A 
ATOM      6  C6  I4B d   1      -0.135   1.875   0.873  0.00  0.00     0.003 A 
ENDROOT
BRANCH   1   7
ATOM      7  C1' I4B d   1      -0.033   3.683  -0.863  0.00  0.00     0.060 C 
BRANCH   7   8
ATOM      8  C2' I4B d   1      -1.081   4.150  -1.853  0.00  0.00    -0.013 C 
ATOM      9  C4' I4B d   1      -0.674   5.442  -2.510  0.00  0.00     0.013 C 
ATOM     10  C3' I4B d   1      -1.274   3.064  -2.869  0.00  0.00     0.013 C 
ENDBRANCH   7   8
ENDBRANCH   1   7
TORSDOF 2
ENDMDL
