MODEL 1
REMARK minimizedAffinity -2.90869927
REMARK minimizedRMSD -1
REMARK  2 active torsions:
REMARK  status: ('A' for Active; 'I' for Inactive)
REMARK    1  A    between atoms: C2'_3  and  C1'_4 
REMARK    2  A    between atoms: C1'_4  and  C1_5 
ROOT
ATOM      1  C1  I4B d   1      -0.904   1.608   1.552  0.00  0.00    -0.075 A 
ATOM      2  C2  I4B d   1      -2.263   1.774   1.452  0.00  0.00     0.003 A 
ATOM      3  C3  I4B d   1      -3.118   1.277   2.465  0.00  0.00     0.002 A 
ATOM      4  C4  I4B d   1      -2.580   0.581   3.528  0.00  0.00    -0.004 A 
ATOM      5  C5  I4B d   1      -1.200   0.433   3.639  0.00  0.00     0.002 A 
ATOM      6  C6  I4B d   1      -0.356   0.961   2.651  0.00  0.00     0.003 A 
ENDROOT
BRANCH   1   7
ATOM      7  C1' I4B d   1      -0.033   2.117   0.447  0.00  0.00     0.060 C 
BRANCH   7   8
ATOM      8  C2' I4B d   1      -0.699   3.341  -0.147  0.00  0.00    -0.013 C 
ATOM      9  C4' I4B d   1      -0.083   4.609   0.382  0.00  0.00     0.013 C 
ATOM     10  C3' I4B d   1      -0.572   3.258  -1.639  0.00  0.00     0.013 C 
ENDBRANCH   7   8
ENDBRANCH   1   7
TORSDOF 2
ENDMDL
