MODEL 1
REMARK minimizedAffinity 10.0928726
REMARK minimizedRMSD -1
REMARK  2 active torsions:
REMARK  status: ('A' for Active; 'I' for Inactive)
REMARK    1  A    between atoms: C2'_3  and  C1'_4 
REMARK    2  A    between atoms: C1'_4  and  C1_5 
ROOT
ATOM      1  C1  I4B d   1      -0.281   3.336  -0.078  0.00  0.00    -0.075 A 
ATOM      2  C2  I4B d   1      -0.694   4.339   0.763  0.00  0.00     0.003 A 
ATOM      3  C3  I4B d   1      -0.635   5.691   0.344  0.00  0.00     0.002 A 
ATOM      4  C4  I4B d   1      -0.113   5.995  -0.896  0.00  0.00    -0.004 A 
ATOM      5  C5  I4B d   1       0.284   4.976  -1.757  0.00  0.00     0.002 A 
ATOM      6  C6  I4B d   1       0.188   3.637  -1.351  0.00  0.00     0.003 A 
ENDROOT
BRANCH   1   7
ATOM      7  C1' I4B d   1      -0.326   1.923   0.409  0.00  0.00     0.060 C 
BRANCH   7   8
ATOM      8  C2' I4B d   1      -1.246   1.873   1.612  0.00  0.00    -0.013 C 
ATOM      9  C4' I4B d   1      -2.606   1.346   1.238  0.00  0.00     0.013 C 
ATOM     10  C3' I4B d   1      -0.598   1.010   2.654  0.00  0.00     0.013 C 
ENDBRANCH   7   8
ENDBRANCH   1   7
TORSDOF 2
ENDMDL
