MODEL 1
REMARK minimizedAffinity 10.9439402
REMARK minimizedRMSD -1
REMARK  2 active torsions:
REMARK  status: ('A' for Active; 'I' for Inactive)
REMARK    1  A    between atoms: C2'_3  and  C1'_4 
REMARK    2  A    between atoms: C1'_4  and  C1_5 
ROOT
ATOM      1  C1  I4B d   1      -4.068  -3.559   5.199  0.00  0.00    -0.075 A 
ATOM      2  C2  I4B d   1      -5.178  -3.654   6.000  0.00  0.00     0.003 A 
ATOM      3  C3  I4B d   1      -5.958  -4.836   6.000  0.00  0.00     0.002 A 
ATOM      4  C4  I4B d   1      -5.623  -5.872   5.152  0.00  0.00    -0.004 A 
ATOM      5  C5  I4B d   1      -4.483  -5.783   4.357  0.00  0.00     0.002 A 
ATOM      6  C6  I4B d   1      -3.693  -4.624   4.390  0.00  0.00     0.003 A 
ENDROOT
BRANCH   1   7
ATOM      7  C1' I4B d   1      -3.286  -2.284   5.199  0.00  0.00     0.060 C 
BRANCH   7   8
ATOM      8  C2' I4B d   1      -2.455  -2.245   3.932  0.00  0.00    -0.013 C 
ATOM      9  C4' I4B d   1      -2.219  -0.829   3.479  0.00  0.00     0.013 C 
ATOM     10  C3' I4B d   1      -1.160  -2.950   4.206  0.00  0.00     0.013 C 
ENDBRANCH   7   8
ENDBRANCH   1   7
TORSDOF 2
ENDMDL
