MODEL 1
REMARK minimizedAffinity 7.34503746
REMARK minimizedRMSD -1
REMARK  2 active torsions:
REMARK  status: ('A' for Active; 'I' for Inactive)
REMARK    1  A    between atoms: C2'_3  and  C1'_4 
REMARK    2  A    between atoms: C1'_4  and  C1_5 
ROOT
ATOM      1  C1  I4B d   1      -1.134   3.274  -2.120  0.00  0.00    -0.075 A 
ATOM      2  C2  I4B d   1      -0.749   4.559  -2.411  0.00  0.00     0.003 A 
ATOM      3  C3  I4B d   1       0.083   5.274  -1.515  0.00  0.00     0.002 A 
ATOM      4  C4  I4B d   1       0.462   4.688  -0.325  0.00  0.00    -0.004 A 
ATOM      5  C5  I4B d   1       0.091   3.377  -0.043  0.00  0.00     0.002 A 
ATOM      6  C6  I4B d   1      -0.702   2.660  -0.951  0.00  0.00     0.003 A 
ENDROOT
BRANCH   1   7
ATOM      7  C1' I4B d   1      -2.039   2.559  -3.072  0.00  0.00     0.060 C 
BRANCH   7   8
ATOM      8  C2' I4B d   1      -3.250   2.082  -2.296  0.00  0.00    -0.013 C 
ATOM      9  C4' I4B d   1      -4.527   2.398  -3.029  0.00  0.00     0.013 C 
ATOM     10  C3' I4B d   1      -3.104   0.606  -2.073  0.00  0.00     0.013 C 
ENDBRANCH   7   8
ENDBRANCH   1   7
TORSDOF 2
ENDMDL
