MODEL 1
REMARK minimizedAffinity -3.6713922
REMARK minimizedRMSD -1
REMARK  2 active torsions:
REMARK  status: ('A' for Active; 'I' for Inactive)
REMARK    1  A    between atoms: C1_2  and  C2_3 
REMARK    2  A    between atoms: C2_3  and  C3_4 
ROOT
ATOM      1  C3  UNL d   1      -1.167  -0.047   0.215  0.00  0.00    -0.075 A 
ATOM      2  C4  UNL d   1      -0.930  -1.415   0.409  0.00  0.00     0.002 A 
ATOM      3  C5  UNL d   1       0.223  -2.013  -0.099  0.00  0.00     0.002 A 
ATOM      4  C6  UNL d   1       1.147  -1.255  -0.815  0.00  0.00    -0.004 A 
ATOM      5  C7  UNL d   1       0.914   0.102  -1.028  0.00  0.00     0.002 A 
ATOM      6  C8  UNL d   1      -0.237   0.704  -0.517  0.00  0.00     0.002 A 
ENDROOT
BRANCH   1   7
ATOM      7  C2  UNL d   1      -2.399   0.613   0.788  0.00  0.00     0.056 C 
BRANCH   7   8
ATOM      8  C1  UNL d   1      -2.513   0.504   2.312  0.00  0.00     0.007 C 
ATOM      9  C   UNL d   1      -2.345   1.840   3.024  0.00  0.00     0.009 C 
ENDBRANCH   7   8
ENDBRANCH   1   7
TORSDOF 2
ENDMDL
