MODEL 1
REMARK minimizedAffinity -3.94687223
REMARK minimizedRMSD -1
REMARK  2 active torsions:
REMARK  status: ('A' for Active; 'I' for Inactive)
REMARK    1  A    between atoms: C1_2  and  C2_3 
REMARK    2  A    between atoms: C2_3  and  C3_4 
ROOT
ATOM      1  C3  UNL d   1      -3.607  -0.889   3.608  0.00  0.00    -0.075 A 
ATOM      2  C4  UNL d   1      -3.592  -0.755   2.212  0.00  0.00     0.002 A 
ATOM      3  C5  UNL d   1      -2.718   0.140   1.596  0.00  0.00     0.002 A 
ATOM      4  C6  UNL d   1      -1.856   0.919   2.366  0.00  0.00    -0.004 A 
ATOM      5  C7  UNL d   1      -1.874   0.806   3.754  0.00  0.00     0.002 A 
ATOM      6  C8  UNL d   1      -2.744  -0.093   4.373  0.00  0.00     0.002 A 
ENDROOT
BRANCH   1   7
ATOM      7  C2  UNL d   1      -4.530  -1.878   4.280  0.00  0.00     0.056 C 
BRANCH   7   8
ATOM      8  C1  UNL d   1      -5.757  -2.254   3.442  0.00  0.00     0.007 C 
ATOM      9  C   UNL d   1      -6.000  -3.755   3.374  0.00  0.00     0.009 C 
ENDBRANCH   7   8
ENDBRANCH   1   7
TORSDOF 2
ENDMDL
