MODEL 1
REMARK minimizedAffinity -3.33799529
REMARK minimizedRMSD -1
REMARK  2 active torsions:
REMARK  status: ('A' for Active; 'I' for Inactive)
REMARK    1  A    between atoms: C1_2  and  C2_3 
REMARK    2  A    between atoms: C2_3  and  C3_4 
ROOT
ATOM      1  C3  UNL d   1      -1.121  -0.318   0.765  0.00  0.00    -0.075 A 
ATOM      2  C4  UNL d   1      -0.626  -1.629   0.824  0.00  0.00     0.002 A 
ATOM      3  C5  UNL d   1       0.457  -2.013   0.033  0.00  0.00     0.002 A 
ATOM      4  C6  UNL d   1       1.051  -1.097  -0.833  0.00  0.00    -0.004 A 
ATOM      5  C7  UNL d   1       0.556   0.203  -0.911  0.00  0.00     0.002 A 
ATOM      6  C8  UNL d   1      -0.524   0.592  -0.118  0.00  0.00     0.002 A 
ENDROOT
BRANCH   1   7
ATOM      7  C2  UNL d   1      -2.274   0.112   1.641  0.00  0.00     0.056 C 
BRANCH   7   8
ATOM      8  C1  UNL d   1      -1.896   1.146   2.707  0.00  0.00     0.007 C 
ATOM      9  C   UNL d   1      -2.328   0.746   4.111  0.00  0.00     0.009 C 
ENDBRANCH   7   8
ENDBRANCH   1   7
TORSDOF 2
ENDMDL
