MODEL 1
REMARK minimizedAffinity -2.9229002
REMARK minimizedRMSD -1
REMARK  2 active torsions:
REMARK  status: ('A' for Active; 'I' for Inactive)
REMARK    1  A    between atoms: C1_2  and  C2_3 
REMARK    2  A    between atoms: C2_3  and  C3_4 
ROOT
ATOM      1  C3  UNL d   1      -1.386   0.606   1.192  0.00  0.00    -0.075 A 
ATOM      2  C4  UNL d   1      -2.285  -0.132   1.975  0.00  0.00     0.002 A 
ATOM      3  C5  UNL d   1      -2.733   0.365   3.199  0.00  0.00     0.002 A 
ATOM      4  C6  UNL d   1      -2.281   1.600   3.659  0.00  0.00    -0.004 A 
ATOM      5  C7  UNL d   1      -1.375   2.335   2.897  0.00  0.00     0.002 A 
ATOM      6  C8  UNL d   1      -0.929   1.842   1.670  0.00  0.00     0.002 A 
ENDROOT
BRANCH   1   7
ATOM      7  C2  UNL d   1      -0.920   0.087  -0.148  0.00  0.00     0.056 C 
BRANCH   7   8
ATOM      8  C1  UNL d   1      -0.171  -1.248  -0.072  0.00  0.00     0.007 C 
ATOM      9  C   UNL d   1       1.208  -1.200  -0.717  0.00  0.00     0.009 C 
ENDBRANCH   7   8
ENDBRANCH   1   7
TORSDOF 2
ENDMDL
