MODEL 1
REMARK minimizedAffinity -3.76618147
REMARK minimizedRMSD -1
REMARK  2 active torsions:
REMARK  status: ('A' for Active; 'I' for Inactive)
REMARK    1  A    between atoms: C1_2  and  C2_3 
REMARK    2  A    between atoms: C2_3  and  C3_4 
ROOT
ATOM      1  C3  UNL d   1      -0.657  -0.366   0.090  0.00  0.00    -0.075 A 
ATOM      2  C4  UNL d   1      -0.289  -1.713  -0.047  0.00  0.00     0.002 A 
ATOM      3  C5  UNL d   1       0.767  -2.076  -0.883  0.00  0.00     0.002 A 
ATOM      4  C6  UNL d   1       1.459  -1.103  -1.600  0.00  0.00    -0.004 A 
ATOM      5  C7  UNL d   1       1.091   0.236  -1.484  0.00  0.00     0.002 A 
ATOM      6  C8  UNL d   1       0.038   0.603  -0.644  0.00  0.00     0.002 A 
ENDROOT
BRANCH   1   7
ATOM      7  C2  UNL d   1      -1.780   0.037   1.017  0.00  0.00     0.056 C 
BRANCH   7   8
ATOM      8  C1  UNL d   1      -1.356   1.008   2.124  0.00  0.00     0.007 C 
ATOM      9  C   UNL d   1      -1.765   0.546   3.516  0.00  0.00     0.009 C 
ENDBRANCH   7   8
ENDBRANCH   1   7
TORSDOF 2
ENDMDL
