MODEL 1
REMARK minimizedAffinity -5.33347034
REMARK minimizedRMSD -1
REMARK  2 active torsions:
REMARK  status: ('A' for Active; 'I' for Inactive)
REMARK    1  A    between atoms: C1_2  and  C2_3 
REMARK    2  A    between atoms: C2_3  and  C3_4 
ROOT
ATOM      1  C3  UNL d   1       0.984   0.399  -0.470  0.00  0.00    -0.075 A 
ATOM      2  C4  UNL d   1       0.532   1.550  -1.130  0.00  0.00     0.002 A 
ATOM      3  C5  UNL d   1      -0.832   1.830  -1.213  0.00  0.00     0.002 A 
ATOM      4  C6  UNL d   1      -1.761   0.959  -0.646  0.00  0.00    -0.004 A 
ATOM      5  C7  UNL d   1      -1.324  -0.196  -0.002  0.00  0.00     0.002 A 
ATOM      6  C8  UNL d   1       0.041  -0.477   0.086  0.00  0.00     0.002 A 
ENDROOT
BRANCH   1   7
ATOM      7  C2  UNL d   1       2.460   0.105  -0.351  0.00  0.00     0.056 C 
BRANCH   7   8
ATOM      8  C1  UNL d   1       3.119  -0.323  -1.667  0.00  0.00     0.007 C 
ATOM      9  C   UNL d   1       2.286  -1.323  -2.457  0.00  0.00     0.009 C 
ENDBRANCH   7   8
ENDBRANCH   1   7
TORSDOF 2
ENDMDL
