MODEL 1
REMARK minimizedAffinity -4.47254515
REMARK minimizedRMSD -1
REMARK  2 active torsions:
REMARK  status: ('A' for Active; 'I' for Inactive)
REMARK    1  A    between atoms: C1_2  and  C2_3 
REMARK    2  A    between atoms: C2_3  and  C3_4 
ROOT
ATOM      1  C3  UNL d   1       1.360   0.077  -0.376  0.00  0.00    -0.075 A 
ATOM      2  C4  UNL d   1       0.624   1.234  -0.670  0.00  0.00     0.002 A 
ATOM      3  C5  UNL d   1      -0.742   1.293  -0.396  0.00  0.00     0.002 A 
ATOM      4  C6  UNL d   1      -1.392   0.196   0.166  0.00  0.00    -0.004 A 
ATOM      5  C7  UNL d   1      -0.674  -0.965   0.447  0.00  0.00     0.002 A 
ATOM      6  C8  UNL d   1       0.694  -1.025   0.178  0.00  0.00     0.002 A 
ENDROOT
BRANCH   1   7
ATOM      7  C2  UNL d   1       2.845   0.016  -0.643  0.00  0.00     0.056 C 
BRANCH   7   8
ATOM      8  C1  UNL d   1       3.270  -1.151  -1.540  0.00  0.00     0.007 C 
ATOM      9  C   UNL d   1       2.107  -1.788  -2.289  0.00  0.00     0.009 C 
ENDBRANCH   7   8
ENDBRANCH   1   7
TORSDOF 2
ENDMDL
