MODEL 1
REMARK minimizedAffinity -2.508569
REMARK minimizedRMSD -1
REMARK  2 active torsions:
REMARK  status: ('A' for Active; 'I' for Inactive)
REMARK    1  A    between atoms: C1_2  and  C2_3 
REMARK    2  A    between atoms: C2_3  and  C3_4 
ROOT
ATOM      1  C3  UNL d   1      -1.584   0.672   1.500  0.00  0.00    -0.075 A 
ATOM      2  C4  UNL d   1      -2.612   0.022   2.198  0.00  0.00     0.002 A 
ATOM      3  C5  UNL d   1      -2.925   0.393   3.505  0.00  0.00     0.002 A 
ATOM      4  C6  UNL d   1      -2.211   1.410   4.134  0.00  0.00    -0.004 A 
ATOM      5  C7  UNL d   1      -1.177   2.052   3.456  0.00  0.00     0.002 A 
ATOM      6  C8  UNL d   1      -0.863   1.685   2.146  0.00  0.00     0.002 A 
ENDROOT
BRANCH   1   7
ATOM      7  C2  UNL d   1      -1.259   0.295   0.074  0.00  0.00     0.056 C 
BRANCH   7   8
ATOM      8  C1  UNL d   1       0.223   0.440  -0.287  0.00  0.00     0.007 C 
ATOM      9  C   UNL d   1       0.489   1.547  -1.299  0.00  0.00     0.009 C 
ENDBRANCH   7   8
ENDBRANCH   1   7
TORSDOF 2
ENDMDL
