MODEL 1
REMARK minimizedAffinity -6.27884293
REMARK minimizedRMSD -1
REMARK  2 active torsions:
REMARK  status: ('A' for Active; 'I' for Inactive)
REMARK    1  A    between atoms: C1_2  and  C2_3 
REMARK    2  A    between atoms: C2_3  and  C3_4 
ROOT
ATOM      1  C3  UNL d   1       0.130   0.631  -0.700  0.00  0.00    -0.075 A 
ATOM      2  C4  UNL d   1       0.714   1.579  -1.553  0.00  0.00     0.002 A 
ATOM      3  C5  UNL d   1       1.949   1.328  -2.152  0.00  0.00     0.002 A 
ATOM      4  C6  UNL d   1       2.619   0.134  -1.898  0.00  0.00    -0.004 A 
ATOM      5  C7  UNL d   1       2.057  -0.808  -1.040  0.00  0.00     0.002 A 
ATOM      6  C8  UNL d   1       0.819  -0.562  -0.443  0.00  0.00     0.002 A 
ENDROOT
BRANCH   1   7
ATOM      7  C2  UNL d   1      -1.220   0.883  -0.073  0.00  0.00     0.056 C 
BRANCH   7   8
ATOM      8  C1  UNL d   1      -1.508   0.017   1.158  0.00  0.00     0.007 C 
ATOM      9  C   UNL d   1      -2.137   0.794   2.306  0.00  0.00     0.009 C 
ENDBRANCH   7   8
ENDBRANCH   1   7
TORSDOF 2
ENDMDL
