MODEL 1
REMARK minimizedAffinity -5.33783579
REMARK minimizedRMSD -1
REMARK  2 active torsions:
REMARK  status: ('A' for Active; 'I' for Inactive)
REMARK    1  A    between atoms: C1_2  and  C2_3 
REMARK    2  A    between atoms: C2_3  and  C3_4 
ROOT
ATOM      1  C3  UNL d   1      -0.453   0.002   0.137  0.00  0.00    -0.075 A 
ATOM      2  C4  UNL d   1      -0.514  -1.391  -0.008  0.00  0.00     0.002 A 
ATOM      3  C5  UNL d   1       0.555  -2.092  -0.568  0.00  0.00     0.002 A 
ATOM      4  C6  UNL d   1       1.691  -1.410  -0.998  0.00  0.00    -0.004 A 
ATOM      5  C7  UNL d   1       1.755  -0.024  -0.874  0.00  0.00     0.002 A 
ATOM      6  C8  UNL d   1       0.689   0.680  -0.310  0.00  0.00     0.002 A 
ENDROOT
BRANCH   1   7
ATOM      7  C2  UNL d   1      -1.593   0.764   0.769  0.00  0.00     0.056 C 
BRANCH   7   8
ATOM      8  C1  UNL d   1      -1.884   0.362   2.219  0.00  0.00     0.007 C 
ATOM      9  C   UNL d   1      -1.692   1.503   3.208  0.00  0.00     0.009 C 
ENDBRANCH   7   8
ENDBRANCH   1   7
TORSDOF 2
ENDMDL
