MODEL 1
REMARK minimizedAffinity -1.29705369
REMARK minimizedRMSD -1
REMARK  2 active torsions:
REMARK  status: ('A' for Active; 'I' for Inactive)
REMARK    1  A    between atoms: C2'_3  and  C1'_4 
REMARK    2  A    between atoms: C1'_4  and  C1_5 
ROOT
ATOM      1  C1  I4B d   1       0.148  -0.449  -0.216  0.00  0.00    -0.075 A 
ATOM      2  C2  I4B d   1      -1.177  -0.173  -0.442  0.00  0.00     0.003 A 
ATOM      3  C3  I4B d   1      -1.967   0.410   0.579  0.00  0.00     0.002 A 
ATOM      4  C4  I4B d   1      -1.408   0.651   1.817  0.00  0.00    -0.004 A 
ATOM      5  C5  I4B d   1      -0.059   0.391   2.037  0.00  0.00     0.002 A 
ATOM      6  C6  I4B d   1       0.728  -0.151   1.010  0.00  0.00     0.003 A 
ENDROOT
BRANCH   1   7
ATOM      7  C1' I4B d   1       0.945  -1.095  -1.305  0.00  0.00     0.060 C 
BRANCH   7   8
ATOM      8  C2' I4B d   1       1.130  -0.079  -2.414  0.00  0.00    -0.013 C 
ATOM      9  C4' I4B d   1       2.585   0.090  -2.762  0.00  0.00     0.013 C 
ATOM     10  C3' I4B d   1       0.339  -0.541  -3.601  0.00  0.00     0.013 C 
ENDBRANCH   7   8
ENDBRANCH   1   7
TORSDOF 2
ENDMDL
