MODEL 1
REMARK minimizedAffinity -3.44406986
REMARK minimizedRMSD -1
REMARK  2 active torsions:
REMARK  status: ('A' for Active; 'I' for Inactive)
REMARK    1  A    between atoms: C2'_3  and  C1'_4 
REMARK    2  A    between atoms: C1'_4  and  C1_5 
ROOT
ATOM      1  C1  I4B d   1       0.086  -0.355  -1.673  0.00  0.00    -0.075 A 
ATOM      2  C2  I4B d   1      -0.223  -0.925  -2.882  0.00  0.00     0.003 A 
ATOM      3  C3  I4B d   1       0.376  -0.444  -4.072  0.00  0.00     0.002 A 
ATOM      4  C4  I4B d   1       1.234   0.635  -4.012  0.00  0.00    -0.004 A 
ATOM      5  C5  I4B d   1       1.564   1.197  -2.782  0.00  0.00     0.002 A 
ATOM      6  C6  I4B d   1       0.997   0.692  -1.603  0.00  0.00     0.003 A 
ENDROOT
BRANCH   1   7
ATOM      7  C1' I4B d   1      -0.590  -0.867  -0.441  0.00  0.00     0.060 C 
BRANCH   7   8
ATOM      8  C2' I4B d   1       0.065  -0.211   0.758  0.00  0.00    -0.013 C 
ATOM      9  C4' I4B d   1      -0.948   0.108   1.826  0.00  0.00     0.013 C 
ATOM     10  C3' I4B d   1       1.122  -1.140   1.274  0.00  0.00     0.013 C 
ENDBRANCH   7   8
ENDBRANCH   1   7
TORSDOF 2
ENDMDL
