MODEL 1
REMARK minimizedAffinity -4.9671154
REMARK minimizedRMSD -1
REMARK  2 active torsions:
REMARK  status: ('A' for Active; 'I' for Inactive)
REMARK    1  A    between atoms: C2'_3  and  C1'_4 
REMARK    2  A    between atoms: C1'_4  and  C1_5 
ROOT
ATOM      1  C1  I4B d   1      -0.056  -0.373  -0.378  0.00  0.00    -0.075 A 
ATOM      2  C2  I4B d   1      -1.352  -0.212  -0.799  0.00  0.00     0.003 A 
ATOM      3  C3  I4B d   1      -2.329   0.307   0.084  0.00  0.00     0.002 A 
ATOM      4  C4  I4B d   1      -1.980   0.603   1.386  0.00  0.00    -0.004 A 
ATOM      5  C5  I4B d   1      -0.660   0.460   1.805  0.00  0.00     0.002 A 
ATOM      6  C6  I4B d   1       0.311  -0.019   0.914  0.00  0.00     0.003 A 
ENDROOT
BRANCH   1   7
ATOM      7  C1' I4B d   1       0.943  -0.955  -1.328  0.00  0.00     0.060 C 
BRANCH   7   8
ATOM      8  C2' I4B d   1       1.058  -0.021  -2.515  0.00  0.00    -0.013 C 
ATOM      9  C4' I4B d   1       2.449   0.545  -2.632  0.00  0.00     0.013 C 
ATOM     10  C3' I4B d   1       0.680  -0.789  -3.746  0.00  0.00     0.013 C 
ENDBRANCH   7   8
ENDBRANCH   1   7
TORSDOF 2
ENDMDL
