MODEL 1
REMARK minimizedAffinity -5.90793943
REMARK minimizedRMSD -1
REMARK  2 active torsions:
REMARK  status: ('A' for Active; 'I' for Inactive)
REMARK    1  A    between atoms: C2'_3  and  C1'_4 
REMARK    2  A    between atoms: C1'_4  and  C1_5 
ROOT
ATOM      1  C1  I4B d   1       0.486  -0.243  -0.196  0.00  0.00    -0.075 A 
ATOM      2  C2  I4B d   1      -0.760   0.255   0.090  0.00  0.00     0.003 A 
ATOM      3  C3  I4B d   1      -1.090   0.631   1.415  0.00  0.00     0.002 A 
ATOM      4  C4  I4B d   1      -0.167   0.445   2.424  0.00  0.00    -0.004 A 
ATOM      5  C5  I4B d   1       1.104  -0.038   2.128  0.00  0.00     0.002 A 
ATOM      6  C6  I4B d   1       1.437  -0.374   0.807  0.00  0.00     0.003 A 
ENDROOT
BRANCH   1   7
ATOM      7  C1' I4B d   1       0.790  -0.661  -1.600  0.00  0.00     0.060 C 
BRANCH   7   8
ATOM      8  C2' I4B d   1       1.360   0.537  -2.331  0.00  0.00    -0.013 C 
ATOM      9  C4' I4B d   1       2.866   0.495  -2.355  0.00  0.00     0.013 C 
ATOM     10  C3' I4B d   1       0.796   0.544  -3.720  0.00  0.00     0.013 C 
ENDBRANCH   7   8
ENDBRANCH   1   7
TORSDOF 2
ENDMDL
