MODEL 1
REMARK minimizedAffinity -5.50737906
REMARK minimizedRMSD -1
REMARK  2 active torsions:
REMARK  status: ('A' for Active; 'I' for Inactive)
REMARK    1  A    between atoms: C2'_3  and  C1'_4 
REMARK    2  A    between atoms: C1'_4  and  C1_5 
ROOT
ATOM      1  C1  I4B d   1       0.485  -0.179   0.171  0.00  0.00    -0.075 A 
ATOM      2  C2  I4B d   1      -0.857   0.047  -0.011  0.00  0.00     0.003 A 
ATOM      3  C3  I4B d   1      -1.660   0.476   1.073  0.00  0.00     0.002 A 
ATOM      4  C4  I4B d   1      -1.096   0.615   2.324  0.00  0.00    -0.004 A 
ATOM      5  C5  I4B d   1       0.269   0.407   2.502  0.00  0.00     0.002 A 
ATOM      6  C6  I4B d   1       1.067   0.019   1.416  0.00  0.00     0.003 A 
ENDROOT
BRANCH   1   7
ATOM      7  C1' I4B d   1       1.297  -0.663  -0.988  0.00  0.00     0.060 C 
BRANCH   7   8
ATOM      8  C2' I4B d   1       0.782   0.022  -2.238  0.00  0.00    -0.013 C 
ATOM      9  C4' I4B d   1       1.866   0.825  -2.906  0.00  0.00     0.013 C 
ATOM     10  C3' I4B d   1       0.246  -1.035  -3.157  0.00  0.00     0.013 C 
ENDBRANCH   7   8
ENDBRANCH   1   7
TORSDOF 2
ENDMDL
