MODEL 1
REMARK minimizedAffinity -0.528849125
REMARK minimizedRMSD -1
REMARK  2 active torsions:
REMARK  status: ('A' for Active; 'I' for Inactive)
REMARK    1  A    between atoms: C2'_3  and  C1'_4 
REMARK    2  A    between atoms: C1'_4  and  C1_5 
ROOT
ATOM      1  C1  I4B d   1       0.756   0.129   1.449  0.00  0.00    -0.075 A 
ATOM      2  C2  I4B d   1      -0.452   0.422   2.031  0.00  0.00     0.003 A 
ATOM      3  C3  I4B d   1      -0.667   0.145   3.403  0.00  0.00     0.002 A 
ATOM      4  C4  I4B d   1       0.329  -0.466   4.138  0.00  0.00    -0.004 A 
ATOM      5  C5  I4B d   1       1.561  -0.740   3.551  0.00  0.00     0.002 A 
ATOM      6  C6  I4B d   1       1.780  -0.430   2.201  0.00  0.00     0.003 A 
ENDROOT
BRANCH   1   7
ATOM      7  C1' I4B d   1       0.937   0.404  -0.010  0.00  0.00     0.060 C 
BRANCH   7   8
ATOM      8  C2' I4B d   1       0.273  -0.718  -0.783  0.00  0.00    -0.013 C 
ATOM      9  C4' I4B d   1      -1.224  -0.675  -0.626  0.00  0.00     0.013 C 
ATOM     10  C3' I4B d   1       0.670  -0.587  -2.223  0.00  0.00     0.013 C 
ENDBRANCH   7   8
ENDBRANCH   1   7
TORSDOF 2
ENDMDL
