MODEL 1
REMARK minimizedAffinity -3.17563438
REMARK minimizedRMSD -1
REMARK  2 active torsions:
REMARK  status: ('A' for Active; 'I' for Inactive)
REMARK    1  A    between atoms: C2'_3  and  C1'_4 
REMARK    2  A    between atoms: C1'_4  and  C1_5 
ROOT
ATOM      1  C1  I4B d   1       0.151  -0.305  -1.337  0.00  0.00    -0.075 A 
ATOM      2  C2  I4B d   1       0.071   0.918  -1.955  0.00  0.00     0.003 A 
ATOM      3  C3  I4B d   1       0.660   1.113  -3.228  0.00  0.00     0.002 A 
ATOM      4  C4  I4B d   1       1.359   0.080  -3.819  0.00  0.00    -0.004 A 
ATOM      5  C5  I4B d   1       1.420  -1.166  -3.201  0.00  0.00     0.002 A 
ATOM      6  C6  I4B d   1       0.801  -1.364  -1.958  0.00  0.00     0.003 A 
ENDROOT
BRANCH   1   7
ATOM      7  C1' I4B d   1      -0.455  -0.467   0.021  0.00  0.00     0.060 C 
BRANCH   7   8
ATOM      8  C2' I4B d   1      -1.626   0.488   0.127  0.00  0.00    -0.013 C 
ATOM      9  C4' I4B d   1      -2.865  -0.097  -0.496  0.00  0.00     0.013 C 
ATOM     10  C3' I4B d   1      -1.843   0.795   1.579  0.00  0.00     0.013 C 
ENDBRANCH   7   8
ENDBRANCH   1   7
TORSDOF 2
ENDMDL
