MODEL 1
REMARK minimizedAffinity -1.90448439
REMARK minimizedRMSD -1
REMARK  2 active torsions:
REMARK  status: ('A' for Active; 'I' for Inactive)
REMARK    1  A    between atoms: C2'_3  and  C1'_4 
REMARK    2  A    between atoms: C1'_4  and  C1_5 
ROOT
ATOM      1  C1  I4B d   1       0.288  -0.168  -0.434  0.00  0.00    -0.075 A 
ATOM      2  C2  I4B d   1       1.524  -0.749  -0.297  0.00  0.00     0.003 A 
ATOM      3  C3  I4B d   1       2.098  -0.910   0.987  0.00  0.00     0.002 A 
ATOM      4  C4  I4B d   1       1.428  -0.433   2.096  0.00  0.00    -0.004 A 
ATOM      5  C5  I4B d   1       0.165   0.134   1.957  0.00  0.00     0.002 A 
ATOM      6  C6  I4B d   1      -0.415   0.257   0.686  0.00  0.00     0.003 A 
ENDROOT
BRANCH   1   7
ATOM      7  C1' I4B d   1      -0.274   0.016  -1.808  0.00  0.00     0.060 C 
BRANCH   7   8
ATOM      8  C2' I4B d   1       0.728  -0.539  -2.800  0.00  0.00    -0.013 C 
ATOM      9  C4' I4B d   1       0.038  -1.101  -4.015  0.00  0.00     0.013 C 
ATOM     10  C3' I4B d   1       1.669   0.567  -3.175  0.00  0.00     0.013 C 
ENDBRANCH   7   8
ENDBRANCH   1   7
TORSDOF 2
ENDMDL
