MODEL 1
REMARK minimizedAffinity -0.296511024
REMARK minimizedRMSD -1
REMARK  2 active torsions:
REMARK  status: ('A' for Active; 'I' for Inactive)
REMARK    1  A    between atoms: C2'_3  and  C1'_4 
REMARK    2  A    between atoms: C1'_4  and  C1_5 
ROOT
ATOM      1  C1  I4B d   1       0.026  -0.200  -0.148  0.00  0.00    -0.075 A 
ATOM      2  C2  I4B d   1      -1.245   0.297   0.002  0.00  0.00     0.003 A 
ATOM      3  C3  I4B d   1      -1.678   0.779   1.261  0.00  0.00     0.002 A 
ATOM      4  C4  I4B d   1      -0.831   0.699   2.348  0.00  0.00    -0.004 A 
ATOM      5  C5  I4B d   1       0.465   0.215   2.189  0.00  0.00     0.002 A 
ATOM      6  C6  I4B d   1       0.901  -0.226   0.931  0.00  0.00     0.003 A 
ENDROOT
BRANCH   1   7
ATOM      7  C1' I4B d   1       0.439  -0.732  -1.483  0.00  0.00     0.060 C 
BRANCH   7   8
ATOM      8  C2' I4B d   1       0.662   0.449  -2.407  0.00  0.00    -0.013 C 
ATOM      9  C4' I4B d   1       2.043   1.024  -2.233  0.00  0.00     0.013 C 
ATOM     10  C3' I4B d   1       0.443  -0.017  -3.815  0.00  0.00     0.013 C 
ENDBRANCH   7   8
ENDBRANCH   1   7
TORSDOF 2
ENDMDL
