MODEL 1
REMARK minimizedAffinity 3.72684741
REMARK minimizedRMSD -1
REMARK  0 active torsions:
REMARK  status: ('A' for Active; 'I' for Inactive)
ROOT
ATOM      1  C   UNL d   1      -5.718  -1.313  -0.888  0.00  0.00     0.078 C 
ATOM      2  C1  UNL d   1      -5.013  -0.171  -1.557  0.00  0.00    -0.077 A 
ATOM      3  C2  UNL d   1      -5.562   1.117  -1.554  0.00  0.00    -0.001 A 
ATOM      4  C3  UNL d   1      -4.899   2.169  -2.189  0.00  0.00     0.003 A 
ATOM      5  C4  UNL d   1      -3.684   1.943  -2.832  0.00  0.00    -0.005 A 
ATOM      6  C5  UNL d   1      -3.130   0.664  -2.842  0.00  0.00     0.003 A 
ATOM      7  C6  UNL d   1      -3.792  -0.388  -2.208  0.00  0.00    -0.001 A 
ENDROOT
TORSDOF 0
ENDMDL
