MODEL 1
REMARK minimizedAffinity 9.51183224
REMARK minimizedRMSD -1
REMARK  0 active torsions:
REMARK  status: ('A' for Active; 'I' for Inactive)
ROOT
ATOM      1  C   UNL d   1       2.671  -0.498   0.754  0.00  0.00     0.078 C 
ATOM      2  C1  UNL d   1       1.896  -1.144   1.864  0.00  0.00    -0.077 A 
ATOM      3  C2  UNL d   1       1.506  -2.487   1.784  0.00  0.00    -0.001 A 
ATOM      4  C3  UNL d   1       0.777  -3.073   2.820  0.00  0.00     0.003 A 
ATOM      5  C4  UNL d   1       0.431  -2.323   3.943  0.00  0.00    -0.005 A 
ATOM      6  C5  UNL d   1       0.813  -0.986   4.030  0.00  0.00     0.003 A 
ATOM      7  C6  UNL d   1       1.542  -0.399   2.995  0.00  0.00    -0.001 A 
ENDROOT
TORSDOF 0
ENDMDL
