MODEL 1
REMARK minimizedAffinity 6.69037819
REMARK minimizedRMSD -1
REMARK  0 active torsions:
REMARK  status: ('A' for Active; 'I' for Inactive)
ROOT
ATOM      1  C   UNL d   1       3.572  -1.855   1.165  0.00  0.00     0.078 C 
ATOM      2  C1  UNL d   1       2.411  -1.503   2.046  0.00  0.00    -0.077 A 
ATOM      3  C2  UNL d   1       1.730  -0.289   1.891  0.00  0.00    -0.001 A 
ATOM      4  C3  UNL d   1       0.657   0.030   2.725  0.00  0.00     0.003 A 
ATOM      5  C4  UNL d   1       0.256  -0.859   3.720  0.00  0.00    -0.005 A 
ATOM      6  C5  UNL d   1       0.929  -2.068   3.883  0.00  0.00     0.003 A 
ATOM      7  C6  UNL d   1       2.002  -2.389   3.050  0.00  0.00    -0.001 A 
ENDROOT
TORSDOF 0
ENDMDL
