MODEL 1
REMARK minimizedAffinity 5.64432478
REMARK minimizedRMSD -1
REMARK  0 active torsions:
REMARK  status: ('A' for Active; 'I' for Inactive)
ROOT
ATOM      1  C   UNL d   1      -3.134  -5.836  -2.786  0.00  0.00     0.078 C 
ATOM      2  C1  UNL d   1      -3.944  -5.219  -3.887  0.00  0.00    -0.077 A 
ATOM      3  C2  UNL d   1      -4.313  -3.869  -3.841  0.00  0.00    -0.001 A 
ATOM      4  C3  UNL d   1      -5.076  -3.310  -4.867  0.00  0.00     0.003 A 
ATOM      5  C4  UNL d   1      -5.478  -4.094  -5.947  0.00  0.00    -0.005 A 
ATOM      6  C5  UNL d   1      -5.118  -5.439  -6.000  0.00  0.00     0.003 A 
ATOM      7  C6  UNL d   1      -4.355  -6.000  -4.974  0.00  0.00    -0.001 A 
ENDROOT
TORSDOF 0
ENDMDL
