MODEL 1
REMARK minimizedAffinity -2.17340946
REMARK minimizedRMSD -1
REMARK  0 active torsions:
REMARK  status: ('A' for Active; 'I' for Inactive)
ROOT
ATOM      1  C   UNL d   1       4.230   4.325  -5.320  0.00  0.00     0.078 C 
ATOM      2  C1  UNL d   1       4.259   2.827  -5.272  0.00  0.00    -0.077 A 
ATOM      3  C2  UNL d   1       3.339   2.112  -4.496  0.00  0.00    -0.001 A 
ATOM      4  C3  UNL d   1       3.384   0.718  -4.453  0.00  0.00     0.003 A 
ATOM      5  C4  UNL d   1       4.349   0.026  -5.183  0.00  0.00    -0.005 A 
ATOM      6  C5  UNL d   1       5.270   0.729  -5.956  0.00  0.00     0.003 A 
ATOM      7  C6  UNL d   1       5.227   2.123  -6.000  0.00  0.00    -0.001 A 
ENDROOT
TORSDOF 0
ENDMDL
