MODEL 1
REMARK minimizedAffinity 11.6209517
REMARK minimizedRMSD -1
REMARK  0 active torsions:
REMARK  status: ('A' for Active; 'I' for Inactive)
ROOT
ATOM      1  C   UNL d   1       1.794   0.227   2.167  0.00  0.00     0.078 C 
ATOM      2  C1  UNL d   1       1.233  -0.591   3.292  0.00  0.00    -0.077 A 
ATOM      3  C2  UNL d   1       0.432  -1.711   3.039  0.00  0.00    -0.001 A 
ATOM      4  C3  UNL d   1      -0.091  -2.458   4.096  0.00  0.00     0.003 A 
ATOM      5  C4  UNL d   1       0.179  -2.092   5.413  0.00  0.00    -0.005 A 
ATOM      6  C5  UNL d   1       0.973  -0.977   5.674  0.00  0.00     0.003 A 
ATOM      7  C6  UNL d   1       1.497  -0.229   4.619  0.00  0.00    -0.001 A 
ENDROOT
TORSDOF 0
ENDMDL
