MODEL 1
REMARK minimizedAffinity -2.61461997
REMARK minimizedRMSD -1
REMARK  2 active torsions:
REMARK  status: ('A' for Active; 'I' for Inactive)
REMARK    1  A    between atoms: C2'_3  and  C1'_4 
REMARK    2  A    between atoms: C1'_4  and  C1_5 
ROOT
ATOM      1  C1  I4B d   1      -0.091  -1.790   0.953  0.00  0.00    -0.075 A 
ATOM      2  C2  I4B d   1       0.524  -0.929   0.079  0.00  0.00     0.003 A 
ATOM      3  C3  I4B d   1       0.234   0.456   0.121  0.00  0.00     0.002 A 
ATOM      4  C4  I4B d   1      -0.707   0.927   1.013  0.00  0.00    -0.004 A 
ATOM      5  C5  I4B d   1      -1.313   0.056   1.914  0.00  0.00     0.002 A 
ATOM      6  C6  I4B d   1      -0.994  -1.310   1.893  0.00  0.00     0.003 A 
ENDROOT
BRANCH   1   7
ATOM      7  C1' I4B d   1       0.214  -3.252   0.859  0.00  0.00     0.060 C 
BRANCH   7   8
ATOM      8  C2' I4B d   1      -0.338  -3.760  -0.457  0.00  0.00    -0.013 C 
ATOM      9  C4' I4B d   1       0.047  -2.853  -1.596  0.00  0.00     0.013 C 
ATOM     10  C3' I4B d   1       0.183  -5.150  -0.671  0.00  0.00     0.013 C 
ENDBRANCH   7   8
ENDBRANCH   1   7
TORSDOF 2
ENDMDL
