MODEL 1
REMARK minimizedAffinity -3.88534427
REMARK minimizedRMSD -1
REMARK  2 active torsions:
REMARK  status: ('A' for Active; 'I' for Inactive)
REMARK    1  A    between atoms: C2'_3  and  C1'_4 
REMARK    2  A    between atoms: C1'_4  and  C1_5 
ROOT
ATOM      1  C1  I4B d   1       0.254   0.594   0.059  0.00  0.00    -0.075 A 
ATOM      2  C2  I4B d   1       0.789  -0.312  -0.822  0.00  0.00     0.003 A 
ATOM      3  C3  I4B d   1       0.590  -1.700  -0.625  0.00  0.00     0.002 A 
ATOM      4  C4  I4B d   1      -0.103  -2.137   0.485  0.00  0.00    -0.004 A 
ATOM      5  C5  I4B d   1      -0.665  -1.216   1.364  0.00  0.00     0.002 A 
ATOM      6  C6  I4B d   1      -0.496   0.159   1.144  0.00  0.00     0.003 A 
ENDROOT
BRANCH   1   7
ATOM      7  C1' I4B d   1       0.512   2.051  -0.160  0.00  0.00     0.060 C 
BRANCH   7   8
ATOM      8  C2' I4B d   1       1.725   2.439   0.660  0.00  0.00    -0.013 C 
ATOM      9  C4' I4B d   1       2.905   2.747  -0.224  0.00  0.00     0.013 C 
ATOM     10  C3' I4B d   1       1.355   3.624   1.501  0.00  0.00     0.013 C 
ENDBRANCH   7   8
ENDBRANCH   1   7
TORSDOF 2
ENDMDL
