MODEL 1
REMARK minimizedAffinity -4.20199394
REMARK minimizedRMSD -1
REMARK  2 active torsions:
REMARK  status: ('A' for Active; 'I' for Inactive)
REMARK    1  A    between atoms: C2'_3  and  C1'_4 
REMARK    2  A    between atoms: C1'_4  and  C1_5 
ROOT
ATOM      1  C1  I4B d   1       0.078   0.012  -0.008  0.00  0.00    -0.075 A 
ATOM      2  C2  I4B d   1       0.707  -1.068  -0.577  0.00  0.00     0.003 A 
ATOM      3  C3  I4B d   1       0.490  -2.370  -0.065  0.00  0.00     0.002 A 
ATOM      4  C4  I4B d   1      -0.317  -2.540   1.041  0.00  0.00    -0.004 A 
ATOM      5  C5  I4B d   1      -0.972  -1.447   1.602  0.00  0.00     0.002 A 
ATOM      6  C6  I4B d   1      -0.783  -0.164   1.067  0.00  0.00     0.003 A 
ENDROOT
BRANCH   1   7
ATOM      7  C1' I4B d   1       0.356   1.377  -0.553  0.00  0.00     0.060 C 
BRANCH   7   8
ATOM      8  C2' I4B d   1       1.336   2.061   0.378  0.00  0.00    -0.013 C 
ATOM      9  C4' I4B d   1       2.650   2.321  -0.310  0.00  0.00     0.013 C 
ATOM     10  C3' I4B d   1       0.710   3.340   0.850  0.00  0.00     0.013 C 
ENDBRANCH   7   8
ENDBRANCH   1   7
TORSDOF 2
ENDMDL
