MODEL 1
REMARK minimizedAffinity 1.09721768
REMARK minimizedRMSD -1
REMARK  2 active torsions:
REMARK  status: ('A' for Active; 'I' for Inactive)
REMARK    1  A    between atoms: C2'_3  and  C1'_4 
REMARK    2  A    between atoms: C1'_4  and  C1_5 
ROOT
ATOM      1  C1  I4B d   1      -0.631  -0.546   0.346  0.00  0.00    -0.075 A 
ATOM      2  C2  I4B d   1      -0.105  -1.459  -0.533  0.00  0.00     0.003 A 
ATOM      3  C3  I4B d   1       0.553  -1.021  -1.708  0.00  0.00     0.002 A 
ATOM      4  C4  I4B d   1       0.617   0.329  -1.987  0.00  0.00    -0.004 A 
ATOM      5  C5  I4B d   1       0.104   1.255  -1.083  0.00  0.00     0.002 A 
ATOM      6  C6  I4B d   1      -0.514   0.815   0.097  0.00  0.00     0.003 A 
ENDROOT
BRANCH   1   7
ATOM      7  C1' I4B d   1      -1.348  -1.045   1.560  0.00  0.00     0.060 C 
BRANCH   7   8
ATOM      8  C2' I4B d   1      -1.744   0.156   2.395  0.00  0.00    -0.013 C 
ATOM      9  C4' I4B d   1      -3.164   0.571   2.113  0.00  0.00     0.013 C 
ATOM     10  C3' I4B d   1      -1.561  -0.203   3.839  0.00  0.00     0.013 C 
ENDBRANCH   7   8
ENDBRANCH   1   7
TORSDOF 2
ENDMDL
