MODEL 1
REMARK minimizedAffinity -4.35859919
REMARK minimizedRMSD -1
REMARK  2 active torsions:
REMARK  status: ('A' for Active; 'I' for Inactive)
REMARK    1  A    between atoms: C2'_3  and  C1'_4 
REMARK    2  A    between atoms: C1'_4  and  C1_5 
ROOT
ATOM      1  C1  I4B d   1       0.168   0.336  -0.264  0.00  0.00    -0.075 A 
ATOM      2  C2  I4B d   1       0.972  -0.628  -0.819  0.00  0.00     0.003 A 
ATOM      3  C3  I4B d   1       0.853  -1.978  -0.409  0.00  0.00     0.002 A 
ATOM      4  C4  I4B d   1      -0.042  -2.309   0.587  0.00  0.00    -0.004 A 
ATOM      5  C5  I4B d   1      -0.873  -1.334   1.132  0.00  0.00     0.002 A 
ATOM      6  C6  I4B d   1      -0.776  -0.005   0.695  0.00  0.00     0.003 A 
ENDROOT
BRANCH   1   7
ATOM      7  C1' I4B d   1       0.343   1.758  -0.697  0.00  0.00     0.060 C 
BRANCH   7   8
ATOM      8  C2' I4B d   1       0.886   2.540   0.481  0.00  0.00    -0.013 C 
ATOM      9  C4' I4B d   1       2.321   2.940   0.255  0.00  0.00     0.013 C 
ATOM     10  C3' I4B d   1       0.014   3.744   0.679  0.00  0.00     0.013 C 
ENDBRANCH   7   8
ENDBRANCH   1   7
TORSDOF 2
ENDMDL
