MODEL 1
REMARK minimizedAffinity 1.14410627
REMARK minimizedRMSD -1
REMARK  2 active torsions:
REMARK  status: ('A' for Active; 'I' for Inactive)
REMARK    1  A    between atoms: C2'_3  and  C1'_4 
REMARK    2  A    between atoms: C1'_4  and  C1_5 
ROOT
ATOM      1  C1  I4B d   1      -1.104  -1.317   0.322  0.00  0.00    -0.075 A 
ATOM      2  C2  I4B d   1      -0.960  -2.082   1.452  0.00  0.00     0.003 A 
ATOM      3  C3  I4B d   1      -1.555  -1.672   2.670  0.00  0.00     0.002 A 
ATOM      4  C4  I4B d   1      -2.237  -0.474   2.724  0.00  0.00    -0.004 A 
ATOM      5  C5  I4B d   1      -2.401   0.289   1.572  0.00  0.00     0.002 A 
ATOM      6  C6  I4B d   1      -1.841  -0.141   0.360  0.00  0.00     0.003 A 
ENDROOT
BRANCH   1   7
ATOM      7  C1' I4B d   1      -0.435  -1.762  -0.940  0.00  0.00     0.060 C 
BRANCH   7   8
ATOM      8  C2' I4B d   1       0.232  -0.555  -1.566  0.00  0.00    -0.013 C 
ATOM      9  C4' I4B d   1       1.341  -0.030  -0.692  0.00  0.00     0.013 C 
ATOM     10  C3' I4B d   1       0.751  -0.960  -2.914  0.00  0.00     0.013 C 
ENDBRANCH   7   8
ENDBRANCH   1   7
TORSDOF 2
ENDMDL
