MODEL 1
REMARK minimizedAffinity -2.51375723
REMARK minimizedRMSD -1
REMARK  2 active torsions:
REMARK  status: ('A' for Active; 'I' for Inactive)
REMARK    1  A    between atoms: C2'_3  and  C1'_4 
REMARK    2  A    between atoms: C1'_4  and  C1_5 
ROOT
ATOM      1  C1  I4B d   1      -0.433  -0.793   0.926  0.00  0.00    -0.075 A 
ATOM      2  C2  I4B d   1      -1.383  -1.682   0.489  0.00  0.00     0.003 A 
ATOM      3  C3  I4B d   1      -1.137  -3.075   0.551  0.00  0.00     0.002 A 
ATOM      4  C4  I4B d   1       0.082  -3.531   1.009  0.00  0.00    -0.004 A 
ATOM      5  C5  I4B d   1       1.035  -2.628   1.473  0.00  0.00     0.002 A 
ATOM      6  C6  I4B d   1       0.772  -1.251   1.443  0.00  0.00     0.003 A 
ENDROOT
BRANCH   1   7
ATOM      7  C1' I4B d   1      -0.712   0.673   0.815  0.00  0.00     0.060 C 
BRANCH   7   8
ATOM      8  C2' I4B d   1       0.335   1.279  -0.098  0.00  0.00    -0.013 C 
ATOM      9  C4' I4B d   1       0.005   1.032  -1.546  0.00  0.00     0.013 C 
ATOM     10  C3' I4B d   1       0.411   2.747   0.198  0.00  0.00     0.013 C 
ENDBRANCH   7   8
ENDBRANCH   1   7
TORSDOF 2
ENDMDL
