MODEL 1
REMARK minimizedAffinity -5.14993858
REMARK minimizedRMSD -1
REMARK  2 active torsions:
REMARK  status: ('A' for Active; 'I' for Inactive)
REMARK    1  A    between atoms: C2'_3  and  C1'_4 
REMARK    2  A    between atoms: C1'_4  and  C1_5 
ROOT
ATOM      1  C1  I4B d   1      -0.058   0.118  -0.227  0.00  0.00    -0.075 A 
ATOM      2  C2  I4B d   1       0.442  -0.819  -1.097  0.00  0.00     0.003 A 
ATOM      3  C3  I4B d   1       0.378  -2.196  -0.774  0.00  0.00     0.002 A 
ATOM      4  C4  I4B d   1      -0.144  -2.586   0.442  0.00  0.00    -0.004 A 
ATOM      5  C5  I4B d   1      -0.671  -1.636   1.313  0.00  0.00     0.002 A 
ATOM      6  C6  I4B d   1      -0.639  -0.276   0.971  0.00  0.00     0.003 A 
ENDROOT
BRANCH   1   7
ATOM      7  C1' I4B d   1       0.056   1.566  -0.585  0.00  0.00     0.060 C 
BRANCH   7   8
ATOM      8  C2' I4B d   1       0.725   2.281   0.570  0.00  0.00    -0.013 C 
ATOM      9  C4' I4B d   1       2.175   2.560   0.272  0.00  0.00     0.013 C 
ATOM     10  C3' I4B d   1      -0.029   3.552   0.828  0.00  0.00     0.013 C 
ENDBRANCH   7   8
ENDBRANCH   1   7
TORSDOF 2
ENDMDL
