MODEL 1
REMARK minimizedAffinity -3.52084327
REMARK minimizedRMSD -1
REMARK  2 active torsions:
REMARK  status: ('A' for Active; 'I' for Inactive)
REMARK    1  A    between atoms: C2'_3  and  C1'_4 
REMARK    2  A    between atoms: C1'_4  and  C1_5 
ROOT
ATOM      1  C1  I4B d   1      -0.049   0.009  -0.253  0.00  0.00    -0.075 A 
ATOM      2  C2  I4B d   1      -0.568  -0.407   0.948  0.00  0.00     0.003 A 
ATOM      3  C3  I4B d   1      -0.595  -1.785   1.274  0.00  0.00     0.002 A 
ATOM      4  C4  I4B d   1      -0.142  -2.710   0.356  0.00  0.00    -0.004 A 
ATOM      5  C5  I4B d   1       0.405  -2.285  -0.852  0.00  0.00     0.002 A 
ATOM      6  C6  I4B d   1       0.464  -0.916  -1.153  0.00  0.00     0.003 A 
ENDROOT
BRANCH   1   7
ATOM      7  C1' I4B d   1      -0.066   1.468  -0.579  0.00  0.00     0.060 C 
BRANCH   7   8
ATOM      8  C2' I4B d   1       0.568   2.213   0.578  0.00  0.00    -0.013 C 
ATOM      9  C4' I4B d   1       2.032   2.462   0.328  0.00  0.00     0.013 C 
ATOM     10  C3' I4B d   1      -0.176   3.501   0.765  0.00  0.00     0.013 C 
ENDBRANCH   7   8
ENDBRANCH   1   7
TORSDOF 2
ENDMDL
