MODEL 1
REMARK minimizedAffinity -0.5553689
REMARK minimizedRMSD -1
REMARK  2 active torsions:
REMARK  status: ('A' for Active; 'I' for Inactive)
REMARK    1  A    between atoms: C2'_3  and  C1'_4 
REMARK    2  A    between atoms: C1'_4  and  C1_5 
ROOT
ATOM      1  C1  I4B d   1       0.168   1.145   0.179  0.00  0.00    -0.075 A 
ATOM      2  C2  I4B d   1       0.266   0.358   1.299  0.00  0.00     0.003 A 
ATOM      3  C3  I4B d   1      -0.146  -0.996   1.257  0.00  0.00     0.002 A 
ATOM      4  C4  I4B d   1      -0.693  -1.504   0.097  0.00  0.00    -0.004 A 
ATOM      5  C5  I4B d   1      -0.770  -0.711  -1.044  0.00  0.00     0.002 A 
ATOM      6  C6  I4B d   1      -0.326   0.618  -1.007  0.00  0.00     0.003 A 
ENDROOT
BRANCH   1   7
ATOM      7  C1' I4B d   1       0.582   2.580   0.268  0.00  0.00     0.060 C 
BRANCH   7   8
ATOM      8  C2' I4B d   1       2.051   2.620   0.637  0.00  0.00    -0.013 C 
ATOM      9  C4' I4B d   1       2.880   3.187  -0.486  0.00  0.00     0.013 C 
ATOM     10  C3' I4B d   1       2.193   3.442   1.883  0.00  0.00     0.013 C 
ENDBRANCH   7   8
ENDBRANCH   1   7
TORSDOF 2
ENDMDL
