MODEL 1
REMARK minimizedAffinity -4.086411
REMARK minimizedRMSD -1
REMARK  2 active torsions:
REMARK  status: ('A' for Active; 'I' for Inactive)
REMARK    1  A    between atoms: C2'_3  and  C1'_4 
REMARK    2  A    between atoms: C1'_4  and  C1_5 
ROOT
ATOM      1  C1  I4B d   1      -0.078   0.536  -0.103  0.00  0.00    -0.075 A 
ATOM      2  C2  I4B d   1      -0.506  -0.442  -0.966  0.00  0.00     0.003 A 
ATOM      3  C3  I4B d   1      -1.086  -1.632  -0.463  0.00  0.00     0.002 A 
ATOM      4  C4  I4B d   1      -1.172  -1.823   0.901  0.00  0.00    -0.004 A 
ATOM      5  C5  I4B d   1      -0.758  -0.821   1.774  0.00  0.00     0.002 A 
ATOM      6  C6  I4B d   1      -0.219   0.372   1.269  0.00  0.00     0.003 A 
ENDROOT
BRANCH   1   7
ATOM      7  C1' I4B d   1       0.561   1.765  -0.667  0.00  0.00     0.060 C 
BRANCH   7   8
ATOM      8  C2' I4B d   1       1.101   2.583   0.488  0.00  0.00    -0.013 C 
ATOM      9  C4' I4B d   1       2.545   2.951   0.267  0.00  0.00     0.013 C 
ATOM     10  C3' I4B d   1       0.246   3.806   0.630  0.00  0.00     0.013 C 
ENDBRANCH   7   8
ENDBRANCH   1   7
TORSDOF 2
ENDMDL
