MODEL 1
REMARK minimizedAffinity -6.38193417
REMARK minimizedRMSD -1
REMARK  2 active torsions:
REMARK  status: ('A' for Active; 'I' for Inactive)
REMARK    1  A    between atoms: C2'_3  and  C1'_4 
REMARK    2  A    between atoms: C1'_4  and  C1_5 
ROOT
ATOM      1  C1  I4B d   1       0.570  -1.385  -0.516  0.00  0.00    -0.075 A 
ATOM      2  C2  I4B d   1       0.268  -2.533   0.172  0.00  0.00     0.003 A 
ATOM      3  C3  I4B d   1       0.009  -3.737  -0.528  0.00  0.00     0.002 A 
ATOM      4  C4  I4B d   1       0.013  -3.734  -1.908  0.00  0.00    -0.004 A 
ATOM      5  C5  I4B d   1       0.342  -2.574  -2.604  0.00  0.00     0.002 A 
ATOM      6  C6  I4B d   1       0.635  -1.395  -1.903  0.00  0.00     0.003 A 
ENDROOT
BRANCH   1   7
ATOM      7  C1' I4B d   1       0.806  -0.124   0.254  0.00  0.00     0.060 C 
BRANCH   7   8
ATOM      8  C2' I4B d   1      -0.294   0.855  -0.105  0.00  0.00    -0.013 C 
ATOM      9  C4' I4B d   1      -1.631   0.383   0.401  0.00  0.00     0.013 C 
ATOM     10  C3' I4B d   1       0.066   2.189   0.477  0.00  0.00     0.013 C 
ENDBRANCH   7   8
ENDBRANCH   1   7
TORSDOF 2
ENDMDL
