MODEL 1
REMARK minimizedAffinity -5.55665398
REMARK minimizedRMSD -1
REMARK  2 active torsions:
REMARK  status: ('A' for Active; 'I' for Inactive)
REMARK    1  A    between atoms: C2'_3  and  C1'_4 
REMARK    2  A    between atoms: C1'_4  and  C1_5 
ROOT
ATOM      1  C1  I4B d   1      -0.100   0.237  -0.159  0.00  0.00    -0.075 A 
ATOM      2  C2  I4B d   1      -0.709   0.080   1.061  0.00  0.00     0.003 A 
ATOM      3  C3  I4B d   1      -1.017  -1.216   1.542  0.00  0.00     0.002 A 
ATOM      4  C4  I4B d   1      -0.747  -2.315   0.753  0.00  0.00    -0.004 A 
ATOM      5  C5  I4B d   1      -0.110  -2.155  -0.474  0.00  0.00     0.002 A 
ATOM      6  C6  I4B d   1       0.227  -0.872  -0.927  0.00  0.00     0.003 A 
ENDROOT
BRANCH   1   7
ATOM      7  C1' I4B d   1       0.181   1.622  -0.650  0.00  0.00     0.060 C 
BRANCH   7   8
ATOM      8  C2' I4B d   1       0.933   2.360   0.439  0.00  0.00    -0.013 C 
ATOM      9  C4' I4B d   1       2.376   2.568   0.061  0.00  0.00     0.013 C 
ATOM     10  C3' I4B d   1       0.240   3.669   0.673  0.00  0.00     0.013 C 
ENDBRANCH   7   8
ENDBRANCH   1   7
TORSDOF 2
ENDMDL
