MODEL 1
REMARK minimizedAffinity -4.38994789
REMARK minimizedRMSD -1
REMARK  2 active torsions:
REMARK  status: ('A' for Active; 'I' for Inactive)
REMARK    1  A    between atoms: C2'_3  and  C1'_4 
REMARK    2  A    between atoms: C1'_4  and  C1_5 
ROOT
ATOM      1  C1  I4B d   1       0.776   1.261  -0.214  0.00  0.00    -0.075 A 
ATOM      2  C2  I4B d   1       0.147   2.366   0.303  0.00  0.00     0.003 A 
ATOM      3  C3  I4B d   1       0.877   3.555   0.541  0.00  0.00     0.002 A 
ATOM      4  C4  I4B d   1       2.235   3.579   0.297  0.00  0.00    -0.004 A 
ATOM      5  C5  I4B d   1       2.867   2.466  -0.248  0.00  0.00     0.002 A 
ATOM      6  C6  I4B d   1       2.131   1.303  -0.518  0.00  0.00     0.003 A 
ENDROOT
BRANCH   1   7
ATOM      7  C1' I4B d   1      -0.018   0.010  -0.423  0.00  0.00     0.060 C 
BRANCH   7   8
ATOM      8  C2' I4B d   1      -0.689  -0.341   0.890  0.00  0.00    -0.013 C 
ATOM      9  C4' I4B d   1      -1.317  -1.708   0.832  0.00  0.00     0.013 C 
ATOM     10  C3' I4B d   1       0.346  -0.266   1.973  0.00  0.00     0.013 C 
ENDBRANCH   7   8
ENDBRANCH   1   7
TORSDOF 2
ENDMDL
