MODEL 1
REMARK minimizedAffinity 3.8322196
REMARK minimizedRMSD -1
REMARK  1 active torsions:
REMARK  status: ('A' for Active; 'I' for Inactive)
REMARK    1  A    between atoms: C1_2  and  C2_3 
ROOT
ATOM      1  C2  UNL d   1      -1.591  -5.787  -2.720  0.00  0.00    -0.073 A 
ATOM      2  C3  UNL d   1      -2.044  -5.424  -3.994  0.00  0.00    -0.002 A 
ATOM      3  C4  UNL d   1      -1.137  -5.240  -5.038  0.00  0.00     0.004 A 
ATOM      4  C5  UNL d   1       0.229  -5.423  -4.823  0.00  0.00    -0.004 A 
ATOM      5  C6  UNL d   1       0.699  -5.798  -3.560  0.00  0.00    -0.075 A 
ATOM      6  C7  UNL d   1       2.166  -5.997  -3.311  0.00  0.00     0.076 C 
ATOM      7  C8  UNL d   1      -0.217  -5.978  -2.515  0.00  0.00     0.001 A 
ENDROOT
BRANCH   1   8
ATOM      8  C1  UNL d   1      -2.568  -5.994  -1.591  0.00  0.00     0.053 C 
ATOM      9  C   UNL d   1      -4.008  -5.999  -2.077  0.00  0.00     0.018 C 
ENDBRANCH   1   8
TORSDOF 1
ENDMDL
