MODEL 1
REMARK minimizedAffinity 7.22911549
REMARK minimizedRMSD -1
REMARK  1 active torsions:
REMARK  status: ('A' for Active; 'I' for Inactive)
REMARK    1  A    between atoms: C1_2  and  C2_3 
ROOT
ATOM      1  C2  UNL d   1      -0.088  -5.931  -2.430  0.00  0.00    -0.073 A 
ATOM      2  C3  UNL d   1      -1.469  -5.955  -2.655  0.00  0.00    -0.002 A 
ATOM      3  C4  UNL d   1      -1.970  -5.984  -3.957  0.00  0.00     0.004 A 
ATOM      4  C5  UNL d   1      -1.097  -5.998  -5.045  0.00  0.00    -0.004 A 
ATOM      5  C6  UNL d   1       0.286  -5.987  -4.840  0.00  0.00    -0.075 A 
ATOM      6  C7  UNL d   1       1.239  -5.999  -6.000  0.00  0.00     0.076 C 
ATOM      7  C8  UNL d   1       0.782  -5.954  -3.529  0.00  0.00     0.001 A 
ENDROOT
BRANCH   1   8
ATOM      8  C1  UNL d   1       0.458  -5.906  -1.025  0.00  0.00     0.053 C 
ATOM      9  C   UNL d   1       0.095  -4.622  -0.296  0.00  0.00     0.018 C 
ENDBRANCH   1   8
TORSDOF 1
ENDMDL
