MODEL 1
REMARK minimizedAffinity -1.89177334
REMARK minimizedRMSD -1
REMARK  1 active torsions:
REMARK  status: ('A' for Active; 'I' for Inactive)
REMARK    1  A    between atoms: C1_2  and  C2_3 
ROOT
ATOM      1  C2  UNL d   1      -1.722  -5.985  -3.166  0.00  0.00    -0.073 A 
ATOM      2  C3  UNL d   1      -1.889  -5.995  -4.555  0.00  0.00    -0.002 A 
ATOM      3  C4  UNL d   1      -0.777  -5.997  -5.398  0.00  0.00     0.004 A 
ATOM      4  C5  UNL d   1       0.511  -5.997  -4.862  0.00  0.00    -0.004 A 
ATOM      5  C6  UNL d   1       0.698  -5.999  -3.476  0.00  0.00    -0.075 A 
ATOM      6  C7  UNL d   1       2.076  -5.996  -2.883  0.00  0.00     0.076 C 
ATOM      7  C8  UNL d   1      -0.424  -5.993  -2.636  0.00  0.00     0.001 A 
ENDROOT
BRANCH   1   8
ATOM      8  C1  UNL d   1      -2.920  -5.988  -2.251  0.00  0.00     0.053 C 
ATOM      9  C   UNL d   1      -3.926  -4.911  -2.625  0.00  0.00     0.018 C 
ENDBRANCH   1   8
TORSDOF 1
ENDMDL
