MODEL 1
REMARK minimizedAffinity 3.16108179
REMARK minimizedRMSD -1
REMARK  1 active torsions:
REMARK  status: ('A' for Active; 'I' for Inactive)
REMARK    1  A    between atoms: C1_2  and  C2_3 
ROOT
ATOM      1  C2  UNL d   1      -1.943  -5.994  -2.981  0.00  0.00    -0.073 A 
ATOM      2  C3  UNL d   1      -1.102  -5.994  -1.863  0.00  0.00    -0.002 A 
ATOM      3  C4  UNL d   1       0.284  -5.997  -2.023  0.00  0.00     0.004 A 
ATOM      4  C5  UNL d   1       0.843  -5.993  -3.301  0.00  0.00    -0.004 A 
ATOM      5  C6  UNL d   1       0.020  -5.980  -4.431  0.00  0.00    -0.075 A 
ATOM      6  C7  UNL d   1       0.606  -5.978  -5.812  0.00  0.00     0.076 C 
ATOM      7  C8  UNL d   1      -1.371  -5.980  -4.262  0.00  0.00     0.001 A 
ENDROOT
BRANCH   1   8
ATOM      8  C1  UNL d   1      -3.440  -5.984  -2.814  0.00  0.00     0.053 C 
ATOM      9  C   UNL d   1      -3.850  -5.982  -1.349  0.00  0.00     0.018 C 
ENDBRANCH   1   8
TORSDOF 1
ENDMDL
