MODEL 1
REMARK minimizedAffinity 8.73985958
REMARK minimizedRMSD -1
REMARK  1 active torsions:
REMARK  status: ('A' for Active; 'I' for Inactive)
REMARK    1  A    between atoms: C1_2  and  C2_3 
ROOT
ATOM      1  C2  UNL d   1       0.674  -5.724  -3.505  0.00  0.00    -0.073 A 
ATOM      2  C3  UNL d   1       1.239  -5.233  -2.323  0.00  0.00    -0.002 A 
ATOM      3  C4  UNL d   1       0.437  -4.985  -1.208  0.00  0.00     0.004 A 
ATOM      4  C5  UNL d   1      -0.935  -5.230  -1.263  0.00  0.00    -0.004 A 
ATOM      5  C6  UNL d   1      -1.516  -5.732  -2.432  0.00  0.00    -0.075 A 
ATOM      6  C7  UNL d   1      -2.991  -5.999  -2.507  0.00  0.00     0.076 C 
ATOM      7  C8  UNL d   1      -0.704  -5.976  -3.547  0.00  0.00     0.001 A 
ENDROOT
BRANCH   1   8
ATOM      8  C1  UNL d   1       1.538  -5.999  -4.709  0.00  0.00     0.053 C 
ATOM      9  C   UNL d   1       0.734  -6.000  -6.000  0.00  0.00     0.018 C 
ENDBRANCH   1   8
TORSDOF 1
ENDMDL
