MODEL 1
REMARK minimizedAffinity 0.412289679
REMARK minimizedRMSD -1
REMARK  1 active torsions:
REMARK  status: ('A' for Active; 'I' for Inactive)
REMARK    1  A    between atoms: C1_2  and  C2_3 
ROOT
ATOM      1  C2  UNL d   1      -1.396  -5.937  -3.313  0.00  0.00    -0.073 A 
ATOM      2  C3  UNL d   1      -1.943  -5.844  -4.598  0.00  0.00    -0.002 A 
ATOM      3  C4  UNL d   1      -1.110  -5.793  -5.716  0.00  0.00     0.004 A 
ATOM      4  C5  UNL d   1       0.275  -5.842  -5.563  0.00  0.00    -0.004 A 
ATOM      5  C6  UNL d   1       0.840  -5.947  -4.288  0.00  0.00    -0.075 A 
ATOM      6  C7  UNL d   1       2.329  -5.999  -4.106  0.00  0.00     0.076 C 
ATOM      7  C8  UNL d   1      -0.002  -5.995  -3.169  0.00  0.00     0.001 A 
ENDROOT
BRANCH   1   8
ATOM      8  C1  UNL d   1      -2.291  -5.999  -2.103  0.00  0.00     0.053 C 
ATOM      9  C   UNL d   1      -3.763  -5.926  -2.478  0.00  0.00     0.018 C 
ENDBRANCH   1   8
TORSDOF 1
ENDMDL
