MODEL 1
REMARK minimizedAffinity 10.1959572
REMARK minimizedRMSD -1
REMARK  1 active torsions:
REMARK  status: ('A' for Active; 'I' for Inactive)
REMARK    1  A    between atoms: C1_2  and  C2_3 
ROOT
ATOM      1  C2  UNL d   1      -2.847  -5.978  -3.460  0.00  0.00    -0.073 A 
ATOM      2  C3  UNL d   1      -2.708  -5.992  -4.853  0.00  0.00    -0.002 A 
ATOM      3  C4  UNL d   1      -1.440  -5.996  -5.434  0.00  0.00     0.004 A 
ATOM      4  C5  UNL d   1      -0.299  -5.995  -4.631  0.00  0.00    -0.004 A 
ATOM      5  C6  UNL d   1      -0.418  -5.993  -3.238  0.00  0.00    -0.075 A 
ATOM      6  C7  UNL d   1       0.799  -5.989  -2.360  0.00  0.00     0.076 C 
ATOM      7  C8  UNL d   1      -1.695  -5.985  -2.661  0.00  0.00     0.001 A 
ENDROOT
BRANCH   1   8
ATOM      8  C1  UNL d   1      -4.215  -5.979  -2.827  0.00  0.00     0.053 C 
ATOM      9  C   UNL d   1      -4.165  -5.582  -1.361  0.00  0.00     0.018 C 
ENDBRANCH   1   8
TORSDOF 1
ENDMDL
