MODEL 1
REMARK minimizedAffinity -4.49812365
REMARK minimizedRMSD -1
REMARK  2 active torsions:
REMARK  status: ('A' for Active; 'I' for Inactive)
REMARK    1  A    between atoms: C1_2  and  C2_3 
REMARK    2  A    between atoms: C2_3  and  C3_4 
ROOT
ATOM      1  C3  UNL d   1       0.333  -1.109  -0.604  0.00  0.00    -0.075 A 
ATOM      2  C4  UNL d   1      -0.432  -1.599  -1.673  0.00  0.00     0.002 A 
ATOM      3  C5  UNL d   1       0.020  -2.680  -2.431  0.00  0.00     0.002 A 
ATOM      4  C6  UNL d   1       1.244  -3.277  -2.138  0.00  0.00    -0.004 A 
ATOM      5  C7  UNL d   1       2.020  -2.788  -1.089  0.00  0.00     0.002 A 
ATOM      6  C8  UNL d   1       1.568  -1.710  -0.326  0.00  0.00     0.002 A 
ENDROOT
BRANCH   1   7
ATOM      7  C2  UNL d   1      -0.165   0.041   0.238  0.00  0.00     0.056 C 
BRANCH   7   8
ATOM      8  C1  UNL d   1      -0.397  -0.319   1.709  0.00  0.00     0.007 C 
ATOM      9  C   UNL d   1      -1.272   0.689   2.442  0.00  0.00     0.009 C 
ENDBRANCH   7   8
ENDBRANCH   1   7
TORSDOF 2
ENDMDL
