MODEL 1
REMARK minimizedAffinity -0.344171613
REMARK minimizedRMSD -1
REMARK  2 active torsions:
REMARK  status: ('A' for Active; 'I' for Inactive)
REMARK    1  A    between atoms: C1_2  and  C2_3 
REMARK    2  A    between atoms: C2_3  and  C3_4 
ROOT
ATOM      1  C3  UNL d   1      -0.439   1.120   1.039  0.00  0.00    -0.075 A 
ATOM      2  C4  UNL d   1      -0.197  -0.224   1.357  0.00  0.00     0.002 A 
ATOM      3  C5  UNL d   1       0.485  -1.051   0.464  0.00  0.00     0.002 A 
ATOM      4  C6  UNL d   1       0.924  -0.549  -0.759  0.00  0.00    -0.004 A 
ATOM      5  C7  UNL d   1       0.675   0.780  -1.092  0.00  0.00     0.002 A 
ATOM      6  C8  UNL d   1      -0.004   1.611  -0.199  0.00  0.00     0.002 A 
ENDROOT
BRANCH   1   7
ATOM      7  C2  UNL d   1      -1.150   2.029   2.013  0.00  0.00     0.056 C 
BRANCH   7   8
ATOM      8  C1  UNL d   1      -0.694   1.863   3.467  0.00  0.00     0.007 C 
ATOM      9  C   UNL d   1       0.434   2.809   3.854  0.00  0.00     0.009 C 
ENDBRANCH   7   8
ENDBRANCH   1   7
TORSDOF 2
ENDMDL
