MODEL 1
REMARK minimizedAffinity -4.49859476
REMARK minimizedRMSD -1
REMARK  2 active torsions:
REMARK  status: ('A' for Active; 'I' for Inactive)
REMARK    1  A    between atoms: C1_2  and  C2_3 
REMARK    2  A    between atoms: C2_3  and  C3_4 
ROOT
ATOM      1  C3  UNL d   1      -0.003  -0.174  -0.025  0.00  0.00    -0.075 A 
ATOM      2  C4  UNL d   1      -0.406  -0.610   1.246  0.00  0.00     0.002 A 
ATOM      3  C5  UNL d   1      -0.992   0.279   2.147  0.00  0.00     0.002 A 
ATOM      4  C6  UNL d   1      -1.172   1.615   1.795  0.00  0.00    -0.004 A 
ATOM      5  C7  UNL d   1      -0.761   2.063   0.541  0.00  0.00     0.002 A 
ATOM      6  C8  UNL d   1      -0.178   1.174  -0.364  0.00  0.00     0.002 A 
ENDROOT
BRANCH   1   7
ATOM      7  C2  UNL d   1       0.605  -1.138  -1.016  0.00  0.00     0.056 C 
BRANCH   7   8
ATOM      8  C1  UNL d   1      -0.424  -1.884  -1.871  0.00  0.00     0.007 C 
ATOM      9  C   UNL d   1       0.149  -3.113  -2.564  0.00  0.00     0.009 C 
ENDBRANCH   7   8
ENDBRANCH   1   7
TORSDOF 2
ENDMDL
