MODEL 1
REMARK minimizedAffinity -4.63829327
REMARK minimizedRMSD -1
REMARK  2 active torsions:
REMARK  status: ('A' for Active; 'I' for Inactive)
REMARK    1  A    between atoms: C1_2  and  C2_3 
REMARK    2  A    between atoms: C2_3  and  C3_4 
ROOT
ATOM      1  C3  UNL d   1      -0.759  -1.003   0.096  0.00  0.00    -0.075 A 
ATOM      2  C4  UNL d   1      -1.707  -0.948   1.129  0.00  0.00     0.002 A 
ATOM      3  C5  UNL d   1      -1.849   0.207   1.898  0.00  0.00     0.002 A 
ATOM      4  C6  UNL d   1      -1.042   1.315   1.653  0.00  0.00    -0.004 A 
ATOM      5  C7  UNL d   1      -0.085   1.265   0.640  0.00  0.00     0.002 A 
ATOM      6  C8  UNL d   1       0.056   0.113  -0.134  0.00  0.00     0.002 A 
ENDROOT
BRANCH   1   7
ATOM      7  C2  UNL d   1      -0.620  -2.240  -0.759  0.00  0.00     0.056 C 
BRANCH   7   8
ATOM      8  C1  UNL d   1       0.696  -2.313  -1.541  0.00  0.00     0.007 C 
ATOM      9  C   UNL d   1       0.505  -2.690  -3.004  0.00  0.00     0.009 C 
ENDBRANCH   7   8
ENDBRANCH   1   7
TORSDOF 2
ENDMDL
