MODEL 1
REMARK minimizedAffinity -3.81886601
REMARK minimizedRMSD -1
REMARK  2 active torsions:
REMARK  status: ('A' for Active; 'I' for Inactive)
REMARK    1  A    between atoms: C1_2  and  C2_3 
REMARK    2  A    between atoms: C2_3  and  C3_4 
ROOT
ATOM      1  C3  UNL d   1       0.117  -0.189  -0.438  0.00  0.00    -0.075 A 
ATOM      2  C4  UNL d   1       0.116   1.213  -0.443  0.00  0.00     0.002 A 
ATOM      3  C5  UNL d   1      -0.456   1.925   0.612  0.00  0.00     0.002 A 
ATOM      4  C6  UNL d   1      -1.041   1.246   1.678  0.00  0.00    -0.004 A 
ATOM      5  C7  UNL d   1      -1.060  -0.147   1.686  0.00  0.00     0.002 A 
ATOM      6  C8  UNL d   1      -0.485  -0.862   0.634  0.00  0.00     0.002 A 
ENDROOT
BRANCH   1   7
ATOM      7  C2  UNL d   1       0.760  -0.965  -1.562  0.00  0.00     0.056 C 
BRANCH   7   8
ATOM      8  C1  UNL d   1       0.347  -2.440  -1.618  0.00  0.00     0.007 C 
ATOM      9  C   UNL d   1       1.464  -3.393  -1.215  0.00  0.00     0.009 C 
ENDBRANCH   7   8
ENDBRANCH   1   7
TORSDOF 2
ENDMDL
