MODEL 1
REMARK minimizedAffinity -0.651807368
REMARK minimizedRMSD -1
REMARK  2 active torsions:
REMARK  status: ('A' for Active; 'I' for Inactive)
REMARK    1  A    between atoms: C1_2  and  C2_3 
REMARK    2  A    between atoms: C2_3  and  C3_4 
ROOT
ATOM      1  C3  UNL d   1       1.015  -1.860  -1.517  0.00  0.00    -0.075 A 
ATOM      2  C4  UNL d   1       0.359  -2.226  -2.701  0.00  0.00     0.002 A 
ATOM      3  C5  UNL d   1       0.228  -3.570  -3.052  0.00  0.00     0.002 A 
ATOM      4  C6  UNL d   1       0.761  -4.562  -2.233  0.00  0.00    -0.004 A 
ATOM      5  C7  UNL d   1       1.430  -4.210  -1.063  0.00  0.00     0.002 A 
ATOM      6  C8  UNL d   1       1.558  -2.866  -0.706  0.00  0.00     0.002 A 
ENDROOT
BRANCH   1   7
ATOM      7  C2  UNL d   1       1.134  -0.409  -1.115  0.00  0.00     0.056 C 
BRANCH   7   8
ATOM      8  C1  UNL d   1      -0.191   0.229  -0.685  0.00  0.00     0.007 C 
ATOM      9  C   UNL d   1      -0.735  -0.340   0.619  0.00  0.00     0.009 C 
ENDBRANCH   7   8
ENDBRANCH   1   7
TORSDOF 2
ENDMDL
