MODEL 1
REMARK minimizedAffinity -4.59579802
REMARK minimizedRMSD -1
REMARK  2 active torsions:
REMARK  status: ('A' for Active; 'I' for Inactive)
REMARK    1  A    between atoms: C1_2  and  C2_3 
REMARK    2  A    between atoms: C2_3  and  C3_4 
ROOT
ATOM      1  C3  UNL d   1       0.159  -0.972  -0.874  0.00  0.00    -0.075 A 
ATOM      2  C4  UNL d   1       1.331  -1.741  -0.924  0.00  0.00     0.002 A 
ATOM      3  C5  UNL d   1       1.366  -2.931  -1.650  0.00  0.00     0.002 A 
ATOM      4  C6  UNL d   1       0.231  -3.373  -2.326  0.00  0.00    -0.004 A 
ATOM      5  C7  UNL d   1      -0.944  -2.625  -2.270  0.00  0.00     0.002 A 
ATOM      6  C8  UNL d   1      -0.981  -1.431  -1.548  0.00  0.00     0.002 A 
ENDROOT
BRANCH   1   7
ATOM      7  C2  UNL d   1       0.123   0.333  -0.114  0.00  0.00     0.056 C 
BRANCH   7   8
ATOM      8  C1  UNL d   1      -0.504   0.225   1.280  0.00  0.00     0.007 C 
ATOM      9  C   UNL d   1      -0.870   1.576   1.880  0.00  0.00     0.009 C 
ENDBRANCH   7   8
ENDBRANCH   1   7
TORSDOF 2
ENDMDL
