MODEL 1
REMARK minimizedAffinity -4.98211861
REMARK minimizedRMSD -1
REMARK  2 active torsions:
REMARK  status: ('A' for Active; 'I' for Inactive)
REMARK    1  A    between atoms: C1_2  and  C2_3 
REMARK    2  A    between atoms: C2_3  and  C3_4 
ROOT
ATOM      1  C3  UNL d   1       0.232  -0.122   0.105  0.00  0.00    -0.075 A 
ATOM      2  C4  UNL d   1       0.029   1.244  -0.138  0.00  0.00     0.002 A 
ATOM      3  C5  UNL d   1      -0.696   2.024   0.763  0.00  0.00     0.002 A 
ATOM      4  C6  UNL d   1      -1.237   1.448   1.911  0.00  0.00    -0.004 A 
ATOM      5  C7  UNL d   1      -1.056   0.088   2.154  0.00  0.00     0.002 A 
ATOM      6  C8  UNL d   1      -0.327  -0.694   1.256  0.00  0.00     0.002 A 
ENDROOT
BRANCH   1   7
ATOM      7  C2  UNL d   1       1.041  -0.965  -0.851  0.00  0.00     0.056 C 
BRANCH   7   8
ATOM      8  C1  UNL d   1       0.218  -1.591  -1.981  0.00  0.00     0.007 C 
ATOM      9  C   UNL d   1       0.750  -2.944  -2.434  0.00  0.00     0.009 C 
ENDBRANCH   7   8
ENDBRANCH   1   7
TORSDOF 2
ENDMDL
