MODEL 1
REMARK minimizedAffinity -4.75243807
REMARK minimizedRMSD -1
REMARK  2 active torsions:
REMARK  status: ('A' for Active; 'I' for Inactive)
REMARK    1  A    between atoms: C1_2  and  C2_3 
REMARK    2  A    between atoms: C2_3  and  C3_4 
ROOT
ATOM      1  C3  UNL d   1       0.348  -0.858  -0.541  0.00  0.00    -0.075 A 
ATOM      2  C4  UNL d   1      -0.420  -1.358  -1.603  0.00  0.00     0.002 A 
ATOM      3  C5  UNL d   1      -0.053  -2.539  -2.248  0.00  0.00     0.002 A 
ATOM      4  C6  UNL d   1       1.088  -3.230  -1.847  0.00  0.00    -0.004 A 
ATOM      5  C7  UNL d   1       1.868  -2.734  -0.804  0.00  0.00     0.002 A 
ATOM      6  C8  UNL d   1       1.501  -1.555  -0.154  0.00  0.00     0.002 A 
ENDROOT
BRANCH   1   7
ATOM      7  C2  UNL d   1      -0.059   0.404   0.180  0.00  0.00     0.056 C 
BRANCH   7   8
ATOM      8  C1  UNL d   1      -0.683   0.161   1.559  0.00  0.00     0.007 C 
ATOM      9  C   UNL d   1      -1.133   1.443   2.248  0.00  0.00     0.009 C 
ENDBRANCH   7   8
ENDBRANCH   1   7
TORSDOF 2
ENDMDL
