MODEL 1
REMARK minimizedAffinity -4.51046801
REMARK minimizedRMSD -1
REMARK  0 active torsions:
REMARK  status: ('A' for Active; 'I' for Inactive)
ROOT
ATOM      1  N1  IND d   1      -5.999  -0.901  -0.097  0.00  0.00    -0.196 N 
ATOM      2  C2  IND d   1      -5.836  -1.113  -1.438  0.00  0.00     0.054 A 
ATOM      3  C3  IND d   1      -4.695  -0.531  -1.871  0.00  0.00    -0.031 A 
ATOM      4  C4  IND d   1      -2.895   0.735  -0.535  0.00  0.00     0.051 A 
ATOM      5  C5  IND d   1      -2.620   1.215   0.714  0.00  0.00    -0.031 A 
ATOM      6  C6  IND d   1      -3.473   1.008   1.779  0.00  0.00     0.015 A 
ATOM      7  C7  IND d   1      -4.632   0.300   1.636  0.00  0.00    -0.016 A 
ATOM      8  C8  IND d   1      -4.919  -0.183   0.367  0.00  0.00    -0.047 A 
ATOM      9  C9  IND d   1      -4.078   0.060  -0.727  0.00  0.00    -0.096 A 
ATOM     10  HN1 IND d   1      -6.664  -1.170   0.376  0.00  0.00     0.298 HD
ENDROOT
TORSDOF 0
ENDMDL
