MODEL 1
REMARK minimizedAffinity -4.44453716
REMARK minimizedRMSD -1
REMARK  0 active torsions:
REMARK  status: ('A' for Active; 'I' for Inactive)
ROOT
ATOM      1  N1  IND d   1       0.207   1.682   0.045  0.00  0.00    -0.196 N 
ATOM      2  C2  IND d   1      -0.823   0.821  -0.215  0.00  0.00     0.054 A 
ATOM      3  C3  IND d   1      -0.418  -0.459  -0.055  0.00  0.00    -0.031 A 
ATOM      4  C4  IND d   1       1.860  -1.368   0.726  0.00  0.00     0.051 A 
ATOM      5  C5  IND d   1       3.127  -0.968   1.046  0.00  0.00    -0.031 A 
ATOM      6  C6  IND d   1       3.492   0.363   1.052  0.00  0.00     0.015 A 
ATOM      7  C7  IND d   1       2.596   1.349   0.747  0.00  0.00    -0.016 A 
ATOM      8  C8  IND d   1       1.311   0.946   0.415  0.00  0.00    -0.047 A 
ATOM      9  C9  IND d   1       0.946  -0.406   0.366  0.00  0.00    -0.096 A 
ATOM     10  HN1 IND d   1       0.171   2.539  -0.012  0.00  0.00     0.298 HD
ENDROOT
TORSDOF 0
ENDMDL
