MODEL 1
REMARK minimizedAffinity -2.34142303
REMARK minimizedRMSD -1
REMARK  0 active torsions:
REMARK  status: ('A' for Active; 'I' for Inactive)
ROOT
ATOM      1  N1  IND d   1       2.053   1.905  -0.035  0.00  0.00    -0.196 N 
ATOM      2  C2  IND d   1       3.420   1.922  -0.073  0.00  0.00     0.054 A 
ATOM      3  C3  IND d   1       3.904   0.663  -0.160  0.00  0.00    -0.031 A 
ATOM      4  C4  IND d   1       2.634  -1.568  -0.357  0.00  0.00     0.051 A 
ATOM      5  C5  IND d   1       1.374  -2.096  -0.330  0.00  0.00    -0.031 A 
ATOM      6  C6  IND d   1       0.253  -1.301  -0.203  0.00  0.00     0.015 A 
ATOM      7  C7  IND d   1       0.350   0.059  -0.110  0.00  0.00    -0.016 A 
ATOM      8  C8  IND d   1       1.629   0.598  -0.130  0.00  0.00    -0.047 A 
ATOM      9  C9  IND d   1       2.772  -0.207  -0.215  0.00  0.00    -0.096 A 
ATOM     10  HN1 IND d   1       1.545   2.594   0.036  0.00  0.00     0.298 HD
ENDROOT
TORSDOF 0
ENDMDL
