MODEL 1
REMARK minimizedAffinity -2.34933662
REMARK minimizedRMSD -1
REMARK  0 active torsions:
REMARK  status: ('A' for Active; 'I' for Inactive)
ROOT
ATOM      1  N1  IND d   1       1.073   0.313  -0.315  0.00  0.00    -0.196 N 
ATOM      2  C2  IND d   1       1.497  -0.586   0.624  0.00  0.00     0.054 A 
ATOM      3  C3  IND d   1       0.454  -1.010   1.373  0.00  0.00    -0.031 A 
ATOM      4  C4  IND d   1      -2.048  -0.438   1.166  0.00  0.00     0.051 A 
ATOM      5  C5  IND d   1      -2.916   0.365   0.482  0.00  0.00    -0.031 A 
ATOM      6  C6  IND d   1      -2.491   1.207  -0.526  0.00  0.00     0.015 A 
ATOM      7  C7  IND d   1      -1.177   1.269  -0.895  0.00  0.00    -0.016 A 
ATOM      8  C8  IND d   1      -0.291   0.460  -0.198  0.00  0.00    -0.047 A 
ATOM      9  C9  IND d   1      -0.711  -0.365   0.854  0.00  0.00    -0.096 A 
ATOM     10  HN1 IND d   1       1.575   0.719  -0.884  0.00  0.00     0.298 HD
ENDROOT
TORSDOF 0
ENDMDL
