MODEL 1
REMARK minimizedAffinity -3.53759646
REMARK minimizedRMSD -1
REMARK  0 active torsions:
REMARK  status: ('A' for Active; 'I' for Inactive)
ROOT
ATOM      1  N1  IND d   1      -0.288   0.816   1.047  0.00  0.00    -0.196 N 
ATOM      2  C2  IND d   1      -1.016   1.048  -0.086  0.00  0.00     0.054 A 
ATOM      3  C3  IND d   1      -0.599   0.240  -1.087  0.00  0.00    -0.031 A 
ATOM      4  C4  IND d   1       1.194  -1.606  -1.058  0.00  0.00     0.051 A 
ATOM      5  C5  IND d   1       2.154  -2.164  -0.260  0.00  0.00    -0.031 A 
ATOM      6  C6  IND d   1       2.351  -1.750   1.042  0.00  0.00     0.015 A 
ATOM      7  C7  IND d   1       1.584  -0.766   1.600  0.00  0.00    -0.016 A 
ATOM      8  C8  IND d   1       0.613  -0.193   0.790  0.00  0.00    -0.047 A 
ATOM      9  C9  IND d   1       0.438  -0.580  -0.545  0.00  0.00    -0.096 A 
ATOM     10  HN1 IND d   1      -0.378   1.232   1.795  0.00  0.00     0.298 HD
ENDROOT
TORSDOF 0
ENDMDL
