MODEL 1
REMARK minimizedAffinity -4.12431765
REMARK minimizedRMSD -1
REMARK  0 active torsions:
REMARK  status: ('A' for Active; 'I' for Inactive)
ROOT
ATOM      1  N1  IND d   1      -0.089   2.093  -0.295  0.00  0.00    -0.196 N 
ATOM      2  C2  IND d   1      -1.128   1.561  -1.006  0.00  0.00     0.054 A 
ATOM      3  C3  IND d   1      -1.036   0.213  -1.037  0.00  0.00    -0.031 A 
ATOM      4  C4  IND d   1       0.682  -1.335   0.096  0.00  0.00     0.051 A 
ATOM      5  C5  IND d   1       1.839  -1.311   0.823  0.00  0.00    -0.031 A 
ATOM      6  C6  IND d   1       2.423  -0.127   1.225  0.00  0.00     0.015 A 
ATOM      7  C7  IND d   1       1.863   1.082   0.923  0.00  0.00    -0.016 A 
ATOM      8  C8  IND d   1       0.691   1.062   0.179  0.00  0.00    -0.047 A 
ATOM      9  C9  IND d   1       0.117  -0.135  -0.268  0.00  0.00    -0.096 A 
ATOM     10  HN1 IND d   1       0.053   2.931  -0.165  0.00  0.00     0.298 HD
ENDROOT
TORSDOF 0
ENDMDL
