MODEL 1
REMARK minimizedAffinity -5.51360083
REMARK minimizedRMSD -1
REMARK  0 active torsions:
REMARK  status: ('A' for Active; 'I' for Inactive)
ROOT
ATOM      1  N1  IND d   1       2.408   1.801  -0.597  0.00  0.00    -0.196 N 
ATOM      2  C2  IND d   1       3.737   1.635  -0.323  0.00  0.00     0.054 A 
ATOM      3  C3  IND d   1       3.963   0.403   0.187  0.00  0.00    -0.031 A 
ATOM      4  C4  IND d   1       2.314  -1.538   0.563  0.00  0.00     0.051 A 
ATOM      5  C5  IND d   1       0.985  -1.850   0.497  0.00  0.00    -0.031 A 
ATOM      6  C6  IND d   1       0.044  -0.944   0.051  0.00  0.00     0.015 A 
ATOM      7  C7  IND d   1       0.400   0.310  -0.357  0.00  0.00    -0.016 A 
ATOM      8  C8  IND d   1       1.748   0.633  -0.285  0.00  0.00    -0.047 A 
ATOM      9  C9  IND d   1       2.701  -0.268   0.206  0.00  0.00    -0.096 A 
ATOM     10  HN1 IND d   1       2.046   2.515  -0.911  0.00  0.00     0.298 HD
ENDROOT
TORSDOF 0
ENDMDL
