MODEL 1
REMARK minimizedAffinity -3.798702
REMARK minimizedRMSD -1
REMARK  0 active torsions:
REMARK  status: ('A' for Active; 'I' for Inactive)
ROOT
ATOM      1  N1  IND d   1       0.206   1.577  -0.658  0.00  0.00    -0.196 N 
ATOM      2  C2  IND d   1       1.144   2.493  -0.269  0.00  0.00     0.054 A 
ATOM      3  C3  IND d   1       2.197   1.871   0.309  0.00  0.00    -0.031 A 
ATOM      4  C4  IND d   1       2.636  -0.645   0.629  0.00  0.00     0.051 A 
ATOM      5  C5  IND d   1       2.052  -1.870   0.468  0.00  0.00    -0.031 A 
ATOM      6  C6  IND d   1       0.798  -2.011  -0.091  0.00  0.00     0.015 A 
ATOM      7  C7  IND d   1       0.084  -0.929  -0.522  0.00  0.00    -0.016 A 
ATOM      8  C8  IND d   1       0.671   0.317  -0.353  0.00  0.00    -0.047 A 
ATOM      9  C9  IND d   1       1.925   0.470   0.253  0.00  0.00    -0.096 A 
ATOM     10  HN1 IND d   1      -0.547   1.758  -1.031  0.00  0.00     0.298 HD
ENDROOT
TORSDOF 0
ENDMDL
