MODEL 1
REMARK minimizedAffinity 0.584774077
REMARK minimizedRMSD -1
REMARK  0 active torsions:
REMARK  status: ('A' for Active; 'I' for Inactive)
ROOT
ATOM      1  N1  IND d   1       0.855  -1.619  -0.824  0.00  0.00    -0.196 N 
ATOM      2  C2  IND d   1       2.172  -1.943  -0.656  0.00  0.00     0.054 A 
ATOM      3  C3  IND d   1       2.914  -0.825  -0.493  0.00  0.00    -0.031 A 
ATOM      4  C4  IND d   1       2.160   1.634  -0.365  0.00  0.00     0.051 A 
ATOM      5  C5  IND d   1       1.059   2.431  -0.500  0.00  0.00    -0.031 A 
ATOM      6  C6  IND d   1      -0.193   1.908  -0.753  0.00  0.00     0.015 A 
ATOM      7  C7  IND d   1      -0.393   0.562  -0.869  0.00  0.00    -0.016 A 
ATOM      8  C8  IND d   1       0.725  -0.251  -0.739  0.00  0.00    -0.047 A 
ATOM      9  C9  IND d   1       2.005   0.277  -0.525  0.00  0.00    -0.096 A 
ATOM     10  HN1 IND d   1       0.214  -2.177  -0.961  0.00  0.00     0.298 HD
ENDROOT
TORSDOF 0
ENDMDL
