MODEL 1
REMARK minimizedAffinity -3.08374667
REMARK minimizedRMSD -1
REMARK  0 active torsions:
REMARK  status: ('A' for Active; 'I' for Inactive)
ROOT
ATOM      1  N1  IND d   1       2.103   2.209  -0.567  0.00  0.00    -0.196 N 
ATOM      2  C2  IND d   1       3.469   2.158  -0.545  0.00  0.00     0.054 A 
ATOM      3  C3  IND d   1       3.889   0.883  -0.383  0.00  0.00    -0.031 A 
ATOM      4  C4  IND d   1       2.512  -1.287  -0.235  0.00  0.00     0.051 A 
ATOM      5  C5  IND d   1       1.226  -1.744  -0.171  0.00  0.00    -0.031 A 
ATOM      6  C6  IND d   1       0.144  -0.890  -0.239  0.00  0.00     0.015 A 
ATOM      7  C7  IND d   1       0.309   0.458  -0.387  0.00  0.00    -0.016 A 
ATOM      8  C8  IND d   1       1.614   0.927  -0.445  0.00  0.00    -0.047 A 
ATOM      9  C9  IND d   1       2.716   0.069  -0.333  0.00  0.00    -0.096 A 
ATOM     10  HN1 IND d   1       1.629   2.922  -0.643  0.00  0.00     0.298 HD
ENDROOT
TORSDOF 0
ENDMDL
