MODEL 1
REMARK minimizedAffinity -5.00984335
REMARK minimizedRMSD -1
REMARK  0 active torsions:
REMARK  status: ('A' for Active; 'I' for Inactive)
ROOT
ATOM      1  N1  IND d   1       0.367   1.699  -0.407  0.00  0.00    -0.196 N 
ATOM      2  C2  IND d   1       1.254   2.569   0.163  0.00  0.00     0.054 A 
ATOM      3  C3  IND d   1       2.235   1.890   0.800  0.00  0.00    -0.031 A 
ATOM      4  C4  IND d   1       2.637  -0.648   0.947  0.00  0.00     0.051 A 
ATOM      5  C5  IND d   1       2.076  -1.849   0.614  0.00  0.00    -0.031 A 
ATOM      6  C6  IND d   1       0.894  -1.930  -0.093  0.00  0.00     0.015 A 
ATOM      7  C7  IND d   1       0.232  -0.808  -0.505  0.00  0.00    -0.016 A 
ATOM      8  C8  IND d   1       0.796   0.413  -0.163  0.00  0.00    -0.047 A 
ATOM      9  C9  IND d   1       1.973   0.501   0.592  0.00  0.00    -0.096 A 
ATOM     10  HN1 IND d   1      -0.339   1.918  -0.846  0.00  0.00     0.298 HD
ENDROOT
TORSDOF 0
ENDMDL
