MODEL 1
REMARK minimizedAffinity 1.33083367
REMARK minimizedRMSD -1
REMARK  3 active torsions:
REMARK  status: ('A' for Active; 'I' for Inactive)
REMARK    1  A    between atoms: C3'_2  and  C2'_3 
REMARK    2  A    between atoms: C2'_3  and  C1'_4 
REMARK    3  A    between atoms: C1'_4  and  C1_5 
ROOT
ATOM      1  C1  N4B d   1      -0.221   0.498   0.601  0.00  0.00    -0.075 A 
ATOM      2  C2  N4B d   1      -1.499   0.036   0.985  0.00  0.00     0.002 A 
ATOM      3  C3  N4B d   1      -1.747  -0.288   2.296  0.00  0.00     0.002 A 
ATOM      4  C4  N4B d   1      -0.732  -0.176   3.234  0.00  0.00    -0.004 A 
ATOM      5  C5  N4B d   1       0.493   0.296   2.860  0.00  0.00     0.002 A 
ATOM      6  C6  N4B d   1       0.755   0.629   1.546  0.00  0.00     0.002 A 
ENDROOT
BRANCH   1   7
ATOM      7  C1' N4B d   1       0.122   0.783  -0.835  0.00  0.00     0.057 C 
BRANCH   7   8
ATOM      8  C2' N4B d   1       0.811   2.141  -0.926  0.00  0.00     0.009 C 
BRANCH   8   9
ATOM      9  C3' N4B d   1       1.415   2.381  -2.299  0.00  0.00     0.004 C 
ATOM     10  C4' N4B d   1       1.259   3.799  -2.763  0.00  0.00     0.003 C 
ENDBRANCH   8   9
ENDBRANCH   7   8
ENDBRANCH   1   7
TORSDOF 3
ENDMDL
