MODEL 1
REMARK minimizedAffinity 8.94202995
REMARK minimizedRMSD -1
REMARK  3 active torsions:
REMARK  status: ('A' for Active; 'I' for Inactive)
REMARK    1  A    between atoms: C3'_2  and  C2'_3 
REMARK    2  A    between atoms: C2'_3  and  C1'_4 
REMARK    3  A    between atoms: C1'_4  and  C1_5 
ROOT
ATOM      1  C1  N4B d   1      -0.587   0.212   2.677  0.00  0.00    -0.075 A 
ATOM      2  C2  N4B d   1      -1.215   0.351   1.420  0.00  0.00     0.002 A 
ATOM      3  C3  N4B d   1      -1.989  -0.669   0.923  0.00  0.00     0.002 A 
ATOM      4  C4  N4B d   1      -2.134  -1.839   1.652  0.00  0.00    -0.004 A 
ATOM      5  C5  N4B d   1      -1.544  -1.955   2.877  0.00  0.00     0.002 A 
ATOM      6  C6  N4B d   1      -0.767  -0.937   3.391  0.00  0.00     0.002 A 
ENDROOT
BRANCH   1   7
ATOM      7  C1' N4B d   1       0.338   1.265   3.223  0.00  0.00     0.057 C 
BRANCH   7   8
ATOM      8  C2' N4B d   1       1.736   0.673   3.374  0.00  0.00     0.009 C 
BRANCH   8   9
ATOM      9  C3' N4B d   1       2.377   0.380   2.028  0.00  0.00     0.004 C 
ATOM     10  C4' N4B d   1       3.817  -0.021   2.146  0.00  0.00     0.003 C 
ENDBRANCH   8   9
ENDBRANCH   7   8
ENDBRANCH   1   7
TORSDOF 3
ENDMDL
