MODEL 1
REMARK minimizedAffinity 2.82406521
REMARK minimizedRMSD -1
REMARK  3 active torsions:
REMARK  status: ('A' for Active; 'I' for Inactive)
REMARK    1  A    between atoms: C3'_2  and  C2'_3 
REMARK    2  A    between atoms: C2'_3  and  C1'_4 
REMARK    3  A    between atoms: C1'_4  and  C1_5 
ROOT
ATOM      1  C1  N4B d   1      -2.225  -0.836   0.009  0.00  0.00    -0.075 A 
ATOM      2  C2  N4B d   1      -1.433  -0.058  -0.863  0.00  0.00     0.002 A 
ATOM      3  C3  N4B d   1      -0.699  -0.667  -1.851  0.00  0.00     0.002 A 
ATOM      4  C4  N4B d   1      -0.725  -2.048  -1.972  0.00  0.00    -0.004 A 
ATOM      5  C5  N4B d   1      -1.513  -2.791  -1.142  0.00  0.00     0.002 A 
ATOM      6  C6  N4B d   1      -2.260  -2.192  -0.147  0.00  0.00     0.002 A 
ENDROOT
BRANCH   1   7
ATOM      7  C1' N4B d   1      -2.978  -0.223   1.158  0.00  0.00     0.057 C 
BRANCH   7   8
ATOM      8  C2' N4B d   1      -1.984   0.408   2.129  0.00  0.00     0.009 C 
BRANCH   8   9
ATOM      9  C3' N4B d   1      -1.532  -0.573   3.197  0.00  0.00     0.004 C 
ATOM     10  C4' N4B d   1      -0.107  -0.361   3.614  0.00  0.00     0.003 C 
ENDBRANCH   8   9
ENDBRANCH   7   8
ENDBRANCH   1   7
TORSDOF 3
ENDMDL
