MODEL 1
REMARK minimizedAffinity 15.3650703
REMARK minimizedRMSD -1
REMARK  3 active torsions:
REMARK  status: ('A' for Active; 'I' for Inactive)
REMARK    1  A    between atoms: C3'_2  and  C2'_3 
REMARK    2  A    between atoms: C2'_3  and  C1'_4 
REMARK    3  A    between atoms: C1'_4  and  C1_5 
ROOT
ATOM      1  C1  N4B d   1      -2.160  -0.428   0.302  0.00  0.00    -0.075 A 
ATOM      2  C2  N4B d   1      -1.487  -1.636   0.014  0.00  0.00     0.002 A 
ATOM      3  C3  N4B d   1      -1.535  -2.162  -1.254  0.00  0.00     0.002 A 
ATOM      4  C4  N4B d   1      -2.262  -1.512  -2.240  0.00  0.00    -0.004 A 
ATOM      5  C5  N4B d   1      -2.887  -0.332  -1.959  0.00  0.00     0.002 A 
ATOM      6  C6  N4B d   1      -2.844   0.211  -0.691  0.00  0.00     0.002 A 
ENDROOT
BRANCH   1   7
ATOM      7  C1' N4B d   1      -2.207   0.141   1.694  0.00  0.00     0.057 C 
BRANCH   7   8
ATOM      8  C2' N4B d   1      -0.790   0.480   2.145  0.00  0.00     0.009 C 
BRANCH   8   9
ATOM      9  C3' N4B d   1      -0.356  -0.359   3.334  0.00  0.00     0.004 C 
ATOM     10  C4' N4B d   1       0.974  -1.021   3.124  0.00  0.00     0.003 C 
ENDBRANCH   8   9
ENDBRANCH   7   8
ENDBRANCH   1   7
TORSDOF 3
ENDMDL
