MODEL 1
REMARK minimizedAffinity 2.1590302
REMARK minimizedRMSD -1
REMARK  3 active torsions:
REMARK  status: ('A' for Active; 'I' for Inactive)
REMARK    1  A    between atoms: C3'_2  and  C2'_3 
REMARK    2  A    between atoms: C2'_3  and  C1'_4 
REMARK    3  A    between atoms: C1'_4  and  C1_5 
ROOT
ATOM      1  C1  N4B d   1      -1.365   1.307   4.072  0.00  0.00    -0.075 A 
ATOM      2  C2  N4B d   1      -2.345   0.407   4.543  0.00  0.00     0.002 A 
ATOM      3  C3  N4B d   1      -2.107  -0.945   4.514  0.00  0.00     0.002 A 
ATOM      4  C4  N4B d   1      -0.907  -1.419   4.004  0.00  0.00    -0.004 A 
ATOM      5  C5  N4B d   1       0.045  -0.542   3.574  0.00  0.00     0.002 A 
ATOM      6  C6  N4B d   1      -0.180   0.820   3.601  0.00  0.00     0.002 A 
ENDROOT
BRANCH   1   7
ATOM      7  C1' N4B d   1      -1.614   2.789   4.003  0.00  0.00     0.057 C 
BRANCH   7   8
ATOM      8  C2' N4B d   1      -3.116   3.049   4.090  0.00  0.00     0.009 C 
BRANCH   8   9
ATOM      9  C3' N4B d   1      -3.443   4.171   5.059  0.00  0.00     0.004 C 
ATOM     10  C4' N4B d   1      -4.792   4.014   5.695  0.00  0.00     0.003 C 
ENDBRANCH   8   9
ENDBRANCH   7   8
ENDBRANCH   1   7
TORSDOF 3
ENDMDL
