MODEL 1
REMARK minimizedAffinity 10.0747194
REMARK minimizedRMSD -1
REMARK  3 active torsions:
REMARK  status: ('A' for Active; 'I' for Inactive)
REMARK    1  A    between atoms: C3'_2  and  C2'_3 
REMARK    2  A    between atoms: C2'_3  and  C1'_4 
REMARK    3  A    between atoms: C1'_4  and  C1_5 
ROOT
ATOM      1  C1  N4B d   1      -1.726  -0.847   2.251  0.00  0.00    -0.075 A 
ATOM      2  C2  N4B d   1      -1.042  -1.970   2.768  0.00  0.00     0.002 A 
ATOM      3  C3  N4B d   1       0.164  -1.806   3.403  0.00  0.00     0.002 A 
ATOM      4  C4  N4B d   1       0.713  -0.537   3.517  0.00  0.00    -0.004 A 
ATOM      5  C5  N4B d   1       0.034   0.545   3.037  0.00  0.00     0.002 A 
ATOM      6  C6  N4B d   1      -1.181   0.395   2.400  0.00  0.00     0.002 A 
ENDROOT
BRANCH   1   7
ATOM      7  C1' N4B d   1      -3.006  -0.987   1.472  0.00  0.00     0.057 C 
BRANCH   7   8
ATOM      8  C2' N4B d   1      -3.392   0.373   0.896  0.00  0.00     0.009 C 
BRANCH   8   9
ATOM      9  C3' N4B d   1      -3.405   0.363  -0.623  0.00  0.00     0.004 C 
ATOM     10  C4' N4B d   1      -2.027   0.369  -1.215  0.00  0.00     0.003 C 
ENDBRANCH   8   9
ENDBRANCH   7   8
ENDBRANCH   1   7
TORSDOF 3
ENDMDL
