MODEL 1
REMARK minimizedAffinity 8.72951126
REMARK minimizedRMSD -1
REMARK  3 active torsions:
REMARK  status: ('A' for Active; 'I' for Inactive)
REMARK    1  A    between atoms: C3'_2  and  C2'_3 
REMARK    2  A    between atoms: C2'_3  and  C1'_4 
REMARK    3  A    between atoms: C1'_4  and  C1_5 
ROOT
ATOM      1  C1  N4B d   1      -1.516  -0.282   1.542  0.00  0.00    -0.075 A 
ATOM      2  C2  N4B d   1      -2.119  -1.047   2.565  0.00  0.00     0.002 A 
ATOM      3  C3  N4B d   1      -1.563  -1.074   3.820  0.00  0.00     0.002 A 
ATOM      4  C4  N4B d   1      -0.399  -0.364   4.071  0.00  0.00    -0.004 A 
ATOM      5  C5  N4B d   1       0.163   0.393   3.085  0.00  0.00     0.002 A 
ATOM      6  C6  N4B d   1      -0.387   0.433   1.819  0.00  0.00     0.002 A 
ENDROOT
BRANCH   1   7
ATOM      7  C1' N4B d   1      -2.038  -0.289   0.132  0.00  0.00     0.057 C 
BRANCH   7   8
ATOM      8  C2' N4B d   1      -0.991   0.324  -0.793  0.00  0.00     0.009 C 
BRANCH   8   9
ATOM      9  C3' N4B d   1      -0.972  -0.350  -2.155  0.00  0.00     0.004 C 
ATOM     10  C4' N4B d   1      -0.449  -1.754  -2.100  0.00  0.00     0.003 C 
ENDBRANCH   8   9
ENDBRANCH   7   8
ENDBRANCH   1   7
TORSDOF 3
ENDMDL
