MODEL 1
REMARK minimizedAffinity 9.54482174
REMARK minimizedRMSD -1
REMARK  3 active torsions:
REMARK  status: ('A' for Active; 'I' for Inactive)
REMARK    1  A    between atoms: C3'_2  and  C2'_3 
REMARK    2  A    between atoms: C2'_3  and  C1'_4 
REMARK    3  A    between atoms: C1'_4  and  C1_5 
ROOT
ATOM      1  C1  N4B d   1       0.467   1.974   2.095  0.00  0.00    -0.075 A 
ATOM      2  C2  N4B d   1       0.860   2.116   0.745  0.00  0.00     0.002 A 
ATOM      3  C3  N4B d   1       2.165   2.410   0.438  0.00  0.00     0.002 A 
ATOM      4  C4  N4B d   1       3.088   2.584   1.458  0.00  0.00    -0.004 A 
ATOM      5  C5  N4B d   1       2.706   2.420   2.758  0.00  0.00     0.002 A 
ATOM      6  C6  N4B d   1       1.398   2.121   3.081  0.00  0.00     0.002 A 
ENDROOT
BRANCH   1   7
ATOM      7  C1' N4B d   1      -0.967   1.738   2.484  0.00  0.00     0.057 C 
BRANCH   7   8
ATOM      8  C2' N4B d   1      -1.395   0.354   2.004  0.00  0.00     0.009 C 
BRANCH   8   9
ATOM      9  C3' N4B d   1      -2.902   0.176   2.056  0.00  0.00     0.004 C 
ATOM     10  C4' N4B d   1      -3.647   1.453   1.803  0.00  0.00     0.003 C 
ENDBRANCH   8   9
ENDBRANCH   7   8
ENDBRANCH   1   7
TORSDOF 3
ENDMDL
