MODEL 1
REMARK minimizedAffinity 10.7634687
REMARK minimizedRMSD -1
REMARK  0 active torsions:
REMARK  status: ('A' for Active; 'I' for Inactive)
ROOT
ATOM      1  C2' OXE d   1      -1.713   5.190  -5.606  0.00  0.00     0.078 C 
ATOM      2  C1' OXE d   1      -2.727   2.849  -4.435  0.00  0.00     0.078 C 
ATOM      3  C1  OXE d   1      -3.717   3.869  -4.939  0.00  0.00    -0.078 A 
ATOM      4  C2  OXE d   1      -3.211   5.033  -5.467  0.00  0.00    -0.078 A 
ATOM      5  C3  OXE d   1      -4.080   5.983  -5.996  0.00  0.00     0.003 A 
ATOM      6  C4  OXE d   1      -5.465   5.835  -5.856  0.00  0.00    -0.002 A 
ATOM      7  C5  OXE d   1      -6.000   4.675  -5.284  0.00  0.00    -0.002 A 
ATOM      8  C6  OXE d   1      -5.142   3.666  -4.860  0.00  0.00     0.003 A 
ENDROOT
TORSDOF 0
ENDMDL
