MODEL 1
REMARK minimizedAffinity 3.07620573
REMARK minimizedRMSD -1
REMARK  0 active torsions:
REMARK  status: ('A' for Active; 'I' for Inactive)
ROOT
ATOM      1  C2' OXE d   1      -1.506  -1.703   2.001  0.00  0.00     0.078 C 
ATOM      2  C1' OXE d   1       0.445  -0.195   0.660  0.00  0.00     0.078 C 
ATOM      3  C1  OXE d   1      -0.195  -1.339  -0.086  0.00  0.00    -0.078 A 
ATOM      4  C2  OXE d   1      -1.115  -2.101   0.594  0.00  0.00    -0.078 A 
ATOM      5  C3  OXE d   1      -1.776  -3.134  -0.064  0.00  0.00     0.003 A 
ATOM      6  C4  OXE d   1      -1.401  -3.502  -1.362  0.00  0.00    -0.002 A 
ATOM      7  C5  OXE d   1      -0.438  -2.764  -2.059  0.00  0.00    -0.002 A 
ATOM      8  C6  OXE d   1       0.143  -1.656  -1.451  0.00  0.00     0.003 A 
ENDROOT
TORSDOF 0
ENDMDL
