MODEL 1
REMARK minimizedAffinity 13.1847677
REMARK minimizedRMSD -1
REMARK  0 active torsions:
REMARK  status: ('A' for Active; 'I' for Inactive)
ROOT
ATOM      1  C2' OXE d   1      -2.733  -4.482  -2.135  0.00  0.00     0.078 C 
ATOM      2  C1' OXE d   1      -0.495  -3.077  -3.083  0.00  0.00     0.078 C 
ATOM      3  C1  OXE d   1      -0.807  -2.992  -1.610  0.00  0.00    -0.078 A 
ATOM      4  C2  OXE d   1      -1.931  -3.644  -1.163  0.00  0.00    -0.078 A 
ATOM      5  C3  OXE d   1      -2.234  -3.643   0.196  0.00  0.00     0.003 A 
ATOM      6  C4  OXE d   1      -1.493  -2.858   1.087  0.00  0.00    -0.002 A 
ATOM      7  C5  OXE d   1      -0.368  -2.153   0.645  0.00  0.00    -0.002 A 
ATOM      8  C6  OXE d   1       0.013  -2.244  -0.689  0.00  0.00     0.003 A 
ENDROOT
TORSDOF 0
ENDMDL
