MODEL 1
REMARK minimizedAffinity 8.52380657
REMARK minimizedRMSD -1
REMARK  0 active torsions:
REMARK  status: ('A' for Active; 'I' for Inactive)
ROOT
ATOM      1  C2' OXE d   1       1.066   2.087  -0.649  0.00  0.00     0.078 C 
ATOM      2  C1' OXE d   1       1.945   0.567   1.542  0.00  0.00     0.078 C 
ATOM      3  C1  OXE d   1       2.711   1.822   1.204  0.00  0.00    -0.078 A 
ATOM      4  C2  OXE d   1       2.302   2.534   0.102  0.00  0.00    -0.078 A 
ATOM      5  C3  OXE d   1       2.940   3.729  -0.222  0.00  0.00     0.003 A 
ATOM      6  C4  OXE d   1       4.088   4.130   0.471  0.00  0.00    -0.002 A 
ATOM      7  C5  OXE d   1       4.545   3.397   1.572  0.00  0.00    -0.002 A 
ATOM      8  C6  OXE d   1       3.844   2.267   1.976  0.00  0.00     0.003 A 
ENDROOT
TORSDOF 0
ENDMDL
