MODEL 1
REMARK minimizedAffinity 3.89309287
REMARK minimizedRMSD -1
REMARK  0 active torsions:
REMARK  status: ('A' for Active; 'I' for Inactive)
ROOT
ATOM      1  C2' OXE d   1       3.068   4.414  -5.905  0.00  0.00     0.078 C 
ATOM      2  C1' OXE d   1       5.872   4.537  -5.869  0.00  0.00     0.078 C 
ATOM      3  C1  OXE d   1       5.228   3.174  -5.924  0.00  0.00    -0.078 A 
ATOM      4  C2  OXE d   1       3.855   3.122  -5.894  0.00  0.00    -0.078 A 
ATOM      5  C3  OXE d   1       3.209   1.893  -5.997  0.00  0.00     0.003 A 
ATOM      6  C4  OXE d   1       3.945   0.702  -5.977  0.00  0.00    -0.002 A 
ATOM      7  C5  OXE d   1       5.343   0.731  -5.967  0.00  0.00    -0.002 A 
ATOM      8  C6  OXE d   1       5.999   1.957  -5.984  0.00  0.00     0.003 A 
ENDROOT
TORSDOF 0
ENDMDL
