MODEL 1
REMARK minimizedAffinity 15.027565
REMARK minimizedRMSD -1
REMARK  0 active torsions:
REMARK  status: ('A' for Active; 'I' for Inactive)
ROOT
ATOM      1  C2' OXE d   1      -0.387  -3.515  -2.946  0.00  0.00     0.078 C 
ATOM      2  C1' OXE d   1      -2.711  -4.636  -1.842  0.00  0.00     0.078 C 
ATOM      3  C1  OXE d   1      -1.922  -3.673  -0.991  0.00  0.00    -0.078 A 
ATOM      4  C2  OXE d   1      -0.761  -3.166  -1.522  0.00  0.00    -0.078 A 
ATOM      5  C3  OXE d   1      -0.024  -2.231  -0.800  0.00  0.00     0.003 A 
ATOM      6  C4  OXE d   1      -0.371  -1.921   0.520  0.00  0.00    -0.002 A 
ATOM      7  C5  OXE d   1      -1.528  -2.458   1.094  0.00  0.00    -0.002 A 
ATOM      8  C6  OXE d   1      -2.336  -3.300   0.339  0.00  0.00     0.003 A 
ENDROOT
TORSDOF 0
ENDMDL
