MODEL 1
REMARK minimizedAffinity 8.49194145
REMARK minimizedRMSD -1
REMARK  0 active torsions:
REMARK  status: ('A' for Active; 'I' for Inactive)
ROOT
ATOM      1  C2' OXE d   1       0.656   0.814  -1.733  0.00  0.00     0.078 C 
ATOM      2  C1' OXE d   1       1.126   0.357   0.997  0.00  0.00     0.078 C 
ATOM      3  C1  OXE d   1       0.561  -0.779   0.180  0.00  0.00    -0.078 A 
ATOM      4  C2  OXE d   1       0.291  -0.532  -1.144  0.00  0.00    -0.078 A 
ATOM      5  C3  OXE d   1      -0.180  -1.561  -1.956  0.00  0.00     0.003 A 
ATOM      6  C4  OXE d   1      -0.525  -2.799  -1.401  0.00  0.00    -0.002 A 
ATOM      7  C5  OXE d   1      -0.295  -3.059  -0.046  0.00  0.00    -0.002 A 
ATOM      8  C6  OXE d   1       0.286  -2.076   0.748  0.00  0.00     0.003 A 
ENDROOT
TORSDOF 0
ENDMDL
