MODEL 1
REMARK minimizedAffinity 9.10112667
REMARK minimizedRMSD -1
REMARK  0 active torsions:
REMARK  status: ('A' for Active; 'I' for Inactive)
ROOT
ATOM      1  C2' OXE d   1       1.892   1.538   1.750  0.00  0.00     0.078 C 
ATOM      2  C1' OXE d   1       2.515   2.934  -0.604  0.00  0.00     0.078 C 
ATOM      3  C1  OXE d   1       1.104   3.033  -0.080  0.00  0.00    -0.078 A 
ATOM      4  C2  OXE d   1       0.796   2.309   1.047  0.00  0.00    -0.078 A 
ATOM      5  C3  OXE d   1      -0.476   2.408   1.604  0.00  0.00     0.003 A 
ATOM      6  C4  OXE d   1      -1.486   3.115   0.942  0.00  0.00    -0.002 A 
ATOM      7  C5  OXE d   1      -1.204   3.827  -0.229  0.00  0.00    -0.002 A 
ATOM      8  C6  OXE d   1       0.093   3.831  -0.728  0.00  0.00     0.003 A 
ENDROOT
TORSDOF 0
ENDMDL
