MODEL 1
REMARK minimizedAffinity 8.81705666
REMARK minimizedRMSD -1
REMARK  0 active torsions:
REMARK  status: ('A' for Active; 'I' for Inactive)
ROOT
ATOM      1  C2' OXE d   1      -1.005  -1.580   1.591  0.00  0.00     0.078 C 
ATOM      2  C1' OXE d   1      -2.287   0.322   3.209  0.00  0.00     0.078 C 
ATOM      3  C1  OXE d   1      -1.223   0.810   2.258  0.00  0.00    -0.078 A 
ATOM      4  C2  OXE d   1      -0.568  -0.133   1.503  0.00  0.00    -0.078 A 
ATOM      5  C3  OXE d   1       0.383   0.269   0.571  0.00  0.00     0.003 A 
ATOM      6  C4  OXE d   1       0.788   1.608   0.503  0.00  0.00    -0.002 A 
ATOM      7  C5  OXE d   1       0.162   2.579   1.291  0.00  0.00    -0.002 A 
ATOM      8  C6  OXE d   1      -0.873   2.204   2.141  0.00  0.00     0.003 A 
ENDROOT
TORSDOF 0
ENDMDL
