MODEL 1
REMARK minimizedAffinity 6.85210514
REMARK minimizedRMSD -1
REMARK  0 active torsions:
REMARK  status: ('A' for Active; 'I' for Inactive)
ROOT
ATOM      1  C2' OXE d   1      -1.393  -3.162  -0.449  0.00  0.00     0.078 C 
ATOM      2  C1' OXE d   1      -0.888  -1.444   1.713  0.00  0.00     0.078 C 
ATOM      3  C1  OXE d   1      -1.002  -2.921   2.000  0.00  0.00    -0.078 A 
ATOM      4  C2  OXE d   1      -1.296  -3.748   0.943  0.00  0.00    -0.078 A 
ATOM      5  C3  OXE d   1      -1.359  -5.125   1.142  0.00  0.00     0.003 A 
ATOM      6  C4  OXE d   1      -1.277  -5.658   2.434  0.00  0.00    -0.002 A 
ATOM      7  C5  OXE d   1      -1.018  -4.828   3.530  0.00  0.00    -0.002 A 
ATOM      8  C6  OXE d   1      -0.836  -3.465   3.325  0.00  0.00     0.003 A 
ENDROOT
TORSDOF 0
ENDMDL
