MODEL 1
REMARK minimizedAffinity 10.6423292
REMARK minimizedRMSD -1
REMARK  0 active torsions:
REMARK  status: ('A' for Active; 'I' for Inactive)
ROOT
ATOM      1  C2' OXE d   1      -0.790   4.148   0.538  0.00  0.00     0.078 C 
ATOM      2  C1' OXE d   1       0.840   2.006   1.334  0.00  0.00     0.078 C 
ATOM      3  C1  OXE d   1      -0.097   2.594   2.358  0.00  0.00    -0.078 A 
ATOM      4  C2  OXE d   1      -0.858   3.672   1.973  0.00  0.00    -0.078 A 
ATOM      5  C3  OXE d   1      -1.779   4.219   2.862  0.00  0.00     0.003 A 
ATOM      6  C4  OXE d   1      -1.828   3.780   4.191  0.00  0.00    -0.002 A 
ATOM      7  C5  OXE d   1      -1.033   2.709   4.615  0.00  0.00    -0.002 A 
ATOM      8  C6  OXE d   1      -0.196   2.079   3.701  0.00  0.00     0.003 A 
ENDROOT
TORSDOF 0
ENDMDL
