MODEL 1
REMARK minimizedAffinity -2.82433677
REMARK minimizedRMSD -1
REMARK  0 active torsions:
REMARK  status: ('A' for Active; 'I' for Inactive)
ROOT
ATOM      1  C2' OXE d   1      -3.930   0.535   0.811  0.00  0.00     0.078 C 
ATOM      2  C1' OXE d   1      -1.456   0.084   2.057  0.00  0.00     0.078 C 
ATOM      3  C1  OXE d   1      -1.611   1.339   1.235  0.00  0.00    -0.078 A 
ATOM      4  C2  OXE d   1      -2.810   1.529   0.591  0.00  0.00    -0.078 A 
ATOM      5  C3  OXE d   1      -3.025   2.697  -0.135  0.00  0.00     0.003 A 
ATOM      6  C4  OXE d   1      -1.980   3.605  -0.342  0.00  0.00    -0.002 A 
ATOM      7  C5  OXE d   1      -0.738   3.411   0.273  0.00  0.00    -0.002 A 
ATOM      8  C6  OXE d   1      -0.551   2.307   1.097  0.00  0.00     0.003 A 
ENDROOT
TORSDOF 0
ENDMDL
