MODEL 1
REMARK minimizedAffinity 12.4360819
REMARK minimizedRMSD -1
REMARK  0 active torsions:
REMARK  status: ('A' for Active; 'I' for Inactive)
ROOT
ATOM      1  C2' OXE d   1       0.988   1.480  -0.974  0.00  0.00     0.078 C 
ATOM      2  C1' OXE d   1       0.831  -0.369   1.132  0.00  0.00     0.078 C 
ATOM      3  C1  OXE d   1       1.435   0.981   1.426  0.00  0.00    -0.078 A 
ATOM      4  C2  OXE d   1       1.551   1.863   0.378  0.00  0.00    -0.078 A 
ATOM      5  C3  OXE d   1       2.051   3.142   0.606  0.00  0.00     0.003 A 
ATOM      6  C4  OXE d   1       2.578   3.485   1.857  0.00  0.00    -0.002 A 
ATOM      7  C5  OXE d   1       2.507   2.587   2.927  0.00  0.00    -0.002 A 
ATOM      8  C6  OXE d   1       1.901   1.350   2.740  0.00  0.00     0.003 A 
ENDROOT
TORSDOF 0
ENDMDL
