MODEL 1
REMARK minimizedAffinity 13.410923
REMARK minimizedRMSD -1
REMARK  0 active torsions:
REMARK  status: ('A' for Active; 'I' for Inactive)
ROOT
ATOM      1  C2' OXE d   1       0.358  -5.872  -3.173  0.00  0.00     0.078 C 
ATOM      2  C1' OXE d   1      -2.198  -5.760  -2.018  0.00  0.00     0.078 C 
ATOM      3  C1  OXE d   1      -1.247  -4.626  -1.732  0.00  0.00    -0.078 A 
ATOM      4  C2  OXE d   1       0.017  -4.711  -2.263  0.00  0.00    -0.078 A 
ATOM      5  C3  OXE d   1       0.916  -3.665  -2.075  0.00  0.00     0.003 A 
ATOM      6  C4  OXE d   1       0.597  -2.600  -1.224  0.00  0.00    -0.002 A 
ATOM      7  C5  OXE d   1      -0.672  -2.513  -0.641  0.00  0.00    -0.002 A 
ATOM      8  C6  OXE d   1      -1.618  -3.494  -0.918  0.00  0.00     0.003 A 
ENDROOT
TORSDOF 0
ENDMDL
