MODEL 1
REMARK minimizedAffinity 9.98666573
REMARK minimizedRMSD -1
REMARK  0 active torsions:
REMARK  status: ('A' for Active; 'I' for Inactive)
ROOT
ATOM      1  C2' OXE d   1       0.453   1.815   1.063  0.00  0.00     0.078 C 
ATOM      2  C1' OXE d   1      -1.648   1.743   2.923  0.00  0.00     0.078 C 
ATOM      3  C1  OXE d   1      -1.452   0.539   2.036  0.00  0.00    -0.078 A 
ATOM      4  C2  OXE d   1      -0.451   0.602   1.097  0.00  0.00    -0.078 A 
ATOM      5  C3  OXE d   1      -0.192  -0.502   0.290  0.00  0.00     0.003 A 
ATOM      6  C4  OXE d   1      -1.040  -1.616   0.320  0.00  0.00    -0.002 A 
ATOM      7  C5  OXE d   1      -2.090  -1.685   1.242  0.00  0.00    -0.002 A 
ATOM      8  C6  OXE d   1      -2.283  -0.635   2.134  0.00  0.00     0.003 A 
ENDROOT
TORSDOF 0
ENDMDL
