MODEL 1
REMARK minimizedAffinity 8.03056526
REMARK minimizedRMSD -1
REMARK  0 active torsions:
REMARK  status: ('A' for Active; 'I' for Inactive)
ROOT
ATOM      1  C2' OXE d   1       4.019   1.867   4.085  0.00  0.00     0.078 C 
ATOM      2  C1' OXE d   1       2.444   0.881   1.980  0.00  0.00     0.078 C 
ATOM      3  C1  OXE d   1       3.242   2.137   1.733  0.00  0.00    -0.078 A 
ATOM      4  C2  OXE d   1       3.973   2.638   2.783  0.00  0.00    -0.078 A 
ATOM      5  C3  OXE d   1       4.770   3.764   2.593  0.00  0.00     0.003 A 
ATOM      6  C4  OXE d   1       4.714   4.477   1.390  0.00  0.00    -0.002 A 
ATOM      7  C5  OXE d   1       3.945   4.006   0.320  0.00  0.00    -0.002 A 
ATOM      8  C6  OXE d   1       3.238   2.817   0.461  0.00  0.00     0.003 A 
ENDROOT
TORSDOF 0
ENDMDL
