MODEL 1
REMARK minimizedAffinity -4.45017481
REMARK minimizedRMSD -1
REMARK  0 active torsions:
REMARK  status: ('A' for Active; 'I' for Inactive)
ROOT
ATOM      1  C2' OXE d   1       2.720   2.920   0.016  0.00  0.00     0.078 C 
ATOM      2  C1' OXE d   1       2.330   0.668   1.645  0.00  0.00     0.078 C 
ATOM      3  C1  OXE d   1       3.229   1.763   2.162  0.00  0.00    -0.078 A 
ATOM      4  C2  OXE d   1       3.451   2.840   1.339  0.00  0.00    -0.078 A 
ATOM      5  C3  OXE d   1       4.229   3.903   1.789  0.00  0.00     0.003 A 
ATOM      6  C4  OXE d   1       4.910   3.817   3.009  0.00  0.00    -0.002 A 
ATOM      7  C5  OXE d   1       4.729   2.710   3.846  0.00  0.00    -0.002 A 
ATOM      8  C6  OXE d   1       3.860   1.696   3.457  0.00  0.00     0.003 A 
ENDROOT
TORSDOF 0
ENDMDL
