MODEL 1
REMARK minimizedAffinity 6.43777132
REMARK minimizedRMSD -1
REMARK  0 active torsions:
REMARK  status: ('A' for Active; 'I' for Inactive)
ROOT
ATOM      1  C2' OXE d   1       2.293   1.847  -5.953  0.00  0.00     0.078 C 
ATOM      2  C1' OXE d   1       4.745   0.482  -5.900  0.00  0.00     0.078 C 
ATOM      3  C1  OXE d   1       4.773   1.983  -5.762  0.00  0.00    -0.078 A 
ATOM      4  C2  OXE d   1       3.572   2.647  -5.836  0.00  0.00    -0.078 A 
ATOM      5  C3  OXE d   1       3.536   4.028  -5.660  0.00  0.00     0.003 A 
ATOM      6  C4  OXE d   1       4.725   4.761  -5.562  0.00  0.00    -0.002 A 
ATOM      7  C5  OXE d   1       5.961   4.108  -5.524  0.00  0.00    -0.002 A 
ATOM      8  C6  OXE d   1       6.000   2.719  -5.580  0.00  0.00     0.003 A 
ENDROOT
TORSDOF 0
ENDMDL
