MODEL 1
REMARK minimizedAffinity 1.60694981
REMARK minimizedRMSD -1
REMARK  0 active torsions:
REMARK  status: ('A' for Active; 'I' for Inactive)
ROOT
ATOM      1  C2' OXE d   1       2.717   2.791  -0.111  0.00  0.00     0.078 C 
ATOM      2  C1' OXE d   1       1.563   1.122   1.829  0.00  0.00     0.078 C 
ATOM      3  C1  OXE d   1       2.782   1.919   2.222  0.00  0.00    -0.078 A 
ATOM      4  C2  OXE d   1       3.368   2.697   1.253  0.00  0.00    -0.078 A 
ATOM      5  C3  OXE d   1       4.461   3.495   1.577  0.00  0.00     0.003 A 
ATOM      6  C4  OXE d   1       5.063   3.395   2.837  0.00  0.00    -0.002 A 
ATOM      7  C5  OXE d   1       4.506   2.578   3.827  0.00  0.00    -0.002 A 
ATOM      8  C6  OXE d   1       3.343   1.868   3.549  0.00  0.00     0.003 A 
ENDROOT
TORSDOF 0
ENDMDL
