MODEL 1
REMARK minimizedAffinity -2.53510833
REMARK minimizedRMSD -1
REMARK  0 active torsions:
REMARK  status: ('A' for Active; 'I' for Inactive)
ROOT
ATOM      1  C   UNL d   1      -1.398   0.443  -0.599  0.00  0.00     0.023 A 
ATOM      2  C1  UNL d   1      -0.831  -0.791  -0.278  0.00  0.00     0.003 A 
ATOM      3  C2  UNL d   1       0.452  -0.850   0.269  0.00  0.00     0.048 A 
ATOM      4  C3  UNL d   1       1.163   0.328   0.494  0.00  0.00     0.023 A 
ATOM      5  C4  UNL d   1       0.600   1.565   0.175  0.00  0.00     0.048 A 
ATOM      6  C5  UNL d   1      -0.683   1.619  -0.373  0.00  0.00     0.003 A 
ATOM      7  I   UNL d   1       3.073   0.243   1.308  0.00  0.00    -0.146 I 
ENDROOT
TORSDOF 0
ENDMDL
