MODEL 1
REMARK minimizedAffinity -3.51027203
REMARK minimizedRMSD -1
REMARK  0 active torsions:
REMARK  status: ('A' for Active; 'I' for Inactive)
ROOT
ATOM      1  C   UNL d   1       1.939   0.698   0.881  0.00  0.00     0.023 A 
ATOM      2  C1  UNL d   1       1.383   1.775   0.191  0.00  0.00     0.003 A 
ATOM      3  C2  UNL d   1       0.212   1.601  -0.550  0.00  0.00     0.048 A 
ATOM      4  C3  UNL d   1      -0.398   0.348  -0.596  0.00  0.00     0.023 A 
ATOM      5  C4  UNL d   1       0.154  -0.732   0.094  0.00  0.00     0.048 A 
ATOM      6  C5  UNL d   1       1.325  -0.554   0.833  0.00  0.00     0.003 A 
ATOM      7  I   UNL d   1      -2.141   0.087  -1.698  0.00  0.00    -0.146 I 
ENDROOT
TORSDOF 0
ENDMDL
