MODEL 1
REMARK minimizedAffinity -2.54090786
REMARK minimizedRMSD -1
REMARK  0 active torsions:
REMARK  status: ('A' for Active; 'I' for Inactive)
ROOT
ATOM      1  C   UNL d   1       1.364   1.501  -0.390  0.00  0.00     0.023 A 
ATOM      2  C1  UNL d   1       0.181   0.841  -0.057  0.00  0.00     0.003 A 
ATOM      3  C2  UNL d   1       0.199  -0.199   0.874  0.00  0.00     0.048 A 
ATOM      4  C3  UNL d   1       1.402  -0.572   1.471  0.00  0.00     0.023 A 
ATOM      5  C4  UNL d   1       2.588   0.086   1.143  0.00  0.00     0.048 A 
ATOM      6  C5  UNL d   1       2.566   1.124   0.209  0.00  0.00     0.003 A 
ATOM      7  I   UNL d   1       1.430  -2.120   2.859  0.00  0.00    -0.146 I 
ENDROOT
TORSDOF 0
ENDMDL
