MODEL 1
REMARK minimizedAffinity -2.16302466
REMARK minimizedRMSD -1
REMARK  0 active torsions:
REMARK  status: ('A' for Active; 'I' for Inactive)
ROOT
ATOM      1  C   UNL d   1       0.411  -1.104   1.135  0.00  0.00     0.023 A 
ATOM      2  C1  UNL d   1      -0.861  -1.653   0.974  0.00  0.00     0.003 A 
ATOM      3  C2  UNL d   1      -1.742  -1.113   0.035  0.00  0.00     0.048 A 
ATOM      4  C3  UNL d   1      -1.344  -0.025  -0.741  0.00  0.00     0.023 A 
ATOM      5  C4  UNL d   1      -0.072   0.527  -0.584  0.00  0.00     0.048 A 
ATOM      6  C5  UNL d   1       0.805  -0.015   0.357  0.00  0.00     0.003 A 
ATOM      7  I   UNL d   1      -2.654   0.780  -2.140  0.00  0.00    -0.146 I 
ENDROOT
TORSDOF 0
ENDMDL
