MODEL 1
REMARK minimizedAffinity -4.62334156
REMARK minimizedRMSD -1
REMARK  0 active torsions:
REMARK  status: ('A' for Active; 'I' for Inactive)
ROOT
ATOM      1  C   UNL d   1       2.549  -0.606   2.160  0.00  0.00     0.023 A 
ATOM      2  C1  UNL d   1       1.553  -1.567   2.340  0.00  0.00     0.003 A 
ATOM      3  C2  UNL d   1       0.340  -1.452   1.658  0.00  0.00     0.048 A 
ATOM      4  C3  UNL d   1       0.130  -0.376   0.797  0.00  0.00     0.023 A 
ATOM      5  C4  UNL d   1       1.123   0.587   0.613  0.00  0.00     0.048 A 
ATOM      6  C5  UNL d   1       2.334   0.469   1.298  0.00  0.00     0.003 A 
ATOM      7  I   UNL d   1      -1.675  -0.204  -0.220  0.00  0.00    -0.146 I 
ENDROOT
TORSDOF 0
ENDMDL
