MODEL 1
REMARK minimizedAffinity -2.92610502
REMARK minimizedRMSD -1
REMARK  0 active torsions:
REMARK  status: ('A' for Active; 'I' for Inactive)
ROOT
ATOM      1  C   UNL d   1      -1.524   0.029  -0.305  0.00  0.00     0.023 A 
ATOM      2  C1  UNL d   1      -1.056  -1.042   0.457  0.00  0.00     0.003 A 
ATOM      3  C2  UNL d   1       0.248  -1.030   0.955  0.00  0.00     0.048 A 
ATOM      4  C3  UNL d   1       1.079   0.058   0.689  0.00  0.00     0.023 A 
ATOM      5  C4  UNL d   1       0.616   1.132  -0.072  0.00  0.00     0.048 A 
ATOM      6  C5  UNL d   1      -0.689   1.115  -0.569  0.00  0.00     0.003 A 
ATOM      7  I   UNL d   1       3.021   0.079   1.430  0.00  0.00    -0.146 I 
ENDROOT
TORSDOF 0
ENDMDL
