MODEL 1
REMARK minimizedAffinity -2.34231043
REMARK minimizedRMSD -1
REMARK  0 active torsions:
REMARK  status: ('A' for Active; 'I' for Inactive)
ROOT
ATOM      1  C   UNL d   1       2.346  -1.461   2.708  0.00  0.00     0.023 A 
ATOM      2  C1  UNL d   1       2.562  -0.271   2.013  0.00  0.00     0.003 A 
ATOM      3  C2  UNL d   1       1.656   0.143   1.034  0.00  0.00     0.048 A 
ATOM      4  C3  UNL d   1       0.535  -0.639   0.755  0.00  0.00     0.023 A 
ATOM      5  C4  UNL d   1       0.314  -1.830   1.448  0.00  0.00     0.048 A 
ATOM      6  C5  UNL d   1       1.223  -2.240   2.426  0.00  0.00     0.003 A 
ATOM      7  I   UNL d   1      -0.815  -0.026  -0.701  0.00  0.00    -0.146 I 
ENDROOT
TORSDOF 0
ENDMDL
