MODEL 1
REMARK minimizedAffinity -4.91671658
REMARK minimizedRMSD -1
REMARK  0 active torsions:
REMARK  status: ('A' for Active; 'I' for Inactive)
ROOT
ATOM      1  C   UNL d   1       3.472  -1.295   1.962  0.00  0.00     0.023 A 
ATOM      2  C1  UNL d   1       3.627  -0.127   1.215  0.00  0.00     0.003 A 
ATOM      3  C2  UNL d   1       2.565   0.362   0.452  0.00  0.00     0.048 A 
ATOM      4  C3  UNL d   1       1.349  -0.321   0.441  0.00  0.00     0.023 A 
ATOM      5  C4  UNL d   1       1.189  -1.489   1.188  0.00  0.00     0.048 A 
ATOM      6  C5  UNL d   1       2.254  -1.975   1.948  0.00  0.00     0.003 A 
ATOM      7  I   UNL d   1      -0.234   0.405  -0.693  0.00  0.00    -0.146 I 
ENDROOT
TORSDOF 0
ENDMDL
