MODEL 1
REMARK minimizedAffinity -1.66254723
REMARK minimizedRMSD -1
REMARK  0 active torsions:
REMARK  status: ('A' for Active; 'I' for Inactive)
ROOT
ATOM      1  C   UNL d   1       3.006   0.827   0.759  0.00  0.00     0.023 A 
ATOM      2  C1  UNL d   1       2.383   1.431  -0.334  0.00  0.00     0.003 A 
ATOM      3  C2  UNL d   1       1.047   1.146  -0.623  0.00  0.00     0.048 A 
ATOM      4  C3  UNL d   1       0.340   0.256   0.184  0.00  0.00     0.023 A 
ATOM      5  C4  UNL d   1       0.959  -0.351   1.279  0.00  0.00     0.048 A 
ATOM      6  C5  UNL d   1       2.295  -0.063   1.564  0.00  0.00     0.003 A 
ATOM      7  I   UNL d   1      -1.649  -0.171  -0.244  0.00  0.00    -0.146 I 
ENDROOT
TORSDOF 0
ENDMDL
