MODEL 1
REMARK minimizedAffinity 3.11800504
REMARK minimizedRMSD -1
REMARK  1 active torsions:
REMARK  status: ('A' for Active; 'I' for Inactive)
REMARK    1  A    between atoms: C3_4  and  O_7 
ROOT
ATOM      1  C   UNL d   1      -3.335  -2.569  -0.863  0.00  0.00    -0.033 A 
ATOM      2  C1  UNL d   1      -3.701  -1.559  -1.755  0.00  0.00     0.039 A 
ATOM      3  C2  UNL d   1      -3.024  -0.339  -1.747  0.00  0.00    -0.080 A 
ATOM      4  C3  UNL d   1      -1.982  -0.141  -0.845  0.00  0.00     0.150 A 
ATOM      5  C4  UNL d   1      -1.609  -1.144   0.043  0.00  0.00    -0.007 A 
ATOM      6  C5  UNL d   1      -2.287  -2.362   0.035  0.00  0.00     0.039 A 
ENDROOT
BRANCH   4   7
ATOM      7  O   UNL d   1      -1.295   1.035  -0.798  0.00  0.00    -0.526 OA
ATOM      8  H5  UNL d   1      -1.681   1.644  -1.449  0.00  0.00     0.418 HD
ENDBRANCH   4   7
TORSDOF 1
ENDMDL
