MODEL 1
REMARK minimizedAffinity 8.01224899
REMARK minimizedRMSD -1
REMARK  1 active torsions:
REMARK  status: ('A' for Active; 'I' for Inactive)
REMARK    1  A    between atoms: C3_4  and  O_7 
ROOT
ATOM      1  C   UNL d   1      -5.999  -2.253  -2.572  0.00  0.00    -0.033 A 
ATOM      2  C1  UNL d   1      -5.979  -3.646  -2.482  0.00  0.00     0.039 A 
ATOM      3  C2  UNL d   1      -5.577  -4.412  -3.578  0.00  0.00    -0.080 A 
ATOM      4  C3  UNL d   1      -5.197  -3.775  -4.755  0.00  0.00     0.150 A 
ATOM      5  C4  UNL d   1      -5.211  -2.387  -4.851  0.00  0.00    -0.007 A 
ATOM      6  C5  UNL d   1      -5.614  -1.623  -3.756  0.00  0.00     0.039 A 
ENDROOT
BRANCH   4   7
ATOM      7  O   UNL d   1      -4.802  -4.481  -5.852  0.00  0.00    -0.526 OA
ATOM      8  H5  UNL d   1      -4.870  -5.429  -5.649  0.00  0.00     0.418 HD
ENDBRANCH   4   7
TORSDOF 1
ENDMDL
