MODEL 1
REMARK minimizedAffinity 5.8322525
REMARK minimizedRMSD -1
REMARK  1 active torsions:
REMARK  status: ('A' for Active; 'I' for Inactive)
REMARK    1  A    between atoms: C3_4  and  O_7 
ROOT
ATOM      1  C   UNL d   1      -5.771  -2.198  -1.873  0.00  0.00    -0.033 A 
ATOM      2  C1  UNL d   1      -5.966  -1.342  -2.959  0.00  0.00     0.039 A 
ATOM      3  C2  UNL d   1      -5.998  -1.855  -4.257  0.00  0.00    -0.080 A 
ATOM      4  C3  UNL d   1      -5.835  -3.223  -4.455  0.00  0.00     0.150 A 
ATOM      5  C4  UNL d   1      -5.643  -4.082  -3.378  0.00  0.00    -0.007 A 
ATOM      6  C5  UNL d   1      -5.611  -3.568  -2.082  0.00  0.00     0.039 A 
ENDROOT
BRANCH   4   7
ATOM      7  O   UNL d   1      -5.853  -3.769  -5.704  0.00  0.00    -0.526 OA
ATOM      8  H5  UNL d   1      -5.965  -3.053  -6.352  0.00  0.00     0.418 HD
ENDBRANCH   4   7
TORSDOF 1
ENDMDL
