MODEL 1
REMARK minimizedAffinity 16.6231289
REMARK minimizedRMSD -1
REMARK  1 active torsions:
REMARK  status: ('A' for Active; 'I' for Inactive)
REMARK    1  A    between atoms: C3_4  and  O_7 
ROOT
ATOM      1  C   UNL d   1       4.844   3.785  -5.163  0.00  0.00    -0.033 A 
ATOM      2  C1  UNL d   1       3.812   3.354  -6.000  0.00  0.00     0.039 A 
ATOM      3  C2  UNL d   1       2.585   4.021  -5.998  0.00  0.00    -0.080 A 
ATOM      4  C3  UNL d   1       2.404   5.116  -5.158  0.00  0.00     0.150 A 
ATOM      5  C4  UNL d   1       3.428   5.552  -4.324  0.00  0.00    -0.007 A 
ATOM      6  C5  UNL d   1       4.652   4.885  -4.327  0.00  0.00     0.039 A 
ENDROOT
BRANCH   4   7
ATOM      7  O   UNL d   1       1.222   5.795  -5.118  0.00  0.00    -0.526 OA
ATOM      8  H5  UNL d   1       0.598   5.363  -5.725  0.00  0.00     0.418 HD
ENDBRANCH   4   7
TORSDOF 1
ENDMDL
