MODEL 1
REMARK minimizedAffinity 8.54254913
REMARK minimizedRMSD -1
REMARK  1 active torsions:
REMARK  status: ('A' for Active; 'I' for Inactive)
REMARK    1  A    between atoms: C3_4  and  O_7 
ROOT
ATOM      1  C   UNL d   1      -1.812   0.369  -5.618  0.00  0.00    -0.033 A 
ATOM      2  C1  UNL d   1      -3.027  -0.269  -5.872  0.00  0.00     0.039 A 
ATOM      3  C2  UNL d   1      -3.075  -1.659  -5.995  0.00  0.00    -0.080 A 
ATOM      4  C3  UNL d   1      -1.903  -2.398  -5.862  0.00  0.00     0.150 A 
ATOM      5  C4  UNL d   1      -0.689  -1.769  -5.605  0.00  0.00    -0.007 A 
ATOM      6  C5  UNL d   1      -0.643  -0.381  -5.483  0.00  0.00     0.039 A 
ENDROOT
BRANCH   4   7
ATOM      7  O   UNL d   1      -1.899  -3.756  -5.979  0.00  0.00    -0.526 OA
ATOM      8  H5  UNL d   1      -2.802  -4.050  -6.184  0.00  0.00     0.418 HD
ENDBRANCH   4   7
TORSDOF 1
ENDMDL
