MODEL 1
REMARK minimizedAffinity -0.47590217
REMARK minimizedRMSD -1
REMARK  1 active torsions:
REMARK  status: ('A' for Active; 'I' for Inactive)
REMARK    1  A    between atoms: C3_4  and  O_7 
ROOT
ATOM      1  C   UNL d   1      -5.937  -3.005  -4.903  0.00  0.00    -0.033 A 
ATOM      2  C1  UNL d   1      -5.986  -1.664  -4.516  0.00  0.00     0.039 A 
ATOM      3  C2  UNL d   1      -4.951  -0.796  -4.867  0.00  0.00    -0.080 A 
ATOM      4  C3  UNL d   1      -3.874  -1.279  -5.607  0.00  0.00     0.150 A 
ATOM      5  C4  UNL d   1      -3.821  -2.612  -6.000  0.00  0.00    -0.007 A 
ATOM      6  C5  UNL d   1      -4.855  -3.478  -5.647  0.00  0.00     0.039 A 
ENDROOT
BRANCH   4   7
ATOM      7  O   UNL d   1      -2.839  -0.470  -5.969  0.00  0.00    -0.526 OA
ATOM      8  H5  UNL d   1      -2.998   0.416  -5.604  0.00  0.00     0.418 HD
ENDBRANCH   4   7
TORSDOF 1
ENDMDL
