MODEL 1
REMARK minimizedAffinity 3.37484622
REMARK minimizedRMSD -1
REMARK  1 active torsions:
REMARK  status: ('A' for Active; 'I' for Inactive)
REMARK    1  A    between atoms: C3_4  and  O_7 
ROOT
ATOM      1  C   UNL d   1      -4.483  -4.426  -6.000  0.00  0.00    -0.033 A 
ATOM      2  C1  UNL d   1      -5.550  -4.704  -5.143  0.00  0.00     0.039 A 
ATOM      3  C2  UNL d   1      -6.000  -3.732  -4.247  0.00  0.00    -0.080 A 
ATOM      4  C3  UNL d   1      -5.377  -2.488  -4.219  0.00  0.00     0.150 A 
ATOM      5  C4  UNL d   1      -4.316  -2.203  -5.073  0.00  0.00    -0.007 A 
ATOM      6  C5  UNL d   1      -3.867  -3.175  -5.966  0.00  0.00     0.039 A 
ENDROOT
BRANCH   4   7
ATOM      7  O   UNL d   1      -5.778  -1.509  -3.359  0.00  0.00    -0.526 OA
ATOM      8  H5  UNL d   1      -6.500  -1.858  -2.811  0.00  0.00     0.418 HD
ENDBRANCH   4   7
TORSDOF 1
ENDMDL
