MODEL 1
REMARK minimizedAffinity 0.149263903
REMARK minimizedRMSD -1
REMARK  1 active torsions:
REMARK  status: ('A' for Active; 'I' for Inactive)
REMARK    1  A    between atoms: C3_4  and  O_7 
ROOT
ATOM      1  C   UNL d   1      -2.690  -0.139   2.114  0.00  0.00    -0.033 A 
ATOM      2  C1  UNL d   1      -4.046  -0.069   1.789  0.00  0.00     0.039 A 
ATOM      3  C2  UNL d   1      -4.645   1.169   1.549  0.00  0.00    -0.080 A 
ATOM      4  C3  UNL d   1      -3.878   2.328   1.635  0.00  0.00     0.150 A 
ATOM      5  C4  UNL d   1      -2.526   2.265   1.954  0.00  0.00    -0.007 A 
ATOM      6  C5  UNL d   1      -1.930   1.028   2.194  0.00  0.00     0.039 A 
ENDROOT
BRANCH   4   7
ATOM      7  O   UNL d   1      -4.420   3.559   1.413  0.00  0.00    -0.526 OA
ATOM      8  H5  UNL d   1      -5.369   3.450   1.231  0.00  0.00     0.418 HD
ENDBRANCH   4   7
TORSDOF 1
ENDMDL
