MODEL 1
REMARK minimizedAffinity 6.73137617
REMARK minimizedRMSD -1
REMARK  1 active torsions:
REMARK  status: ('A' for Active; 'I' for Inactive)
REMARK    1  A    between atoms: C3_4  and  O_7 
ROOT
ATOM      1  C   UNL d   1      -5.620  -1.858   1.285  0.00  0.00    -0.033 A 
ATOM      2  C1  UNL d   1      -5.995  -1.016   0.236  0.00  0.00     0.039 A 
ATOM      3  C2  UNL d   1      -6.000  -1.493  -1.077  0.00  0.00    -0.080 A 
ATOM      4  C3  UNL d   1      -5.629  -2.811  -1.326  0.00  0.00     0.150 A 
ATOM      5  C4  UNL d   1      -5.258  -3.656  -0.285  0.00  0.00    -0.007 A 
ATOM      6  C5  UNL d   1      -5.253  -3.179   1.024  0.00  0.00     0.039 A 
ENDROOT
BRANCH   4   7
ATOM      7  O   UNL d   1      -5.613  -3.320  -2.591  0.00  0.00    -0.526 OA
ATOM      8  H5  UNL d   1      -5.864  -2.614  -3.209  0.00  0.00     0.418 HD
ENDBRANCH   4   7
TORSDOF 1
ENDMDL
