MODEL 1
REMARK minimizedAffinity 9.49583912
REMARK minimizedRMSD -1
REMARK  1 active torsions:
REMARK  status: ('A' for Active; 'I' for Inactive)
REMARK    1  A    between atoms: C3_4  and  O_7 
ROOT
ATOM      1  C   UNL d   1       5.865   3.718  -4.765  0.00  0.00    -0.033 A 
ATOM      2  C1  UNL d   1       5.075   3.390  -5.868  0.00  0.00     0.039 A 
ATOM      3  C2  UNL d   1       4.418   2.159  -5.917  0.00  0.00    -0.080 A 
ATOM      4  C3  UNL d   1       4.558   1.267  -4.858  0.00  0.00     0.150 A 
ATOM      5  C4  UNL d   1       5.341   1.589  -3.754  0.00  0.00    -0.007 A 
ATOM      6  C5  UNL d   1       5.997   2.818  -3.707  0.00  0.00     0.039 A 
ENDROOT
BRANCH   4   7
ATOM      7  O   UNL d   1       3.940   0.052  -4.863  0.00  0.00    -0.526 OA
ATOM      8  H5  UNL d   1       3.458  -0.044  -5.701  0.00  0.00     0.418 HD
ENDBRANCH   4   7
TORSDOF 1
ENDMDL
