MODEL 1
REMARK minimizedAffinity 1.03525245
REMARK minimizedRMSD -1
REMARK  1 active torsions:
REMARK  status: ('A' for Active; 'I' for Inactive)
REMARK    1  A    between atoms: C3_4  and  O_7 
ROOT
ATOM      1  C   UNL d   1       5.379  -0.354   2.457  0.00  0.00    -0.033 A 
ATOM      2  C1  UNL d   1       5.999   0.481   1.525  0.00  0.00     0.039 A 
ATOM      3  C2  UNL d   1       5.231   1.343   0.739  0.00  0.00    -0.080 A 
ATOM      4  C3  UNL d   1       3.848   1.360   0.895  0.00  0.00     0.150 A 
ATOM      5  C4  UNL d   1       3.225   0.533   1.823  0.00  0.00    -0.007 A 
ATOM      6  C5  UNL d   1       3.993  -0.328   2.607  0.00  0.00     0.039 A 
ENDROOT
BRANCH   4   7
ATOM      7  O   UNL d   1       3.057   2.181   0.147  0.00  0.00    -0.526 OA
ATOM      8  H5  UNL d   1       3.622   2.673  -0.472  0.00  0.00     0.418 HD
ENDBRANCH   4   7
TORSDOF 1
ENDMDL
