MODEL 1
REMARK minimizedAffinity -0.56060493
REMARK minimizedRMSD -1
REMARK  1 active torsions:
REMARK  status: ('A' for Active; 'I' for Inactive)
REMARK    1  A    between atoms: C3_4  and  O_7 
ROOT
ATOM      1  C   UNL d   1      -3.376   1.113   1.222  0.00  0.00    -0.033 A 
ATOM      2  C1  UNL d   1      -3.249   0.794   2.575  0.00  0.00     0.039 A 
ATOM      3  C2  UNL d   1      -2.015   0.387   3.086  0.00  0.00    -0.080 A 
ATOM      4  C3  UNL d   1      -0.917   0.305   2.235  0.00  0.00     0.150 A 
ATOM      5  C4  UNL d   1      -1.034   0.625   0.887  0.00  0.00    -0.007 A 
ATOM      6  C5  UNL d   1      -2.268   1.030   0.378  0.00  0.00     0.039 A 
ENDROOT
BRANCH   4   7
ATOM      7  O   UNL d   1       0.307  -0.092   2.687  0.00  0.00    -0.526 OA
ATOM      8  H5  UNL d   1       0.231  -0.308   3.632  0.00  0.00     0.418 HD
ENDBRANCH   4   7
TORSDOF 1
ENDMDL
