MODEL 1
REMARK minimizedAffinity -2.75819135
REMARK minimizedRMSD -1
REMARK  1 active torsions:
REMARK  status: ('A' for Active; 'I' for Inactive)
REMARK    1  A    between atoms: C3_4  and  O_7 
ROOT
ATOM      1  C   UNL d   1      -1.820   0.670   0.537  0.00  0.00    -0.033 A 
ATOM      2  C1  UNL d   1      -2.316   1.393   1.623  0.00  0.00     0.039 A 
ATOM      3  C2  UNL d   1      -3.592   1.122   2.121  0.00  0.00    -0.080 A 
ATOM      4  C3  UNL d   1      -4.360   0.126   1.525  0.00  0.00     0.150 A 
ATOM      5  C4  UNL d   1      -3.871  -0.602   0.445  0.00  0.00    -0.007 A 
ATOM      6  C5  UNL d   1      -2.597  -0.329  -0.051  0.00  0.00     0.039 A 
ENDROOT
BRANCH   4   7
ATOM      7  O   UNL d   1      -5.613  -0.171   1.973  0.00  0.00    -0.526 OA
ATOM      8  H5  UNL d   1      -5.829   0.431   2.705  0.00  0.00     0.418 HD
ENDBRANCH   4   7
TORSDOF 1
ENDMDL
