MODEL 1
REMARK minimizedAffinity 1.45293295
REMARK minimizedRMSD -1
REMARK  1 active torsions:
REMARK  status: ('A' for Active; 'I' for Inactive)
REMARK    1  A    between atoms: C3_4  and  O_7 
ROOT
ATOM      1  C   UNL d   1       2.364  -2.232  -4.524  0.00  0.00    -0.033 A 
ATOM      2  C1  UNL d   1       3.184  -1.440  -3.718  0.00  0.00     0.039 A 
ATOM      3  C2  UNL d   1       3.272  -0.065  -3.946  0.00  0.00    -0.080 A 
ATOM      4  C3  UNL d   1       2.535   0.504  -4.981  0.00  0.00     0.150 A 
ATOM      5  C4  UNL d   1       1.714  -0.279  -5.786  0.00  0.00    -0.007 A 
ATOM      6  C5  UNL d   1       1.628  -1.652  -5.557  0.00  0.00     0.039 A 
ENDROOT
BRANCH   4   7
ATOM      7  O   UNL d   1       2.592   1.840  -5.245  0.00  0.00    -0.526 OA
ATOM      8  H5  UNL d   1       3.222   2.249  -4.628  0.00  0.00     0.418 HD
ENDBRANCH   4   7
TORSDOF 1
ENDMDL
