MODEL 1
REMARK minimizedAffinity 6.44159174
REMARK minimizedRMSD -1
REMARK  1 active torsions:
REMARK  status: ('A' for Active; 'I' for Inactive)
REMARK    1  A    between atoms: C3_4  and  O_7 
ROOT
ATOM      1  C   UNL d   1      -5.586   0.301   3.410  0.00  0.00    -0.033 A 
ATOM      2  C1  UNL d   1      -4.483   0.716   4.160  0.00  0.00     0.039 A 
ATOM      3  C2  UNL d   1      -3.265   0.972   3.528  0.00  0.00    -0.080 A 
ATOM      4  C3  UNL d   1      -3.162   0.811   2.149  0.00  0.00     0.150 A 
ATOM      5  C4  UNL d   1      -4.258   0.402   1.396  0.00  0.00    -0.007 A 
ATOM      6  C5  UNL d   1      -5.474   0.145   2.028  0.00  0.00     0.039 A 
ENDROOT
BRANCH   4   7
ATOM      7  O   UNL d   1      -1.992   1.044   1.490  0.00  0.00    -0.526 OA
ATOM      8  H5  UNL d   1      -1.315   1.292   2.142  0.00  0.00     0.418 HD
ENDBRANCH   4   7
TORSDOF 1
ENDMDL
