MODEL 1
REMARK minimizedAffinity 6.00962734
REMARK minimizedRMSD -1
REMARK  0 active torsions:
REMARK  status: ('A' for Active; 'I' for Inactive)
ROOT
ATOM      1  C   UNL d   1      -0.374  -3.872   1.125  0.00  0.00     0.077 C 
ATOM      2  C1  UNL d   1      -1.395  -3.766   0.032  0.00  0.00    -0.074 A 
ATOM      3  C2  UNL d   1      -2.072  -2.565  -0.205  0.00  0.00    -0.005 A 
ATOM      4  C3  UNL d   1      -3.013  -2.479  -1.231  0.00  0.00     0.006 A 
ATOM      5  C4  UNL d   1      -3.286  -3.590  -2.029  0.00  0.00    -0.005 A 
ATOM      6  C5  UNL d   1      -2.618  -4.798  -1.808  0.00  0.00    -0.074 A 
ATOM      7  C6  UNL d   1      -2.892  -6.000  -2.664  0.00  0.00     0.077 C 
ATOM      8  C7  UNL d   1      -1.669  -4.875  -0.780  0.00  0.00    -0.001 A 
ENDROOT
TORSDOF 0
ENDMDL
