MODEL 1
REMARK minimizedAffinity 4.56943989
REMARK minimizedRMSD -1
REMARK  0 active torsions:
REMARK  status: ('A' for Active; 'I' for Inactive)
ROOT
ATOM      1  C   UNL d   1       3.579   1.206   0.358  0.00  0.00     0.077 C 
ATOM      2  C1  UNL d   1       2.343   0.814  -0.396  0.00  0.00    -0.074 A 
ATOM      3  C2  UNL d   1       1.806  -0.472  -0.276  0.00  0.00    -0.005 A 
ATOM      4  C3  UNL d   1       0.651  -0.820  -0.975  0.00  0.00     0.006 A 
ATOM      5  C4  UNL d   1       0.021   0.113  -1.800  0.00  0.00    -0.005 A 
ATOM      6  C5  UNL d   1       0.543   1.404  -1.932  0.00  0.00    -0.074 A 
ATOM      7  C6  UNL d   1      -0.126   2.422  -2.807  0.00  0.00     0.077 C 
ATOM      8  C7  UNL d   1       1.701   1.748  -1.220  0.00  0.00    -0.001 A 
ENDROOT
TORSDOF 0
ENDMDL
