MODEL 1
REMARK minimizedAffinity 3.60757709
REMARK minimizedRMSD -1
REMARK  0 active torsions:
REMARK  status: ('A' for Active; 'I' for Inactive)
ROOT
ATOM      1  C   UNL d   1       4.654  -0.761  -0.770  0.00  0.00     0.077 C 
ATOM      2  C1  UNL d   1       3.527   0.189  -0.495  0.00  0.00    -0.074 A 
ATOM      3  C2  UNL d   1       3.387   0.796   0.757  0.00  0.00    -0.005 A 
ATOM      4  C3  UNL d   1       2.339   1.685   0.995  0.00  0.00     0.006 A 
ATOM      5  C4  UNL d   1       1.421   1.975  -0.015  0.00  0.00    -0.005 A 
ATOM      6  C5  UNL d   1       1.545   1.378  -1.274  0.00  0.00    -0.074 A 
ATOM      7  C6  UNL d   1       0.572   1.686  -2.373  0.00  0.00     0.077 C 
ATOM      8  C7  UNL d   1       2.605   0.492  -1.507  0.00  0.00    -0.001 A 
ENDROOT
TORSDOF 0
ENDMDL
