MODEL 1
REMARK minimizedAffinity 2.8718586
REMARK minimizedRMSD -1
REMARK  0 active torsions:
REMARK  status: ('A' for Active; 'I' for Inactive)
ROOT
ATOM      1  C   UNL d   1       0.282  -3.134   0.750  0.00  0.00     0.077 C 
ATOM      2  C1  UNL d   1      -0.893  -3.359  -0.154  0.00  0.00    -0.074 A 
ATOM      3  C2  UNL d   1      -1.922  -2.416  -0.244  0.00  0.00    -0.005 A 
ATOM      4  C3  UNL d   1      -3.005  -2.635  -1.097  0.00  0.00     0.006 A 
ATOM      5  C4  UNL d   1      -3.069  -3.797  -1.867  0.00  0.00    -0.005 A 
ATOM      6  C5  UNL d   1      -2.049  -4.751  -1.791  0.00  0.00    -0.074 A 
ATOM      7  C6  UNL d   1      -2.097  -6.000  -2.619  0.00  0.00     0.077 C 
ATOM      8  C7  UNL d   1      -0.961  -4.520  -0.937  0.00  0.00    -0.001 A 
ENDROOT
TORSDOF 0
ENDMDL
