MODEL 1
REMARK minimizedAffinity -0.97789228
REMARK minimizedRMSD -1
REMARK  0 active torsions:
REMARK  status: ('A' for Active; 'I' for Inactive)
ROOT
ATOM      1  C   UNL d   1      -6.000  -1.524   4.793  0.00  0.00     0.077 C 
ATOM      2  C1  UNL d   1      -5.434  -0.136   4.815  0.00  0.00    -0.074 A 
ATOM      3  C2  UNL d   1      -5.435   0.622   5.991  0.00  0.00    -0.005 A 
ATOM      4  C3  UNL d   1      -4.896   1.909   5.999  0.00  0.00     0.006 A 
ATOM      5  C4  UNL d   1      -4.353   2.450   4.833  0.00  0.00    -0.005 A 
ATOM      6  C5  UNL d   1      -4.342   1.707   3.649  0.00  0.00    -0.074 A 
ATOM      7  C6  UNL d   1      -3.753   2.271   2.390  0.00  0.00     0.077 C 
ATOM      8  C7  UNL d   1      -4.879   0.412   3.650  0.00  0.00    -0.001 A 
ENDROOT
TORSDOF 0
ENDMDL
