MODEL 1
REMARK minimizedAffinity 5.8534236
REMARK minimizedRMSD -1
REMARK  0 active torsions:
REMARK  status: ('A' for Active; 'I' for Inactive)
ROOT
ATOM      1  C   UNL d   1       0.201  -1.577  -2.071  0.00  0.00     0.077 C 
ATOM      2  C1  UNL d   1       0.827  -0.218  -1.968  0.00  0.00    -0.074 A 
ATOM      3  C2  UNL d   1       0.467   0.807  -2.848  0.00  0.00    -0.005 A 
ATOM      4  C3  UNL d   1       1.051   2.069  -2.734  0.00  0.00     0.006 A 
ATOM      5  C4  UNL d   1       1.999   2.317  -1.741  0.00  0.00    -0.005 A 
ATOM      6  C5  UNL d   1       2.370   1.304  -0.851  0.00  0.00    -0.074 A 
ATOM      7  C6  UNL d   1       3.380   1.557   0.229  0.00  0.00     0.077 C 
ATOM      8  C7  UNL d   1       1.774   0.041  -0.967  0.00  0.00    -0.001 A 
ENDROOT
TORSDOF 0
ENDMDL
