MODEL 1
REMARK minimizedAffinity 7.24608278
REMARK minimizedRMSD -1
REMARK  0 active torsions:
REMARK  status: ('A' for Active; 'I' for Inactive)
ROOT
ATOM      1  C   UNL d   1       2.297   2.666   0.811  0.00  0.00     0.077 C 
ATOM      2  C1  UNL d   1       1.801   1.582  -0.099  0.00  0.00    -0.074 A 
ATOM      3  C2  UNL d   1       2.101   0.239   0.151  0.00  0.00    -0.005 A 
ATOM      4  C3  UNL d   1       1.625  -0.759  -0.699  0.00  0.00     0.006 A 
ATOM      5  C4  UNL d   1       0.844  -0.425  -1.806  0.00  0.00    -0.005 A 
ATOM      6  C5  UNL d   1       0.533   0.913  -2.072  0.00  0.00    -0.074 A 
ATOM      7  C6  UNL d   1      -0.313   1.288  -3.253  0.00  0.00     0.077 C 
ATOM      8  C7  UNL d   1       1.010   1.909  -1.209  0.00  0.00    -0.001 A 
ENDROOT
TORSDOF 0
ENDMDL
