MODEL 1
REMARK minimizedAffinity 4.79724503
REMARK minimizedRMSD -1
REMARK  0 active torsions:
REMARK  status: ('A' for Active; 'I' for Inactive)
ROOT
ATOM      1  C   UNL d   1       2.829   0.109  -1.141  0.00  0.00     0.077 C 
ATOM      2  C1  UNL d   1       2.248   1.245  -0.353  0.00  0.00    -0.074 A 
ATOM      3  C2  UNL d   1       2.184   2.535  -0.891  0.00  0.00    -0.005 A 
ATOM      4  C3  UNL d   1       1.633   3.579  -0.150  0.00  0.00     0.006 A 
ATOM      5  C4  UNL d   1       1.141   3.346   1.135  0.00  0.00    -0.005 A 
ATOM      6  C5  UNL d   1       1.196   2.063   1.690  0.00  0.00    -0.074 A 
ATOM      7  C6  UNL d   1       0.663   1.793   3.065  0.00  0.00     0.077 C 
ATOM      8  C7  UNL d   1       1.745   1.017   0.935  0.00  0.00    -0.001 A 
ENDROOT
TORSDOF 0
ENDMDL
