MODEL 1
REMARK minimizedAffinity 4.60798883
REMARK minimizedRMSD -1
REMARK  0 active torsions:
REMARK  status: ('A' for Active; 'I' for Inactive)
ROOT
ATOM      1  C   UNL d   1      -0.437  -1.592   0.493  0.00  0.00     0.077 C 
ATOM      2  C1  UNL d   1       0.306  -0.443  -0.122  0.00  0.00    -0.074 A 
ATOM      3  C2  UNL d   1       0.088  -0.077  -1.454  0.00  0.00    -0.005 A 
ATOM      4  C3  UNL d   1       0.779   1.000  -2.009  0.00  0.00     0.006 A 
ATOM      5  C4  UNL d   1       1.693   1.721  -1.239  0.00  0.00    -0.005 A 
ATOM      6  C5  UNL d   1       1.923   1.370   0.095  0.00  0.00    -0.074 A 
ATOM      7  C6  UNL d   1       2.895   2.139   0.939  0.00  0.00     0.077 C 
ATOM      8  C7  UNL d   1       1.220   0.291   0.648  0.00  0.00    -0.001 A 
ENDROOT
TORSDOF 0
ENDMDL
