MODEL 1
REMARK minimizedAffinity 5.56510735
REMARK minimizedRMSD -1
REMARK  0 active torsions:
REMARK  status: ('A' for Active; 'I' for Inactive)
ROOT
ATOM      1  C   UNL d   1       0.629   1.727   3.071  0.00  0.00     0.077 C 
ATOM      2  C1  UNL d   1       1.401   1.746   1.784  0.00  0.00    -0.074 A 
ATOM      3  C2  UNL d   1       2.053   2.906   1.354  0.00  0.00    -0.005 A 
ATOM      4  C3  UNL d   1       2.774   2.906   0.161  0.00  0.00     0.006 A 
ATOM      5  C4  UNL d   1       2.851   1.748  -0.614  0.00  0.00    -0.005 A 
ATOM      6  C5  UNL d   1       2.206   0.578  -0.199  0.00  0.00    -0.074 A 
ATOM      7  C6  UNL d   1       2.286  -0.678  -1.015  0.00  0.00     0.077 C 
ATOM      8  C7  UNL d   1       1.489   0.585   1.005  0.00  0.00    -0.001 A 
ENDROOT
TORSDOF 0
ENDMDL
