MODEL 1
REMARK minimizedAffinity 12.1843901
REMARK minimizedRMSD -1
REMARK  0 active torsions:
REMARK  status: ('A' for Active; 'I' for Inactive)
ROOT
ATOM      1  C   UNL d   1      -2.046  -5.497  -4.050  0.00  0.00     0.077 C 
ATOM      2  C1  UNL d   1      -3.373  -5.413  -3.356  0.00  0.00    -0.074 A 
ATOM      3  C2  UNL d   1      -4.565  -5.378  -4.086  0.00  0.00    -0.005 A 
ATOM      4  C3  UNL d   1      -5.792  -5.309  -3.426  0.00  0.00     0.006 A 
ATOM      5  C4  UNL d   1      -5.839  -5.275  -2.032  0.00  0.00    -0.005 A 
ATOM      6  C5  UNL d   1      -4.658  -5.310  -1.285  0.00  0.00    -0.074 A 
ATOM      7  C6  UNL d   1      -4.691  -5.284   0.214  0.00  0.00     0.077 C 
ATOM      8  C7  UNL d   1      -3.429  -5.386  -1.955  0.00  0.00    -0.001 A 
ENDROOT
TORSDOF 0
ENDMDL
