MODEL 1
REMARK minimizedAffinity 8.23999119
REMARK minimizedRMSD -1
REMARK  0 active torsions:
REMARK  status: ('A' for Active; 'I' for Inactive)
ROOT
ATOM      1  C   UNL d   1       0.935   3.377  -3.773  0.00  0.00     0.077 C 
ATOM      2  C1  UNL d   1       0.927   1.990  -3.202  0.00  0.00    -0.074 A 
ATOM      3  C2  UNL d   1       0.012   1.033  -3.652  0.00  0.00    -0.005 A 
ATOM      4  C3  UNL d   1       0.023  -0.256  -3.118  0.00  0.00     0.006 A 
ATOM      5  C4  UNL d   1       0.947  -0.599  -2.130  0.00  0.00    -0.005 A 
ATOM      6  C5  UNL d   1       1.870   0.345  -1.668  0.00  0.00    -0.074 A 
ATOM      7  C6  UNL d   1       2.876  -0.011  -0.614  0.00  0.00     0.077 C 
ATOM      8  C7  UNL d   1       1.857   1.635  -2.215  0.00  0.00    -0.001 A 
ENDROOT
TORSDOF 0
ENDMDL
