MODEL 1
REMARK minimizedAffinity 2.08997798
REMARK minimizedRMSD -1
REMARK  0 active torsions:
REMARK  status: ('A' for Active; 'I' for Inactive)
ROOT
ATOM      1  C   UNL d   1       1.999  -0.436  -0.226  0.00  0.00     0.077 C 
ATOM      2  C1  UNL d   1       1.446   0.525   0.784  0.00  0.00    -0.074 A 
ATOM      3  C2  UNL d   1       2.295   1.335   1.545  0.00  0.00    -0.005 A 
ATOM      4  C3  UNL d   1       1.766   2.231   2.474  0.00  0.00     0.006 A 
ATOM      5  C4  UNL d   1       0.385   2.327   2.650  0.00  0.00    -0.005 A 
ATOM      6  C5  UNL d   1      -0.479   1.526   1.897  0.00  0.00    -0.074 A 
ATOM      7  C6  UNL d   1      -1.966   1.623   2.067  0.00  0.00     0.077 C 
ATOM      8  C7  UNL d   1       0.060   0.633   0.961  0.00  0.00    -0.001 A 
ENDROOT
TORSDOF 0
ENDMDL
