MODEL 1
REMARK minimizedAffinity 3.00845408
REMARK minimizedRMSD -1
REMARK  0 active torsions:
REMARK  status: ('A' for Active; 'I' for Inactive)
ROOT
ATOM      1  C   UNL d   1      -0.575   2.445  -3.193  0.00  0.00     0.077 C 
ATOM      2  C1  UNL d   1       0.084   1.265  -2.544  0.00  0.00    -0.074 A 
ATOM      3  C2  UNL d   1       0.709   0.278  -3.313  0.00  0.00    -0.005 A 
ATOM      4  C3  UNL d   1       1.326  -0.809  -2.695  0.00  0.00     0.006 A 
ATOM      5  C4  UNL d   1       1.324  -0.921  -1.304  0.00  0.00    -0.005 A 
ATOM      6  C5  UNL d   1       0.705   0.056  -0.518  0.00  0.00    -0.074 A 
ATOM      7  C6  UNL d   1       0.702  -0.043   0.978  0.00  0.00     0.077 C 
ATOM      8  C7  UNL d   1       0.093   1.150  -1.147  0.00  0.00    -0.001 A 
ENDROOT
TORSDOF 0
ENDMDL
