MODEL 1
REMARK minimizedAffinity 1.89503193
REMARK minimizedRMSD -1
REMARK  0 active torsions:
REMARK  status: ('A' for Active; 'I' for Inactive)
ROOT
ATOM      1  C   UNL d   1      -0.164  -2.124   0.807  0.00  0.00     0.077 C 
ATOM      2  C1  UNL d   1      -0.767  -3.440   0.412  0.00  0.00    -0.074 A 
ATOM      3  C2  UNL d   1      -0.540  -4.591   1.172  0.00  0.00    -0.005 A 
ATOM      4  C3  UNL d   1      -1.115  -5.806   0.798  0.00  0.00     0.006 A 
ATOM      5  C4  UNL d   1      -1.920  -5.881  -0.339  0.00  0.00    -0.005 A 
ATOM      6  C5  UNL d   1      -2.159  -4.740  -1.112  0.00  0.00    -0.074 A 
ATOM      7  C6  UNL d   1      -3.030  -4.801  -2.331  0.00  0.00     0.077 C 
ATOM      8  C7  UNL d   1      -1.584  -3.522  -0.725  0.00  0.00    -0.001 A 
ENDROOT
TORSDOF 0
ENDMDL
