MODEL 1
REMARK minimizedAffinity 1.00361943
REMARK minimizedRMSD -1
REMARK  0 active torsions:
REMARK  status: ('A' for Active; 'I' for Inactive)
ROOT
ATOM      1  C   UNL d   1      -1.252   1.593   2.327  0.00  0.00     0.077 C 
ATOM      2  C1  UNL d   1       0.210   1.460   2.023  0.00  0.00    -0.074 A 
ATOM      3  C2  UNL d   1       1.176   1.909   2.929  0.00  0.00    -0.005 A 
ATOM      4  C3  UNL d   1       2.533   1.770   2.636  0.00  0.00     0.006 A 
ATOM      5  C4  UNL d   1       2.937   1.181   1.438  0.00  0.00    -0.005 A 
ATOM      6  C5  UNL d   1       1.985   0.725   0.520  0.00  0.00    -0.074 A 
ATOM      7  C6  UNL d   1       2.402   0.081  -0.769  0.00  0.00     0.077 C 
ATOM      8  C7  UNL d   1       0.624   0.862   0.824  0.00  0.00    -0.001 A 
ENDROOT
TORSDOF 0
ENDMDL
