MODEL 1
REMARK minimizedAffinity 12.161869
REMARK minimizedRMSD -1
REMARK  1 active torsions:
REMARK  status: ('A' for Active; 'I' for Inactive)
REMARK    1  A    between atoms: C1_2  and  C2_3 
ROOT
ATOM      1  C2  UNL d   1       3.716  -2.376   4.755  0.00  0.00    -0.076 A 
ATOM      2  C3  UNL d   1       4.662  -1.564   5.405  0.00  0.00     0.004 A 
ATOM      3  C4  UNL d   1       5.794  -2.117   6.000  0.00  0.00    -0.003 A 
ATOM      4  C5  UNL d   1       6.000  -3.492   5.954  0.00  0.00     0.000 A 
ATOM      5  C6  UNL d   1       5.081  -4.311   5.299  0.00  0.00     0.000 A 
ATOM      6  C7  UNL d   1       3.942  -3.767   4.680  0.00  0.00    -0.073 A 
ATOM      7  C8  UNL d   1       2.981  -4.698   3.992  0.00  0.00     0.078 C 
ENDROOT
BRANCH   1   8
ATOM      8  C1  UNL d   1       2.493  -1.723   4.152  0.00  0.00     0.053 C 
ATOM      9  C   UNL d   1       2.714  -0.252   3.836  0.00  0.00     0.018 C 
ENDBRANCH   1   8
TORSDOF 1
ENDMDL
