MODEL 1
REMARK minimizedAffinity 13.1201496
REMARK minimizedRMSD -1
REMARK  1 active torsions:
REMARK  status: ('A' for Active; 'I' for Inactive)
REMARK    1  A    between atoms: C1_2  and  C2_3 
ROOT
ATOM      1  C2  UNL d   1       2.547   0.367   3.318  0.00  0.00    -0.076 A 
ATOM      2  C3  UNL d   1       2.145   0.066   4.631  0.00  0.00     0.004 A 
ATOM      3  C4  UNL d   1       2.178   1.035   5.632  0.00  0.00    -0.003 A 
ATOM      4  C5  UNL d   1       2.614   2.322   5.336  0.00  0.00     0.000 A 
ATOM      5  C6  UNL d   1       3.000   2.643   4.035  0.00  0.00     0.000 A 
ATOM      6  C7  UNL d   1       2.957   1.682   3.011  0.00  0.00    -0.073 A 
ATOM      7  C8  UNL d   1       3.390   2.081   1.627  0.00  0.00     0.078 C 
ENDROOT
BRANCH   1   8
ATOM      8  C1  UNL d   1       2.515  -0.733   2.281  0.00  0.00     0.053 C 
ATOM      9  C   UNL d   1       1.182  -1.464   2.248  0.00  0.00     0.018 C 
ENDBRANCH   1   8
TORSDOF 1
ENDMDL
