MODEL 1
REMARK minimizedAffinity 16.9334145
REMARK minimizedRMSD -1
REMARK  1 active torsions:
REMARK  status: ('A' for Active; 'I' for Inactive)
REMARK    1  A    between atoms: C1_2  and  C2_3 
ROOT
ATOM      1  C2  UNL d   1       2.619  -1.661   4.620  0.00  0.00    -0.076 A 
ATOM      2  C3  UNL d   1       2.524  -0.265   4.480  0.00  0.00     0.004 A 
ATOM      3  C4  UNL d   1       2.146   0.310   3.269  0.00  0.00    -0.003 A 
ATOM      4  C5  UNL d   1       1.857  -0.500   2.176  0.00  0.00     0.000 A 
ATOM      5  C6  UNL d   1       1.930  -1.887   2.301  0.00  0.00     0.000 A 
ATOM      6  C7  UNL d   1       2.293  -2.484   3.521  0.00  0.00    -0.073 A 
ATOM      7  C8  UNL d   1       2.361  -3.985   3.598  0.00  0.00     0.078 C 
ENDROOT
BRANCH   1   8
ATOM      8  C1  UNL d   1       3.060  -2.228   5.950  0.00  0.00     0.053 C 
ATOM      9  C   UNL d   1       4.552  -2.519   5.994  0.00  0.00     0.018 C 
ENDBRANCH   1   8
TORSDOF 1
ENDMDL
