MODEL 1
REMARK minimizedAffinity -0.349629641
REMARK minimizedRMSD -1
REMARK  1 active torsions:
REMARK  status: ('A' for Active; 'I' for Inactive)
REMARK    1  A    between atoms: C1_2  and  C2_3 
ROOT
ATOM      1  C2  UNL d   1       3.958  -2.358   4.513  0.00  0.00    -0.076 A 
ATOM      2  C3  UNL d   1       2.580  -2.183   4.725  0.00  0.00     0.004 A 
ATOM      3  C4  UNL d   1       1.789  -1.519   3.789  0.00  0.00    -0.003 A 
ATOM      4  C5  UNL d   1       2.363  -1.020   2.625  0.00  0.00     0.000 A 
ATOM      5  C6  UNL d   1       3.725  -1.201   2.390  0.00  0.00     0.000 A 
ATOM      6  C7  UNL d   1       4.534  -1.882   3.315  0.00  0.00    -0.073 A 
ATOM      7  C8  UNL d   1       5.999  -2.042   3.014  0.00  0.00     0.078 C 
ENDROOT
BRANCH   1   8
ATOM      8  C1  UNL d   1       4.771  -3.062   5.576  0.00  0.00     0.053 C 
ATOM      9  C   UNL d   1       5.994  -2.263   5.999  0.00  0.00     0.018 C 
ENDBRANCH   1   8
TORSDOF 1
ENDMDL
