MODEL 1
REMARK minimizedAffinity 8.55103397
REMARK minimizedRMSD -1
REMARK  1 active torsions:
REMARK  status: ('A' for Active; 'I' for Inactive)
REMARK    1  A    between atoms: C1_2  and  C2_3 
ROOT
ATOM      1  C2  UNL d   1       3.576  -1.624   3.992  0.00  0.00    -0.076 A 
ATOM      2  C3  UNL d   1       3.938  -0.492   3.241  0.00  0.00     0.004 A 
ATOM      3  C4  UNL d   1       3.071   0.047   2.292  0.00  0.00    -0.003 A 
ATOM      4  C5  UNL d   1       1.828  -0.537   2.078  0.00  0.00     0.000 A 
ATOM      5  C6  UNL d   1       1.444  -1.650   2.826  0.00  0.00     0.000 A 
ATOM      6  C7  UNL d   1       2.300  -2.196   3.799  0.00  0.00    -0.073 A 
ATOM      7  C8  UNL d   1       1.838  -3.400   4.572  0.00  0.00     0.078 C 
ENDROOT
BRANCH   1   8
ATOM      8  C1  UNL d   1       4.568  -2.181   4.988  0.00  0.00     0.053 C 
ATOM      9  C   UNL d   1       6.000  -2.122   4.479  0.00  0.00     0.018 C 
ENDBRANCH   1   8
TORSDOF 1
ENDMDL
