MODEL 1
REMARK minimizedAffinity 5.75428391
REMARK minimizedRMSD -1
REMARK  1 active torsions:
REMARK  status: ('A' for Active; 'I' for Inactive)
REMARK    1  A    between atoms: C1_2  and  C2_3 
ROOT
ATOM      1  C2  UNL d   1       3.809  -1.937   3.838  0.00  0.00    -0.076 A 
ATOM      2  C3  UNL d   1       5.199  -1.728   3.836  0.00  0.00     0.004 A 
ATOM      3  C4  UNL d   1       5.991  -2.159   4.899  0.00  0.00    -0.003 A 
ATOM      4  C5  UNL d   1       5.405  -2.805   5.982  0.00  0.00     0.000 A 
ATOM      5  C6  UNL d   1       4.030  -3.035   5.993  0.00  0.00     0.000 A 
ATOM      6  C7  UNL d   1       3.220  -2.623   4.922  0.00  0.00    -0.073 A 
ATOM      7  C8  UNL d   1       1.741  -2.892   4.989  0.00  0.00     0.078 C 
ENDROOT
BRANCH   1   8
ATOM      8  C1  UNL d   1       2.998  -1.424   2.670  0.00  0.00     0.053 C 
ATOM      9  C   UNL d   1       2.329  -0.090   2.966  0.00  0.00     0.018 C 
ENDBRANCH   1   8
TORSDOF 1
ENDMDL
