MODEL 1
REMARK minimizedAffinity 2.86514783
REMARK minimizedRMSD -1
REMARK  1 active torsions:
REMARK  status: ('A' for Active; 'I' for Inactive)
REMARK    1  A    between atoms: C1_2  and  C2_3 
ROOT
ATOM      1  C2  UNL d   1       4.050  -2.284   4.400  0.00  0.00    -0.076 A 
ATOM      2  C3  UNL d   1       2.670  -2.277   4.671  0.00  0.00     0.004 A 
ATOM      3  C4  UNL d   1       1.793  -1.508   3.910  0.00  0.00    -0.003 A 
ATOM      4  C5  UNL d   1       2.280  -0.732   2.864  0.00  0.00     0.000 A 
ATOM      5  C6  UNL d   1       3.643  -0.739   2.570  0.00  0.00     0.000 A 
ATOM      6  C7  UNL d   1       4.539  -1.523   3.317  0.00  0.00    -0.073 A 
ATOM      7  C8  UNL d   1       6.000  -1.488   2.960  0.00  0.00     0.078 C 
ENDROOT
BRANCH   1   8
ATOM      8  C1  UNL d   1       4.956  -3.117   5.277  0.00  0.00     0.053 C 
ATOM      9  C   UNL d   1       6.000  -2.279   6.000  0.00  0.00     0.018 C 
ENDBRANCH   1   8
TORSDOF 1
ENDMDL
