MODEL 1
REMARK minimizedAffinity -0.710851431
REMARK minimizedRMSD -1
REMARK  2 active torsions:
REMARK  status: ('A' for Active; 'I' for Inactive)
REMARK    1  A    between atoms: C2'_3  and  C1'_4 
REMARK    2  A    between atoms: C1'_4  and  C1_5 
ROOT
ATOM      1  C1  I4B d   1       0.119  -0.940   0.750  0.00  0.00    -0.075 A 
ATOM      2  C2  I4B d   1      -0.756  -1.324   1.735  0.00  0.00     0.003 A 
ATOM      3  C3  I4B d   1      -1.821  -0.472   2.114  0.00  0.00     0.002 A 
ATOM      4  C4  I4B d   1      -1.943   0.768   1.522  0.00  0.00    -0.004 A 
ATOM      5  C5  I4B d   1      -1.069   1.147   0.507  0.00  0.00     0.002 A 
ATOM      6  C6  I4B d   1      -0.038   0.282   0.110  0.00  0.00     0.003 A 
ENDROOT
BRANCH   1   7
ATOM      7  C1' I4B d   1       1.253  -1.850   0.398  0.00  0.00     0.060 C 
BRANCH   7   8
ATOM      8  C2' I4B d   1       1.952  -2.244   1.683  0.00  0.00    -0.013 C 
ATOM      9  C4' I4B d   1       1.912  -3.735   1.891  0.00  0.00     0.013 C 
ATOM     10  C3' I4B d   1       3.365  -1.745   1.613  0.00  0.00     0.013 C 
ENDBRANCH   7   8
ENDBRANCH   1   7
TORSDOF 2
ENDMDL
