MODEL 1
REMARK minimizedAffinity 0.0461509749
REMARK minimizedRMSD -1
REMARK  2 active torsions:
REMARK  status: ('A' for Active; 'I' for Inactive)
REMARK    1  A    between atoms: C2'_3  and  C1'_4 
REMARK    2  A    between atoms: C1'_4  and  C1_5 
ROOT
ATOM      1  C1  I4B d   1       2.091  -0.842   0.912  0.00  0.00    -0.075 A 
ATOM      2  C2  I4B d   1       1.095  -1.645   1.409  0.00  0.00     0.003 A 
ATOM      3  C3  I4B d   1      -0.262  -1.357   1.122  0.00  0.00     0.002 A 
ATOM      4  C4  I4B d   1      -0.577  -0.235   0.382  0.00  0.00    -0.004 A 
ATOM      5  C5  I4B d   1       0.436   0.564  -0.140  0.00  0.00     0.002 A 
ATOM      6  C6  I4B d   1       1.779   0.253   0.116  0.00  0.00     0.003 A 
ENDROOT
BRANCH   1   7
ATOM      7  C1' I4B d   1       3.511  -1.156   1.262  0.00  0.00     0.060 C 
BRANCH   7   8
ATOM      8  C2' I4B d   1       3.939  -0.214   2.368  0.00  0.00    -0.013 C 
ATOM      9  C4' I4B d   1       3.485  -0.712   3.715  0.00  0.00     0.013 C 
ATOM     10  C3' I4B d   1       5.432  -0.084   2.315  0.00  0.00     0.013 C 
ENDBRANCH   7   8
ENDBRANCH   1   7
TORSDOF 2
ENDMDL
