MODEL 1
REMARK minimizedAffinity -4.71208858
REMARK minimizedRMSD -1
REMARK  2 active torsions:
REMARK  status: ('A' for Active; 'I' for Inactive)
REMARK    1  A    between atoms: C2'_3  and  C1'_4 
REMARK    2  A    between atoms: C1'_4  and  C1_5 
ROOT
ATOM      1  C1  I4B d   1      -0.822   2.607  -1.369  0.00  0.00    -0.075 A 
ATOM      2  C2  I4B d   1      -0.118   3.646  -1.923  0.00  0.00     0.003 A 
ATOM      3  C3  I4B d   1      -0.439   4.113  -3.221  0.00  0.00     0.002 A 
ATOM      4  C4  I4B d   1      -1.430   3.482  -3.944  0.00  0.00    -0.004 A 
ATOM      5  C5  I4B d   1      -2.158   2.443  -3.372  0.00  0.00     0.002 A 
ATOM      6  C6  I4B d   1      -1.861   2.010  -2.072  0.00  0.00     0.003 A 
ENDROOT
BRANCH   1   7
ATOM      7  C1' I4B d   1      -0.436   2.118  -0.009  0.00  0.00     0.060 C 
BRANCH   7   8
ATOM      8  C2' I4B d   1      -0.008   0.670  -0.138  0.00  0.00    -0.013 C 
ATOM      9  C4' I4B d   1       1.493   0.541  -0.105  0.00  0.00     0.013 C 
ATOM     10  C3' I4B d   1      -0.642  -0.101   0.981  0.00  0.00     0.013 C 
ENDBRANCH   7   8
ENDBRANCH   1   7
TORSDOF 2
ENDMDL
