MODEL 1
REMARK minimizedAffinity -4.12863731
REMARK minimizedRMSD -1
REMARK  2 active torsions:
REMARK  status: ('A' for Active; 'I' for Inactive)
REMARK    1  A    between atoms: C2'_3  and  C1'_4 
REMARK    2  A    between atoms: C1'_4  and  C1_5 
ROOT
ATOM      1  C1  I4B d   1       0.025   0.484  -0.396  0.00  0.00    -0.075 A 
ATOM      2  C2  I4B d   1       1.220   0.708  -1.032  0.00  0.00     0.003 A 
ATOM      3  C3  I4B d   1       2.358  -0.069  -0.706  0.00  0.00     0.002 A 
ATOM      4  C4  I4B d   1       2.270  -1.018   0.291  0.00  0.00    -0.004 A 
ATOM      5  C5  I4B d   1       1.052  -1.260   0.919  0.00  0.00     0.002 A 
ATOM      6  C6  I4B d   1      -0.081  -0.513   0.565  0.00  0.00     0.003 A 
ENDROOT
BRANCH   1   7
ATOM      7  C1' I4B d   1      -1.148   1.345  -0.741  0.00  0.00     0.060 C 
BRANCH   7   8
ATOM      8  C2' I4B d   1      -1.126   1.586  -2.237  0.00  0.00    -0.013 C 
ATOM      9  C4' I4B d   1      -2.145   0.731  -2.942  0.00  0.00     0.013 C 
ATOM     10  C3' I4B d   1      -1.385   3.044  -2.474  0.00  0.00     0.013 C 
ENDBRANCH   7   8
ENDBRANCH   1   7
TORSDOF 2
ENDMDL
