MODEL 1
REMARK minimizedAffinity -5.67261934
REMARK minimizedRMSD -1
REMARK  2 active torsions:
REMARK  status: ('A' for Active; 'I' for Inactive)
REMARK    1  A    between atoms: C2'_3  and  C1'_4 
REMARK    2  A    between atoms: C1'_4  and  C1_5 
ROOT
ATOM      1  C1  I4B d   1       0.986  -0.338   0.188  0.00  0.00    -0.075 A 
ATOM      2  C2  I4B d   1       2.284  -0.435   0.624  0.00  0.00     0.003 A 
ATOM      3  C3  I4B d   1       2.770  -1.657   1.147  0.00  0.00     0.002 A 
ATOM      4  C4  I4B d   1       1.916  -2.735   1.262  0.00  0.00    -0.004 A 
ATOM      5  C5  I4B d   1       0.607  -2.642   0.798  0.00  0.00     0.002 A 
ATOM      6  C6  I4B d   1       0.142  -1.440   0.246  0.00  0.00     0.003 A 
ENDROOT
BRANCH   1   7
ATOM      7  C1' I4B d   1       0.495   0.977  -0.329  0.00  0.00     0.060 C 
BRANCH   7   8
ATOM      8  C2' I4B d   1      -1.018   0.977  -0.246  0.00  0.00    -0.013 C 
ATOM      9  C4' I4B d   1      -1.492   1.516   1.077  0.00  0.00     0.013 C 
ATOM     10  C3' I4B d   1      -1.544   1.798  -1.385  0.00  0.00     0.013 C 
ENDBRANCH   7   8
ENDBRANCH   1   7
TORSDOF 2
ENDMDL
