MODEL 1
REMARK minimizedAffinity -5.97348928
REMARK minimizedRMSD -1
REMARK  2 active torsions:
REMARK  status: ('A' for Active; 'I' for Inactive)
REMARK    1  A    between atoms: C2'_3  and  C1'_4 
REMARK    2  A    between atoms: C1'_4  and  C1_5 
ROOT
ATOM      1  C1  I4B d   1       0.687  -0.354  -0.175  0.00  0.00    -0.075 A 
ATOM      2  C2  I4B d   1      -0.078  -1.381   0.321  0.00  0.00     0.003 A 
ATOM      3  C3  I4B d   1       0.501  -2.356   1.168  0.00  0.00     0.002 A 
ATOM      4  C4  I4B d   1       1.850  -2.297   1.451  0.00  0.00    -0.004 A 
ATOM      5  C5  I4B d   1       2.620  -1.243   0.966  0.00  0.00     0.002 A 
ATOM      6  C6  I4B d   1       2.032  -0.259   0.158  0.00  0.00     0.003 A 
ENDROOT
BRANCH   1   7
ATOM      7  C1' I4B d   1       0.051   0.640  -1.093  0.00  0.00     0.060 C 
BRANCH   7   8
ATOM      8  C2' I4B d   1      -1.411   0.758  -0.713  0.00  0.00    -0.013 C 
ATOM      9  C4' I4B d   1      -1.616   1.803   0.352  0.00  0.00     0.013 C 
ATOM     10  C3' I4B d   1      -2.186   1.089  -1.953  0.00  0.00     0.013 C 
ENDBRANCH   7   8
ENDBRANCH   1   7
TORSDOF 2
ENDMDL
