MODEL 1
REMARK minimizedAffinity -5.14003515
REMARK minimizedRMSD -1
REMARK  2 active torsions:
REMARK  status: ('A' for Active; 'I' for Inactive)
REMARK    1  A    between atoms: C2'_3  and  C1'_4 
REMARK    2  A    between atoms: C1'_4  and  C1_5 
ROOT
ATOM      1  C1  I4B d   1       0.932  -0.340   0.042  0.00  0.00    -0.075 A 
ATOM      2  C2  I4B d   1       2.277  -0.470   0.280  0.00  0.00     0.003 A 
ATOM      3  C3  I4B d   1       2.746  -1.408   1.231  0.00  0.00     0.002 A 
ATOM      4  C4  I4B d   1       1.838  -2.154   1.954  0.00  0.00    -0.004 A 
ATOM      5  C5  I4B d   1       0.475  -2.037   1.696  0.00  0.00     0.002 A 
ATOM      6  C6  I4B d   1       0.019  -1.133   0.725  0.00  0.00     0.003 A 
ENDROOT
BRANCH   1   7
ATOM      7  C1' I4B d   1       0.470   0.684  -0.946  0.00  0.00     0.060 C 
BRANCH   7   8
ATOM      8  C2' I4B d   1      -0.941   1.090  -0.572  0.00  0.00    -0.013 C 
ATOM      9  C4' I4B d   1      -0.992   1.671   0.816  0.00  0.00     0.013 C 
ATOM     10  C3' I4B d   1      -1.424   2.078  -1.591  0.00  0.00     0.013 C 
ENDBRANCH   7   8
ENDBRANCH   1   7
TORSDOF 2
ENDMDL
