MODEL 1
REMARK minimizedAffinity -5.42592287
REMARK minimizedRMSD -1
REMARK  2 active torsions:
REMARK  status: ('A' for Active; 'I' for Inactive)
REMARK    1  A    between atoms: C2'_3  and  C1'_4 
REMARK    2  A    between atoms: C1'_4  and  C1_5 
ROOT
ATOM      1  C1  I4B d   1      -0.223   0.621  -0.032  0.00  0.00    -0.075 A 
ATOM      2  C2  I4B d   1       1.045   0.830  -0.516  0.00  0.00     0.003 A 
ATOM      3  C3  I4B d   1       2.068  -0.116  -0.264  0.00  0.00     0.002 A 
ATOM      4  C4  I4B d   1       1.794  -1.224   0.512  0.00  0.00    -0.004 A 
ATOM      5  C5  I4B d   1       0.503  -1.445   0.981  0.00  0.00     0.002 A 
ATOM      6  C6  I4B d   1      -0.515  -0.524   0.698  0.00  0.00     0.003 A 
ENDROOT
BRANCH   1   7
ATOM      7  C1' I4B d   1      -1.272   1.657  -0.288  0.00  0.00     0.060 C 
BRANCH   7   8
ATOM      8  C2' I4B d   1      -1.471   1.759  -1.787  0.00  0.00    -0.013 C 
ATOM      9  C4' I4B d   1      -2.836   1.267  -2.190  0.00  0.00     0.013 C 
ATOM     10  C3' I4B d   1      -1.272   3.191  -2.184  0.00  0.00     0.013 C 
ENDBRANCH   7   8
ENDBRANCH   1   7
TORSDOF 2
ENDMDL
