MODEL 1
REMARK minimizedAffinity -3.17405272
REMARK minimizedRMSD -1
REMARK  2 active torsions:
REMARK  status: ('A' for Active; 'I' for Inactive)
REMARK    1  A    between atoms: C2'_3  and  C1'_4 
REMARK    2  A    between atoms: C1'_4  and  C1_5 
ROOT
ATOM      1  C1  I4B d   1      -0.223   0.644   0.077  0.00  0.00    -0.075 A 
ATOM      2  C2  I4B d   1      -0.671  -0.504   0.682  0.00  0.00     0.003 A 
ATOM      3  C3  I4B d   1       0.230  -1.560   0.962  0.00  0.00     0.002 A 
ATOM      4  C4  I4B d   1       1.550  -1.447   0.577  0.00  0.00    -0.004 A 
ATOM      5  C5  I4B d   1       2.007  -0.273  -0.016  0.00  0.00     0.002 A 
ATOM      6  C6  I4B d   1       1.118   0.784  -0.256  0.00  0.00     0.003 A 
ENDROOT
BRANCH   1   7
ATOM      7  C1' I4B d   1      -1.208   1.726  -0.234  0.00  0.00     0.060 C 
BRANCH   7   8
ATOM      8  C2' I4B d   1      -1.461   1.712  -1.728  0.00  0.00    -0.013 C 
ATOM      9  C4' I4B d   1      -2.901   1.391  -2.034  0.00  0.00     0.013 C 
ATOM     10  C3' I4B d   1      -1.077   3.054  -2.275  0.00  0.00     0.013 C 
ENDBRANCH   7   8
ENDBRANCH   1   7
TORSDOF 2
ENDMDL
