MODEL 1
REMARK minimizedAffinity -5.23634148
REMARK minimizedRMSD -1
REMARK  2 active torsions:
REMARK  status: ('A' for Active; 'I' for Inactive)
REMARK    1  A    between atoms: C2'_3  and  C1'_4 
REMARK    2  A    between atoms: C1'_4  and  C1_5 
ROOT
ATOM      1  C1  I4B d   1      -0.115   0.392  -0.196  0.00  0.00    -0.075 A 
ATOM      2  C2  I4B d   1       1.144   0.747  -0.610  0.00  0.00     0.003 A 
ATOM      3  C3  I4B d   1       2.243  -0.111  -0.365  0.00  0.00     0.002 A 
ATOM      4  C4  I4B d   1       2.048  -1.283   0.338  0.00  0.00    -0.004 A 
ATOM      5  C5  I4B d   1       0.766  -1.652   0.737  0.00  0.00     0.002 A 
ATOM      6  C6  I4B d   1      -0.324  -0.816   0.458  0.00  0.00     0.003 A 
ENDROOT
BRANCH   1   7
ATOM      7  C1' I4B d   1      -1.248   1.337  -0.442  0.00  0.00     0.060 C 
BRANCH   7   8
ATOM      8  C2' I4B d   1      -1.438   1.458  -1.941  0.00  0.00    -0.013 C 
ATOM      9  C4' I4B d   1      -2.755   0.870  -2.373  0.00  0.00     0.013 C 
ATOM     10  C3' I4B d   1      -1.348   2.911  -2.303  0.00  0.00     0.013 C 
ENDBRANCH   7   8
ENDBRANCH   1   7
TORSDOF 2
ENDMDL
