MODEL 1
REMARK minimizedAffinity -4.2962594
REMARK minimizedRMSD -1
REMARK  2 active torsions:
REMARK  status: ('A' for Active; 'I' for Inactive)
REMARK    1  A    between atoms: C2'_3  and  C1'_4 
REMARK    2  A    between atoms: C1'_4  and  C1_5 
ROOT
ATOM      1  C1  I4B d   1      -1.018   0.953  -0.127  0.00  0.00    -0.075 A 
ATOM      2  C2  I4B d   1      -1.664   0.879   1.082  0.00  0.00     0.003 A 
ATOM      3  C3  I4B d   1      -1.555  -0.288   1.878  0.00  0.00     0.002 A 
ATOM      4  C4  I4B d   1      -0.838  -1.368   1.406  0.00  0.00    -0.004 A 
ATOM      5  C5  I4B d   1      -0.166  -1.283   0.190  0.00  0.00     0.002 A 
ATOM      6  C6  I4B d   1      -0.246  -0.110  -0.576  0.00  0.00     0.003 A 
ENDROOT
BRANCH   1   7
ATOM      7  C1' I4B d   1      -1.181   2.187  -0.956  0.00  0.00     0.060 C 
BRANCH   7   8
ATOM      8  C2' I4B d   1      -1.706   1.771  -2.315  0.00  0.00    -0.013 C 
ATOM      9  C4' I4B d   1      -3.211   1.718  -2.325  0.00  0.00     0.013 C 
ATOM     10  C3' I4B d   1      -1.191   2.748  -3.329  0.00  0.00     0.013 C 
ENDBRANCH   7   8
ENDBRANCH   1   7
TORSDOF 2
ENDMDL
