MODEL 1
REMARK minimizedAffinity -5.31047869
REMARK minimizedRMSD -1
REMARK  2 active torsions:
REMARK  status: ('A' for Active; 'I' for Inactive)
REMARK    1  A    between atoms: C2'_3  and  C1'_4 
REMARK    2  A    between atoms: C1'_4  and  C1_5 
ROOT
ATOM      1  C1  I4B d   1      -0.203  -0.529   0.583  0.00  0.00    -0.075 A 
ATOM      2  C2  I4B d   1      -1.055  -0.948   1.574  0.00  0.00     0.003 A 
ATOM      3  C3  I4B d   1      -0.686  -2.015   2.428  0.00  0.00     0.002 A 
ATOM      4  C4  I4B d   1       0.515  -2.664   2.224  0.00  0.00    -0.004 A 
ATOM      5  C5  I4B d   1       1.388  -2.224   1.233  0.00  0.00     0.002 A 
ATOM      6  C6  I4B d   1       1.032  -1.141   0.415  0.00  0.00     0.003 A 
ENDROOT
BRANCH   1   7
ATOM      7  C1' I4B d   1      -0.639   0.580  -0.322  0.00  0.00     0.060 C 
BRANCH   7   8
ATOM      8  C2' I4B d   1      -1.122  -0.038  -1.618  0.00  0.00    -0.013 C 
ATOM      9  C4' I4B d   1      -1.912   0.952  -2.433  0.00  0.00     0.013 C 
ATOM     10  C3' I4B d   1       0.078  -0.527  -2.374  0.00  0.00     0.013 C 
ENDBRANCH   7   8
ENDBRANCH   1   7
TORSDOF 2
ENDMDL
