MODEL 1
REMARK minimizedAffinity -5.16686153
REMARK minimizedRMSD -1
REMARK  2 active torsions:
REMARK  status: ('A' for Active; 'I' for Inactive)
REMARK    1  A    between atoms: C2'_3  and  C1'_4 
REMARK    2  A    between atoms: C1'_4  and  C1_5 
ROOT
ATOM      1  C1  I4B d   1       0.098   0.349  -0.200  0.00  0.00    -0.075 A 
ATOM      2  C2  I4B d   1      -0.047  -0.767   0.585  0.00  0.00     0.003 A 
ATOM      3  C3  I4B d   1       1.012  -1.699   0.704  0.00  0.00     0.002 A 
ATOM      4  C4  I4B d   1       2.173  -1.502  -0.015  0.00  0.00    -0.004 A 
ATOM      5  C5  I4B d   1       2.328  -0.358  -0.793  0.00  0.00     0.002 A 
ATOM      6  C6  I4B d   1       1.289   0.580  -0.877  0.00  0.00     0.003 A 
ENDROOT
BRANCH   1   7
ATOM      7  C1' I4B d   1      -1.053   1.295  -0.329  0.00  0.00     0.060 C 
BRANCH   7   8
ATOM      8  C2' I4B d   1      -1.413   1.395  -1.797  0.00  0.00    -0.013 C 
ATOM      9  C4' I4B d   1      -2.729   0.720  -2.083  0.00  0.00     0.013 C 
ATOM     10  C3' I4B d   1      -1.459   2.848  -2.165  0.00  0.00     0.013 C 
ENDBRANCH   7   8
ENDBRANCH   1   7
TORSDOF 2
ENDMDL
