MODEL 1
REMARK minimizedAffinity -4.95600653
REMARK minimizedRMSD -1
REMARK  2 active torsions:
REMARK  status: ('A' for Active; 'I' for Inactive)
REMARK    1  A    between atoms: C2'_3  and  C1'_4 
REMARK    2  A    between atoms: C1'_4  and  C1_5 
ROOT
ATOM      1  C1  I4B d   1      -0.795   3.322  -3.686  0.00  0.00    -0.075 A 
ATOM      2  C2  I4B d   1      -0.749   3.958  -2.471  0.00  0.00     0.003 A 
ATOM      3  C3  I4B d   1      -0.382   5.324  -2.394  0.00  0.00     0.002 A 
ATOM      4  C4  I4B d   1      -0.024   5.997  -3.545  0.00  0.00    -0.004 A 
ATOM      5  C5  I4B d   1      -0.093   5.357  -4.779  0.00  0.00     0.002 A 
ATOM      6  C6  I4B d   1      -0.494   4.015  -4.852  0.00  0.00     0.003 A 
ENDROOT
BRANCH   1   7
ATOM      7  C1' I4B d   1      -1.155   1.871  -3.727  0.00  0.00     0.060 C 
BRANCH   7   8
ATOM      8  C2' I4B d   1      -2.003   1.566  -2.509  0.00  0.00    -0.013 C 
ATOM      9  C4' I4B d   1      -3.312   0.932  -2.901  0.00  0.00     0.013 C 
ATOM     10  C3' I4B d   1      -1.213   0.663  -1.610  0.00  0.00     0.013 C 
ENDBRANCH   7   8
ENDBRANCH   1   7
TORSDOF 2
ENDMDL
