MODEL 1
REMARK minimizedAffinity -5.12375689
REMARK minimizedRMSD -1
REMARK  1 active torsions:
REMARK  status: ('A' for Active; 'I' for Inactive)
REMARK    1  A    between atoms: C1_2  and  C2_3 
ROOT
ATOM      1  C2  UNL d   1      -0.716   0.221  -0.235  0.00  0.00    -0.081 A 
ATOM      2  C3  UNL d   1       0.153   1.318  -0.183  0.00  0.00     0.006 A 
ATOM      3  C4  UNL d   1       1.500   1.140   0.139  0.00  0.00     0.002 A 
ATOM      4  C5  UNL d   1       2.003  -0.138   0.406  0.00  0.00    -0.080 A 
ATOM      5  C6  UNL d   1       3.454  -0.347   0.724  0.00  0.00     0.076 C 
ATOM      6  C7  UNL d   1       1.132  -1.232   0.372  0.00  0.00     0.002 A 
ATOM      7  C8  UNL d   1      -0.216  -1.054   0.050  0.00  0.00     0.006 A 
ENDROOT
BRANCH   1   8
ATOM      8  C1  UNL d   1      -2.155   0.402  -0.646  0.00  0.00     0.054 C 
ATOM      9  C   UNL d   1      -2.370   0.006  -2.100  0.00  0.00     0.018 C 
ENDBRANCH   1   8
TORSDOF 1
ENDMDL
