MODEL 1
REMARK minimizedAffinity -5.49615049
REMARK minimizedRMSD -1
REMARK  1 active torsions:
REMARK  status: ('A' for Active; 'I' for Inactive)
REMARK    1  A    between atoms: C1_2  and  C2_3 
ROOT
ATOM      1  C2  UNL d   1      -0.683   0.133  -0.414  0.00  0.00    -0.081 A 
ATOM      2  C3  UNL d   1       0.093   1.287  -0.250  0.00  0.00     0.006 A 
ATOM      3  C4  UNL d   1       1.393   1.201   0.254  0.00  0.00     0.002 A 
ATOM      4  C5  UNL d   1       1.941  -0.040   0.594  0.00  0.00    -0.080 A 
ATOM      5  C6  UNL d   1       3.346  -0.150   1.108  0.00  0.00     0.076 C 
ATOM      6  C7  UNL d   1       1.160  -1.192   0.447  0.00  0.00     0.002 A 
ATOM      7  C8  UNL d   1      -0.140  -1.106  -0.056  0.00  0.00     0.006 A 
ENDROOT
BRANCH   1   8
ATOM      8  C1  UNL d   1      -2.062   0.216  -1.018  0.00  0.00     0.054 C 
ATOM      9  C   UNL d   1      -2.084  -0.356  -2.428  0.00  0.00     0.018 C 
ENDBRANCH   1   8
TORSDOF 1
ENDMDL
