MODEL 1
REMARK minimizedAffinity -5.54133081
REMARK minimizedRMSD -1
REMARK  1 active torsions:
REMARK  status: ('A' for Active; 'I' for Inactive)
REMARK    1  A    between atoms: C1_2  and  C2_3 
ROOT
ATOM      1  C2  UNL d   1      -0.601  -0.239  -0.231  0.00  0.00    -0.081 A 
ATOM      2  C3  UNL d   1       0.134   0.953  -0.221  0.00  0.00     0.006 A 
ATOM      3  C4  UNL d   1       1.484   0.950   0.135  0.00  0.00     0.002 A 
ATOM      4  C5  UNL d   1       2.125  -0.245   0.479  0.00  0.00    -0.080 A 
ATOM      5  C6  UNL d   1       3.582  -0.266   0.834  0.00  0.00     0.076 C 
ATOM      6  C7  UNL d   1       1.387  -1.434   0.487  0.00  0.00     0.002 A 
ATOM      7  C8  UNL d   1       0.036  -1.431   0.132  0.00  0.00     0.006 A 
ENDROOT
BRANCH   1   8
ATOM      8  C1  UNL d   1      -2.041  -0.249  -0.676  0.00  0.00     0.054 C 
ATOM      9  C   UNL d   1      -2.158  -0.557  -2.162  0.00  0.00     0.018 C 
ENDBRANCH   1   8
TORSDOF 1
ENDMDL
