MODEL 1
REMARK minimizedAffinity -5.15257645
REMARK minimizedRMSD -1
REMARK  1 active torsions:
REMARK  status: ('A' for Active; 'I' for Inactive)
REMARK    1  A    between atoms: C1_2  and  C2_3 
ROOT
ATOM      1  C2  UNL d   1      -0.317  -0.104  -0.916  0.00  0.00    -0.081 A 
ATOM      2  C3  UNL d   1      -0.480   1.263  -0.660  0.00  0.00     0.006 A 
ATOM      3  C4  UNL d   1       0.412   1.939   0.175  0.00  0.00     0.002 A 
ATOM      4  C5  UNL d   1       1.487   1.263   0.762  0.00  0.00    -0.080 A 
ATOM      5  C6  UNL d   1       2.469   1.983   1.636  0.00  0.00     0.076 C 
ATOM      6  C7  UNL d   1       1.640  -0.107   0.521  0.00  0.00     0.002 A 
ATOM      7  C8  UNL d   1       0.748  -0.784  -0.314  0.00  0.00     0.006 A 
ENDROOT
BRANCH   1   8
ATOM      8  C1  UNL d   1      -1.240  -0.822  -1.867  0.00  0.00     0.054 C 
ATOM      9  C   UNL d   1      -2.102   0.160  -2.648  0.00  0.00     0.018 C 
ENDBRANCH   1   8
TORSDOF 1
ENDMDL
