MODEL 1
REMARK minimizedAffinity -4.98114014
REMARK minimizedRMSD -1
REMARK  1 active torsions:
REMARK  status: ('A' for Active; 'I' for Inactive)
REMARK    1  A    between atoms: C1_2  and  C2_3 
ROOT
ATOM      1  C2  UNL d   1      -0.360   0.109  -0.529  0.00  0.00    -0.081 A 
ATOM      2  C3  UNL d   1      -0.566   1.470  -0.268  0.00  0.00     0.006 A 
ATOM      3  C4  UNL d   1       0.433   2.233   0.339  0.00  0.00     0.002 A 
ATOM      4  C5  UNL d   1       1.657   1.652   0.688  0.00  0.00    -0.080 A 
ATOM      5  C6  UNL d   1       2.750   2.468   1.313  0.00  0.00     0.076 C 
ATOM      6  C7  UNL d   1       1.856   0.289   0.444  0.00  0.00     0.002 A 
ATOM      7  C8  UNL d   1       0.857  -0.475  -0.163  0.00  0.00     0.006 A 
ENDROOT
BRANCH   1   8
ATOM      8  C1  UNL d   1      -1.412  -0.702  -1.242  0.00  0.00     0.054 C 
ATOM      9  C   UNL d   1      -2.106   0.117  -2.321  0.00  0.00     0.018 C 
ENDBRANCH   1   8
TORSDOF 1
ENDMDL
