MODEL 1
REMARK minimizedAffinity -5.07262039
REMARK minimizedRMSD -1
REMARK  1 active torsions:
REMARK  status: ('A' for Active; 'I' for Inactive)
REMARK    1  A    between atoms: C1_2  and  C2_3 
ROOT
ATOM      1  C2  UNL d   1      -0.541   0.016  -0.270  0.00  0.00    -0.081 A 
ATOM      2  C3  UNL d   1       0.299   1.131  -0.381  0.00  0.00     0.006 A 
ATOM      3  C4  UNL d   1       1.643   1.045  -0.009  0.00  0.00     0.002 A 
ATOM      4  C5  UNL d   1       2.171  -0.159   0.472  0.00  0.00    -0.080 A 
ATOM      5  C6  UNL d   1       3.619  -0.273   0.846  0.00  0.00     0.076 C 
ATOM      6  C7  UNL d   1       1.328  -1.268   0.598  0.00  0.00     0.002 A 
ATOM      7  C8  UNL d   1      -0.016  -1.182   0.227  0.00  0.00     0.006 A 
ENDROOT
BRANCH   1   8
ATOM      8  C1  UNL d   1      -1.974   0.087  -0.731  0.00  0.00     0.054 C 
ATOM      9  C   UNL d   1      -2.079  -0.080  -2.241  0.00  0.00     0.018 C 
ENDBRANCH   1   8
TORSDOF 1
ENDMDL
