MODEL 1
REMARK minimizedAffinity -4.91846895
REMARK minimizedRMSD -1
REMARK  1 active torsions:
REMARK  status: ('A' for Active; 'I' for Inactive)
REMARK    1  A    between atoms: C1_2  and  C2_3 
ROOT
ATOM      1  C2  UNL d   1       1.086   2.212   0.386  0.00  0.00    -0.081 A 
ATOM      2  C3  UNL d   1       2.280   1.705   0.915  0.00  0.00     0.006 A 
ATOM      3  C4  UNL d   1       2.478   0.327   1.021  0.00  0.00     0.002 A 
ATOM      4  C5  UNL d   1       1.490  -0.567   0.594  0.00  0.00    -0.080 A 
ATOM      5  C6  UNL d   1       1.703  -2.050   0.674  0.00  0.00     0.076 C 
ATOM      6  C7  UNL d   1       0.291  -0.061   0.082  0.00  0.00     0.002 A 
ATOM      7  C8  UNL d   1       0.092   1.317  -0.024  0.00  0.00     0.006 A 
ENDROOT
BRANCH   1   8
ATOM      8  C1  UNL d   1       0.896   3.697   0.211  0.00  0.00     0.054 C 
ATOM      9  C   UNL d   1       2.208   4.386  -0.135  0.00  0.00     0.018 C 
ENDBRANCH   1   8
TORSDOF 1
ENDMDL
