MODEL 1
REMARK minimizedAffinity -4.61476564
REMARK minimizedRMSD -1
REMARK  2 active torsions:
REMARK  status: ('A' for Active; 'I' for Inactive)
REMARK    1  A    between atoms: C1_2  and  C2_3 
REMARK    2  A    between atoms: C2_3  and  C3_4 
ROOT
ATOM      1  C3  UNL d   1      -0.285   0.492   0.258  0.00  0.00    -0.075 A 
ATOM      2  C4  UNL d   1       0.766   1.038  -0.493  0.00  0.00     0.002 A 
ATOM      3  C5  UNL d   1       1.571   2.044   0.043  0.00  0.00     0.002 A 
ATOM      4  C6  UNL d   1       1.330   2.523   1.329  0.00  0.00    -0.004 A 
ATOM      5  C7  UNL d   1       0.278   1.999   2.077  0.00  0.00     0.002 A 
ATOM      6  C8  UNL d   1      -0.526   0.990   1.546  0.00  0.00     0.002 A 
ENDROOT
BRANCH   1   7
ATOM      7  C2  UNL d   1      -1.142  -0.617  -0.305  0.00  0.00     0.056 C 
BRANCH   7   8
ATOM      8  C1  UNL d   1      -0.714  -1.089  -1.698  0.00  0.00     0.007 C 
ATOM      9  C   UNL d   1      -1.890  -1.437  -2.601  0.00  0.00     0.009 C 
ENDBRANCH   7   8
ENDBRANCH   1   7
TORSDOF 2
ENDMDL
