MODEL 1
REMARK minimizedAffinity -3.20839834
REMARK minimizedRMSD -1
REMARK  2 active torsions:
REMARK  status: ('A' for Active; 'I' for Inactive)
REMARK    1  A    between atoms: C1_2  and  C2_3 
REMARK    2  A    between atoms: C2_3  and  C3_4 
ROOT
ATOM      1  C3  UNL d   1       0.136  -0.117   0.321  0.00  0.00    -0.075 A 
ATOM      2  C4  UNL d   1       1.191   0.745  -0.014  0.00  0.00     0.002 A 
ATOM      3  C5  UNL d   1       1.381   1.937   0.685  0.00  0.00     0.002 A 
ATOM      4  C6  UNL d   1       0.515   2.288   1.718  0.00  0.00    -0.004 A 
ATOM      5  C7  UNL d   1      -0.546   1.448   2.048  0.00  0.00     0.002 A 
ATOM      6  C8  UNL d   1      -0.736   0.252   1.354  0.00  0.00     0.002 A 
ENDROOT
BRANCH   1   7
ATOM      7  C2  UNL d   1      -0.057  -1.422  -0.412  0.00  0.00     0.056 C 
BRANCH   7   8
ATOM      8  C1  UNL d   1      -1.207  -1.405  -1.425  0.00  0.00     0.007 C 
ATOM      9  C   UNL d   1      -2.188  -2.555  -1.240  0.00  0.00     0.009 C 
ENDBRANCH   7   8
ENDBRANCH   1   7
TORSDOF 2
ENDMDL
