MODEL 1
REMARK minimizedAffinity -5.65296507
REMARK minimizedRMSD -1
REMARK  2 active torsions:
REMARK  status: ('A' for Active; 'I' for Inactive)
REMARK    1  A    between atoms: C1_2  and  C2_3 
REMARK    2  A    between atoms: C2_3  and  C3_4 
ROOT
ATOM      1  C3  UNL d   1       0.149  -0.067   0.101  0.00  0.00    -0.075 A 
ATOM      2  C4  UNL d   1      -0.508   0.738   1.043  0.00  0.00     0.002 A 
ATOM      3  C5  UNL d   1       0.133   1.847   1.596  0.00  0.00     0.002 A 
ATOM      4  C6  UNL d   1       1.438   2.159   1.223  0.00  0.00    -0.004 A 
ATOM      5  C7  UNL d   1       2.106   1.357   0.300  0.00  0.00     0.002 A 
ATOM      6  C8  UNL d   1       1.466   0.249  -0.258  0.00  0.00     0.002 A 
ENDROOT
BRANCH   1   7
ATOM      7  C2  UNL d   1      -0.550  -1.252  -0.524  0.00  0.00     0.056 C 
BRANCH   7   8
ATOM      8  C1  UNL d   1      -1.528  -0.880  -1.643  0.00  0.00     0.007 C 
ATOM      9  C   UNL d   1      -2.499  -2.001  -1.989  0.00  0.00     0.009 C 
ENDBRANCH   7   8
ENDBRANCH   1   7
TORSDOF 2
ENDMDL
