MODEL 1
REMARK minimizedAffinity -3.54362082
REMARK minimizedRMSD -1
REMARK  2 active torsions:
REMARK  status: ('A' for Active; 'I' for Inactive)
REMARK    1  A    between atoms: C1_2  and  C2_3 
REMARK    2  A    between atoms: C2_3  and  C3_4 
ROOT
ATOM      1  C3  UNL d   1      -0.194   0.154  -0.583  0.00  0.00    -0.075 A 
ATOM      2  C4  UNL d   1      -0.383  -0.620   0.571  0.00  0.00     0.002 A 
ATOM      3  C5  UNL d   1      -0.140  -0.079   1.834  0.00  0.00     0.002 A 
ATOM      4  C6  UNL d   1       0.304   1.236   1.958  0.00  0.00    -0.004 A 
ATOM      5  C7  UNL d   1       0.511   2.008   0.817  0.00  0.00     0.002 A 
ATOM      6  C8  UNL d   1       0.264   1.471  -0.447  0.00  0.00     0.002 A 
ENDROOT
BRANCH   1   7
ATOM      7  C2  UNL d   1      -0.483  -0.417  -1.951  0.00  0.00     0.056 C 
BRANCH   7   8
ATOM      8  C1  UNL d   1      -1.886  -1.018  -2.092  0.00  0.00     0.007 C 
ATOM      9  C   UNL d   1      -2.372  -1.076  -3.534  0.00  0.00     0.009 C 
ENDBRANCH   7   8
ENDBRANCH   1   7
TORSDOF 2
ENDMDL
