MODEL 1
REMARK minimizedAffinity -4.45701551
REMARK minimizedRMSD -1
REMARK  2 active torsions:
REMARK  status: ('A' for Active; 'I' for Inactive)
REMARK    1  A    between atoms: C1_2  and  C2_3 
REMARK    2  A    between atoms: C2_3  and  C3_4 
ROOT
ATOM      1  C3  UNL d   1      -0.126  -0.012   0.200  0.00  0.00    -0.075 A 
ATOM      2  C4  UNL d   1       0.364   0.930  -0.717  0.00  0.00     0.002 A 
ATOM      3  C5  UNL d   1       0.834   2.168  -0.277  0.00  0.00     0.002 A 
ATOM      4  C6  UNL d   1       0.812   2.484   1.079  0.00  0.00    -0.004 A 
ATOM      5  C7  UNL d   1       0.312   1.562   1.997  0.00  0.00     0.002 A 
ATOM      6  C8  UNL d   1      -0.155   0.321   1.561  0.00  0.00     0.002 A 
ENDROOT
BRANCH   1   7
ATOM      7  C2  UNL d   1      -0.609  -1.364  -0.266  0.00  0.00     0.056 C 
BRANCH   7   8
ATOM      8  C1  UNL d   1      -1.134  -1.377  -1.705  0.00  0.00     0.007 C 
ATOM      9  C   UNL d   1      -2.200  -2.438  -1.946  0.00  0.00     0.009 C 
ENDBRANCH   7   8
ENDBRANCH   1   7
TORSDOF 2
ENDMDL
