MODEL 1
REMARK minimizedAffinity -5.36558676
REMARK minimizedRMSD -1
REMARK  2 active torsions:
REMARK  status: ('A' for Active; 'I' for Inactive)
REMARK    1  A    between atoms: C1_2  and  C2_3 
REMARK    2  A    between atoms: C2_3  and  C3_4 
ROOT
ATOM      1  C3  UNL d   1       0.160   0.351  -0.119  0.00  0.00    -0.075 A 
ATOM      2  C4  UNL d   1      -0.159   1.592  -0.688  0.00  0.00     0.002 A 
ATOM      3  C5  UNL d   1      -0.079   2.760   0.070  0.00  0.00     0.002 A 
ATOM      4  C6  UNL d   1       0.310   2.702   1.407  0.00  0.00    -0.004 A 
ATOM      5  C7  UNL d   1       0.612   1.472   1.987  0.00  0.00     0.002 A 
ATOM      6  C8  UNL d   1       0.538   0.302   1.230  0.00  0.00     0.002 A 
ENDROOT
BRANCH   1   7
ATOM      7  C2  UNL d   1       0.104  -0.914  -0.942  0.00  0.00     0.056 C 
BRANCH   7   8
ATOM      8  C1  UNL d   1      -1.294  -1.253  -1.471  0.00  0.00     0.007 C 
ATOM      9  C   UNL d   1      -1.426  -1.075  -2.977  0.00  0.00     0.009 C 
ENDBRANCH   7   8
ENDBRANCH   1   7
TORSDOF 2
ENDMDL
