MODEL 1
REMARK minimizedAffinity -3.02476382
REMARK minimizedRMSD -1
REMARK  2 active torsions:
REMARK  status: ('A' for Active; 'I' for Inactive)
REMARK    1  A    between atoms: C1_2  and  C2_3 
REMARK    2  A    between atoms: C2_3  and  C3_4 
ROOT
ATOM      1  C3  UNL d   1      -0.115  -1.136  -0.370  0.00  0.00    -0.075 A 
ATOM      2  C4  UNL d   1      -0.553  -0.098   0.466  0.00  0.00     0.002 A 
ATOM      3  C5  UNL d   1       0.303   0.950   0.802  0.00  0.00     0.002 A 
ATOM      4  C6  UNL d   1       1.609   0.970   0.316  0.00  0.00    -0.004 A 
ATOM      5  C7  UNL d   1       2.060  -0.063  -0.502  0.00  0.00     0.002 A 
ATOM      6  C8  UNL d   1       1.203  -1.112  -0.844  0.00  0.00     0.002 A 
ENDROOT
BRANCH   1   7
ATOM      7  C2  UNL d   1      -1.046  -2.258  -0.761  0.00  0.00     0.056 C 
BRANCH   7   8
ATOM      8  C1  UNL d   1      -1.976  -1.919  -1.931  0.00  0.00     0.007 C 
ATOM      9  C   UNL d   1      -1.230  -1.633  -3.227  0.00  0.00     0.009 C 
ENDBRANCH   7   8
ENDBRANCH   1   7
TORSDOF 2
ENDMDL
