MODEL 1
REMARK minimizedAffinity -2.28258514
REMARK minimizedRMSD -1
REMARK  2 active torsions:
REMARK  status: ('A' for Active; 'I' for Inactive)
REMARK    1  A    between atoms: C1_2  and  C2_3 
REMARK    2  A    between atoms: C2_3  and  C3_4 
ROOT
ATOM      1  C3  UNL d   1      -0.140  -0.396  -0.086  0.00  0.00    -0.075 A 
ATOM      2  C4  UNL d   1       0.861   0.551  -0.343  0.00  0.00     0.002 A 
ATOM      3  C5  UNL d   1       1.052   1.631   0.519  0.00  0.00     0.002 A 
ATOM      4  C6  UNL d   1       0.240   1.783   1.641  0.00  0.00    -0.004 A 
ATOM      5  C7  UNL d   1      -0.769   0.857   1.896  0.00  0.00     0.002 A 
ATOM      6  C8  UNL d   1      -0.959  -0.227   1.038  0.00  0.00     0.002 A 
ENDROOT
BRANCH   1   7
ATOM      7  C2  UNL d   1      -0.333  -1.584  -0.999  0.00  0.00     0.056 C 
BRANCH   7   8
ATOM      8  C1  UNL d   1      -1.801  -1.916  -1.289  0.00  0.00     0.007 C 
ATOM      9  C   UNL d   1      -2.151  -1.846  -2.770  0.00  0.00     0.009 C 
ENDBRANCH   7   8
ENDBRANCH   1   7
TORSDOF 2
ENDMDL
