MODEL 1
REMARK minimizedAffinity -5.21918011
REMARK minimizedRMSD -1
REMARK  2 active torsions:
REMARK  status: ('A' for Active; 'I' for Inactive)
REMARK    1  A    between atoms: C1_2  and  C2_3 
REMARK    2  A    between atoms: C2_3  and  C3_4 
ROOT
ATOM      1  C3  UNL d   1      -0.093   0.109  -0.009  0.00  0.00    -0.075 A 
ATOM      2  C4  UNL d   1      -0.410   0.273   1.347  0.00  0.00     0.002 A 
ATOM      3  C5  UNL d   1       0.014   1.406   2.042  0.00  0.00     0.002 A 
ATOM      4  C6  UNL d   1       0.767   2.382   1.394  0.00  0.00    -0.004 A 
ATOM      5  C7  UNL d   1       1.102   2.222   0.052  0.00  0.00     0.002 A 
ATOM      6  C8  UNL d   1       0.675   1.091  -0.647  0.00  0.00     0.002 A 
ENDROOT
BRANCH   1   7
ATOM      7  C2  UNL d   1      -0.575  -1.101  -0.774  0.00  0.00     0.056 C 
BRANCH   7   8
ATOM      8  C1  UNL d   1      -1.608  -0.782  -1.860  0.00  0.00     0.007 C 
ATOM      9  C   UNL d   1      -1.122  -1.108  -3.266  0.00  0.00     0.009 C 
ENDBRANCH   7   8
ENDBRANCH   1   7
TORSDOF 2
ENDMDL
