MODEL 1
REMARK minimizedAffinity -3.35031557
REMARK minimizedRMSD -1
REMARK  2 active torsions:
REMARK  status: ('A' for Active; 'I' for Inactive)
REMARK    1  A    between atoms: C1_2  and  C2_3 
REMARK    2  A    between atoms: C2_3  and  C3_4 
ROOT
ATOM      1  C3  UNL d   1      -0.636  -0.604  -0.186  0.00  0.00    -0.075 A 
ATOM      2  C4  UNL d   1      -1.264  -0.153   0.984  0.00  0.00     0.002 A 
ATOM      3  C5  UNL d   1      -0.773   0.960   1.667  0.00  0.00     0.002 A 
ATOM      4  C6  UNL d   1       0.355   1.629   1.197  0.00  0.00    -0.004 A 
ATOM      5  C7  UNL d   1       0.996   1.179   0.045  0.00  0.00     0.002 A 
ATOM      6  C8  UNL d   1       0.505   0.068  -0.643  0.00  0.00     0.002 A 
ENDROOT
BRANCH   1   7
ATOM      7  C2  UNL d   1      -1.180  -1.791  -0.946  0.00  0.00     0.056 C 
BRANCH   7   8
ATOM      8  C1  UNL d   1      -2.261  -1.432  -1.971  0.00  0.00     0.007 C 
ATOM      9  C   UNL d   1      -1.700  -1.130  -3.354  0.00  0.00     0.009 C 
ENDBRANCH   7   8
ENDBRANCH   1   7
TORSDOF 2
ENDMDL
