MODEL 1
REMARK minimizedAffinity -3.13275933
REMARK minimizedRMSD -1
REMARK  1 active torsions:
REMARK  status: ('A' for Active; 'I' for Inactive)
REMARK    1  A    between atoms: C1_2  and  C2_3 
ROOT
ATOM      1  C2  UNL d   1      -1.174   1.418  -1.155  0.00  0.00    -0.073 A 
ATOM      2  C3  UNL d   1      -2.503   1.024  -1.345  0.00  0.00    -0.002 A 
ATOM      3  C4  UNL d   1      -3.151   1.289  -2.552  0.00  0.00     0.004 A 
ATOM      4  C5  UNL d   1      -2.476   1.943  -3.582  0.00  0.00    -0.004 A 
ATOM      5  C6  UNL d   1      -1.143   2.334  -3.416  0.00  0.00    -0.075 A 
ATOM      6  C7  UNL d   1      -0.403   3.041  -4.513  0.00  0.00     0.076 C 
ATOM      7  C8  UNL d   1      -0.500   2.067  -2.199  0.00  0.00     0.001 A 
ENDROOT
BRANCH   1   8
ATOM      8  C1  UNL d   1      -0.468   1.128   0.145  0.00  0.00     0.053 C 
ATOM      9  C   UNL d   1       0.537  -0.004   0.008  0.00  0.00     0.018 C 
ENDBRANCH   1   8
TORSDOF 1
ENDMDL
