MODEL 1
REMARK minimizedAffinity -4.1024971
REMARK minimizedRMSD -1
REMARK  1 active torsions:
REMARK  status: ('A' for Active; 'I' for Inactive)
REMARK    1  A    between atoms: C1_2  and  C2_3 
ROOT
ATOM      1  C2  UNL d   1      -0.903   1.260  -1.121  0.00  0.00    -0.073 A 
ATOM      2  C3  UNL d   1      -2.289   1.166  -1.290  0.00  0.00    -0.002 A 
ATOM      3  C4  UNL d   1      -2.897   1.686  -2.433  0.00  0.00     0.004 A 
ATOM      4  C5  UNL d   1      -2.126   2.299  -3.421  0.00  0.00    -0.004 A 
ATOM      5  C6  UNL d   1      -0.738   2.392  -3.276  0.00  0.00    -0.075 A 
ATOM      6  C7  UNL d   1       0.105   3.050  -4.328  0.00  0.00     0.076 C 
ATOM      7  C8  UNL d   1      -0.136   1.870  -2.123  0.00  0.00     0.001 A 
ENDROOT
BRANCH   1   8
ATOM      8  C1  UNL d   1      -0.242   0.694   0.109  0.00  0.00     0.053 C 
ATOM      9  C   UNL d   1       1.043  -0.046  -0.224  0.00  0.00     0.018 C 
ENDBRANCH   1   8
TORSDOF 1
ENDMDL
