MODEL 1
REMARK minimizedAffinity -3.82786584
REMARK minimizedRMSD -1
REMARK  1 active torsions:
REMARK  status: ('A' for Active; 'I' for Inactive)
REMARK    1  A    between atoms: C1_2  and  C2_3 
ROOT
ATOM      1  C2  UNL d   1       0.241   0.682  -0.520  0.00  0.00    -0.073 A 
ATOM      2  C3  UNL d   1      -0.523   1.219   0.522  0.00  0.00    -0.002 A 
ATOM      3  C4  UNL d   1      -1.799   1.726   0.272  0.00  0.00     0.004 A 
ATOM      4  C5  UNL d   1      -2.327   1.695  -1.019  0.00  0.00    -0.004 A 
ATOM      5  C6  UNL d   1      -1.583   1.151  -2.071  0.00  0.00    -0.075 A 
ATOM      6  C7  UNL d   1      -2.136   1.111  -3.466  0.00  0.00     0.076 C 
ATOM      7  C8  UNL d   1      -0.302   0.646  -1.813  0.00  0.00     0.001 A 
ENDROOT
BRANCH   1   8
ATOM      8  C1  UNL d   1       1.616   0.128  -0.254  0.00  0.00     0.053 C 
ATOM      9  C   UNL d   1       1.564  -1.181   0.519  0.00  0.00     0.018 C 
ENDBRANCH   1   8
TORSDOF 1
ENDMDL
