MODEL 1
REMARK minimizedAffinity -1.92994368
REMARK minimizedRMSD -1
REMARK  1 active torsions:
REMARK  status: ('A' for Active; 'I' for Inactive)
REMARK    1  A    between atoms: C1_2  and  C2_3 
ROOT
ATOM      1  C2  UNL d   1      -1.369   1.337  -1.104  0.00  0.00    -0.073 A 
ATOM      2  C3  UNL d   1      -2.557   0.782  -1.592  0.00  0.00    -0.002 A 
ATOM      3  C4  UNL d   1      -3.099   1.225  -2.799  0.00  0.00     0.004 A 
ATOM      4  C5  UNL d   1      -2.456   2.221  -3.534  0.00  0.00    -0.004 A 
ATOM      5  C6  UNL d   1      -1.261   2.780  -3.069  0.00  0.00    -0.075 A 
ATOM      6  C7  UNL d   1      -0.558   3.854  -3.845  0.00  0.00     0.076 C 
ATOM      7  C8  UNL d   1      -0.725   2.332  -1.854  0.00  0.00     0.001 A 
ENDROOT
BRANCH   1   8
ATOM      8  C1  UNL d   1      -0.777   0.857   0.196  0.00  0.00     0.053 C 
ATOM      9  C   UNL d   1       0.582   0.205  -0.003  0.00  0.00     0.018 C 
ENDBRANCH   1   8
TORSDOF 1
ENDMDL
