MODEL 1
REMARK minimizedAffinity -4.75093985
REMARK minimizedRMSD -1
REMARK  1 active torsions:
REMARK  status: ('A' for Active; 'I' for Inactive)
REMARK    1  A    between atoms: C1_2  and  C2_3 
ROOT
ATOM      1  C2  UNL d   1      -0.347   0.804  -0.698  0.00  0.00    -0.073 A 
ATOM      2  C3  UNL d   1       0.619   1.728  -1.111  0.00  0.00    -0.002 A 
ATOM      3  C4  UNL d   1       1.970   1.502  -0.846  0.00  0.00     0.004 A 
ATOM      4  C5  UNL d   1       2.370   0.347  -0.173  0.00  0.00    -0.004 A 
ATOM      5  C6  UNL d   1       1.420  -0.594   0.237  0.00  0.00    -0.075 A 
ATOM      6  C7  UNL d   1       1.833  -1.840   0.964  0.00  0.00     0.076 C 
ATOM      7  C8  UNL d   1       0.065  -0.358  -0.030  0.00  0.00     0.001 A 
ENDROOT
BRANCH   1   8
ATOM      8  C1  UNL d   1      -1.807   1.041  -0.988  0.00  0.00     0.053 C 
ATOM      9  C   UNL d   1      -2.033   1.533  -2.409  0.00  0.00     0.018 C 
ENDBRANCH   1   8
TORSDOF 1
ENDMDL
