MODEL 1
REMARK minimizedAffinity -2.0040319
REMARK minimizedRMSD -1
REMARK  1 active torsions:
REMARK  status: ('A' for Active; 'I' for Inactive)
REMARK    1  A    between atoms: C1_2  and  C2_3 
ROOT
ATOM      1  C2  UNL d   1       0.752   0.275   0.294  0.00  0.00    -0.073 A 
ATOM      2  C3  UNL d   1       0.032  -0.078   1.441  0.00  0.00    -0.002 A 
ATOM      3  C4  UNL d   1      -1.341   0.164   1.513  0.00  0.00     0.004 A 
ATOM      4  C5  UNL d   1      -2.007   0.754   0.439  0.00  0.00    -0.004 A 
ATOM      5  C6  UNL d   1      -1.307   1.103  -0.721  0.00  0.00    -0.075 A 
ATOM      6  C7  UNL d   1      -2.008   1.740  -1.884  0.00  0.00     0.076 C 
ATOM      7  C8  UNL d   1       0.072   0.859  -0.784  0.00  0.00     0.001 A 
ENDROOT
BRANCH   1   8
ATOM      8  C1  UNL d   1       2.233   0.010   0.209  0.00  0.00     0.053 C 
ATOM      9  C   UNL d   1       2.917   0.916  -0.802  0.00  0.00     0.018 C 
ENDBRANCH   1   8
TORSDOF 1
ENDMDL
