MODEL 1
REMARK minimizedAffinity -0.230633348
REMARK minimizedRMSD -1
REMARK  1 active torsions:
REMARK  status: ('A' for Active; 'I' for Inactive)
REMARK    1  A    between atoms: C1_2  and  C2_3 
ROOT
ATOM      1  C2  UNL d   1       0.743   0.534  -0.400  0.00  0.00    -0.073 A 
ATOM      2  C3  UNL d   1      -0.097  -0.065   0.545  0.00  0.00    -0.002 A 
ATOM      3  C4  UNL d   1      -1.469  -0.158   0.310  0.00  0.00     0.004 A 
ATOM      4  C5  UNL d   1      -2.014   0.339  -0.874  0.00  0.00    -0.004 A 
ATOM      5  C6  UNL d   1      -1.189   0.930  -1.836  0.00  0.00    -0.075 A 
ATOM      6  C7  UNL d   1      -1.760   1.472  -3.114  0.00  0.00     0.076 C 
ATOM      7  C8  UNL d   1       0.188   1.022  -1.591  0.00  0.00     0.001 A 
ENDROOT
BRANCH   1   8
ATOM      8  C1  UNL d   1       2.227   0.631  -0.153  0.00  0.00     0.053 C 
ATOM      9  C   UNL d   1       3.033  -0.039  -1.255  0.00  0.00     0.018 C 
ENDBRANCH   1   8
TORSDOF 1
ENDMDL
