MODEL 1
REMARK minimizedAffinity -0.940121174
REMARK minimizedRMSD -1
REMARK  1 active torsions:
REMARK  status: ('A' for Active; 'I' for Inactive)
REMARK    1  A    between atoms: C1_2  and  C2_3 
ROOT
ATOM      1  C2  UNL d   1      -0.568  -0.361   1.669  0.00  0.00    -0.073 A 
ATOM      2  C3  UNL d   1      -0.978   0.550   0.689  0.00  0.00    -0.002 A 
ATOM      3  C4  UNL d   1      -0.120   0.894  -0.357  0.00  0.00     0.004 A 
ATOM      4  C5  UNL d   1       1.152   0.327  -0.437  0.00  0.00    -0.004 A 
ATOM      5  C6  UNL d   1       1.575  -0.594   0.526  0.00  0.00    -0.075 A 
ATOM      6  C7  UNL d   1       2.941  -1.211   0.456  0.00  0.00     0.076 C 
ATOM      7  C8  UNL d   1       0.709  -0.933   1.574  0.00  0.00     0.001 A 
ENDROOT
BRANCH   1   8
ATOM      8  C1  UNL d   1      -1.493  -0.741   2.796  0.00  0.00     0.053 C 
ATOM      9  C   UNL d   1      -2.886  -0.159   2.611  0.00  0.00     0.018 C 
ENDBRANCH   1   8
TORSDOF 1
ENDMDL
