MODEL 1
REMARK minimizedAffinity -4.45393658
REMARK minimizedRMSD -1
REMARK  1 active torsions:
REMARK  status: ('A' for Active; 'I' for Inactive)
REMARK    1  A    between atoms: C1_2  and  C2_3 
ROOT
ATOM      1  C2  UNL d   1      -0.743   0.061   0.823  0.00  0.00    -0.073 A 
ATOM      2  C3  UNL d   1      -1.353  -0.510   1.946  0.00  0.00    -0.002 A 
ATOM      3  C4  UNL d   1      -0.715  -1.530   2.653  0.00  0.00     0.004 A 
ATOM      4  C5  UNL d   1       0.541  -1.984   2.250  0.00  0.00    -0.004 A 
ATOM      5  C6  UNL d   1       1.172  -1.418   1.138  0.00  0.00    -0.075 A 
ATOM      6  C7  UNL d   1       2.522  -1.897   0.690  0.00  0.00     0.076 C 
ATOM      7  C8  UNL d   1       0.524  -0.396   0.431  0.00  0.00     0.001 A 
ENDROOT
BRANCH   1   8
ATOM      8  C1  UNL d   1      -1.425   1.167   0.060  0.00  0.00     0.053 C 
ATOM      9  C   UNL d   1      -0.938   1.251  -1.378  0.00  0.00     0.018 C 
ENDBRANCH   1   8
TORSDOF 1
ENDMDL
