MODEL 1
REMARK minimizedAffinity 0.693519294
REMARK minimizedRMSD -1
REMARK  1 active torsions:
REMARK  status: ('A' for Active; 'I' for Inactive)
REMARK    1  A    between atoms: C1_2  and  C2_3 
ROOT
ATOM      1  C2  UNL d   1      -0.677   0.741  -0.340  0.00  0.00    -0.073 A 
ATOM      2  C3  UNL d   1      -1.634   0.724   0.681  0.00  0.00    -0.002 A 
ATOM      3  C4  UNL d   1      -1.451  -0.082   1.805  0.00  0.00     0.004 A 
ATOM      4  C5  UNL d   1      -0.307  -0.871   1.925  0.00  0.00    -0.004 A 
ATOM      5  C6  UNL d   1       0.667  -0.858   0.921  0.00  0.00    -0.075 A 
ATOM      6  C7  UNL d   1       1.902  -1.703   1.033  0.00  0.00     0.076 C 
ATOM      7  C8  UNL d   1       0.474  -0.049  -0.207  0.00  0.00     0.001 A 
ENDROOT
BRANCH   1   8
ATOM      8  C1  UNL d   1      -0.868   1.614  -1.554  0.00  0.00     0.053 C 
ATOM      9  C   UNL d   1      -2.107   1.227  -2.345  0.00  0.00     0.018 C 
ENDBRANCH   1   8
TORSDOF 1
ENDMDL
