MODEL 1
REMARK minimizedAffinity 15.1093969
REMARK minimizedRMSD -1
REMARK  0 active torsions:
REMARK  status: ('A' for Active; 'I' for Inactive)
ROOT
ATOM      1  C   UNL d   1       3.213   0.329  -1.914  0.00  0.00     0.124 A 
ATOM      2  C1  UNL d   1       4.149   0.987  -1.128  0.00  0.00     0.062 A 
ATOM      3  C2  UNL d   1       3.953   1.102   0.245  0.00  0.00     0.162 A 
ATOM      4  C3  UNL d   1       2.816   0.557   0.842  0.00  0.00    -0.034 A 
ATOM      5  C4  UNL d   1       1.879  -0.102   0.045  0.00  0.00     0.162 A 
ATOM      6  C5  UNL d   1       2.079  -0.215  -1.327  0.00  0.00     0.062 A 
ATOM      7  F   UNL d   1       1.174  -0.850  -2.085  0.00  0.00    -0.097 F 
ATOM      8  F1  UNL d   1       0.775  -0.638   0.586  0.00  0.00    -0.096 F 
ATOM      9  I   UNL d   1       2.520   0.727   2.895  0.00  0.00    -0.060 I 
ATOM     10  F2  UNL d   1       4.874   1.743   0.980  0.00  0.00    -0.096 F 
ATOM     11  F3  UNL d   1       5.245   1.514  -1.693  0.00  0.00    -0.097 F 
ATOM     12  F4  UNL d   1       3.403   0.221  -3.235  0.00  0.00    -0.092 F 
ENDROOT
TORSDOF 0
ENDMDL
