MODEL 1
REMARK minimizedAffinity 7.78477144
REMARK minimizedRMSD -1
REMARK  0 active torsions:
REMARK  status: ('A' for Active; 'I' for Inactive)
ROOT
ATOM      1  C   UNL d   1      -1.445   2.768   0.083  0.00  0.00     0.124 A 
ATOM      2  C1  UNL d   1      -1.238   1.601  -0.639  0.00  0.00     0.062 A 
ATOM      3  C2  UNL d   1      -0.002   0.962  -0.598  0.00  0.00     0.162 A 
ATOM      4  C3  UNL d   1       1.037   1.488   0.170  0.00  0.00    -0.034 A 
ATOM      5  C4  UNL d   1       0.821   2.663   0.893  0.00  0.00     0.162 A 
ATOM      6  C5  UNL d   1      -0.416   3.298   0.848  0.00  0.00     0.062 A 
ATOM      7  F   UNL d   1      -0.614   4.425   1.547  0.00  0.00    -0.097 F 
ATOM      8  F1  UNL d   1       1.798   3.197   1.642  0.00  0.00    -0.096 F 
ATOM      9  I   UNL d   1       2.887   0.537   0.235  0.00  0.00    -0.060 I 
ATOM     10  F2  UNL d   1       0.170  -0.164  -1.305  0.00  0.00    -0.096 F 
ATOM     11  F3  UNL d   1      -2.230   1.087  -1.380  0.00  0.00    -0.097 F 
ATOM     12  F4  UNL d   1      -2.635   3.381   0.041  0.00  0.00    -0.092 F 
ENDROOT
TORSDOF 0
ENDMDL
