MODEL 1
REMARK minimizedAffinity 9.93051815
REMARK minimizedRMSD -1
REMARK  0 active torsions:
REMARK  status: ('A' for Active; 'I' for Inactive)
ROOT
ATOM      1  C   UNL d   1       1.994   0.116   0.149  0.00  0.00     0.124 A 
ATOM      2  C1  UNL d   1       2.882   0.890   0.883  0.00  0.00     0.062 A 
ATOM      3  C2  UNL d   1       4.001   1.443   0.269  0.00  0.00     0.162 A 
ATOM      4  C3  UNL d   1       4.240   1.225  -1.088  0.00  0.00    -0.034 A 
ATOM      5  C4  UNL d   1       3.343   0.445  -1.820  0.00  0.00     0.162 A 
ATOM      6  C5  UNL d   1       2.225  -0.106  -1.201  0.00  0.00     0.062 A 
ATOM      7  F   UNL d   1       1.368  -0.853  -1.912  0.00  0.00    -0.097 F 
ATOM      8  F1  UNL d   1       3.541   0.215  -3.126  0.00  0.00    -0.096 F 
ATOM      9  I   UNL d   1       5.913   2.050  -2.010  0.00  0.00    -0.060 I 
ATOM     10  F2  UNL d   1       4.843   2.187   1.003  0.00  0.00    -0.096 F 
ATOM     11  F3  UNL d   1       2.661   1.105   2.188  0.00  0.00    -0.097 F 
ATOM     12  F4  UNL d   1       0.917  -0.416   0.743  0.00  0.00    -0.092 F 
ENDROOT
TORSDOF 0
ENDMDL
