MODEL 1
REMARK minimizedAffinity 2.8035953
REMARK minimizedRMSD -1
REMARK  0 active torsions:
REMARK  status: ('A' for Active; 'I' for Inactive)
ROOT
ATOM      1  C   UNL d   1       1.850  -0.159  -0.012  0.00  0.00     0.124 A 
ATOM      2  C1  UNL d   1       2.814   0.634   0.596  0.00  0.00     0.062 A 
ATOM      3  C2  UNL d   1       3.897   1.107  -0.140  0.00  0.00     0.162 A 
ATOM      4  C3  UNL d   1       4.021   0.790  -1.492  0.00  0.00    -0.034 A 
ATOM      5  C4  UNL d   1       3.049  -0.009  -2.096  0.00  0.00     0.162 A 
ATOM      6  C5  UNL d   1       1.969  -0.480  -1.357  0.00  0.00     0.062 A 
ATOM      7  F   UNL d   1       1.039  -1.246  -1.946  0.00  0.00    -0.097 F 
ATOM      8  F1  UNL d   1       3.138  -0.334  -3.395  0.00  0.00    -0.096 F 
ATOM      9  I   UNL d   1       5.639   1.495  -2.595  0.00  0.00    -0.060 I 
ATOM     10  F2  UNL d   1       4.813   1.871   0.474  0.00  0.00    -0.096 F 
ATOM     11  F3  UNL d   1       2.702   0.944   1.895  0.00  0.00    -0.097 F 
ATOM     12  F4  UNL d   1       0.810  -0.614   0.698  0.00  0.00    -0.092 F 
ENDROOT
TORSDOF 0
ENDMDL
