MODEL 1
REMARK minimizedAffinity 8.27894211
REMARK minimizedRMSD -1
REMARK  0 active torsions:
REMARK  status: ('A' for Active; 'I' for Inactive)
ROOT
ATOM      1  C   UNL d   1       1.751  -0.336  -0.575  0.00  0.00     0.124 A 
ATOM      2  C1  UNL d   1       1.914  -0.501  -1.944  0.00  0.00     0.062 A 
ATOM      3  C2  UNL d   1       2.982   0.105  -2.600  0.00  0.00     0.162 A 
ATOM      4  C3  UNL d   1       3.896   0.881  -1.887  0.00  0.00    -0.034 A 
ATOM      5  C4  UNL d   1       3.725   1.043  -0.511  0.00  0.00     0.162 A 
ATOM      6  C5  UNL d   1       2.657   0.435   0.139  0.00  0.00     0.062 A 
ATOM      7  F   UNL d   1       2.501   0.596   1.462  0.00  0.00    -0.097 F 
ATOM      8  F1  UNL d   1       4.586   1.783   0.204  0.00  0.00    -0.096 F 
ATOM      9  I   UNL d   1       5.494   1.789  -2.864  0.00  0.00    -0.060 I 
ATOM     10  F2  UNL d   1       3.115  -0.072  -3.923  0.00  0.00    -0.096 F 
ATOM     11  F3  UNL d   1       1.041  -1.246  -2.637  0.00  0.00    -0.097 F 
ATOM     12  F4  UNL d   1       0.723  -0.920   0.053  0.00  0.00    -0.092 F 
ENDROOT
TORSDOF 0
ENDMDL
