MODEL 1
REMARK minimizedAffinity 11.9565048
REMARK minimizedRMSD -1
REMARK  0 active torsions:
REMARK  status: ('A' for Active; 'I' for Inactive)
ROOT
ATOM      1  C   UNL d   1      -0.505   1.183  -1.581  0.00  0.00     0.124 A 
ATOM      2  C1  UNL d   1      -0.458   2.351  -0.833  0.00  0.00     0.062 A 
ATOM      3  C2  UNL d   1       0.633   2.610  -0.008  0.00  0.00     0.162 A 
ATOM      4  C3  UNL d   1       1.687   1.699   0.072  0.00  0.00    -0.034 A 
ATOM      5  C4  UNL d   1       1.631   0.526  -0.683  0.00  0.00     0.162 A 
ATOM      6  C5  UNL d   1       0.539   0.272  -1.505  0.00  0.00     0.062 A 
ATOM      7  F   UNL d   1       0.495  -0.857  -2.228  0.00  0.00    -0.097 F 
ATOM      8  F1  UNL d   1       2.627  -0.371  -0.629  0.00  0.00    -0.096 F 
ATOM      9  I   UNL d   1       3.320   2.083   1.304  0.00  0.00    -0.060 I 
ATOM     10  F2  UNL d   1       0.652   3.747   0.704  0.00  0.00    -0.096 F 
ATOM     11  F3  UNL d   1      -1.466   3.232  -0.904  0.00  0.00    -0.097 F 
ATOM     12  F4  UNL d   1      -1.557   0.935  -2.373  0.00  0.00    -0.092 F 
ENDROOT
TORSDOF 0
ENDMDL
