MODEL 1
REMARK minimizedAffinity 17.6067677
REMARK minimizedRMSD -1
REMARK  0 active torsions:
REMARK  status: ('A' for Active; 'I' for Inactive)
ROOT
ATOM      1  C   UNL d   1       2.864   0.085   0.164  0.00  0.00     0.124 A 
ATOM      2  C1  UNL d   1       2.685   0.177  -1.209  0.00  0.00     0.062 A 
ATOM      3  C2  UNL d   1       3.541   0.962  -1.976  0.00  0.00     0.162 A 
ATOM      4  C3  UNL d   1       4.585   1.662  -1.371  0.00  0.00    -0.034 A 
ATOM      5  C4  UNL d   1       4.758   1.566   0.011  0.00  0.00     0.162 A 
ATOM      6  C5  UNL d   1       3.899   0.779   0.773  0.00  0.00     0.062 A 
ATOM      7  F   UNL d   1       4.074   0.692   2.100  0.00  0.00    -0.097 F 
ATOM      8  F1  UNL d   1       5.751   2.225   0.625  0.00  0.00    -0.096 F 
ATOM      9  I   UNL d   1       5.867   2.837  -2.514  0.00  0.00    -0.060 I 
ATOM     10  F2  UNL d   1       3.345   1.032  -3.301  0.00  0.00    -0.096 F 
ATOM     11  F3  UNL d   1       1.684  -0.493  -1.800  0.00  0.00    -0.097 F 
ATOM     12  F4  UNL d   1       2.038  -0.670   0.899  0.00  0.00    -0.092 F 
ENDROOT
TORSDOF 0
ENDMDL
