MODEL 1
REMARK minimizedAffinity 17.4885006
REMARK minimizedRMSD -1
REMARK  0 active torsions:
REMARK  status: ('A' for Active; 'I' for Inactive)
ROOT
ATOM      1  C   UNL d   1       4.498   1.752  -2.258  0.00  0.00     0.124 A 
ATOM      2  C1  UNL d   1       3.514   0.775  -2.211  0.00  0.00     0.062 A 
ATOM      3  C2  UNL d   1       3.078   0.279  -0.986  0.00  0.00     0.162 A 
ATOM      4  C3  UNL d   1       3.625   0.759   0.203  0.00  0.00    -0.034 A 
ATOM      5  C4  UNL d   1       4.616   1.742   0.148  0.00  0.00     0.162 A 
ATOM      6  C5  UNL d   1       5.048   2.235  -1.079  0.00  0.00     0.062 A 
ATOM      7  F   UNL d   1       5.999   3.179  -1.122  0.00  0.00    -0.097 F 
ATOM      8  F1  UNL d   1       5.164   2.226   1.273  0.00  0.00    -0.096 F 
ATOM      9  I   UNL d   1       2.976   0.020   2.037  0.00  0.00    -0.060 I 
ATOM     10  F2  UNL d   1       2.125  -0.666  -0.971  0.00  0.00    -0.096 F 
ATOM     11  F3  UNL d   1       2.981   0.307  -3.349  0.00  0.00    -0.097 F 
ATOM     12  F4  UNL d   1       4.916   2.228  -3.438  0.00  0.00    -0.092 F 
ENDROOT
TORSDOF 0
ENDMDL
