MODEL 1
REMARK minimizedAffinity 11.9173565
REMARK minimizedRMSD -1
REMARK  0 active torsions:
REMARK  status: ('A' for Active; 'I' for Inactive)
ROOT
ATOM      1  C   UNL d   1       2.470   0.718   0.478  0.00  0.00     0.124 A 
ATOM      2  C1  UNL d   1       2.376   0.528  -0.893  0.00  0.00     0.062 A 
ATOM      3  C2  UNL d   1       3.382   0.992  -1.735  0.00  0.00     0.162 A 
ATOM      4  C3  UNL d   1       4.493   1.651  -1.208  0.00  0.00    -0.034 A 
ATOM      5  C4  UNL d   1       4.580   1.840   0.173  0.00  0.00     0.162 A 
ATOM      6  C5  UNL d   1       3.572   1.373   1.010  0.00  0.00     0.062 A 
ATOM      7  F   UNL d   1       3.665   1.558   2.335  0.00  0.00    -0.097 F 
ATOM      8  F1  UNL d   1       5.634   2.469   0.713  0.00  0.00    -0.096 F 
ATOM      9  I   UNL d   1       6.000   2.347  -2.464  0.00  0.00    -0.060 I 
ATOM     10  F2  UNL d   1       3.265   0.794  -3.057  0.00  0.00    -0.096 F 
ATOM     11  F3  UNL d   1       1.312  -0.105  -1.409  0.00  0.00    -0.097 F 
ATOM     12  F4  UNL d   1       1.500   0.271   1.286  0.00  0.00    -0.092 F 
ENDROOT
TORSDOF 0
ENDMDL
