MODEL 1
REMARK minimizedAffinity -4.34957695
REMARK minimizedRMSD -1
REMARK  0 active torsions:
REMARK  status: ('A' for Active; 'I' for Inactive)
ROOT
ATOM      1  C   UNL d   1      -0.545   0.886  -1.210  0.00  0.00     0.077 C 
ATOM      2  C1  UNL d   1       0.237  -0.109  -2.015  0.00  0.00    -0.074 A 
ATOM      3  C2  UNL d   1      -0.411  -1.067  -2.801  0.00  0.00    -0.005 A 
ATOM      4  C3  UNL d   1       0.330  -1.980  -3.551  0.00  0.00     0.006 A 
ATOM      5  C4  UNL d   1       1.724  -1.944  -3.523  0.00  0.00    -0.005 A 
ATOM      6  C5  UNL d   1       2.390  -0.993  -2.743  0.00  0.00    -0.074 A 
ATOM      7  C6  UNL d   1       3.889  -0.935  -2.709  0.00  0.00     0.077 C 
ATOM      8  C7  UNL d   1       1.639  -0.075  -1.998  0.00  0.00    -0.001 A 
ENDROOT
TORSDOF 0
ENDMDL
