MODEL 1
REMARK minimizedAffinity -4.24506235
REMARK minimizedRMSD -1
REMARK  0 active torsions:
REMARK  status: ('A' for Active; 'I' for Inactive)
ROOT
ATOM      1  C   UNL d   1      -0.399   0.757  -1.606  0.00  0.00     0.077 C 
ATOM      2  C1  UNL d   1       0.543   0.024  -2.515  0.00  0.00    -0.074 A 
ATOM      3  C2  UNL d   1       0.098  -1.044  -3.301  0.00  0.00    -0.005 A 
ATOM      4  C3  UNL d   1       0.983  -1.711  -4.148  0.00  0.00     0.006 A 
ATOM      5  C4  UNL d   1       2.320  -1.316  -4.217  0.00  0.00    -0.005 A 
ATOM      6  C5  UNL d   1       2.783  -0.250  -3.440  0.00  0.00    -0.074 A 
ATOM      7  C6  UNL d   1       4.214   0.193  -3.510  0.00  0.00     0.077 C 
ATOM      8  C7  UNL d   1       1.885   0.419  -2.596  0.00  0.00    -0.001 A 
ENDROOT
TORSDOF 0
ENDMDL
