MODEL 1
REMARK minimizedAffinity -4.13051987
REMARK minimizedRMSD -1
REMARK  0 active torsions:
REMARK  status: ('A' for Active; 'I' for Inactive)
ROOT
ATOM      1  C   UNL d   1       1.013  -0.622   0.644  0.00  0.00     0.077 C 
ATOM      2  C1  UNL d   1      -0.289  -0.281   1.306  0.00  0.00    -0.074 A 
ATOM      3  C2  UNL d   1      -0.392  -0.221   2.699  0.00  0.00    -0.005 A 
ATOM      4  C3  UNL d   1      -1.608   0.107   3.300  0.00  0.00     0.006 A 
ATOM      5  C4  UNL d   1      -2.729   0.377   2.516  0.00  0.00    -0.005 A 
ATOM      6  C5  UNL d   1      -2.645   0.322   1.121  0.00  0.00    -0.074 A 
ATOM      7  C6  UNL d   1      -3.838   0.619   0.263  0.00  0.00     0.077 C 
ATOM      8  C7  UNL d   1      -1.418  -0.001   0.524  0.00  0.00    -0.001 A 
ENDROOT
TORSDOF 0
ENDMDL
