MODEL 1
REMARK minimizedAffinity -3.53758216
REMARK minimizedRMSD -1
REMARK  0 active torsions:
REMARK  status: ('A' for Active; 'I' for Inactive)
ROOT
ATOM      1  C   UNL d   1      -0.017   0.728  -0.980  0.00  0.00     0.077 C 
ATOM      2  C1  UNL d   1       0.663  -0.213  -1.930  0.00  0.00    -0.074 A 
ATOM      3  C2  UNL d   1      -0.050  -1.238  -2.560  0.00  0.00    -0.005 A 
ATOM      4  C3  UNL d   1       0.594  -2.100  -3.448  0.00  0.00     0.006 A 
ATOM      5  C4  UNL d   1       1.955  -1.946  -3.713  0.00  0.00    -0.005 A 
ATOM      6  C5  UNL d   1       2.684  -0.927  -3.093  0.00  0.00    -0.074 A 
ATOM      7  C6  UNL d   1       4.146  -0.742  -3.374  0.00  0.00     0.077 C 
ATOM      8  C7  UNL d   1       2.029  -0.061  -2.207  0.00  0.00    -0.001 A 
ENDROOT
TORSDOF 0
ENDMDL
