MODEL 1
REMARK minimizedAffinity -5.54269505
REMARK minimizedRMSD -1
REMARK  0 active torsions:
REMARK  status: ('A' for Active; 'I' for Inactive)
ROOT
ATOM      1  C   UNL d   1      -0.712  -0.397   3.528  0.00  0.00     0.077 C 
ATOM      2  C1  UNL d   1      -1.003  -0.096   2.088  0.00  0.00    -0.074 A 
ATOM      3  C2  UNL d   1      -2.310   0.150   1.655  0.00  0.00    -0.005 A 
ATOM      4  C3  UNL d   1      -2.564   0.439   0.314  0.00  0.00     0.006 A 
ATOM      5  C4  UNL d   1      -1.516   0.484  -0.606  0.00  0.00    -0.005 A 
ATOM      6  C5  UNL d   1      -0.202   0.241  -0.191  0.00  0.00    -0.074 A 
ATOM      7  C6  UNL d   1       0.937   0.295  -1.165  0.00  0.00     0.077 C 
ATOM      8  C7  UNL d   1       0.046  -0.041   1.159  0.00  0.00    -0.001 A 
ENDROOT
TORSDOF 0
ENDMDL
