MODEL 1
REMARK minimizedAffinity -4.32378817
REMARK minimizedRMSD -1
REMARK  0 active torsions:
REMARK  status: ('A' for Active; 'I' for Inactive)
ROOT
ATOM      1  C   UNL d   1      -1.485   0.985  -1.274  0.00  0.00     0.077 C 
ATOM      2  C1  UNL d   1      -0.689   0.691  -0.037  0.00  0.00    -0.074 A 
ATOM      3  C2  UNL d   1       0.615   1.176   0.110  0.00  0.00    -0.005 A 
ATOM      4  C3  UNL d   1       1.340   0.902   1.270  0.00  0.00     0.006 A 
ATOM      5  C4  UNL d   1       0.770   0.142   2.292  0.00  0.00    -0.005 A 
ATOM      6  C5  UNL d   1      -0.533  -0.350   2.162  0.00  0.00    -0.074 A 
ATOM      7  C6  UNL d   1      -1.164  -1.161   3.256  0.00  0.00     0.077 C 
ATOM      8  C7  UNL d   1      -1.257  -0.065   0.997  0.00  0.00    -0.001 A 
ENDROOT
TORSDOF 0
ENDMDL
