MODEL 1
REMARK minimizedAffinity -4.78955889
REMARK minimizedRMSD -1
REMARK  0 active torsions:
REMARK  status: ('A' for Active; 'I' for Inactive)
ROOT
ATOM      1  C   UNL d   1       0.485  -0.064  -1.529  0.00  0.00     0.077 C 
ATOM      2  C1  UNL d   1      -0.008  -0.002  -0.114  0.00  0.00    -0.074 A 
ATOM      3  C2  UNL d   1       0.871  -0.168   0.961  0.00  0.00    -0.005 A 
ATOM      4  C3  UNL d   1       0.401  -0.097   2.272  0.00  0.00     0.006 A 
ATOM      5  C4  UNL d   1      -0.952   0.139   2.521  0.00  0.00    -0.005 A 
ATOM      6  C5  UNL d   1      -1.846   0.309   1.459  0.00  0.00    -0.074 A 
ATOM      7  C6  UNL d   1      -3.301   0.573   1.710  0.00  0.00     0.077 C 
ATOM      8  C7  UNL d   1      -1.364   0.243   0.145  0.00  0.00    -0.001 A 
ENDROOT
TORSDOF 0
ENDMDL
