MODEL 1
REMARK minimizedAffinity -3.01371074
REMARK minimizedRMSD -1
REMARK  0 active torsions:
REMARK  status: ('A' for Active; 'I' for Inactive)
ROOT
ATOM      1  C   UNL d   1      -0.541  -1.032   2.899  0.00  0.00     0.077 C 
ATOM      2  C1  UNL d   1      -0.907  -0.423   1.578  0.00  0.00    -0.074 A 
ATOM      3  C2  UNL d   1      -2.242  -0.166   1.251  0.00  0.00    -0.005 A 
ATOM      4  C3  UNL d   1      -2.566   0.409   0.022  0.00  0.00     0.006 A 
ATOM      5  C4  UNL d   1      -1.561   0.732  -0.890  0.00  0.00    -0.005 A 
ATOM      6  C5  UNL d   1      -0.220   0.483  -0.580  0.00  0.00    -0.074 A 
ATOM      7  C6  UNL d   1       0.873   0.832  -1.545  0.00  0.00     0.077 C 
ATOM      8  C7  UNL d   1       0.098  -0.089   0.659  0.00  0.00    -0.001 A 
ENDROOT
TORSDOF 0
ENDMDL
