MODEL 1
REMARK minimizedAffinity -3.90628171
REMARK minimizedRMSD -1
REMARK  0 active torsions:
REMARK  status: ('A' for Active; 'I' for Inactive)
ROOT
ATOM      1  C   UNL d   1      -0.408  -0.751   2.395  0.00  0.00     0.077 C 
ATOM      2  C1  UNL d   1      -0.636  -0.244   1.002  0.00  0.00    -0.074 A 
ATOM      3  C2  UNL d   1      -1.897   0.205   0.598  0.00  0.00    -0.005 A 
ATOM      4  C3  UNL d   1      -2.092   0.683  -0.698  0.00  0.00     0.006 A 
ATOM      5  C4  UNL d   1      -1.029   0.718  -1.601  0.00  0.00    -0.005 A 
ATOM      6  C5  UNL d   1       0.240   0.274  -1.215  0.00  0.00    -0.074 A 
ATOM      7  C6  UNL d   1       1.396   0.314  -2.170  0.00  0.00     0.077 C 
ATOM      8  C7  UNL d   1       0.429  -0.198   0.091  0.00  0.00    -0.001 A 
ENDROOT
TORSDOF 0
ENDMDL
