MODEL 1
REMARK minimizedAffinity -5.12337637
REMARK minimizedRMSD -1
REMARK  0 active torsions:
REMARK  status: ('A' for Active; 'I' for Inactive)
ROOT
ATOM      1  C   UNL d   1      -4.321  -0.001   1.087  0.00  0.00     0.077 C 
ATOM      2  C1  UNL d   1      -2.858  -0.134   1.391  0.00  0.00    -0.074 A 
ATOM      3  C2  UNL d   1      -2.421  -0.543   2.655  0.00  0.00    -0.005 A 
ATOM      4  C3  UNL d   1      -1.057  -0.672   2.920  0.00  0.00     0.006 A 
ATOM      5  C4  UNL d   1      -0.119  -0.394   1.926  0.00  0.00    -0.005 A 
ATOM      6  C5  UNL d   1      -0.537   0.015   0.655  0.00  0.00    -0.074 A 
ATOM      7  C6  UNL d   1       0.458   0.309  -0.428  0.00  0.00     0.077 C 
ATOM      8  C7  UNL d   1      -1.909   0.136   0.395  0.00  0.00    -0.001 A 
ENDROOT
TORSDOF 0
ENDMDL
