MODEL 1
REMARK minimizedAffinity -3.42352057
REMARK minimizedRMSD -1
REMARK  0 active torsions:
REMARK  status: ('A' for Active; 'I' for Inactive)
ROOT
ATOM      1  C   UNL d   1      -0.080  -2.385  -3.774  0.00  0.00     0.077 C 
ATOM      2  C1  UNL d   1       0.305  -1.400  -2.711  0.00  0.00    -0.074 A 
ATOM      3  C2  UNL d   1       1.335  -0.479  -2.924  0.00  0.00    -0.005 A 
ATOM      4  C3  UNL d   1       1.676   0.438  -1.929  0.00  0.00     0.006 A 
ATOM      5  C4  UNL d   1       0.990   0.443  -0.714  0.00  0.00    -0.005 A 
ATOM      6  C5  UNL d   1      -0.044  -0.470  -0.483  0.00  0.00    -0.074 A 
ATOM      7  C6  UNL d   1      -0.797  -0.471   0.814  0.00  0.00     0.077 C 
ATOM      8  C7  UNL d   1      -0.385  -1.383  -1.490  0.00  0.00    -0.001 A 
ENDROOT
TORSDOF 0
ENDMDL
