MODEL 1
REMARK minimizedAffinity -4.74831676
REMARK minimizedRMSD -1
REMARK  0 active torsions:
REMARK  status: ('A' for Active; 'I' for Inactive)
ROOT
ATOM      1  C   UNL d   1       3.061   0.386  -3.210  0.00  0.00     0.077 C 
ATOM      2  C1  UNL d   1       1.740  -0.231  -2.858  0.00  0.00    -0.074 A 
ATOM      3  C2  UNL d   1       1.142  -1.176  -3.697  0.00  0.00    -0.005 A 
ATOM      4  C3  UNL d   1      -0.083  -1.748  -3.351  0.00  0.00     0.006 A 
ATOM      5  C4  UNL d   1      -0.720  -1.381  -2.165  0.00  0.00    -0.005 A 
ATOM      6  C5  UNL d   1      -0.136  -0.438  -1.313  0.00  0.00    -0.074 A 
ATOM      7  C6  UNL d   1      -0.803  -0.040  -0.030  0.00  0.00     0.077 C 
ATOM      8  C7  UNL d   1       1.098   0.127  -1.664  0.00  0.00    -0.001 A 
ENDROOT
TORSDOF 0
ENDMDL
