MODEL 1
REMARK minimizedAffinity -3.34247351
REMARK minimizedRMSD -1
REMARK  0 active torsions:
REMARK  status: ('A' for Active; 'I' for Inactive)
ROOT
ATOM      1  C   UNL d   1       1.452  -1.283  -3.397  0.00  0.00     0.077 C 
ATOM      2  C1  UNL d   1       0.612  -0.581  -2.372  0.00  0.00    -0.074 A 
ATOM      3  C2  UNL d   1      -0.420   0.281  -2.757  0.00  0.00    -0.005 A 
ATOM      4  C3  UNL d   1      -1.200   0.920  -1.793  0.00  0.00     0.006 A 
ATOM      5  C4  UNL d   1      -0.956   0.703  -0.436  0.00  0.00    -0.005 A 
ATOM      6  C5  UNL d   1       0.071  -0.156  -0.032  0.00  0.00    -0.074 A 
ATOM      7  C6  UNL d   1       0.340  -0.407   1.422  0.00  0.00     0.077 C 
ATOM      8  C7  UNL d   1       0.846  -0.799  -1.007  0.00  0.00    -0.001 A 
ENDROOT
TORSDOF 0
ENDMDL
