MODEL 1
REMARK minimizedAffinity -1.59461629
REMARK minimizedRMSD -1
REMARK  0 active torsions:
REMARK  status: ('A' for Active; 'I' for Inactive)
ROOT
ATOM      1  C   UNL d   1      -3.828   0.120  -0.134  0.00  0.00     0.077 C 
ATOM      2  C1  UNL d   1      -2.429  -0.171   0.322  0.00  0.00    -0.074 A 
ATOM      3  C2  UNL d   1      -2.112  -1.385   0.939  0.00  0.00    -0.005 A 
ATOM      4  C3  UNL d   1      -0.804  -1.646   1.349  0.00  0.00     0.006 A 
ATOM      5  C4  UNL d   1       0.198  -0.696   1.146  0.00  0.00    -0.005 A 
ATOM      6  C5  UNL d   1      -0.100   0.524   0.530  0.00  0.00    -0.074 A 
ATOM      7  C6  UNL d   1       0.967   1.551   0.296  0.00  0.00     0.077 C 
ATOM      8  C7  UNL d   1      -1.415   0.775   0.115  0.00  0.00    -0.001 A 
ENDROOT
TORSDOF 0
ENDMDL
