MODEL 1
REMARK minimizedAffinity -3.86022687
REMARK minimizedRMSD -1
REMARK  0 active torsions:
REMARK  status: ('A' for Active; 'I' for Inactive)
ROOT
ATOM      1  C   UNL d   1      -0.103   0.669  -1.499  0.00  0.00     0.077 C 
ATOM      2  C1  UNL d   1       0.708  -0.226  -2.388  0.00  0.00    -0.074 A 
ATOM      3  C2  UNL d   1       0.116  -1.302  -3.056  0.00  0.00    -0.005 A 
ATOM      4  C3  UNL d   1       0.881  -2.121  -3.887  0.00  0.00     0.006 A 
ATOM      5  C4  UNL d   1       2.243  -1.872  -4.058  0.00  0.00    -0.005 A 
ATOM      6  C5  UNL d   1       2.852  -0.800  -3.398  0.00  0.00    -0.074 A 
ATOM      7  C6  UNL d   1       4.313  -0.512  -3.578  0.00  0.00     0.077 C 
ATOM      8  C7  UNL d   1       2.076   0.022  -2.570  0.00  0.00    -0.001 A 
ENDROOT
TORSDOF 0
ENDMDL
