MODEL 1
REMARK minimizedAffinity -4.02043295
REMARK minimizedRMSD -1
REMARK  0 active torsions:
REMARK  status: ('A' for Active; 'I' for Inactive)
ROOT
ATOM      1  C   UNL d   1       4.010   1.063  -3.654  0.00  0.00     0.077 C 
ATOM      2  C1  UNL d   1       2.892   0.178  -3.189  0.00  0.00    -0.074 A 
ATOM      3  C2  UNL d   1       2.763  -1.130  -3.668  0.00  0.00    -0.005 A 
ATOM      4  C3  UNL d   1       1.723  -1.944  -3.219  0.00  0.00     0.006 A 
ATOM      5  C4  UNL d   1       0.804  -1.460  -2.288  0.00  0.00    -0.005 A 
ATOM      6  C5  UNL d   1       0.917  -0.156  -1.797  0.00  0.00    -0.074 A 
ATOM      7  C6  UNL d   1      -0.057   0.377  -0.788  0.00  0.00     0.077 C 
ATOM      8  C7  UNL d   1       1.969   0.654  -2.248  0.00  0.00    -0.001 A 
ENDROOT
TORSDOF 0
ENDMDL
