MODEL 1
REMARK minimizedAffinity -2.7323513
REMARK minimizedRMSD -1
REMARK  0 active torsions:
REMARK  status: ('A' for Active; 'I' for Inactive)
ROOT
ATOM      1  C   UNL d   1      -3.205   0.295  -0.800  0.00  0.00     0.077 C 
ATOM      2  C1  UNL d   1      -1.878   0.261  -0.102  0.00  0.00    -0.074 A 
ATOM      3  C2  UNL d   1      -0.765   0.913  -0.642  0.00  0.00    -0.005 A 
ATOM      4  C3  UNL d   1       0.461   0.880   0.023  0.00  0.00     0.006 A 
ATOM      5  C4  UNL d   1       0.585   0.197   1.233  0.00  0.00    -0.005 A 
ATOM      6  C5  UNL d   1      -0.517  -0.460   1.789  0.00  0.00    -0.074 A 
ATOM      7  C6  UNL d   1      -0.403  -1.192   3.093  0.00  0.00     0.077 C 
ATOM      8  C7  UNL d   1      -1.747  -0.417   1.118  0.00  0.00    -0.001 A 
ENDROOT
TORSDOF 0
ENDMDL
