MODEL 1
REMARK minimizedAffinity -1.56691813
REMARK minimizedRMSD -1
REMARK  0 active torsions:
REMARK  status: ('A' for Active; 'I' for Inactive)
ROOT
ATOM      1  C   UNL d   1       0.193   1.976   3.547  0.00  0.00     0.077 C 
ATOM      2  C1  UNL d   1      -0.122   0.820   2.644  0.00  0.00    -0.074 A 
ATOM      3  C2  UNL d   1      -0.814  -0.298   3.123  0.00  0.00    -0.005 A 
ATOM      4  C3  UNL d   1      -1.108  -1.361   2.269  0.00  0.00     0.006 A 
ATOM      5  C4  UNL d   1      -0.714  -1.318   0.931  0.00  0.00    -0.005 A 
ATOM      6  C5  UNL d   1      -0.022  -0.208   0.435  0.00  0.00    -0.074 A 
ATOM      7  C6  UNL d   1       0.399  -0.142  -1.003  0.00  0.00     0.077 C 
ATOM      8  C7  UNL d   1       0.264   0.859   1.297  0.00  0.00    -0.001 A 
ENDROOT
TORSDOF 0
ENDMDL
