MODEL 1
REMARK minimizedAffinity 8.49452686
REMARK minimizedRMSD -1
REMARK  0 active torsions:
REMARK  status: ('A' for Active; 'I' for Inactive)
ROOT
ATOM      1  C1  DEN d   1      -5.239  -1.921  -0.188  0.00  0.00     0.130 A 
ATOM      2  C2  DEN d   1      -5.613  -1.415  -1.506  0.00  0.00    -0.031 A 
ATOM      3  C3  DEN d   1      -5.772  -2.571  -2.410  0.00  0.00     0.027 A 
ATOM      4  C4  DEN d   1      -5.481  -5.083  -1.900  0.00  0.00     0.027 A 
ATOM      5  C5  DEN d   1      -5.158  -6.000  -0.925  0.00  0.00    -0.003 A 
ATOM      6  C6  DEN d   1      -4.808  -5.623   0.345  0.00  0.00     0.001 A 
ATOM      7  C7  DEN d   1      -4.818  -4.297   0.686  0.00  0.00     0.017 A 
ATOM      8  C8  DEN d   1      -5.136  -3.365  -0.294  0.00  0.00    -0.094 A 
ATOM      9  C9  DEN d   1      -5.499  -3.767  -1.569  0.00  0.00    -0.072 A 
ENDROOT
TORSDOF 0
ENDMDL
