MODEL 1
REMARK minimizedAffinity -0.962375283
REMARK minimizedRMSD -1
REMARK  0 active torsions:
REMARK  status: ('A' for Active; 'I' for Inactive)
ROOT
ATOM      1  C1  DEN d   1      -5.976  -5.782   1.067  0.00  0.00     0.130 A 
ATOM      2  C2  DEN d   1      -5.927  -4.641   1.978  0.00  0.00    -0.031 A 
ATOM      3  C3  DEN d   1      -5.914  -3.409   1.165  0.00  0.00     0.027 A 
ATOM      4  C4  DEN d   1      -5.968  -3.157  -1.402  0.00  0.00     0.027 A 
ATOM      5  C5  DEN d   1      -6.000  -3.842  -2.596  0.00  0.00    -0.003 A 
ATOM      6  C6  DEN d   1      -5.992  -5.211  -2.654  0.00  0.00     0.001 A 
ATOM      7  C7  DEN d   1      -5.997  -5.939  -1.494  0.00  0.00     0.017 A 
ATOM      8  C8  DEN d   1      -5.957  -5.255  -0.285  0.00  0.00    -0.094 A 
ATOM      9  C9  DEN d   1      -5.977  -3.871  -0.248  0.00  0.00    -0.072 A 
ENDROOT
TORSDOF 0
ENDMDL
