MODEL 1
REMARK minimizedAffinity 2.04564905
REMARK minimizedRMSD -1
REMARK  0 active torsions:
REMARK  status: ('A' for Active; 'I' for Inactive)
ROOT
ATOM      1  C1  DEN d   1      -5.854  -2.482  -1.588  0.00  0.00     0.130 A 
ATOM      2  C2  DEN d   1      -5.647  -3.003  -2.937  0.00  0.00    -0.031 A 
ATOM      3  C3  DEN d   1      -5.538  -4.473  -2.847  0.00  0.00     0.027 A 
ATOM      4  C4  DEN d   1      -5.674  -5.985  -0.761  0.00  0.00     0.027 A 
ATOM      5  C5  DEN d   1      -5.829  -5.999   0.607  0.00  0.00    -0.003 A 
ATOM      6  C6  DEN d   1      -5.968  -4.849   1.338  0.00  0.00     0.001 A 
ATOM      7  C7  DEN d   1      -6.000  -3.638   0.698  0.00  0.00     0.017 A 
ATOM      8  C8  DEN d   1      -5.837  -3.615  -0.681  0.00  0.00    -0.094 A 
ATOM      9  C9  DEN d   1      -5.710  -4.790  -1.403  0.00  0.00    -0.072 A 
ENDROOT
TORSDOF 0
ENDMDL
