MODEL 1
REMARK minimizedAffinity 11.4267721
REMARK minimizedRMSD -1
REMARK  0 active torsions:
REMARK  status: ('A' for Active; 'I' for Inactive)
ROOT
ATOM      1  C1  DEN d   1       4.053   2.399  -6.000  0.00  0.00     0.130 A 
ATOM      2  C2  DEN d   1       5.510   2.322  -5.939  0.00  0.00    -0.031 A 
ATOM      3  C3  DEN d   1       6.000   3.506  -5.205  0.00  0.00     0.027 A 
ATOM      4  C4  DEN d   1       4.651   5.439  -4.158  0.00  0.00     0.027 A 
ATOM      5  C5  DEN d   1       3.386   5.949  -3.964  0.00  0.00    -0.003 A 
ATOM      6  C6  DEN d   1       2.267   5.334  -4.459  0.00  0.00     0.001 A 
ATOM      7  C7  DEN d   1       2.387   4.149  -5.136  0.00  0.00     0.017 A 
ATOM      8  C8  DEN d   1       3.659   3.633  -5.342  0.00  0.00    -0.094 A 
ATOM      9  C9  DEN d   1       4.777   4.263  -4.823  0.00  0.00    -0.072 A 
ENDROOT
TORSDOF 0
ENDMDL
