MODEL 1
REMARK minimizedAffinity -3.99999571
REMARK minimizedRMSD -1
REMARK  0 active torsions:
REMARK  status: ('A' for Active; 'I' for Inactive)
ROOT
ATOM      1  C1  DEN d   1      -5.515  -5.999  -0.006  0.00  0.00     0.130 A 
ATOM      2  C2  DEN d   1      -5.429  -5.998   1.452  0.00  0.00    -0.031 A 
ATOM      3  C3  DEN d   1      -5.427  -4.593   1.908  0.00  0.00     0.027 A 
ATOM      4  C4  DEN d   1      -5.553  -2.432   0.506  0.00  0.00     0.027 A 
ATOM      5  C5  DEN d   1      -5.626  -1.926  -0.773  0.00  0.00    -0.003 A 
ATOM      6  C6  DEN d   1      -5.633  -2.735  -1.879  0.00  0.00     0.001 A 
ATOM      7  C7  DEN d   1      -5.611  -4.096  -1.724  0.00  0.00     0.017 A 
ATOM      8  C8  DEN d   1      -5.530  -4.613  -0.438  0.00  0.00    -0.094 A 
ATOM      9  C9  DEN d   1      -5.536  -3.779   0.667  0.00  0.00    -0.072 A 
ENDROOT
TORSDOF 0
ENDMDL
