MODEL 1
REMARK minimizedAffinity 1.13947439
REMARK minimizedRMSD -1
REMARK  0 active torsions:
REMARK  status: ('A' for Active; 'I' for Inactive)
ROOT
ATOM      1  C1  DEN d   1      -5.966  -1.828  -1.970  0.00  0.00     0.130 A 
ATOM      2  C2  DEN d   1      -5.816  -1.908  -3.420  0.00  0.00    -0.031 A 
ATOM      3  C3  DEN d   1      -5.677  -3.331  -3.787  0.00  0.00     0.027 A 
ATOM      4  C4  DEN d   1      -5.685  -5.409  -2.259  0.00  0.00     0.027 A 
ATOM      5  C5  DEN d   1      -5.773  -5.843  -0.955  0.00  0.00    -0.003 A 
ATOM      6  C6  DEN d   1      -5.896  -4.974   0.097  0.00  0.00     0.001 A 
ATOM      7  C7  DEN d   1      -5.980  -3.627  -0.141  0.00  0.00     0.017 A 
ATOM      8  C8  DEN d   1      -5.885  -3.182  -1.453  0.00  0.00    -0.094 A 
ATOM      9  C9  DEN d   1      -5.773  -4.077  -2.504  0.00  0.00    -0.072 A 
ENDROOT
TORSDOF 0
ENDMDL
