MODEL 1
REMARK minimizedAffinity 3.2097857
REMARK minimizedRMSD -1
REMARK  0 active torsions:
REMARK  status: ('A' for Active; 'I' for Inactive)
ROOT
ATOM      1  C1  DEN d   1       0.292   2.211   2.473  0.00  0.00     0.130 A 
ATOM      2  C2  DEN d   1       0.889   3.138   1.516  0.00  0.00    -0.031 A 
ATOM      3  C3  DEN d   1       2.188   2.580   1.090  0.00  0.00     0.027 A 
ATOM      4  C4  DEN d   1       3.323   0.379   1.811  0.00  0.00     0.027 A 
ATOM      5  C5  DEN d   1       3.205  -0.735   2.613  0.00  0.00    -0.003 A 
ATOM      6  C6  DEN d   1       2.132  -0.926   3.443  0.00  0.00     0.001 A 
ATOM      7  C7  DEN d   1       1.113  -0.012   3.457  0.00  0.00     0.017 A 
ATOM      8  C8  DEN d   1       1.228   1.118   2.657  0.00  0.00    -0.094 A 
ATOM      9  C9  DEN d   1       2.315   1.287   1.815  0.00  0.00    -0.072 A 
ENDROOT
TORSDOF 0
ENDMDL
