MODEL 1
REMARK minimizedAffinity 10.7508039
REMARK minimizedRMSD -1
REMARK  0 active torsions:
REMARK  status: ('A' for Active; 'I' for Inactive)
ROOT
ATOM      1  C1  DEN d   1       1.512   3.736  -1.232  0.00  0.00     0.130 A 
ATOM      2  C2  DEN d   1       1.775   2.326  -0.958  0.00  0.00    -0.031 A 
ATOM      3  C3  DEN d   1       2.732   1.835  -1.970  0.00  0.00     0.027 A 
ATOM      4  C4  DEN d   1       3.832   3.117  -3.919  0.00  0.00     0.027 A 
ATOM      5  C5  DEN d   1       3.909   4.333  -4.562  0.00  0.00    -0.003 A 
ATOM      6  C6  DEN d   1       3.173   5.417  -4.163  0.00  0.00     0.001 A 
ATOM      7  C7  DEN d   1       2.361   5.319  -3.064  0.00  0.00     0.017 A 
ATOM      8  C8  DEN d   1       2.272   4.094  -2.416  0.00  0.00    -0.094 A 
ATOM      9  C9  DEN d   1       3.033   3.013  -2.827  0.00  0.00    -0.072 A 
ENDROOT
TORSDOF 0
ENDMDL
