MODEL 1
REMARK minimizedAffinity 7.33781672
REMARK minimizedRMSD -1
REMARK  0 active torsions:
REMARK  status: ('A' for Active; 'I' for Inactive)
ROOT
ATOM      1  C1  DEN d   1      -4.347   3.015   2.223  0.00  0.00     0.130 A 
ATOM      2  C2  DEN d   1      -3.774   4.241   2.772  0.00  0.00    -0.031 A 
ATOM      3  C3  DEN d   1      -2.330   4.015   2.984  0.00  0.00     0.027 A 
ATOM      4  C4  DEN d   1      -0.933   1.898   2.514  0.00  0.00     0.027 A 
ATOM      5  C5  DEN d   1      -0.981   0.600   2.057  0.00  0.00    -0.003 A 
ATOM      6  C6  DEN d   1      -2.151   0.009   1.659  0.00  0.00     0.001 A 
ATOM      7  C7  DEN d   1      -3.314   0.733   1.667  0.00  0.00     0.017 A 
ATOM      8  C8  DEN d   1      -3.274   2.040   2.133  0.00  0.00    -0.094 A 
ATOM      9  C9  DEN d   1      -2.080   2.623   2.520  0.00  0.00    -0.072 A 
ENDROOT
TORSDOF 0
ENDMDL
