MODEL 1
REMARK minimizedAffinity 1.91435134
REMARK minimizedRMSD -1
REMARK  0 active torsions:
REMARK  status: ('A' for Active; 'I' for Inactive)
ROOT
ATOM      1  C1  DEN d   1      -5.993  -3.629  -2.110  0.00  0.00     0.130 A 
ATOM      2  C2  DEN d   1      -6.000  -4.853  -2.907  0.00  0.00    -0.031 A 
ATOM      3  C3  DEN d   1      -5.881  -5.999  -1.984  0.00  0.00     0.027 A 
ATOM      4  C4  DEN d   1      -5.692  -5.999   0.588  0.00  0.00     0.027 A 
ATOM      5  C5  DEN d   1      -5.632  -5.201   1.709  0.00  0.00    -0.003 A 
ATOM      6  C6  DEN d   1      -5.653  -3.833   1.634  0.00  0.00     0.001 A 
ATOM      7  C7  DEN d   1      -5.782  -3.222   0.414  0.00  0.00     0.017 A 
ATOM      8  C8  DEN d   1      -5.837  -4.020  -0.721  0.00  0.00    -0.094 A 
ATOM      9  C9  DEN d   1      -5.826  -5.401  -0.623  0.00  0.00    -0.072 A 
ENDROOT
TORSDOF 0
ENDMDL
