MODEL 1
REMARK minimizedAffinity 2.51090097
REMARK minimizedRMSD -1
REMARK  0 active torsions:
REMARK  status: ('A' for Active; 'I' for Inactive)
ROOT
ATOM      1  C1  DEN d   1      -5.878  -4.898  -0.833  0.00  0.00     0.130 A 
ATOM      2  C2  DEN d   1      -5.920  -5.999  -1.792  0.00  0.00    -0.031 A 
ATOM      3  C3  DEN d   1      -5.976  -5.419  -3.149  0.00  0.00     0.027 A 
ATOM      4  C4  DEN d   1      -5.999  -2.938  -3.855  0.00  0.00     0.027 A 
ATOM      5  C5  DEN d   1      -5.990  -1.640  -3.394  0.00  0.00    -0.003 A 
ATOM      6  C6  DEN d   1      -5.977  -1.340  -2.058  0.00  0.00     0.001 A 
ATOM      7  C7  DEN d   1      -5.927  -2.351  -1.135  0.00  0.00     0.017 A 
ATOM      8  C8  DEN d   1      -5.944  -3.662  -1.592  0.00  0.00    -0.094 A 
ATOM      9  C9  DEN d   1      -5.945  -3.946  -2.947  0.00  0.00    -0.072 A 
ENDROOT
TORSDOF 0
ENDMDL
