MODEL 1
REMARK minimizedAffinity 15.7407408
REMARK minimizedRMSD -1
REMARK  0 active torsions:
REMARK  status: ('A' for Active; 'I' for Inactive)
ROOT
ATOM      1  C1  DEN d   1       3.080   5.059  -3.422  0.00  0.00     0.130 A 
ATOM      2  C2  DEN d   1       4.190   4.612  -4.259  0.00  0.00    -0.031 A 
ATOM      3  C3  DEN d   1       4.734   3.371  -3.670  0.00  0.00     0.027 A 
ATOM      4  C4  DEN d   1       3.966   2.103  -1.560  0.00  0.00     0.027 A 
ATOM      5  C5  DEN d   1       3.070   2.104  -0.514  0.00  0.00    -0.003 A 
ATOM      6  C6  DEN d   1       2.144   3.100  -0.346  0.00  0.00     0.001 A 
ATOM      7  C7  DEN d   1       2.064   4.114  -1.264  0.00  0.00     0.017 A 
ATOM      8  C8  DEN d   1       2.969   4.123  -2.317  0.00  0.00    -0.094 A 
ATOM      9  C9  DEN d   1       3.889   3.101  -2.476  0.00  0.00    -0.072 A 
ENDROOT
TORSDOF 0
ENDMDL
