MODEL 1
REMARK minimizedAffinity 13.4785633
REMARK minimizedRMSD -1
REMARK  0 active torsions:
REMARK  status: ('A' for Active; 'I' for Inactive)
ROOT
ATOM      1  C1  DEN d   1       5.119   4.891  -4.483  0.00  0.00     0.130 A 
ATOM      2  C2  DEN d   1       6.000   3.750  -4.715  0.00  0.00    -0.031 A 
ATOM      3  C3  DEN d   1       5.204   2.681  -5.351  0.00  0.00     0.027 A 
ATOM      4  C4  DEN d   1       2.707   2.684  -6.000  0.00  0.00     0.027 A 
ATOM      5  C5  DEN d   1       1.546   3.425  -5.990  0.00  0.00    -0.003 A 
ATOM      6  C6  DEN d   1       1.487   4.683  -5.451  0.00  0.00     0.001 A 
ATOM      7  C7  DEN d   1       2.621   5.256  -4.940  0.00  0.00     0.017 A 
ATOM      8  C8  DEN d   1       3.794   4.513  -4.939  0.00  0.00    -0.094 A 
ATOM      9  C9  DEN d   1       3.836   3.248  -5.500  0.00  0.00    -0.072 A 
ENDROOT
TORSDOF 0
ENDMDL
