MODEL 1
REMARK minimizedAffinity 9.51569271
REMARK minimizedRMSD -1
REMARK  0 active torsions:
REMARK  status: ('A' for Active; 'I' for Inactive)
ROOT
ATOM      1  C1  DEN d   1       5.796   4.098  -4.873  0.00  0.00     0.130 A 
ATOM      2  C2  DEN d   1       6.000   2.775  -5.456  0.00  0.00    -0.031 A 
ATOM      3  C3  DEN d   1       4.707   2.312  -6.000  0.00  0.00     0.027 A 
ATOM      4  C4  DEN d   1       2.423   3.509  -5.998  0.00  0.00     0.027 A 
ATOM      5  C5  DEN d   1       1.752   4.647  -5.607  0.00  0.00    -0.003 A 
ATOM      6  C6  DEN d   1       2.369   5.658  -4.920  0.00  0.00     0.001 A 
ATOM      7  C7  DEN d   1       3.708   5.572  -4.642  0.00  0.00     0.017 A 
ATOM      8  C8  DEN d   1       4.389   4.425  -5.026  0.00  0.00    -0.094 A 
ATOM      9  C9  DEN d   1       3.751   3.419  -5.731  0.00  0.00    -0.072 A 
ENDROOT
TORSDOF 0
ENDMDL
