MODEL 1
REMARK minimizedAffinity 14.9606361
REMARK minimizedRMSD -1
REMARK  0 active torsions:
REMARK  status: ('A' for Active; 'I' for Inactive)
ROOT
ATOM      1  C1  DEN d   1       1.176   3.478  -2.038  0.00  0.00     0.130 A 
ATOM      2  C2  DEN d   1       2.139   2.738  -1.228  0.00  0.00    -0.031 A 
ATOM      3  C3  DEN d   1       3.443   2.774  -1.921  0.00  0.00     0.027 A 
ATOM      4  C4  DEN d   1       4.061   3.903  -4.156  0.00  0.00     0.027 A 
ATOM      5  C5  DEN d   1       3.575   4.640  -5.213  0.00  0.00    -0.003 A 
ATOM      6  C6  DEN d   1       2.259   5.009  -5.303  0.00  0.00     0.001 A 
ATOM      7  C7  DEN d   1       1.392   4.681  -4.294  0.00  0.00     0.017 A 
ATOM      8  C8  DEN d   1       1.873   3.932  -3.228  0.00  0.00    -0.094 A 
ATOM      9  C9  DEN d   1       3.209   3.579  -3.150  0.00  0.00    -0.072 A 
ENDROOT
TORSDOF 0
ENDMDL
