MODEL 1
REMARK minimizedAffinity 1.83025682
REMARK minimizedRMSD -1
REMARK  0 active torsions:
REMARK  status: ('A' for Active; 'I' for Inactive)
ROOT
ATOM      1  C1  DEN d   1       2.439  -0.340  -3.466  0.00  0.00     0.130 A 
ATOM      2  C2  DEN d   1       1.518  -1.468  -3.354  0.00  0.00    -0.031 A 
ATOM      3  C3  DEN d   1       0.504  -1.129  -2.334  0.00  0.00     0.027 A 
ATOM      4  C4  DEN d   1       0.270   1.022  -0.930  0.00  0.00     0.027 A 
ATOM      5  C5  DEN d   1       0.822   2.256  -0.666  0.00  0.00    -0.003 A 
ATOM      6  C6  DEN d   1       1.962   2.693  -1.287  0.00  0.00     0.001 A 
ATOM      7  C7  DEN d   1       2.561   1.909  -2.237  0.00  0.00     0.017 A 
ATOM      8  C8  DEN d   1       2.015   0.661  -2.503  0.00  0.00    -0.094 A 
ATOM      9  C9  DEN d   1       0.855   0.241  -1.874  0.00  0.00    -0.072 A 
ENDROOT
TORSDOF 0
ENDMDL
