MODEL 1
REMARK minimizedAffinity 13.1314049
REMARK minimizedRMSD -1
REMARK  0 active torsions:
REMARK  status: ('A' for Active; 'I' for Inactive)
ROOT
ATOM      1  C1  DEN d   1       2.297  -0.603  -3.582  0.00  0.00     0.130 A 
ATOM      2  C2  DEN d   1       1.339  -1.683  -3.365  0.00  0.00    -0.031 A 
ATOM      3  C3  DEN d   1       0.313  -1.200  -2.419  0.00  0.00     0.027 A 
ATOM      4  C4  DEN d   1       0.115   1.104  -1.277  0.00  0.00     0.027 A 
ATOM      5  C5  DEN d   1       0.700   2.344  -1.142  0.00  0.00    -0.003 A 
ATOM      6  C6  DEN d   1       1.867   2.674  -1.778  0.00  0.00     0.001 A 
ATOM      7  C7  DEN d   1       2.463   1.768  -2.615  0.00  0.00     0.017 A 
ATOM      8  C8  DEN d   1       1.883   0.514  -2.751  0.00  0.00    -0.094 A 
ATOM      9  C9  DEN d   1       0.697   0.204  -2.109  0.00  0.00    -0.072 A 
ENDROOT
TORSDOF 0
ENDMDL
