MODEL 1
REMARK minimizedAffinity 4.9806776
REMARK minimizedRMSD -1
REMARK  0 active torsions:
REMARK  status: ('A' for Active; 'I' for Inactive)
ROOT
ATOM      1  C1  DEN d   1      -0.859   1.160   4.142  0.00  0.00     0.130 A 
ATOM      2  C2  DEN d   1      -0.590  -0.268   4.285  0.00  0.00    -0.031 A 
ATOM      3  C3  DEN d   1       0.710  -0.553   3.644  0.00  0.00     0.027 A 
ATOM      4  C4  DEN d   1       2.324   1.070   2.456  0.00  0.00     0.027 A 
ATOM      5  C5  DEN d   1       2.521   2.379   2.075  0.00  0.00    -0.003 A 
ATOM      6  C6  DEN d   1       1.597   3.359   2.324  0.00  0.00     0.001 A 
ATOM      7  C7  DEN d   1       0.453   3.054   3.013  0.00  0.00     0.017 A 
ATOM      8  C8  DEN d   1       0.244   1.735   3.394  0.00  0.00    -0.094 A 
ATOM      9  C9  DEN d   1       1.196   0.761   3.144  0.00  0.00    -0.072 A 
ENDROOT
TORSDOF 0
ENDMDL
