MODEL 1
REMARK minimizedAffinity -4.39751816
REMARK minimizedRMSD -1
REMARK  0 active torsions:
REMARK  status: ('A' for Active; 'I' for Inactive)
ROOT
ATOM      1  C1  BNZ d   1       2.319  -0.191   0.215  0.00  0.00     0.000 A 
ATOM      2  C2  BNZ d   1       1.207  -0.988   0.170  0.00  0.00     0.000 A 
ATOM      3  C3  BNZ d   1      -0.030  -0.452  -0.058  0.00  0.00     0.000 A 
ATOM      4  C4  BNZ d   1      -0.158   0.883  -0.199  0.00  0.00     0.000 A 
ATOM      5  C5  BNZ d   1       0.953   1.701  -0.146  0.00  0.00     0.000 A 
ATOM      6  C6  BNZ d   1       2.201   1.154   0.044  0.00  0.00     0.000 A 
ENDROOT
TORSDOF 0
ENDMDL
