MODEL 1
REMARK minimizedAffinity -3.52272105
REMARK minimizedRMSD -1
REMARK  0 active torsions:
REMARK  status: ('A' for Active; 'I' for Inactive)
ROOT
ATOM      1  C1  BNZ d   1       0.351   0.954   0.239  0.00  0.00     0.000 A 
ATOM      2  C2  BNZ d   1       1.655   0.653   0.529  0.00  0.00     0.000 A 
ATOM      3  C3  BNZ d   1       2.097  -0.641   0.506  0.00  0.00     0.000 A 
ATOM      4  C4  BNZ d   1       1.226  -1.634   0.233  0.00  0.00     0.000 A 
ATOM      5  C5  BNZ d   1      -0.094  -1.347  -0.053  0.00  0.00     0.000 A 
ATOM      6  C6  BNZ d   1      -0.526  -0.041  -0.067  0.00  0.00     0.000 A 
ENDROOT
TORSDOF 0
ENDMDL
