MODEL 1
REMARK minimizedAffinity -2.55745149
REMARK minimizedRMSD -1
REMARK  0 active torsions:
REMARK  status: ('A' for Active; 'I' for Inactive)
ROOT
ATOM      1  C1  BNZ d   1      -0.030  -0.193   0.737  0.00  0.00     0.000 A 
ATOM      2  C2  BNZ d   1       1.068  -0.296   1.548  0.00  0.00     0.000 A 
ATOM      3  C3  BNZ d   1       2.140   0.536   1.383  0.00  0.00     0.000 A 
ATOM      4  C4  BNZ d   1       2.130   1.442   0.384  0.00  0.00     0.000 A 
ATOM      5  C5  BNZ d   1       1.033   1.552  -0.447  0.00  0.00     0.000 A 
ATOM      6  C6  BNZ d   1      -0.060   0.739  -0.254  0.00  0.00     0.000 A 
ENDROOT
TORSDOF 0
ENDMDL
