MODEL 1
REMARK minimizedAffinity -4.05763245
REMARK minimizedRMSD -1
REMARK  0 active torsions:
REMARK  status: ('A' for Active; 'I' for Inactive)
ROOT
ATOM      1  C1  BNZ d   1       0.730   1.192   0.377  0.00  0.00     0.000 A 
ATOM      2  C2  BNZ d   1       2.090   1.150   0.534  0.00  0.00     0.000 A 
ATOM      3  C3  BNZ d   1       2.750  -0.044   0.605  0.00  0.00     0.000 A 
ATOM      4  C4  BNZ d   1       2.047  -1.194   0.559  0.00  0.00     0.000 A 
ATOM      5  C5  BNZ d   1       0.675  -1.169   0.411  0.00  0.00     0.000 A 
ATOM      6  C6  BNZ d   1       0.018   0.035   0.300  0.00  0.00     0.000 A 
ENDROOT
TORSDOF 0
ENDMDL
