MODEL 1
REMARK minimizedAffinity 6.43415213
REMARK minimizedRMSD -1
REMARK  0 active torsions:
REMARK  status: ('A' for Active; 'I' for Inactive)
ROOT
ATOM      1  C1  BNZ d   1      -3.767   5.333  -1.875  0.00  0.00     0.000 A 
ATOM      2  C2  BNZ d   1      -3.779   4.006  -2.214  0.00  0.00     0.000 A 
ATOM      3  C3  BNZ d   1      -4.903   3.248  -2.038  0.00  0.00     0.000 A 
ATOM      4  C4  BNZ d   1      -5.999   3.807  -1.486  0.00  0.00     0.000 A 
ATOM      5  C5  BNZ d   1      -6.000   5.141  -1.130  0.00  0.00     0.000 A 
ATOM      6  C6  BNZ d   1      -4.879   5.910  -1.345  0.00  0.00     0.000 A 
ENDROOT
TORSDOF 0
ENDMDL
