MODEL 1
REMARK minimizedAffinity 10.7388973
REMARK minimizedRMSD -1
REMARK  0 active torsions:
REMARK  status: ('A' for Active; 'I' for Inactive)
ROOT
ATOM      1  C   UNL d   1       1.347   0.090   0.257  0.00  0.00     0.023 A 
ATOM      2  C1  UNL d   1       1.477   1.476   0.343  0.00  0.00     0.003 A 
ATOM      3  C2  UNL d   1       2.699   2.084   0.050  0.00  0.00     0.048 A 
ATOM      4  C3  UNL d   1       3.788   1.299  -0.330  0.00  0.00     0.023 A 
ATOM      5  C4  UNL d   1       3.662  -0.088  -0.420  0.00  0.00     0.048 A 
ATOM      6  C5  UNL d   1       2.438  -0.691  -0.124  0.00  0.00     0.003 A 
ATOM      7  I   UNL d   1       5.608   2.202  -0.768  0.00  0.00    -0.146 I 
ENDROOT
TORSDOF 0
ENDMDL
