MODEL 1
REMARK minimizedAffinity 12.9043255
REMARK minimizedRMSD -1
REMARK  0 active torsions:
REMARK  status: ('A' for Active; 'I' for Inactive)
ROOT
ATOM      1  C   UNL d   1      -5.982   4.345   5.999  0.00  0.00     0.023 A 
ATOM      2  C1  UNL d   1      -5.981   5.677   5.585  0.00  0.00     0.003 A 
ATOM      3  C2  UNL d   1      -5.971   5.986   4.223  0.00  0.00     0.048 A 
ATOM      4  C3  UNL d   1      -5.962   4.959   3.281  0.00  0.00     0.023 A 
ATOM      5  C4  UNL d   1      -5.964   3.624   3.690  0.00  0.00     0.048 A 
ATOM      6  C5  UNL d   1      -5.973   3.320   5.052  0.00  0.00     0.003 A 
ATOM      7  I   UNL d   1      -5.947   5.417   1.253  0.00  0.00    -0.146 I 
ENDROOT
TORSDOF 0
ENDMDL
