MODEL 1
REMARK minimizedAffinity 4.83088732
REMARK minimizedRMSD -1
REMARK  0 active torsions:
REMARK  status: ('A' for Active; 'I' for Inactive)
ROOT
ATOM      1  C   UNL d   1       0.378  -3.861   5.170  0.00  0.00     0.023 A 
ATOM      2  C1  UNL d   1       1.553  -3.255   5.616  0.00  0.00     0.003 A 
ATOM      3  C2  UNL d   1       1.731  -1.878   5.466  0.00  0.00     0.048 A 
ATOM      4  C3  UNL d   1       0.729  -1.113   4.870  0.00  0.00     0.023 A 
ATOM      5  C4  UNL d   1      -0.449  -1.715   4.423  0.00  0.00     0.048 A 
ATOM      6  C5  UNL d   1      -0.621  -3.092   4.574  0.00  0.00     0.003 A 
ATOM      7  I   UNL d   1       0.991   0.936   4.645  0.00  0.00    -0.146 I 
ENDROOT
TORSDOF 0
ENDMDL
