MODEL 1
REMARK minimizedAffinity -0.122590922
REMARK minimizedRMSD -1
REMARK  0 active torsions:
REMARK  status: ('A' for Active; 'I' for Inactive)
ROOT
ATOM      1  C   UNL d   1      -0.364  -5.256   5.376  0.00  0.00     0.023 A 
ATOM      2  C1  UNL d   1       0.745  -4.684   6.000  0.00  0.00     0.003 A 
ATOM      3  C2  UNL d   1       1.083  -3.354   5.742  0.00  0.00     0.048 A 
ATOM      4  C3  UNL d   1       0.309  -2.602   4.860  0.00  0.00     0.023 A 
ATOM      5  C4  UNL d   1      -0.802  -3.170   4.234  0.00  0.00     0.048 A 
ATOM      6  C5  UNL d   1      -1.136  -4.500   4.494  0.00  0.00     0.003 A 
ATOM      7  I   UNL d   1       0.811  -0.622   4.476  0.00  0.00    -0.146 I 
ENDROOT
TORSDOF 0
ENDMDL
