MODEL 1
REMARK minimizedAffinity 3.63056421
REMARK minimizedRMSD -1
REMARK  0 active torsions:
REMARK  status: ('A' for Active; 'I' for Inactive)
ROOT
ATOM      1  C   UNL d   1      -0.443  -5.440   5.564  0.00  0.00     0.023 A 
ATOM      2  C1  UNL d   1       0.744  -4.850   6.000  0.00  0.00     0.003 A 
ATOM      3  C2  UNL d   1       1.149  -3.622   5.473  0.00  0.00     0.048 A 
ATOM      4  C3  UNL d   1       0.362  -2.989   4.512  0.00  0.00     0.023 A 
ATOM      5  C4  UNL d   1      -0.827  -3.575   4.073  0.00  0.00     0.048 A 
ATOM      6  C5  UNL d   1      -1.227  -4.804   4.602  0.00  0.00     0.003 A 
ATOM      7  I   UNL d   1       0.962  -1.160   3.726  0.00  0.00    -0.146 I 
ENDROOT
TORSDOF 0
ENDMDL
