MODEL 1
REMARK minimizedAffinity 4.69600344
REMARK minimizedRMSD -1
REMARK  0 active torsions:
REMARK  status: ('A' for Active; 'I' for Inactive)
ROOT
ATOM      1  C   UNL d   1      -2.385   5.421   1.784  0.00  0.00     0.023 A 
ATOM      2  C1  UNL d   1      -2.050   5.828   3.075  0.00  0.00     0.003 A 
ATOM      3  C2  UNL d   1      -3.048   5.995   4.037  0.00  0.00     0.048 A 
ATOM      4  C3  UNL d   1      -4.379   5.752   3.701  0.00  0.00     0.023 A 
ATOM      5  C4  UNL d   1      -4.719   5.344   2.410  0.00  0.00     0.048 A 
ATOM      6  C5  UNL d   1      -3.718   5.179   1.452  0.00  0.00     0.003 A 
ATOM      7  I   UNL d   1      -5.867   6.000   5.131  0.00  0.00    -0.146 I 
ENDROOT
TORSDOF 0
ENDMDL
