MODEL 1
REMARK minimizedAffinity 10.0918436
REMARK minimizedRMSD -1
REMARK  0 active torsions:
REMARK  status: ('A' for Active; 'I' for Inactive)
ROOT
ATOM      1  C   UNL d   1      -4.093   5.997   4.249  0.00  0.00     0.023 A 
ATOM      2  C1  UNL d   1      -3.123   6.000   3.247  0.00  0.00     0.003 A 
ATOM      3  C2  UNL d   1      -3.505   5.997   1.904  0.00  0.00     0.048 A 
ATOM      4  C3  UNL d   1      -4.859   5.993   1.570  0.00  0.00     0.023 A 
ATOM      5  C4  UNL d   1      -5.833   5.990   2.570  0.00  0.00     0.048 A 
ATOM      6  C5  UNL d   1      -5.446   5.992   3.912  0.00  0.00     0.003 A 
ATOM      7  I   UNL d   1      -5.431   5.989  -0.428  0.00  0.00    -0.146 I 
ENDROOT
TORSDOF 0
ENDMDL
