MODEL 1
REMARK minimizedAffinity 0.935154259
REMARK minimizedRMSD -1
REMARK  0 active torsions:
REMARK  status: ('A' for Active; 'I' for Inactive)
ROOT
ATOM      1  C   UNL d   1      -0.088  -4.833   5.511  0.00  0.00     0.023 A 
ATOM      2  C1  UNL d   1       1.075  -4.283   4.971  0.00  0.00     0.003 A 
ATOM      3  C2  UNL d   1       1.234  -2.897   4.918  0.00  0.00     0.048 A 
ATOM      4  C3  UNL d   1       0.227  -2.066   5.408  0.00  0.00     0.023 A 
ATOM      5  C4  UNL d   1      -0.938  -2.612   5.950  0.00  0.00     0.048 A 
ATOM      6  C5  UNL d   1      -1.093  -3.999   6.000  0.00  0.00     0.003 A 
ATOM      7  I   UNL d   1       0.461  -0.003   5.331  0.00  0.00    -0.146 I 
ENDROOT
TORSDOF 0
ENDMDL
