MODEL 1
REMARK minimizedAffinity 3.6238091
REMARK minimizedRMSD -1
REMARK  0 active torsions:
REMARK  status: ('A' for Active; 'I' for Inactive)
ROOT
ATOM      1  C   UNL d   1      -3.708   1.727  -4.738  0.00  0.00     0.023 A 
ATOM      2  C1  UNL d   1      -3.158   0.643  -4.054  0.00  0.00     0.003 A 
ATOM      3  C2  UNL d   1      -3.694   0.245  -2.827  0.00  0.00     0.048 A 
ATOM      4  C3  UNL d   1      -4.781   0.935  -2.291  0.00  0.00     0.023 A 
ATOM      5  C4  UNL d   1      -5.335   2.020  -2.972  0.00  0.00     0.048 A 
ATOM      6  C5  UNL d   1      -4.795   2.415  -4.198  0.00  0.00     0.003 A 
ATOM      7  I   UNL d   1      -5.580   0.344  -0.466  0.00  0.00    -0.146 I 
ENDROOT
TORSDOF 0
ENDMDL
