MODEL 1
REMARK minimizedAffinity 3.18236113
REMARK minimizedRMSD -1
REMARK  0 active torsions:
REMARK  status: ('A' for Active; 'I' for Inactive)
ROOT
ATOM      1  C   UNL d   1       3.579  -0.592   1.153  0.00  0.00     0.023 A 
ATOM      2  C1  UNL d   1       2.858   0.337   0.403  0.00  0.00     0.003 A 
ATOM      3  C2  UNL d   1       3.524   1.375  -0.251  0.00  0.00     0.048 A 
ATOM      4  C3  UNL d   1       4.911   1.479  -0.151  0.00  0.00     0.023 A 
ATOM      5  C4  UNL d   1       5.636   0.551   0.599  0.00  0.00     0.048 A 
ATOM      6  C5  UNL d   1       4.966  -0.485   1.251  0.00  0.00     0.003 A 
ATOM      7  I   UNL d   1       5.904   3.024  -1.123  0.00  0.00    -0.146 I 
ENDROOT
TORSDOF 0
ENDMDL
