MODEL 1
REMARK minimizedAffinity -5.50865841
REMARK minimizedRMSD -1
REMARK  0 active torsions:
REMARK  status: ('A' for Active; 'I' for Inactive)
ROOT
ATOM      1  C   UNL d   1      -0.400  -1.858   2.830  0.00  0.00     0.020 A 
ATOM      2  C1  UNL d   1       0.771  -2.522   2.470  0.00  0.00     0.020 A 
ATOM      3  C2  UNL d   1       1.450  -2.159   1.305  0.00  0.00     0.034 A 
ATOM      4  C3  UNL d   1       0.958  -1.128   0.496  0.00  0.00     0.017 A 
ATOM      5  C4  UNL d   1      -0.218  -0.462   0.859  0.00  0.00     0.017 A 
ATOM      6  C5  UNL d   1      -0.894  -0.830   2.026  0.00  0.00     0.034 A 
ATOM      7 Cl   UNL d   1      -0.887   0.820  -0.089  0.00  0.00    -0.070 Cl
ATOM      8 Cl1  UNL d   1       1.849  -0.730  -0.930  0.00  0.00    -0.070 Cl
ENDROOT
TORSDOF 0
ENDMDL
