MODEL 1
REMARK minimizedAffinity -0.443730861
REMARK minimizedRMSD -1
REMARK  0 active torsions:
REMARK  status: ('A' for Active; 'I' for Inactive)
ROOT
ATOM      1  C   UNL d   1      -2.923   2.240  -2.539  0.00  0.00     0.020 A 
ATOM      2  C1  UNL d   1      -1.812   1.796  -3.256  0.00  0.00     0.020 A 
ATOM      3  C2  UNL d   1      -0.731   1.222  -2.584  0.00  0.00     0.034 A 
ATOM      4  C3  UNL d   1      -0.759   1.089  -1.191  0.00  0.00     0.017 A 
ATOM      5  C4  UNL d   1      -1.874   1.534  -0.472  0.00  0.00     0.017 A 
ATOM      6  C5  UNL d   1      -2.954   2.109  -1.150  0.00  0.00     0.034 A 
ATOM      7 Cl   UNL d   1      -1.981   1.405   1.248  0.00  0.00    -0.070 Cl
ATOM      8 Cl1  UNL d   1       0.613   0.369  -0.425  0.00  0.00    -0.070 Cl
ENDROOT
TORSDOF 0
ENDMDL
