MODEL 1
REMARK minimizedAffinity -0.599419117
REMARK minimizedRMSD -1
REMARK  0 active torsions:
REMARK  status: ('A' for Active; 'I' for Inactive)
ROOT
ATOM      1  C   UNL d   1       2.442  -0.778  -0.430  0.00  0.00     0.020 A 
ATOM      2  C1  UNL d   1       2.528  -1.469   0.778  0.00  0.00     0.020 A 
ATOM      3  C2  UNL d   1       1.439  -1.483   1.653  0.00  0.00     0.034 A 
ATOM      4  C3  UNL d   1       0.261  -0.805   1.321  0.00  0.00     0.017 A 
ATOM      5  C4  UNL d   1       0.176  -0.112   0.108  0.00  0.00     0.017 A 
ATOM      6  C5  UNL d   1       1.268  -0.101  -0.764  0.00  0.00     0.034 A 
ATOM      7 Cl   UNL d   1      -1.245   0.748  -0.370  0.00  0.00    -0.070 Cl
ATOM      8 Cl1  UNL d   1      -1.046  -0.865   2.450  0.00  0.00    -0.070 Cl
ENDROOT
TORSDOF 0
ENDMDL
