MODEL 1
REMARK minimizedAffinity -3.19202566
REMARK minimizedRMSD -1
REMARK  0 active torsions:
REMARK  status: ('A' for Active; 'I' for Inactive)
ROOT
ATOM      1  C   UNL d   1       0.555   0.746  -0.363  0.00  0.00     0.020 A 
ATOM      2  C1  UNL d   1       1.702  -0.040  -0.464  0.00  0.00     0.020 A 
ATOM      3  C2  UNL d   1       1.832  -1.189   0.319  0.00  0.00     0.034 A 
ATOM      4  C3  UNL d   1       0.814  -1.555   1.207  0.00  0.00     0.017 A 
ATOM      5  C4  UNL d   1      -0.338  -0.766   1.307  0.00  0.00     0.017 A 
ATOM      6  C5  UNL d   1      -0.463   0.384   0.521  0.00  0.00     0.034 A 
ATOM      7 Cl   UNL d   1      -1.637  -1.153   2.379  0.00  0.00    -0.070 Cl
ATOM      8 Cl1  UNL d   1       1.041  -2.989   2.144  0.00  0.00    -0.070 Cl
ENDROOT
TORSDOF 0
ENDMDL
