MODEL 1
REMARK minimizedAffinity -1.27152264
REMARK minimizedRMSD -1
REMARK  0 active torsions:
REMARK  status: ('A' for Active; 'I' for Inactive)
ROOT
ATOM      1  C   UNL d   1       1.667  -0.642  -0.035  0.00  0.00     0.020 A 
ATOM      2  C1  UNL d   1       0.606   0.156  -0.461  0.00  0.00     0.020 A 
ATOM      3  C2  UNL d   1      -0.522   0.307   0.347  0.00  0.00     0.034 A 
ATOM      4  C3  UNL d   1      -0.593  -0.342   1.585  0.00  0.00     0.017 A 
ATOM      5  C4  UNL d   1       0.472  -1.143   2.012  0.00  0.00     0.017 A 
ATOM      6  C5  UNL d   1       1.600  -1.291   1.199  0.00  0.00     0.034 A 
ATOM      7 Cl   UNL d   1       0.457  -1.975   3.527  0.00  0.00    -0.070 Cl
ATOM      8 Cl1  UNL d   1      -2.019  -0.110   2.533  0.00  0.00    -0.070 Cl
ENDROOT
TORSDOF 0
ENDMDL
