MODEL 1
REMARK minimizedAffinity -1.82092559
REMARK minimizedRMSD -1
REMARK  0 active torsions:
REMARK  status: ('A' for Active; 'I' for Inactive)
ROOT
ATOM      1  C   UNL d   1       0.800   1.063  -0.995  0.00  0.00     0.020 A 
ATOM      2  C1  UNL d   1      -0.476   1.401  -0.546  0.00  0.00     0.020 A 
ATOM      3  C2  UNL d   1      -1.039   0.719   0.535  0.00  0.00     0.034 A 
ATOM      4  C3  UNL d   1      -0.326  -0.305   1.170  0.00  0.00     0.017 A 
ATOM      5  C4  UNL d   1       0.955  -0.643   0.718  0.00  0.00     0.017 A 
ATOM      6  C5  UNL d   1       1.514   0.043  -0.364  0.00  0.00     0.034 A 
ATOM      7 Cl   UNL d   1       1.895  -1.895   1.451  0.00  0.00    -0.070 Cl
ATOM      8 Cl1  UNL d   1      -1.084  -1.106   2.501  0.00  0.00    -0.070 Cl
ENDROOT
TORSDOF 0
ENDMDL
