MODEL 1
REMARK minimizedAffinity -3.00171518
REMARK minimizedRMSD -1
REMARK  0 active torsions:
REMARK  status: ('A' for Active; 'I' for Inactive)
ROOT
ATOM      1  C   UNL d   1       1.885  -1.528   1.314  0.00  0.00     0.020 A 
ATOM      2  C1  UNL d   1       2.175  -1.051   0.037  0.00  0.00     0.020 A 
ATOM      3  C2  UNL d   1       1.335  -0.110  -0.564  0.00  0.00     0.034 A 
ATOM      4  C3  UNL d   1       0.203   0.357   0.113  0.00  0.00     0.017 A 
ATOM      5  C4  UNL d   1      -0.087  -0.123   1.396  0.00  0.00     0.017 A 
ATOM      6  C5  UNL d   1       0.757  -1.065   1.992  0.00  0.00     0.034 A 
ATOM      7 Cl   UNL d   1      -1.466   0.406   2.294  0.00  0.00    -0.070 Cl
ATOM      8 Cl1  UNL d   1      -0.790   1.521  -0.689  0.00  0.00    -0.070 Cl
ENDROOT
TORSDOF 0
ENDMDL
