MODEL 1
REMARK minimizedAffinity -3.70372629
REMARK minimizedRMSD -1
REMARK  0 active torsions:
REMARK  status: ('A' for Active; 'I' for Inactive)
ROOT
ATOM      1  C   UNL d   1       0.360  -2.187   3.249  0.00  0.00     0.020 A 
ATOM      2  C1  UNL d   1      -0.869  -1.536   3.155  0.00  0.00     0.020 A 
ATOM      3  C2  UNL d   1      -1.097  -0.618   2.128  0.00  0.00     0.034 A 
ATOM      4  C3  UNL d   1      -0.093  -0.348   1.191  0.00  0.00     0.017 A 
ATOM      5  C4  UNL d   1       1.140  -1.002   1.285  0.00  0.00     0.017 A 
ATOM      6  C5  UNL d   1       1.363  -1.920   2.316  0.00  0.00     0.034 A 
ATOM      7 Cl   UNL d   1       2.427  -0.720   0.166  0.00  0.00    -0.070 Cl
ATOM      8 Cl1  UNL d   1      -0.444   0.799  -0.054  0.00  0.00    -0.070 Cl
ENDROOT
TORSDOF 0
ENDMDL
