MODEL 1
REMARK minimizedAffinity -3.41308022
REMARK minimizedRMSD -1
REMARK  0 active torsions:
REMARK  status: ('A' for Active; 'I' for Inactive)
ROOT
ATOM      1  C   UNL d   1       0.738   0.903  -0.536  0.00  0.00     0.020 A 
ATOM      2  C1  UNL d   1      -0.504   1.312  -0.051  0.00  0.00     0.020 A 
ATOM      3  C2  UNL d   1      -1.092   0.636   1.020  0.00  0.00     0.034 A 
ATOM      4  C3  UNL d   1      -0.439  -0.452   1.610  0.00  0.00     0.017 A 
ATOM      5  C4  UNL d   1       0.807  -0.862   1.123  0.00  0.00     0.017 A 
ATOM      6  C5  UNL d   1       1.392  -0.182   0.050  0.00  0.00     0.034 A 
ATOM      7 Cl   UNL d   1       1.674  -2.196   1.799  0.00  0.00    -0.070 Cl
ATOM      8 Cl1  UNL d   1      -1.225  -1.241   2.931  0.00  0.00    -0.070 Cl
ENDROOT
TORSDOF 0
ENDMDL
