MODEL 1
REMARK minimizedAffinity -0.854481041
REMARK minimizedRMSD -1
REMARK  0 active torsions:
REMARK  status: ('A' for Active; 'I' for Inactive)
ROOT
ATOM      1  C   UNL d   1      -0.659   1.583  -1.330  0.00  0.00     0.020 A 
ATOM      2  C1  UNL d   1       0.637   1.273  -1.740  0.00  0.00     0.020 A 
ATOM      3  C2  UNL d   1       1.421   0.402  -0.980  0.00  0.00     0.034 A 
ATOM      4  C3  UNL d   1       0.909  -0.161   0.195  0.00  0.00     0.017 A 
ATOM      5  C4  UNL d   1      -0.392   0.152   0.606  0.00  0.00     0.017 A 
ATOM      6  C5  UNL d   1      -1.172   1.024  -0.160  0.00  0.00     0.034 A 
ATOM      7 Cl   UNL d   1      -1.092  -0.504   2.044  0.00  0.00    -0.070 Cl
ATOM      8 Cl1  UNL d   1       1.933  -1.229   1.086  0.00  0.00    -0.070 Cl
ENDROOT
TORSDOF 0
ENDMDL
