MODEL 1
REMARK minimizedAffinity -4.67999649
REMARK minimizedRMSD -1
REMARK  0 active torsions:
REMARK  status: ('A' for Active; 'I' for Inactive)
ROOT
ATOM      1  C   UNL d   1       1.567  -2.059   1.111  0.00  0.00     0.020 A 
ATOM      2  C1  UNL d   1       1.730  -1.076   0.136  0.00  0.00     0.020 A 
ATOM      3  C2  UNL d   1       0.830  -0.011   0.062  0.00  0.00     0.034 A 
ATOM      4  C3  UNL d   1      -0.237   0.074   0.964  0.00  0.00     0.017 A 
ATOM      5  C4  UNL d   1      -0.399  -0.914   1.943  0.00  0.00     0.017 A 
ATOM      6  C5  UNL d   1       0.505  -1.978   2.012  0.00  0.00     0.034 A 
ATOM      7 Cl   UNL d   1      -1.690  -0.877   3.091  0.00  0.00    -0.070 Cl
ATOM      8 Cl1  UNL d   1      -1.311   1.419   0.815  0.00  0.00    -0.070 Cl
ENDROOT
TORSDOF 0
ENDMDL
