MODEL 1
REMARK minimizedAffinity -4.28031015
REMARK minimizedRMSD -1
REMARK  0 active torsions:
REMARK  status: ('A' for Active; 'I' for Inactive)
ROOT
ATOM      1  C   UNL d   1      -0.782   1.204  -0.529  0.00  0.00     0.020 A 
ATOM      2  C1  UNL d   1      -1.859   1.191   0.357  0.00  0.00     0.020 A 
ATOM      3  C2  UNL d   1      -1.836   0.349   1.470  0.00  0.00     0.034 A 
ATOM      4  C3  UNL d   1      -0.735  -0.484   1.701  0.00  0.00     0.017 A 
ATOM      5  C4  UNL d   1       0.346  -0.469   0.812  0.00  0.00     0.017 A 
ATOM      6  C5  UNL d   1       0.318   0.376  -0.302  0.00  0.00     0.034 A 
ATOM      7 Cl   UNL d   1       1.740  -1.467   1.030  0.00  0.00    -0.070 Cl
ATOM      8 Cl1  UNL d   1      -0.774  -1.499   3.099  0.00  0.00    -0.070 Cl
ENDROOT
TORSDOF 0
ENDMDL
