MODEL 1
REMARK minimizedAffinity -3.10973144
REMARK minimizedRMSD -1
REMARK  0 active torsions:
REMARK  status: ('A' for Active; 'I' for Inactive)
ROOT
ATOM      1  C   UNL d   1       1.092  -2.538   2.526  0.00  0.00     0.020 A 
ATOM      2  C1  UNL d   1      -0.167  -2.070   2.900  0.00  0.00     0.020 A 
ATOM      3  C2  UNL d   1      -0.859  -1.187   2.069  0.00  0.00     0.034 A 
ATOM      4  C3  UNL d   1      -0.293  -0.769   0.860  0.00  0.00     0.017 A 
ATOM      5  C4  UNL d   1       0.971  -1.239   0.485  0.00  0.00     0.017 A 
ATOM      6  C5  UNL d   1       1.660  -2.123   1.321  0.00  0.00     0.034 A 
ATOM      7 Cl   UNL d   1       1.735  -0.768  -0.992  0.00  0.00    -0.070 Cl
ATOM      8 Cl1  UNL d   1      -1.205   0.325  -0.120  0.00  0.00    -0.070 Cl
ENDROOT
TORSDOF 0
ENDMDL
