MODEL 1
REMARK minimizedAffinity -3.99181676
REMARK minimizedRMSD -1
REMARK  0 active torsions:
REMARK  status: ('A' for Active; 'I' for Inactive)
ROOT
ATOM      1  C   UNL d   1       1.949  -0.874  -0.109  0.00  0.00     0.020 A 
ATOM      2  C1  UNL d   1       0.898  -0.026  -0.456  0.00  0.00     0.020 A 
ATOM      3  C2  UNL d   1      -0.211   0.091   0.385  0.00  0.00     0.034 A 
ATOM      4  C3  UNL d   1      -0.271  -0.641   1.577  0.00  0.00     0.017 A 
ATOM      5  C4  UNL d   1       0.785  -1.491   1.924  0.00  0.00     0.017 A 
ATOM      6  C5  UNL d   1       1.893  -1.604   1.078  0.00  0.00     0.034 A 
ATOM      7 Cl   UNL d   1       0.784  -2.425   3.378  0.00  0.00    -0.070 Cl
ATOM      8 Cl1  UNL d   1      -1.672  -0.447   2.569  0.00  0.00    -0.070 Cl
ENDROOT
TORSDOF 0
ENDMDL
