MODEL 1
REMARK minimizedAffinity -1.19363391
REMARK minimizedRMSD -1
REMARK  0 active torsions:
REMARK  status: ('A' for Active; 'I' for Inactive)
ROOT
ATOM      1  C   UNL d   1      -2.787   2.489  -3.298  0.00  0.00     0.020 A 
ATOM      2  C1  UNL d   1      -1.614   2.065  -3.922  0.00  0.00     0.020 A 
ATOM      3  C2  UNL d   1      -0.553   1.577  -3.156  0.00  0.00     0.034 A 
ATOM      4  C3  UNL d   1      -0.664   1.510  -1.762  0.00  0.00     0.017 A 
ATOM      5  C4  UNL d   1      -1.841   1.935  -1.137  0.00  0.00     0.017 A 
ATOM      6  C5  UNL d   1      -2.900   2.424  -1.909  0.00  0.00     0.034 A 
ATOM      7 Cl   UNL d   1      -2.052   1.884   0.578  0.00  0.00    -0.070 Cl
ATOM      8 Cl1  UNL d   1       0.687   0.895  -0.878  0.00  0.00    -0.070 Cl
ENDROOT
TORSDOF 0
ENDMDL
