MODEL 1
REMARK minimizedAffinity 1.87450182
REMARK minimizedRMSD -1
REMARK  0 active torsions:
REMARK  status: ('A' for Active; 'I' for Inactive)
ROOT
ATOM      1  C   UNL d   1      -1.776  -0.741   2.457  0.00  0.00     0.020 A 
ATOM      2  C1  UNL d   1      -0.836  -1.410   3.240  0.00  0.00     0.020 A 
ATOM      3  C2  UNL d   1       0.476  -1.557   2.783  0.00  0.00     0.034 A 
ATOM      4  C3  UNL d   1       0.851  -1.033   1.541  0.00  0.00     0.017 A 
ATOM      5  C4  UNL d   1      -0.093  -0.361   0.756  0.00  0.00     0.017 A 
ATOM      6  C5  UNL d   1      -1.405  -0.217   1.218  0.00  0.00     0.034 A 
ATOM      7 Cl   UNL d   1       0.295   0.312  -0.788  0.00  0.00    -0.070 Cl
ATOM      8 Cl1  UNL d   1       2.490  -1.251   1.039  0.00  0.00    -0.070 Cl
ENDROOT
TORSDOF 0
ENDMDL
