MODEL 1
REMARK minimizedAffinity 0.174538046
REMARK minimizedRMSD -1
REMARK  0 active torsions:
REMARK  status: ('A' for Active; 'I' for Inactive)
ROOT
ATOM      1  C   UNL d   1       1.457   1.723  -0.199  0.00  0.00     0.020 A 
ATOM      2  C1  UNL d   1       2.567   0.881  -0.166  0.00  0.00     0.020 A 
ATOM      3  C2  UNL d   1       2.414  -0.462   0.186  0.00  0.00     0.034 A 
ATOM      4  C3  UNL d   1       1.148  -0.966   0.507  0.00  0.00     0.017 A 
ATOM      5  C4  UNL d   1       0.034  -0.119   0.473  0.00  0.00     0.017 A 
ATOM      6  C5  UNL d   1       0.193   1.224   0.120  0.00  0.00     0.034 A 
ATOM      7 Cl   UNL d   1      -1.559  -0.668   0.856  0.00  0.00    -0.070 Cl
ATOM      8 Cl1  UNL d   1       1.033  -2.637   0.932  0.00  0.00    -0.070 Cl
ENDROOT
TORSDOF 0
ENDMDL
