MODEL 1
REMARK minimizedAffinity 0.189589784
REMARK minimizedRMSD -1
REMARK  2 active torsions:
REMARK  status: ('A' for Active; 'I' for Inactive)
REMARK    1  A    between atoms: C1_2  and  C2_3 
REMARK    2  A    between atoms: C2_3  and  C3_4 
ROOT
ATOM      1  C3  UNL d   1      -0.564   0.381   1.252  0.00  0.00    -0.075 A 
ATOM      2  C4  UNL d   1       0.206  -0.736   1.606  0.00  0.00     0.002 A 
ATOM      3  C5  UNL d   1       1.511  -0.876   1.132  0.00  0.00     0.002 A 
ATOM      4  C6  UNL d   1       2.058   0.092   0.292  0.00  0.00    -0.004 A 
ATOM      5  C7  UNL d   1       1.296   1.198  -0.079  0.00  0.00     0.002 A 
ATOM      6  C8  UNL d   1      -0.008   1.342   0.397  0.00  0.00     0.002 A 
ENDROOT
BRANCH   1   7
ATOM      7  C2  UNL d   1      -1.966   0.553   1.785  0.00  0.00     0.056 C 
BRANCH   7   8
ATOM      8  C1  UNL d   1      -2.278   1.971   2.275  0.00  0.00     0.007 C 
ATOM      9  C   UNL d   1      -3.533   2.047   3.134  0.00  0.00     0.009 C 
ENDBRANCH   7   8
ENDBRANCH   1   7
TORSDOF 2
ENDMDL
