MODEL 1
REMARK minimizedAffinity -1.36099911
REMARK minimizedRMSD -1
REMARK  2 active torsions:
REMARK  status: ('A' for Active; 'I' for Inactive)
REMARK    1  A    between atoms: C1_2  and  C2_3 
REMARK    2  A    between atoms: C2_3  and  C3_4 
ROOT
ATOM      1  C3  UNL d   1      -4.382  -3.692  -0.728  0.00  0.00    -0.075 A 
ATOM      2  C4  UNL d   1      -3.545  -4.814  -0.811  0.00  0.00     0.002 A 
ATOM      3  C5  UNL d   1      -3.823  -5.962  -0.069  0.00  0.00     0.002 A 
ATOM      4  C6  UNL d   1      -4.932  -6.000   0.772  0.00  0.00    -0.004 A 
ATOM      5  C7  UNL d   1      -5.762  -4.885   0.876  0.00  0.00     0.002 A 
ATOM      6  C8  UNL d   1      -5.489  -3.737   0.131  0.00  0.00     0.002 A 
ENDROOT
BRANCH   1   7
ATOM      7  C2  UNL d   1      -4.104  -2.457  -1.551  0.00  0.00     0.056 C 
BRANCH   7   8
ATOM      8  C1  UNL d   1      -4.273  -2.662  -3.060  0.00  0.00     0.007 C 
ATOM      9  C   UNL d   1      -3.007  -2.367  -3.852  0.00  0.00     0.009 C 
ENDBRANCH   7   8
ENDBRANCH   1   7
TORSDOF 2
ENDMDL
