MODEL 1
REMARK minimizedAffinity 1.87693584
REMARK minimizedRMSD -1
REMARK  2 active torsions:
REMARK  status: ('A' for Active; 'I' for Inactive)
REMARK    1  A    between atoms: C1_2  and  C2_3 
REMARK    2  A    between atoms: C2_3  and  C3_4 
ROOT
ATOM      1  C3  UNL d   1      -1.613   1.538   1.885  0.00  0.00    -0.075 A 
ATOM      2  C4  UNL d   1      -1.728   0.151   1.707  0.00  0.00     0.002 A 
ATOM      3  C5  UNL d   1      -0.650  -0.592   1.225  0.00  0.00     0.002 A 
ATOM      4  C6  UNL d   1       0.550   0.040   0.907  0.00  0.00    -0.004 A 
ATOM      5  C7  UNL d   1       0.669   1.419   1.064  0.00  0.00     0.002 A 
ATOM      6  C8  UNL d   1      -0.406   2.165   1.550  0.00  0.00     0.002 A 
ENDROOT
BRANCH   1   7
ATOM      7  C2  UNL d   1      -2.766   2.344   2.433  0.00  0.00     0.056 C 
BRANCH   7   8
ATOM      8  C1  UNL d   1      -3.890   1.495   3.037  0.00  0.00     0.007 C 
ATOM      9  C   UNL d   1      -4.739   2.253   4.048  0.00  0.00     0.009 C 
ENDBRANCH   7   8
ENDBRANCH   1   7
TORSDOF 2
ENDMDL
