MODEL 1
REMARK minimizedAffinity 8.71747589
REMARK minimizedRMSD -1
REMARK  2 active torsions:
REMARK  status: ('A' for Active; 'I' for Inactive)
REMARK    1  A    between atoms: C1_2  and  C2_3 
REMARK    2  A    between atoms: C2_3  and  C3_4 
ROOT
ATOM      1  C3  UNL d   1      -2.262   2.101   2.378  0.00  0.00    -0.075 A 
ATOM      2  C4  UNL d   1      -2.308   3.213   1.524  0.00  0.00     0.002 A 
ATOM      3  C5  UNL d   1      -1.240   3.497   0.673  0.00  0.00     0.002 A 
ATOM      4  C6  UNL d   1      -0.111   2.681   0.671  0.00  0.00    -0.004 A 
ATOM      5  C7  UNL d   1      -0.047   1.584   1.527  0.00  0.00     0.002 A 
ATOM      6  C8  UNL d   1      -1.116   1.295   2.377  0.00  0.00     0.002 A 
ENDROOT
BRANCH   1   7
ATOM      7  C2  UNL d   1      -3.427   1.771   3.280  0.00  0.00     0.056 C 
BRANCH   7   8
ATOM      8  C1  UNL d   1      -4.213   2.997   3.758  0.00  0.00     0.007 C 
ATOM      9  C   UNL d   1      -4.838   2.811   5.134  0.00  0.00     0.009 C 
ENDBRANCH   7   8
ENDBRANCH   1   7
TORSDOF 2
ENDMDL
