MODEL 1
REMARK minimizedAffinity -4.16505098
REMARK minimizedRMSD -1
REMARK  2 active torsions:
REMARK  status: ('A' for Active; 'I' for Inactive)
REMARK    1  A    between atoms: C1_2  and  C2_3 
REMARK    2  A    between atoms: C2_3  and  C3_4 
ROOT
ATOM      1  C3  UNL d   1       0.925   0.428   2.656  0.00  0.00    -0.075 A 
ATOM      2  C4  UNL d   1       0.936   1.823   2.507  0.00  0.00     0.002 A 
ATOM      3  C5  UNL d   1       0.174   2.435   1.511  0.00  0.00     0.002 A 
ATOM      4  C6  UNL d   1      -0.598   1.662   0.647  0.00  0.00    -0.004 A 
ATOM      5  C7  UNL d   1      -0.603   0.274   0.775  0.00  0.00     0.002 A 
ATOM      6  C8  UNL d   1       0.155  -0.340   1.773  0.00  0.00     0.002 A 
ENDROOT
BRANCH   1   7
ATOM      7  C2  UNL d   1       1.724  -0.238   3.751  0.00  0.00     0.056 C 
BRANCH   7   8
ATOM      8  C1  UNL d   1       3.242  -0.117   3.577  0.00  0.00     0.007 C 
ATOM      9  C   UNL d   1       3.727  -0.573   2.208  0.00  0.00     0.009 C 
ENDBRANCH   7   8
ENDBRANCH   1   7
TORSDOF 2
ENDMDL
