MODEL 1
REMARK minimizedAffinity -2.18178415
REMARK minimizedRMSD -1
REMARK  2 active torsions:
REMARK  status: ('A' for Active; 'I' for Inactive)
REMARK    1  A    between atoms: C1_2  and  C2_3 
REMARK    2  A    between atoms: C2_3  and  C3_4 
ROOT
ATOM      1  C3  UNL d   1      -2.075   1.412   1.866  0.00  0.00    -0.075 A 
ATOM      2  C4  UNL d   1      -2.129   0.060   1.498  0.00  0.00     0.002 A 
ATOM      3  C5  UNL d   1      -0.994  -0.588   1.010  0.00  0.00     0.002 A 
ATOM      4  C6  UNL d   1       0.205   0.108   0.875  0.00  0.00    -0.004 A 
ATOM      5  C7  UNL d   1       0.267   1.456   1.223  0.00  0.00     0.002 A 
ATOM      6  C8  UNL d   1      -0.867   2.106   1.715  0.00  0.00     0.002 A 
ENDROOT
BRANCH   1   7
ATOM      7  C2  UNL d   1      -3.292   2.111   2.423  0.00  0.00     0.056 C 
BRANCH   7   8
ATOM      8  C1  UNL d   1      -4.186   1.215   3.286  0.00  0.00     0.007 C 
ATOM      9  C   UNL d   1      -4.843   1.957   4.442  0.00  0.00     0.009 C 
ENDBRANCH   7   8
ENDBRANCH   1   7
TORSDOF 2
ENDMDL
