MODEL 1
REMARK minimizedAffinity -0.437434018
REMARK minimizedRMSD -1
REMARK  2 active torsions:
REMARK  status: ('A' for Active; 'I' for Inactive)
REMARK    1  A    between atoms: C1_2  and  C2_3 
REMARK    2  A    between atoms: C2_3  and  C3_4 
ROOT
ATOM      1  C3  UNL d   1      -0.308   1.029   1.317  0.00  0.00    -0.075 A 
ATOM      2  C4  UNL d   1      -0.278   2.367   1.737  0.00  0.00     0.002 A 
ATOM      3  C5  UNL d   1      -1.441   2.994   2.187  0.00  0.00     0.002 A 
ATOM      4  C6  UNL d   1      -2.647   2.297   2.213  0.00  0.00    -0.004 A 
ATOM      5  C7  UNL d   1      -2.691   0.973   1.783  0.00  0.00     0.002 A 
ATOM      6  C8  UNL d   1      -1.529   0.341   1.337  0.00  0.00     0.002 A 
ENDROOT
BRANCH   1   7
ATOM      7  C2  UNL d   1       0.952   0.335   0.858  0.00  0.00     0.056 C 
BRANCH   7   8
ATOM      8  C1  UNL d   1       1.299  -0.924   1.659  0.00  0.00     0.007 C 
ATOM      9  C   UNL d   1       1.220  -0.717   3.166  0.00  0.00     0.009 C 
ENDBRANCH   7   8
ENDBRANCH   1   7
TORSDOF 2
ENDMDL
