MODEL 1
REMARK minimizedAffinity 0.815952778
REMARK minimizedRMSD -1
REMARK  2 active torsions:
REMARK  status: ('A' for Active; 'I' for Inactive)
REMARK    1  A    between atoms: C1_2  and  C2_3 
REMARK    2  A    between atoms: C2_3  and  C3_4 
ROOT
ATOM      1  C3  UNL d   1       0.867   0.467   0.379  0.00  0.00    -0.075 A 
ATOM      2  C4  UNL d   1      -0.319   1.215   0.426  0.00  0.00     0.002 A 
ATOM      3  C5  UNL d   1      -1.414   0.761   1.163  0.00  0.00     0.002 A 
ATOM      4  C6  UNL d   1      -1.341  -0.448   1.851  0.00  0.00    -0.004 A 
ATOM      5  C7  UNL d   1      -0.174  -1.207   1.798  0.00  0.00     0.002 A 
ATOM      6  C8  UNL d   1       0.924  -0.753   1.065  0.00  0.00     0.002 A 
ENDROOT
BRANCH   1   7
ATOM      7  C2  UNL d   1       2.065   0.967  -0.392  0.00  0.00     0.056 C 
BRANCH   7   8
ATOM      8  C1  UNL d   1       3.005  -0.143  -0.872  0.00  0.00     0.007 C 
ATOM      9  C   UNL d   1       3.597   0.125  -2.249  0.00  0.00     0.009 C 
ENDBRANCH   7   8
ENDBRANCH   1   7
TORSDOF 2
ENDMDL
