MODEL 1
REMARK minimizedAffinity 2.69195938
REMARK minimizedRMSD -1
REMARK  2 active torsions:
REMARK  status: ('A' for Active; 'I' for Inactive)
REMARK    1  A    between atoms: C1_2  and  C2_3 
REMARK    2  A    between atoms: C2_3  and  C3_4 
ROOT
ATOM      1  C3  UNL d   1      -1.652  -0.155   0.946  0.00  0.00    -0.075 A 
ATOM      2  C4  UNL d   1      -1.941   1.200   1.164  0.00  0.00     0.002 A 
ATOM      3  C5  UNL d   1      -0.913   2.116   1.389  0.00  0.00     0.002 A 
ATOM      4  C6  UNL d   1       0.413   1.689   1.410  0.00  0.00    -0.004 A 
ATOM      5  C7  UNL d   1       0.710   0.342   1.211  0.00  0.00     0.002 A 
ATOM      6  C8  UNL d   1      -0.316  -0.576   0.981  0.00  0.00     0.002 A 
ENDROOT
BRANCH   1   7
ATOM      7  C2  UNL d   1      -2.758  -1.146   0.672  0.00  0.00     0.056 C 
BRANCH   7   8
ATOM      8  C1  UNL d   1      -3.113  -1.290  -0.812  0.00  0.00     0.007 C 
ATOM      9  C   UNL d   1      -4.256  -2.265  -1.064  0.00  0.00     0.009 C 
ENDBRANCH   7   8
ENDBRANCH   1   7
TORSDOF 2
ENDMDL
