MODEL 1
REMARK minimizedAffinity 1.72115052
REMARK minimizedRMSD -1
REMARK  2 active torsions:
REMARK  status: ('A' for Active; 'I' for Inactive)
REMARK    1  A    between atoms: C1_2  and  C2_3 
REMARK    2  A    between atoms: C2_3  and  C3_4 
ROOT
ATOM      1  C3  UNL d   1       1.871   1.426  -0.093  0.00  0.00    -0.075 A 
ATOM      2  C4  UNL d   1       2.267   0.308   0.654  0.00  0.00     0.002 A 
ATOM      3  C5  UNL d   1       2.950  -0.746   0.046  0.00  0.00     0.002 A 
ATOM      4  C6  UNL d   1       3.237  -0.699  -1.316  0.00  0.00    -0.004 A 
ATOM      5  C7  UNL d   1       2.834   0.399  -2.072  0.00  0.00     0.002 A 
ATOM      6  C8  UNL d   1       2.154   1.457  -1.465  0.00  0.00     0.002 A 
ENDROOT
BRANCH   1   7
ATOM      7  C2  UNL d   1       1.158   2.583   0.565  0.00  0.00     0.056 C 
BRANCH   7   8
ATOM      8  C1  UNL d   1      -0.353   2.378   0.716  0.00  0.00     0.007 C 
ATOM      9  C   UNL d   1      -0.763   1.949   2.119  0.00  0.00     0.009 C 
ENDBRANCH   7   8
ENDBRANCH   1   7
TORSDOF 2
ENDMDL
