MODEL 1
REMARK minimizedAffinity 5.53056097
REMARK minimizedRMSD -1
REMARK  2 active torsions:
REMARK  status: ('A' for Active; 'I' for Inactive)
REMARK    1  A    between atoms: C1_2  and  C2_3 
REMARK    2  A    between atoms: C2_3  and  C3_4 
ROOT
ATOM      1  C3  UNL d   1      -1.632   1.751   2.256  0.00  0.00    -0.075 A 
ATOM      2  C4  UNL d   1      -1.448   0.415   2.640  0.00  0.00     0.002 A 
ATOM      3  C5  UNL d   1      -0.275  -0.263   2.307  0.00  0.00     0.002 A 
ATOM      4  C6  UNL d   1       0.723   0.381   1.579  0.00  0.00    -0.004 A 
ATOM      5  C7  UNL d   1       0.544   1.704   1.179  0.00  0.00     0.002 A 
ATOM      6  C8  UNL d   1      -0.626   2.386   1.514  0.00  0.00     0.002 A 
ENDROOT
BRANCH   1   7
ATOM      7  C2  UNL d   1      -2.886   2.500   2.639  0.00  0.00     0.056 C 
BRANCH   7   8
ATOM      8  C1  UNL d   1      -3.798   1.736   3.604  0.00  0.00     0.007 C 
ATOM      9  C   UNL d   1      -4.504   2.640   4.605  0.00  0.00     0.009 C 
ENDBRANCH   7   8
ENDBRANCH   1   7
TORSDOF 2
ENDMDL
