MODEL 1
REMARK minimizedAffinity 2.34012914
REMARK minimizedRMSD -1
REMARK  2 active torsions:
REMARK  status: ('A' for Active; 'I' for Inactive)
REMARK    1  A    between atoms: C1_2  and  C2_3 
REMARK    2  A    between atoms: C2_3  and  C3_4 
ROOT
ATOM      1  C3  UNL d   1      -3.748  -2.941  -2.205  0.00  0.00    -0.075 A 
ATOM      2  C4  UNL d   1      -3.757  -2.164  -3.373  0.00  0.00     0.002 A 
ATOM      3  C5  UNL d   1      -4.136  -0.822  -3.327  0.00  0.00     0.002 A 
ATOM      4  C6  UNL d   1      -4.521  -0.244  -2.119  0.00  0.00    -0.004 A 
ATOM      5  C7  UNL d   1      -4.533  -1.012  -0.957  0.00  0.00     0.002 A 
ATOM      6  C8  UNL d   1      -4.149  -2.353  -0.998  0.00  0.00     0.002 A 
ENDROOT
BRANCH   1   7
ATOM      7  C2  UNL d   1      -3.310  -4.386  -2.243  0.00  0.00     0.056 C 
BRANCH   7   8
ATOM      8  C1  UNL d   1      -3.732  -5.197  -1.013  0.00  0.00     0.007 C 
ATOM      9  C   UNL d   1      -2.590  -6.000  -0.403  0.00  0.00     0.009 C 
ENDBRANCH   7   8
ENDBRANCH   1   7
TORSDOF 2
ENDMDL
