MODEL 1
REMARK minimizedAffinity -2.4376297
REMARK minimizedRMSD -1
REMARK  2 active torsions:
REMARK  status: ('A' for Active; 'I' for Inactive)
REMARK    1  A    between atoms: C1_2  and  C2_3 
REMARK    2  A    between atoms: C2_3  and  C3_4 
ROOT
ATOM      1  C3  UNL d   1       0.475   1.285   1.027  0.00  0.00    -0.075 A 
ATOM      2  C4  UNL d   1       0.009  -0.025   1.209  0.00  0.00     0.002 A 
ATOM      3  C5  UNL d   1      -1.279  -0.257   1.693  0.00  0.00     0.002 A 
ATOM      4  C6  UNL d   1      -2.111   0.814   2.009  0.00  0.00    -0.004 A 
ATOM      5  C7  UNL d   1      -1.653   2.119   1.848  0.00  0.00     0.002 A 
ATOM      6  C8  UNL d   1      -0.366   2.355   1.360  0.00  0.00     0.002 A 
ENDROOT
BRANCH   1   7
ATOM      7  C2  UNL d   1       1.857   1.544   0.476  0.00  0.00     0.056 C 
BRANCH   7   8
ATOM      8  C1  UNL d   1       2.335   0.491  -0.530  0.00  0.00     0.007 C 
ATOM      9  C   UNL d   1       2.888   1.094  -1.814  0.00  0.00     0.009 C 
ENDBRANCH   7   8
ENDBRANCH   1   7
TORSDOF 2
ENDMDL
