MODEL 1
REMARK minimizedAffinity -2.36106062
REMARK minimizedRMSD -1
REMARK  2 active torsions:
REMARK  status: ('A' for Active; 'I' for Inactive)
REMARK    1  A    between atoms: C1_2  and  C2_3 
REMARK    2  A    between atoms: C2_3  and  C3_4 
ROOT
ATOM      1  C3  UNL d   1       0.431   1.118   1.311  0.00  0.00    -0.075 A 
ATOM      2  C4  UNL d   1      -0.166  -0.148   1.389  0.00  0.00     0.002 A 
ATOM      3  C5  UNL d   1      -1.512  -0.277   1.734  0.00  0.00     0.002 A 
ATOM      4  C6  UNL d   1      -2.273   0.856   2.015  0.00  0.00    -0.004 A 
ATOM      5  C7  UNL d   1      -1.686   2.118   1.957  0.00  0.00     0.002 A 
ATOM      6  C8  UNL d   1      -0.341   2.249   1.607  0.00  0.00     0.002 A 
ENDROOT
BRANCH   1   7
ATOM      7  C2  UNL d   1       1.879   1.266   0.909  0.00  0.00     0.056 C 
BRANCH   7   8
ATOM      8  C1  UNL d   1       2.338   0.259  -0.151  0.00  0.00     0.007 C 
ATOM      9  C   UNL d   1       2.632   0.901  -1.500  0.00  0.00     0.009 C 
ENDBRANCH   7   8
ENDBRANCH   1   7
TORSDOF 2
ENDMDL
