MODEL 1
REMARK minimizedAffinity 1.86418056
REMARK minimizedRMSD -1
REMARK  2 active torsions:
REMARK  status: ('A' for Active; 'I' for Inactive)
REMARK    1  A    between atoms: C1_2  and  C2_3 
REMARK    2  A    between atoms: C2_3  and  C3_4 
ROOT
ATOM      1  C3  UNL d   1      -1.293   0.138   1.300  0.00  0.00    -0.075 A 
ATOM      2  C4  UNL d   1      -0.135  -0.617   1.063  0.00  0.00     0.002 A 
ATOM      3  C5  UNL d   1       1.122  -0.010   1.080  0.00  0.00     0.002 A 
ATOM      4  C6  UNL d   1       1.235   1.357   1.324  0.00  0.00    -0.004 A 
ATOM      5  C7  UNL d   1       0.090   2.119   1.544  0.00  0.00     0.002 A 
ATOM      6  C8  UNL d   1      -1.168   1.514   1.531  0.00  0.00     0.002 A 
ENDROOT
BRANCH   1   7
ATOM      7  C2  UNL d   1      -2.653  -0.518   1.312  0.00  0.00     0.056 C 
BRANCH   7   8
ATOM      8  C1  UNL d   1      -3.514  -0.146   2.524  0.00  0.00     0.007 C 
ATOM      9  C   UNL d   1      -3.821  -1.332   3.429  0.00  0.00     0.009 C 
ENDBRANCH   7   8
ENDBRANCH   1   7
TORSDOF 2
ENDMDL
