MODEL 1
REMARK minimizedAffinity 3.4382174
REMARK minimizedRMSD -1
REMARK  0 active torsions:
REMARK  status: ('A' for Active; 'I' for Inactive)
ROOT
ATOM      1  C   UNL d   1      -1.301  -0.814  -5.232  0.00  0.00     0.078 C 
ATOM      2  C1  UNL d   1       0.186  -0.949  -5.092  0.00  0.00    -0.077 A 
ATOM      3  C2  UNL d   1       0.747  -1.718  -4.065  0.00  0.00    -0.001 A 
ATOM      4  C3  UNL d   1       2.133  -1.827  -3.942  0.00  0.00     0.003 A 
ATOM      5  C4  UNL d   1       2.970  -1.168  -4.841  0.00  0.00    -0.005 A 
ATOM      6  C5  UNL d   1       2.420  -0.398  -5.864  0.00  0.00     0.003 A 
ATOM      7  C6  UNL d   1       1.035  -0.288  -5.989  0.00  0.00    -0.001 A 
ENDROOT
TORSDOF 0
ENDMDL
