MODEL 1
REMARK minimizedAffinity 6.70096731
REMARK minimizedRMSD -1
REMARK  0 active torsions:
REMARK  status: ('A' for Active; 'I' for Inactive)
ROOT
ATOM      1  C   UNL d   1      -1.098  -1.468   2.448  0.00  0.00     0.078 C 
ATOM      2  C1  UNL d   1       0.223  -1.420   3.156  0.00  0.00    -0.077 A 
ATOM      3  C2  UNL d   1       1.385  -1.911   2.549  0.00  0.00    -0.001 A 
ATOM      4  C3  UNL d   1       2.606  -1.869   3.224  0.00  0.00     0.003 A 
ATOM      5  C4  UNL d   1       2.676  -1.338   4.511  0.00  0.00    -0.005 A 
ATOM      6  C5  UNL d   1       1.524  -0.849   5.124  0.00  0.00     0.003 A 
ATOM      7  C6  UNL d   1       0.303  -0.890   4.450  0.00  0.00    -0.001 A 
ENDROOT
TORSDOF 0
ENDMDL
