MODEL 1
REMARK minimizedAffinity -1.53043687
REMARK minimizedRMSD -1
REMARK  0 active torsions:
REMARK  status: ('A' for Active; 'I' for Inactive)
ROOT
ATOM      1  C   UNL d   1       3.400  -0.388  -5.782  0.00  0.00     0.078 C 
ATOM      2  C1  UNL d   1       2.086  -0.820  -5.201  0.00  0.00    -0.077 A 
ATOM      3  C2  UNL d   1       2.031  -1.548  -4.006  0.00  0.00    -0.001 A 
ATOM      4  C3  UNL d   1       0.801  -1.951  -3.482  0.00  0.00     0.003 A 
ATOM      5  C4  UNL d   1      -0.381  -1.633  -4.147  0.00  0.00    -0.005 A 
ATOM      6  C5  UNL d   1      -0.336  -0.910  -5.337  0.00  0.00     0.003 A 
ATOM      7  C6  UNL d   1       0.893  -0.506  -5.863  0.00  0.00    -0.001 A 
ENDROOT
TORSDOF 0
ENDMDL
