MODEL 1
REMARK minimizedAffinity -1.35188162
REMARK minimizedRMSD -1
REMARK  0 active torsions:
REMARK  status: ('A' for Active; 'I' for Inactive)
ROOT
ATOM      1  C   UNL d   1      -1.122  -0.727  -4.874  0.00  0.00     0.078 C 
ATOM      2  C1  UNL d   1       0.377  -0.761  -4.870  0.00  0.00    -0.077 A 
ATOM      3  C2  UNL d   1       1.109  -0.376  -6.000  0.00  0.00    -0.001 A 
ATOM      4  C3  UNL d   1       2.504  -0.421  -5.986  0.00  0.00     0.003 A 
ATOM      5  C4  UNL d   1       3.179  -0.853  -4.845  0.00  0.00    -0.005 A 
ATOM      6  C5  UNL d   1       2.458  -1.240  -3.717  0.00  0.00     0.003 A 
ATOM      7  C6  UNL d   1       1.063  -1.195  -3.729  0.00  0.00    -0.001 A 
ENDROOT
TORSDOF 0
ENDMDL
