MODEL 1
REMARK minimizedAffinity 8.70908928
REMARK minimizedRMSD -1
REMARK  0 active torsions:
REMARK  status: ('A' for Active; 'I' for Inactive)
ROOT
ATOM      1  C   UNL d   1      -0.361  -1.226  -4.926  0.00  0.00     0.078 C 
ATOM      2  C1  UNL d   1       1.128  -1.045  -4.938  0.00  0.00    -0.077 A 
ATOM      3  C2  UNL d   1       1.766  -0.386  -5.996  0.00  0.00    -0.001 A 
ATOM      4  C3  UNL d   1       3.153  -0.234  -5.999  0.00  0.00     0.003 A 
ATOM      5  C4  UNL d   1       3.915  -0.739  -4.947  0.00  0.00    -0.005 A 
ATOM      6  C5  UNL d   1       3.289  -1.399  -3.891  0.00  0.00     0.003 A 
ATOM      7  C6  UNL d   1       1.902  -1.552  -3.886  0.00  0.00    -0.001 A 
ENDROOT
TORSDOF 0
ENDMDL
