MODEL 1
REMARK minimizedAffinity 2.88121891
REMARK minimizedRMSD -1
REMARK  0 active torsions:
REMARK  status: ('A' for Active; 'I' for Inactive)
ROOT
ATOM      1  C   UNL d   1      -1.152  -1.004  -4.866  0.00  0.00     0.078 C 
ATOM      2  C1  UNL d   1       0.342  -0.881  -4.856  0.00  0.00    -0.077 A 
ATOM      3  C2  UNL d   1       1.085  -1.213  -3.717  0.00  0.00    -0.001 A 
ATOM      4  C3  UNL d   1       2.475  -1.085  -3.718  0.00  0.00     0.003 A 
ATOM      5  C4  UNL d   1       3.134  -0.622  -4.856  0.00  0.00    -0.005 A 
ATOM      6  C5  UNL d   1       2.403  -0.287  -5.994  0.00  0.00     0.003 A 
ATOM      7  C6  UNL d   1       1.013  -0.415  -5.994  0.00  0.00    -0.001 A 
ENDROOT
TORSDOF 0
ENDMDL
