MODEL 1
REMARK minimizedAffinity 0.0254053473
REMARK minimizedRMSD -1
REMARK  0 active torsions:
REMARK  status: ('A' for Active; 'I' for Inactive)
ROOT
ATOM      1  C   UNL d   1      -1.075  -0.990  -4.883  0.00  0.00     0.078 C 
ATOM      2  C1  UNL d   1       0.421  -0.887  -4.874  0.00  0.00    -0.077 A 
ATOM      3  C2  UNL d   1       1.163  -1.263  -3.748  0.00  0.00    -0.001 A 
ATOM      4  C3  UNL d   1       2.554  -1.153  -3.750  0.00  0.00     0.003 A 
ATOM      5  C4  UNL d   1       3.216  -0.665  -4.875  0.00  0.00    -0.005 A 
ATOM      6  C5  UNL d   1       2.486  -0.286  -5.999  0.00  0.00     0.003 A 
ATOM      7  C6  UNL d   1       1.094  -0.396  -5.999  0.00  0.00    -0.001 A 
ENDROOT
TORSDOF 0
ENDMDL
