MODEL 1
REMARK minimizedAffinity 8.4049387
REMARK minimizedRMSD -1
REMARK  0 active torsions:
REMARK  status: ('A' for Active; 'I' for Inactive)
ROOT
ATOM      1  C   UNL d   1      -1.945  -1.863   2.938  0.00  0.00     0.078 C 
ATOM      2  C1  UNL d   1      -0.497  -1.562   3.186  0.00  0.00    -0.077 A 
ATOM      3  C2  UNL d   1       0.505  -2.142   2.399  0.00  0.00    -0.001 A 
ATOM      4  C3  UNL d   1       1.849  -1.860   2.648  0.00  0.00     0.003 A 
ATOM      5  C4  UNL d   1       2.204  -0.999   3.685  0.00  0.00    -0.005 A 
ATOM      6  C5  UNL d   1       1.213  -0.419   4.475  0.00  0.00     0.003 A 
ATOM      7  C6  UNL d   1      -0.132  -0.699   4.228  0.00  0.00    -0.001 A 
ENDROOT
TORSDOF 0
ENDMDL
