MODEL 1
REMARK minimizedAffinity 2.36169696
REMARK minimizedRMSD -1
REMARK  0 active torsions:
REMARK  status: ('A' for Active; 'I' for Inactive)
ROOT
ATOM      1  C   UNL d   1       4.317  -3.115   4.558  0.00  0.00     0.172 C 
ATOM      2  N   UNL d   1       3.068  -2.875   3.875  0.00  0.00    -0.070 N 
ATOM      3  C1  UNL d   1       1.999  -3.730   3.841  0.00  0.00    -0.004 A 
ATOM      4  C2  UNL d   1       1.007  -3.136   3.091  0.00  0.00    -0.047 A 
ATOM      5  C3  UNL d   1       1.497  -1.881   2.658  0.00  0.00    -0.047 A 
ATOM      6  C4  UNL d   1       2.775  -1.745   3.157  0.00  0.00    -0.004 A 
ENDROOT
TORSDOF 0
ENDMDL
