MODEL 1
REMARK minimizedAffinity 1.61902523
REMARK minimizedRMSD -1
REMARK  0 active torsions:
REMARK  status: ('A' for Active; 'I' for Inactive)
ROOT
ATOM      1  C   UNL d   1       0.121  -1.408   1.223  0.00  0.00     0.172 C 
ATOM      2  N   UNL d   1       0.695  -1.859   2.469  0.00  0.00    -0.070 N 
ATOM      3  C1  UNL d   1       1.413  -1.088   3.343  0.00  0.00    -0.004 A 
ATOM      4  C2  UNL d   1       1.783  -1.885   4.404  0.00  0.00    -0.047 A 
ATOM      5  C3  UNL d   1       1.270  -3.181   4.159  0.00  0.00    -0.047 A 
ATOM      6  C4  UNL d   1       0.601  -3.137   2.954  0.00  0.00    -0.004 A 
ENDROOT
TORSDOF 0
ENDMDL
