MODEL 1
REMARK minimizedAffinity 0.0310990065
REMARK minimizedRMSD -1
REMARK  0 active torsions:
REMARK  status: ('A' for Active; 'I' for Inactive)
ROOT
ATOM      1  C   UNL d   1       0.421  -1.342   0.722  0.00  0.00     0.172 C 
ATOM      2  N   UNL d   1       1.153  -0.098   0.703  0.00  0.00    -0.070 N 
ATOM      3  C1  UNL d   1       2.334   0.142   1.353  0.00  0.00    -0.004 A 
ATOM      4  C2  UNL d   1       2.706   1.442   1.086  0.00  0.00    -0.047 A 
ATOM      5  C3  UNL d   1       1.714   2.002   0.246  0.00  0.00    -0.047 A 
ATOM      6  C4  UNL d   1       0.765   1.027   0.025  0.00  0.00    -0.004 A 
ENDROOT
TORSDOF 0
ENDMDL
