MODEL 1
REMARK minimizedAffinity 0.452753991
REMARK minimizedRMSD -1
REMARK  0 active torsions:
REMARK  status: ('A' for Active; 'I' for Inactive)
ROOT
ATOM      1  C   UNL d   1       2.711   0.389   1.891  0.00  0.00     0.172 C 
ATOM      2  N   UNL d   1       1.615   0.793   1.042  0.00  0.00    -0.070 N 
ATOM      3  C1  UNL d   1       0.531   0.022   0.717  0.00  0.00    -0.004 A 
ATOM      4  C2  UNL d   1      -0.284   0.766  -0.109  0.00  0.00    -0.047 A 
ATOM      5  C3  UNL d   1       0.332   2.027  -0.287  0.00  0.00    -0.047 A 
ATOM      6  C4  UNL d   1       1.506   2.017   0.436  0.00  0.00    -0.004 A 
ENDROOT
TORSDOF 0
ENDMDL
