MODEL 1
REMARK minimizedAffinity 2.09393501
REMARK minimizedRMSD -1
REMARK  0 active torsions:
REMARK  status: ('A' for Active; 'I' for Inactive)
ROOT
ATOM      1  C   UNL d   1       0.006  -0.832   1.482  0.00  0.00     0.172 C 
ATOM      2  N   UNL d   1       0.478   0.479   1.105  0.00  0.00    -0.070 N 
ATOM      3  C1  UNL d   1       1.788   0.876   1.067  0.00  0.00    -0.004 A 
ATOM      4  C2  UNL d   1       1.818   2.192   0.659  0.00  0.00    -0.047 A 
ATOM      5  C3  UNL d   1       0.480   2.601   0.445  0.00  0.00    -0.047 A 
ATOM      6  C4  UNL d   1      -0.329   1.521   0.728  0.00  0.00    -0.004 A 
ENDROOT
TORSDOF 0
ENDMDL
