MODEL 1
REMARK minimizedAffinity 1.48666728
REMARK minimizedRMSD -1
REMARK  0 active torsions:
REMARK  status: ('A' for Active; 'I' for Inactive)
ROOT
ATOM      1  C   UNL d   1      -0.624  -0.633   0.327  0.00  0.00     0.172 C 
ATOM      2  N   UNL d   1      -0.289  -1.889  -0.301  0.00  0.00    -0.070 N 
ATOM      3  C1  UNL d   1      -1.043  -2.537  -1.243  0.00  0.00    -0.004 A 
ATOM      4  C2  UNL d   1      -0.382  -3.696  -1.588  0.00  0.00    -0.047 A 
ATOM      5  C3  UNL d   1       0.810  -3.747  -0.828  0.00  0.00    -0.047 A 
ATOM      6  C4  UNL d   1       0.842  -2.616  -0.040  0.00  0.00    -0.004 A 
ENDROOT
TORSDOF 0
ENDMDL
