MODEL 1
REMARK minimizedAffinity -2.20137286
REMARK minimizedRMSD -1
REMARK  0 active torsions:
REMARK  status: ('A' for Active; 'I' for Inactive)
ROOT
ATOM      1  C   UNL d   1       2.725   1.158   1.568  0.00  0.00     0.172 C 
ATOM      2  N   UNL d   1       2.710   0.632   2.913  0.00  0.00    -0.070 N 
ATOM      3  C1  UNL d   1       2.609  -0.691   3.252  0.00  0.00    -0.004 A 
ATOM      4  C2  UNL d   1       2.631  -0.777   4.627  0.00  0.00    -0.047 A 
ATOM      5  C3  UNL d   1       2.748   0.540   5.132  0.00  0.00    -0.047 A 
ATOM      6  C4  UNL d   1       2.795   1.392   4.049  0.00  0.00    -0.004 A 
ENDROOT
TORSDOF 0
ENDMDL
