MODEL 1
REMARK minimizedAffinity 1.17159545
REMARK minimizedRMSD -1
REMARK  0 active torsions:
REMARK  status: ('A' for Active; 'I' for Inactive)
ROOT
ATOM      1  N1  IND d   1       0.664   1.824  -0.804  0.00  0.00    -0.196 N 
ATOM      2  C2  IND d   1       0.231   0.725  -1.493  0.00  0.00     0.054 A 
ATOM      3  C3  IND d   1       0.765   0.707  -2.734  0.00  0.00    -0.031 A 
ATOM      4  C4  IND d   1       2.454   2.324  -3.811  0.00  0.00     0.051 A 
ATOM      5  C5  IND d   1       3.115   3.500  -3.586  0.00  0.00    -0.031 A 
ATOM      6  C6  IND d   1       2.991   4.189  -2.397  0.00  0.00     0.015 A 
ATOM      7  C7  IND d   1       2.208   3.721  -1.380  0.00  0.00    -0.016 A 
ATOM      8  C8  IND d   1       1.531   2.531  -1.608  0.00  0.00    -0.047 A 
ATOM      9  C9  IND d   1       1.619   1.849  -2.828  0.00  0.00    -0.096 A 
ATOM     10  HN1 IND d   1       0.433   2.038  -0.004  0.00  0.00     0.298 HD
ENDROOT
TORSDOF 0
ENDMDL
