MODEL 1
REMARK minimizedAffinity 6.83995342
REMARK minimizedRMSD -1
REMARK  0 active torsions:
REMARK  status: ('A' for Active; 'I' for Inactive)
ROOT
ATOM      1  N1  IND d   1       4.685   2.385   2.314  0.00  0.00    -0.196 N 
ATOM      2  C2  IND d   1       4.338   1.180   2.859  0.00  0.00     0.054 A 
ATOM      3  C3  IND d   1       3.056   0.877   2.555  0.00  0.00    -0.031 A 
ATOM      4  C4  IND d   1       1.374   2.166   1.093  0.00  0.00     0.051 A 
ATOM      5  C5  IND d   1       1.219   3.339   0.408  0.00  0.00    -0.031 A 
ATOM      6  C6  IND d   1       2.233   4.271   0.320  0.00  0.00     0.015 A 
ATOM      7  C7  IND d   1       3.448   4.059   0.906  0.00  0.00    -0.016 A 
ATOM      8  C8  IND d   1       3.607   2.873   1.608  0.00  0.00    -0.047 A 
ATOM      9  C9  IND d   1       2.568   1.942   1.737  0.00  0.00    -0.096 A 
ATOM     10  HN1 IND d   1       5.447   2.773   2.399  0.00  0.00     0.298 HD
ENDROOT
TORSDOF 0
ENDMDL
