MODEL 1
REMARK minimizedAffinity 2.28491068
REMARK minimizedRMSD -1
REMARK  0 active torsions:
REMARK  status: ('A' for Active; 'I' for Inactive)
ROOT
ATOM      1  N1  IND d   1       5.774   0.813   5.944  0.00  0.00    -0.196 N 
ATOM      2  C2  IND d   1       5.999  -0.535   6.000  0.00  0.00     0.054 A 
ATOM      3  C3  IND d   1       5.685  -1.113   4.819  0.00  0.00    -0.031 A 
ATOM      4  C4  IND d   1       4.881  -0.027   2.628  0.00  0.00     0.051 A 
ATOM      5  C5  IND d   1       4.493   1.172   2.099  0.00  0.00    -0.031 A 
ATOM      6  C6  IND d   1       4.516   2.336   2.839  0.00  0.00     0.015 A 
ATOM      7  C7  IND d   1       4.940   2.347   4.138  0.00  0.00    -0.016 A 
ATOM      8  C8  IND d   1       5.327   1.130   4.680  0.00  0.00    -0.047 A 
ATOM      9  C9  IND d   1       5.266  -0.062   3.947  0.00  0.00    -0.096 A 
ATOM     10  HN1 IND d   1       5.892   1.368   6.590  0.00  0.00     0.298 HD
ENDROOT
TORSDOF 0
ENDMDL
