MODEL 1
REMARK minimizedAffinity 9.97203541
REMARK minimizedRMSD -1
REMARK  0 active torsions:
REMARK  status: ('A' for Active; 'I' for Inactive)
ROOT
ATOM      1  N1  IND d   1      -5.347  -1.528   4.535  0.00  0.00    -0.196 N 
ATOM      2  C2  IND d   1      -5.328  -2.890   4.422  0.00  0.00     0.054 A 
ATOM      3  C3  IND d   1      -4.220  -3.291   3.759  0.00  0.00    -0.031 A 
ATOM      4  C4  IND d   1      -2.255  -1.890   2.860  0.00  0.00     0.051 A 
ATOM      5  C5  IND d   1      -1.840  -0.599   2.693  0.00  0.00    -0.031 A 
ATOM      6  C6  IND d   1      -2.587   0.471   3.144  0.00  0.00     0.015 A 
ATOM      7  C7  IND d   1      -3.776   0.287   3.791  0.00  0.00    -0.016 A 
ATOM      8  C8  IND d   1      -4.204  -1.023   3.955  0.00  0.00    -0.047 A 
ATOM      9  C9  IND d   1      -3.472  -2.110   3.462  0.00  0.00    -0.096 A 
ATOM     10  HN1 IND d   1      -5.969  -1.064   4.906  0.00  0.00     0.298 HD
ENDROOT
TORSDOF 0
ENDMDL
