MODEL 1
REMARK minimizedAffinity 9.87349033
REMARK minimizedRMSD -1
REMARK  0 active torsions:
REMARK  status: ('A' for Active; 'I' for Inactive)
ROOT
ATOM      1  N1  IND d   1       0.378   0.783  -2.635  0.00  0.00    -0.196 N 
ATOM      2  C2  IND d   1       0.987   0.156  -1.583  0.00  0.00     0.054 A 
ATOM      3  C3  IND d   1       2.312   0.024  -1.818  0.00  0.00    -0.031 A 
ATOM      4  C4  IND d   1       3.711   0.856  -3.812  0.00  0.00     0.051 A 
ATOM      5  C5  IND d   1       3.593   1.452  -5.036  0.00  0.00    -0.031 A 
ATOM      6  C6  IND d   1       2.374   1.867  -5.531  0.00  0.00     0.015 A 
ATOM      7  C7  IND d   1       1.223   1.710  -4.812  0.00  0.00    -0.016 A 
ATOM      8  C8  IND d   1       1.337   1.099  -3.572  0.00  0.00    -0.047 A 
ATOM      9  C9  IND d   1       2.566   0.638  -3.082  0.00  0.00    -0.096 A 
ATOM     10  HN1 IND d   1      -0.462   0.952  -2.699  0.00  0.00     0.298 HD
ENDROOT
TORSDOF 0
ENDMDL
