MODEL 1
REMARK minimizedAffinity 12.9750881
REMARK minimizedRMSD -1
REMARK  0 active torsions:
REMARK  status: ('A' for Active; 'I' for Inactive)
ROOT
ATOM      1  N1  IND d   1       5.337   2.827   1.667  0.00  0.00    -0.196 N 
ATOM      2  C2  IND d   1       5.784   2.337   2.863  0.00  0.00     0.054 A 
ATOM      3  C3  IND d   1       4.744   1.919   3.618  0.00  0.00    -0.031 A 
ATOM      4  C4  IND d   1       2.234   1.850   3.050  0.00  0.00     0.051 A 
ATOM      5  C5  IND d   1       1.336   2.223   2.089  0.00  0.00    -0.031 A 
ATOM      6  C6  IND d   1       1.735   2.827   0.914  0.00  0.00     0.015 A 
ATOM      7  C7  IND d   1       3.053   3.070   0.649  0.00  0.00    -0.016 A 
ATOM      8  C8  IND d   1       3.966   2.698   1.626  0.00  0.00    -0.047 A 
ATOM      9  C9  IND d   1       3.564   2.124   2.839  0.00  0.00    -0.096 A 
ATOM     10  HN1 IND d   1       5.830   3.159   1.046  0.00  0.00     0.298 HD
ENDROOT
TORSDOF 0
ENDMDL
