MODEL 1
REMARK minimizedAffinity 3.47780728
REMARK minimizedRMSD -1
REMARK  0 active torsions:
REMARK  status: ('A' for Active; 'I' for Inactive)
ROOT
ATOM      1  N1  IND d   1       0.169   0.618  -0.962  0.00  0.00    -0.196 N 
ATOM      2  C2  IND d   1      -1.024   0.869  -0.343  0.00  0.00     0.054 A 
ATOM      3  C3  IND d   1      -1.566  -0.281   0.116  0.00  0.00    -0.031 A 
ATOM      4  C4  IND d   1      -0.621  -2.675   0.051  0.00  0.00     0.051 A 
ATOM      5  C5  IND d   1       0.420  -3.409  -0.443  0.00  0.00    -0.031 A 
ATOM      6  C6  IND d   1       1.454  -2.826  -1.147  0.00  0.00     0.015 A 
ATOM      7  C7  IND d   1       1.490  -1.479  -1.375  0.00  0.00    -0.016 A 
ATOM      8  C8  IND d   1       0.430  -0.732  -0.881  0.00  0.00    -0.047 A 
ATOM      9  C9  IND d   1      -0.643  -1.324  -0.202  0.00  0.00    -0.096 A 
ATOM     10  HN1 IND d   1       0.672   1.206  -1.339  0.00  0.00     0.298 HD
ENDROOT
TORSDOF 0
ENDMDL
