MODEL 1
REMARK minimizedAffinity 6.54343462
REMARK minimizedRMSD -1
REMARK  0 active torsions:
REMARK  status: ('A' for Active; 'I' for Inactive)
ROOT
ATOM      1  N1  IND d   1       0.891   0.613  -3.323  0.00  0.00    -0.196 N 
ATOM      2  C2  IND d   1       1.590   0.164  -4.408  0.00  0.00     0.054 A 
ATOM      3  C3  IND d   1       2.109  -1.060  -4.160  0.00  0.00    -0.031 A 
ATOM      4  C4  IND d   1       1.851  -2.555  -2.080  0.00  0.00     0.051 A 
ATOM      5  C5  IND d   1       1.334  -2.561  -0.816  0.00  0.00    -0.031 A 
ATOM      6  C6  IND d   1       0.625  -1.488  -0.313  0.00  0.00     0.015 A 
ATOM      7  C7  IND d   1       0.397  -0.370  -1.064  0.00  0.00    -0.016 A 
ATOM      8  C8  IND d   1       0.928  -0.358  -2.346  0.00  0.00    -0.047 A 
ATOM      9  C9  IND d   1       1.684  -1.425  -2.846  0.00  0.00    -0.096 A 
ATOM     10  HN1 IND d   1       0.494   1.373  -3.261  0.00  0.00     0.298 HD
ENDROOT
TORSDOF 0
ENDMDL
