MODEL 1
REMARK minimizedAffinity 10.1106462
REMARK minimizedRMSD -1
REMARK  0 active torsions:
REMARK  status: ('A' for Active; 'I' for Inactive)
ROOT
ATOM      1  N1  IND d   1       0.863  -0.254  -1.927  0.00  0.00    -0.196 N 
ATOM      2  C2  IND d   1       1.985  -0.780  -2.503  0.00  0.00     0.054 A 
ATOM      3  C3  IND d   1       2.221  -2.022  -2.024  0.00  0.00    -0.031 A 
ATOM      4  C4  IND d   1       0.839  -3.425  -0.366  0.00  0.00     0.051 A 
ATOM      5  C5  IND d   1      -0.249  -3.357   0.458  0.00  0.00    -0.031 A 
ATOM      6  C6  IND d   1      -1.041  -2.228   0.527  0.00  0.00     0.015 A 
ATOM      7  C7  IND d   1      -0.778  -1.126  -0.236  0.00  0.00    -0.016 A 
ATOM      8  C8  IND d   1       0.331  -1.189  -1.067  0.00  0.00    -0.047 A 
ATOM      9  C9  IND d   1       1.162  -2.316  -1.111  0.00  0.00    -0.096 A 
ATOM     10  HN1 IND d   1       0.543   0.530  -2.077  0.00  0.00     0.298 HD
ENDROOT
TORSDOF 0
ENDMDL
