MODEL 1
REMARK minimizedAffinity 3.20298862
REMARK minimizedRMSD -1
REMARK  0 active torsions:
REMARK  status: ('A' for Active; 'I' for Inactive)
ROOT
ATOM      1  N1  IND d   1       0.325   0.532  -1.842  0.00  0.00    -0.196 N 
ATOM      2  C2  IND d   1      -0.797   0.958  -1.188  0.00  0.00     0.054 A 
ATOM      3  C3  IND d   1      -1.129   0.088  -0.208  0.00  0.00    -0.031 A 
ATOM      4  C4  IND d   1       0.085  -2.046   0.565  0.00  0.00     0.051 A 
ATOM      5  C5  IND d   1       1.134  -2.863   0.249  0.00  0.00    -0.031 A 
ATOM      6  C6  IND d   1       1.986  -2.583  -0.799  0.00  0.00     0.015 A 
ATOM      7  C7  IND d   1       1.827  -1.464  -1.567  0.00  0.00    -0.016 A 
ATOM      8  C8  IND d   1       0.758  -0.637  -1.254  0.00  0.00    -0.047 A 
ATOM      9  C9  IND d   1      -0.135  -0.938  -0.218  0.00  0.00    -0.096 A 
ATOM     10  HN1 IND d   1       0.698   0.926  -2.509  0.00  0.00     0.298 HD
ENDROOT
TORSDOF 0
ENDMDL
