MODEL 1
REMARK minimizedAffinity 2.68063664
REMARK minimizedRMSD -1
REMARK  0 active torsions:
REMARK  status: ('A' for Active; 'I' for Inactive)
ROOT
ATOM      1  N1  IND d   1       5.469   2.933   3.706  0.00  0.00    -0.196 N 
ATOM      2  C2  IND d   1       5.781   3.674   4.811  0.00  0.00     0.054 A 
ATOM      3  C3  IND d   1       6.000   2.867   5.873  0.00  0.00    -0.031 A 
ATOM      4  C4  IND d   1       6.000   0.296   6.000  0.00  0.00     0.051 A 
ATOM      5  C5  IND d   1       5.734  -0.820   5.256  0.00  0.00    -0.031 A 
ATOM      6  C6  IND d   1       5.362  -0.740   3.930  0.00  0.00     0.015 A 
ATOM      7  C7  IND d   1       5.251   0.464   3.292  0.00  0.00    -0.016 A 
ATOM      8  C8  IND d   1       5.513   1.599   4.046  0.00  0.00    -0.047 A 
ATOM      9  C9  IND d   1       5.851   1.526   5.404  0.00  0.00    -0.096 A 
ATOM     10  HN1 IND d   1       5.277   3.247   2.929  0.00  0.00     0.298 HD
ENDROOT
TORSDOF 0
ENDMDL
