MODEL 1
REMARK minimizedAffinity 2.83670115
REMARK minimizedRMSD -1
REMARK  0 active torsions:
REMARK  status: ('A' for Active; 'I' for Inactive)
ROOT
ATOM      1  N1  IND d   1       0.563   0.548  -2.000  0.00  0.00    -0.196 N 
ATOM      2  C2  IND d   1       1.522   0.241  -2.925  0.00  0.00     0.054 A 
ATOM      3  C3  IND d   1       2.056  -0.973  -2.663  0.00  0.00    -0.031 A 
ATOM      4  C4  IND d   1       1.437  -2.671  -0.829  0.00  0.00     0.051 A 
ATOM      5  C5  IND d   1       0.646  -2.823   0.275  0.00  0.00    -0.031 A 
ATOM      6  C6  IND d   1      -0.232  -1.841   0.684  0.00  0.00     0.015 A 
ATOM      7  C7  IND d   1      -0.361  -0.669  -0.006  0.00  0.00    -0.016 A 
ATOM      8  C8  IND d   1       0.445  -0.508  -1.124  0.00  0.00    -0.047 A 
ATOM      9  C9  IND d   1       1.369  -1.483  -1.519  0.00  0.00    -0.096 A 
ATOM     10  HN1 IND d   1       0.110   1.279  -1.971  0.00  0.00     0.298 HD
ENDROOT
TORSDOF 0
ENDMDL
