MODEL 1
REMARK minimizedAffinity 3.48304868
REMARK minimizedRMSD -1
REMARK  0 active torsions:
REMARK  status: ('A' for Active; 'I' for Inactive)
ROOT
ATOM      1  N1  IND d   1       0.747   1.493  -3.263  0.00  0.00    -0.196 N 
ATOM      2  C2  IND d   1       1.491   1.298  -4.393  0.00  0.00     0.054 A 
ATOM      3  C3  IND d   1       2.103   0.094  -4.352  0.00  0.00    -0.031 A 
ATOM      4  C4  IND d   1       1.943  -1.761  -2.574  0.00  0.00     0.051 A 
ATOM      5  C5  IND d   1       1.415  -2.031  -1.343  0.00  0.00    -0.031 A 
ATOM      6  C6  IND d   1       0.618  -1.122  -0.676  0.00  0.00     0.015 A 
ATOM      7  C7  IND d   1       0.310   0.091  -1.224  0.00  0.00    -0.016 A 
ATOM      8  C8  IND d   1       0.851   0.371  -2.471  0.00  0.00    -0.047 A 
ATOM      9  C9  IND d   1       1.694  -0.530  -3.133  0.00  0.00    -0.096 A 
ATOM     10  HN1 IND d   1       0.291   2.198  -3.078  0.00  0.00     0.298 HD
ENDROOT
TORSDOF 0
ENDMDL
