MODEL 1
REMARK minimizedAffinity 11.3270788
REMARK minimizedRMSD -1
REMARK  0 active torsions:
REMARK  status: ('A' for Active; 'I' for Inactive)
ROOT
ATOM      1  N1  IND d   1      -5.079  -0.730   4.491  0.00  0.00    -0.196 N 
ATOM      2  C2  IND d   1      -5.127  -2.033   4.078  0.00  0.00     0.054 A 
ATOM      3  C3  IND d   1      -4.017  -2.344   3.372  0.00  0.00    -0.031 A 
ATOM      4  C4  IND d   1      -1.948  -0.900   2.859  0.00  0.00     0.051 A 
ATOM      5  C5  IND d   1      -1.459   0.368   2.995  0.00  0.00    -0.031 A 
ATOM      6  C6  IND d   1      -2.165   1.355   3.652  0.00  0.00     0.015 A 
ATOM      7  C7  IND d   1      -3.386   1.105   4.210  0.00  0.00    -0.016 A 
ATOM      8  C8  IND d   1      -3.889  -0.180   4.068  0.00  0.00    -0.047 A 
ATOM      9  C9  IND d   1      -3.196  -1.174   3.365  0.00  0.00    -0.096 A 
ATOM     10  HN1 IND d   1      -5.690  -0.323   4.939  0.00  0.00     0.298 HD
ENDROOT
TORSDOF 0
ENDMDL
