MODEL 1
REMARK minimizedAffinity 0.534096777
REMARK minimizedRMSD -1
REMARK  0 active torsions:
REMARK  status: ('A' for Active; 'I' for Inactive)
ROOT
ATOM      1  N1  IND d   1       0.420   1.416  -2.245  0.00  0.00    -0.196 N 
ATOM      2  C2  IND d   1       1.339   1.344  -3.254  0.00  0.00     0.054 A 
ATOM      3  C3  IND d   1       1.922   0.124  -3.274  0.00  0.00    -0.031 A 
ATOM      4  C4  IND d   1       1.448  -1.938  -1.808  0.00  0.00     0.051 A 
ATOM      5  C5  IND d   1       0.719  -2.347  -0.726  0.00  0.00    -0.031 A 
ATOM      6  C6  IND d   1      -0.167  -1.506  -0.085  0.00  0.00     0.015 A 
ATOM      7  C7  IND d   1      -0.366  -0.222  -0.509  0.00  0.00    -0.016 A 
ATOM      8  C8  IND d   1       0.378   0.198  -1.603  0.00  0.00    -0.047 A 
ATOM      9  C9  IND d   1       1.310  -0.638  -2.232  0.00  0.00    -0.096 A 
ATOM     10  HN1 IND d   1      -0.052   2.106  -2.045  0.00  0.00     0.298 HD
ENDROOT
TORSDOF 0
ENDMDL
