MODEL 1
REMARK minimizedAffinity -2.34995437
REMARK minimizedRMSD -1
REMARK  0 active torsions:
REMARK  status: ('A' for Active; 'I' for Inactive)
ROOT
ATOM      1  N1  IND d   1       4.698   2.367   3.825  0.00  0.00    -0.196 N 
ATOM      2  C2  IND d   1       5.412   3.179   4.661  0.00  0.00     0.054 A 
ATOM      3  C3  IND d   1       5.997   2.451   5.639  0.00  0.00    -0.031 A 
ATOM      4  C4  IND d   1       6.000  -0.098   6.000  0.00  0.00     0.051 A 
ATOM      5  C5  IND d   1       5.457  -1.255   5.516  0.00  0.00    -0.031 A 
ATOM      6  C6  IND d   1       4.619  -1.265   4.420  0.00  0.00     0.015 A 
ATOM      7  C7  IND d   1       4.300  -0.114   3.757  0.00  0.00    -0.016 A 
ATOM      8  C8  IND d   1       4.843   1.064   4.250  0.00  0.00    -0.047 A 
ATOM      9  C9  IND d   1       5.661   1.085   5.387  0.00  0.00    -0.096 A 
ATOM     10  HN1 IND d   1       4.236   2.625   3.148  0.00  0.00     0.298 HD
ENDROOT
TORSDOF 0
ENDMDL
