MODEL 1
REMARK minimizedAffinity -0.890552998
REMARK minimizedRMSD -1
REMARK  0 active torsions:
REMARK  status: ('A' for Active; 'I' for Inactive)
ROOT
ATOM      1  C2' OXE d   1       0.703  -0.856  -1.220  0.00  0.00     0.078 C 
ATOM      2  C1' OXE d   1       0.283   1.915  -1.378  0.00  0.00     0.078 C 
ATOM      3  C1  OXE d   1      -0.135   1.211  -0.111  0.00  0.00    -0.078 A 
ATOM      4  C2  OXE d   1       0.032  -0.152  -0.060  0.00  0.00    -0.078 A 
ATOM      5  C3  OXE d   1      -0.286  -0.842   1.106  0.00  0.00     0.003 A 
ATOM      6  C4  OXE d   1      -0.915  -0.185   2.170  0.00  0.00    -0.002 A 
ATOM      7  C5  OXE d   1      -1.130   1.197   2.123  0.00  0.00    -0.002 A 
ATOM      8  C6  OXE d   1      -0.708   1.915   1.010  0.00  0.00     0.003 A 
ENDROOT
TORSDOF 0
ENDMDL
