MODEL 1
REMARK minimizedAffinity -5.39211416
REMARK minimizedRMSD -1
REMARK  0 active torsions:
REMARK  status: ('A' for Active; 'I' for Inactive)
ROOT
ATOM      1  C2' OXE d   1      -0.598  -1.194   2.281  0.00  0.00     0.078 C 
ATOM      2  C1' OXE d   1      -1.908   1.192   1.595  0.00  0.00     0.078 C 
ATOM      3  C1  OXE d   1      -0.812   0.704   0.682  0.00  0.00    -0.078 A 
ATOM      4  C2  OXE d   1      -0.144  -0.440   1.050  0.00  0.00    -0.078 A 
ATOM      5  C3  OXE d   1       0.839  -0.963   0.215  0.00  0.00     0.003 A 
ATOM      6  C4  OXE d   1       1.259  -0.254  -0.916  0.00  0.00    -0.002 A 
ATOM      7  C5  OXE d   1       0.620   0.934  -1.288  0.00  0.00    -0.002 A 
ATOM      8  C6  OXE d   1      -0.443   1.403  -0.524  0.00  0.00     0.003 A 
ENDROOT
TORSDOF 0
ENDMDL
