MODEL 1
REMARK minimizedAffinity -5.0940361
REMARK minimizedRMSD -1
REMARK  0 active torsions:
REMARK  status: ('A' for Active; 'I' for Inactive)
ROOT
ATOM      1  C2' OXE d   1      -0.655  -1.420   1.208  0.00  0.00     0.078 C 
ATOM      2  C1' OXE d   1       1.051  -0.494  -0.820  0.00  0.00     0.078 C 
ATOM      3  C1  OXE d   1      -0.095   0.395  -0.404  0.00  0.00    -0.078 A 
ATOM      4  C2  OXE d   1      -0.952  -0.087   0.557  0.00  0.00    -0.078 A 
ATOM      5  C3  OXE d   1      -1.993   0.715   1.016  0.00  0.00     0.003 A 
ATOM      6  C4  OXE d   1      -2.267   1.942   0.401  0.00  0.00    -0.002 A 
ATOM      7  C5  OXE d   1      -1.430   2.434  -0.607  0.00  0.00    -0.002 A 
ATOM      8  C6  OXE d   1      -0.317   1.693  -0.990  0.00  0.00     0.003 A 
ENDROOT
TORSDOF 0
ENDMDL
