MODEL 1
REMARK minimizedAffinity -2.96374846
REMARK minimizedRMSD -1
REMARK  0 active torsions:
REMARK  status: ('A' for Active; 'I' for Inactive)
ROOT
ATOM      1  C2' OXE d   1      -0.559  -1.004  -0.838  0.00  0.00     0.078 C 
ATOM      2  C1' OXE d   1       0.408  -0.700   1.779  0.00  0.00     0.078 C 
ATOM      3  C1  OXE d   1      -0.572   0.326   1.268  0.00  0.00    -0.078 A 
ATOM      4  C2  OXE d   1      -1.004   0.196  -0.030  0.00  0.00    -0.078 A 
ATOM      5  C3  OXE d   1      -1.950   1.084  -0.534  0.00  0.00     0.003 A 
ATOM      6  C4  OXE d   1      -2.348   2.197   0.216  0.00  0.00    -0.002 A 
ATOM      7  C5  OXE d   1      -1.890   2.370   1.526  0.00  0.00    -0.002 A 
ATOM      8  C6  OXE d   1      -1.036   1.423   2.081  0.00  0.00     0.003 A 
ENDROOT
TORSDOF 0
ENDMDL
