MODEL 1
REMARK minimizedAffinity -4.99085569
REMARK minimizedRMSD -1
REMARK  0 active torsions:
REMARK  status: ('A' for Active; 'I' for Inactive)
ROOT
ATOM      1  C2' OXE d   1      -2.357   2.864   1.456  0.00  0.00     0.078 C 
ATOM      2  C1' OXE d   1      -0.530   2.559  -0.653  0.00  0.00     0.078 C 
ATOM      3  C1  OXE d   1      -0.514   1.527   0.446  0.00  0.00    -0.078 A 
ATOM      4  C2  OXE d   1      -1.379   1.709   1.498  0.00  0.00    -0.078 A 
ATOM      5  C3  OXE d   1      -1.443   0.757   2.511  0.00  0.00     0.003 A 
ATOM      6  C4  OXE d   1      -0.529  -0.302   2.547  0.00  0.00    -0.002 A 
ATOM      7  C5  OXE d   1       0.388  -0.485   1.506  0.00  0.00    -0.002 A 
ATOM      8  C6  OXE d   1       0.379   0.395   0.429  0.00  0.00     0.003 A 
ENDROOT
TORSDOF 0
ENDMDL
