MODEL 1
REMARK minimizedAffinity -4.07946014
REMARK minimizedRMSD -1
REMARK  0 active torsions:
REMARK  status: ('A' for Active; 'I' for Inactive)
ROOT
ATOM      1  C2' OXE d   1       2.148   0.399  -1.557  0.00  0.00     0.078 C 
ATOM      2  C1' OXE d   1       1.447  -2.307  -1.296  0.00  0.00     0.078 C 
ATOM      3  C1  OXE d   1       0.548  -1.282  -0.650  0.00  0.00    -0.078 A 
ATOM      4  C2  OXE d   1       0.924   0.037  -0.744  0.00  0.00    -0.078 A 
ATOM      5  C3  OXE d   1       0.102   1.027  -0.213  0.00  0.00     0.003 A 
ATOM      6  C4  OXE d   1      -1.022   0.683   0.546  0.00  0.00    -0.002 A 
ATOM      7  C5  OXE d   1      -1.401  -0.656   0.687  0.00  0.00    -0.002 A 
ATOM      8  C6  OXE d   1      -0.652  -1.646   0.061  0.00  0.00     0.003 A 
ENDROOT
TORSDOF 0
ENDMDL
