MODEL 1
REMARK minimizedAffinity -4.416327
REMARK minimizedRMSD -1
REMARK  0 active torsions:
REMARK  status: ('A' for Active; 'I' for Inactive)
ROOT
ATOM      1  C2' OXE d   1      -1.397   0.167   2.530  0.00  0.00     0.078 C 
ATOM      2  C1' OXE d   1       0.097  -0.577   0.272  0.00  0.00     0.078 C 
ATOM      3  C1  OXE d   1      -0.316   0.868   0.397  0.00  0.00    -0.078 A 
ATOM      4  C2  OXE d   1      -1.086   1.214   1.481  0.00  0.00    -0.078 A 
ATOM      5  C3  OXE d   1      -1.448   2.544   1.674  0.00  0.00     0.003 A 
ATOM      6  C4  OXE d   1      -1.165   3.504   0.694  0.00  0.00    -0.002 A 
ATOM      7  C5  OXE d   1      -0.416   3.165  -0.437  0.00  0.00    -0.002 A 
ATOM      8  C6  OXE d   1       0.052   1.863  -0.580  0.00  0.00     0.003 A 
ENDROOT
TORSDOF 0
ENDMDL
