MODEL 1
REMARK minimizedAffinity -4.90710831
REMARK minimizedRMSD -1
REMARK  0 active torsions:
REMARK  status: ('A' for Active; 'I' for Inactive)
ROOT
ATOM      1  C2' OXE d   1       1.263   0.992  -1.320  0.00  0.00     0.078 C 
ATOM      2  C1' OXE d   1      -0.676  -0.523   0.030  0.00  0.00     0.078 C 
ATOM      3  C1  OXE d   1      -0.790   0.979   0.091  0.00  0.00    -0.078 A 
ATOM      4  C2  OXE d   1       0.190   1.713  -0.534  0.00  0.00    -0.078 A 
ATOM      5  C3  OXE d   1       0.102   3.102  -0.555  0.00  0.00     0.003 A 
ATOM      6  C4  OXE d   1      -0.888   3.762   0.184  0.00  0.00    -0.002 A 
ATOM      7  C5  OXE d   1      -1.872   3.033   0.860  0.00  0.00    -0.002 A 
ATOM      8  C6  OXE d   1      -1.862   1.645   0.789  0.00  0.00     0.003 A 
ENDROOT
TORSDOF 0
ENDMDL
