MODEL 1
REMARK minimizedAffinity -6.01465511
REMARK minimizedRMSD -1
REMARK  0 active torsions:
REMARK  status: ('A' for Active; 'I' for Inactive)
ROOT
ATOM      1  C2' OXE d   1      -0.144  -0.430   1.167  0.00  0.00     0.078 C 
ATOM      2  C1' OXE d   1       1.123   0.750  -1.043  0.00  0.00     0.078 C 
ATOM      3  C1  OXE d   1       0.148   1.592  -0.259  0.00  0.00    -0.078 A 
ATOM      4  C2  OXE d   1      -0.503   0.992   0.792  0.00  0.00    -0.078 A 
ATOM      5  C3  OXE d   1      -1.371   1.740   1.583  0.00  0.00     0.003 A 
ATOM      6  C4  OXE d   1      -1.705   3.051   1.224  0.00  0.00    -0.002 A 
ATOM      7  C5  OXE d   1      -1.084   3.668   0.133  0.00  0.00    -0.002 A 
ATOM      8  C6  OXE d   1      -0.126   2.968  -0.592  0.00  0.00     0.003 A 
ENDROOT
TORSDOF 0
ENDMDL
