MODEL 1
REMARK minimizedAffinity -5.06432152
REMARK minimizedRMSD -1
REMARK  0 active torsions:
REMARK  status: ('A' for Active; 'I' for Inactive)
ROOT
ATOM      1  C2' OXE d   1       1.103  -0.004  -0.602  0.00  0.00     0.078 C 
ATOM      2  C1' OXE d   1       0.781   2.704  -1.267  0.00  0.00     0.078 C 
ATOM      3  C1  OXE d   1       0.096   2.199  -0.022  0.00  0.00    -0.078 A 
ATOM      4  C2  OXE d   1       0.220   0.862   0.271  0.00  0.00    -0.078 A 
ATOM      5  C3  OXE d   1      -0.346   0.356   1.437  0.00  0.00     0.003 A 
ATOM      6  C4  OXE d   1      -1.169   1.162   2.233  0.00  0.00    -0.002 A 
ATOM      7  C5  OXE d   1      -1.341   2.517   1.932  0.00  0.00    -0.002 A 
ATOM      8  C6  OXE d   1      -0.683   3.060   0.834  0.00  0.00     0.003 A 
ENDROOT
TORSDOF 0
ENDMDL
