MODEL 1
REMARK minimizedAffinity -5.30439425
REMARK minimizedRMSD -1
REMARK  0 active torsions:
REMARK  status: ('A' for Active; 'I' for Inactive)
ROOT
ATOM      1  C2' OXE d   1      -1.188  -0.775   1.747  0.00  0.00     0.078 C 
ATOM      2  C1' OXE d   1       0.673   0.008  -0.203  0.00  0.00     0.078 C 
ATOM      3  C1  OXE d   1      -0.358   1.020   0.231  0.00  0.00    -0.078 A 
ATOM      4  C2  OXE d   1      -1.293   0.613   1.152  0.00  0.00    -0.078 A 
ATOM      5  C3  OXE d   1      -2.233   1.523   1.628  0.00  0.00     0.003 A 
ATOM      6  C4  OXE d   1      -2.330   2.802   1.065  0.00  0.00    -0.002 A 
ATOM      7  C5  OXE d   1      -1.411   3.223   0.098  0.00  0.00    -0.002 A 
ATOM      8  C6  OXE d   1      -0.395   2.360  -0.298  0.00  0.00     0.003 A 
ENDROOT
TORSDOF 0
ENDMDL
