MODEL 1
REMARK minimizedAffinity -5.58916855
REMARK minimizedRMSD -1
REMARK  0 active torsions:
REMARK  status: ('A' for Active; 'I' for Inactive)
ROOT
ATOM      1  C2' OXE d   1       1.452   1.490  -0.671  0.00  0.00     0.078 C 
ATOM      2  C1' OXE d   1       0.283  -1.056  -0.497  0.00  0.00     0.078 C 
ATOM      3  C1  OXE d   1      -0.535   0.126  -0.042  0.00  0.00    -0.078 A 
ATOM      4  C2  OXE d   1       0.062   1.363  -0.086  0.00  0.00    -0.078 A 
ATOM      5  C3  OXE d   1      -0.667   2.493   0.271  0.00  0.00     0.003 A 
ATOM      6  C4  OXE d   1      -1.949   2.366   0.819  0.00  0.00    -0.002 A 
ATOM      7  C5  OXE d   1      -2.561   1.111   0.911  0.00  0.00    -0.002 A 
ATOM      8  C6  OXE d   1      -1.885  -0.012   0.446  0.00  0.00     0.003 A 
ENDROOT
TORSDOF 0
ENDMDL
