MODEL 1
REMARK minimizedAffinity -6.78917027
REMARK minimizedRMSD -1
REMARK  0 active torsions:
REMARK  status: ('A' for Active; 'I' for Inactive)
ROOT
ATOM      1  C2' OXE d   1       0.455  -1.305  -0.254  0.00  0.00     0.078 C 
ATOM      2  C1' OXE d   1       0.833  -0.686   2.458  0.00  0.00     0.078 C 
ATOM      3  C1  OXE d   1      -0.169   0.132   1.682  0.00  0.00    -0.078 A 
ATOM      4  C2  OXE d   1      -0.313  -0.147   0.345  0.00  0.00    -0.078 A 
ATOM      5  C3  OXE d   1      -1.263   0.541  -0.404  0.00  0.00     0.003 A 
ATOM      6  C4  OXE d   1      -1.963   1.618   0.155  0.00  0.00    -0.002 A 
ATOM      7  C5  OXE d   1      -1.802   1.945   1.505  0.00  0.00    -0.002 A 
ATOM      8  C6  OXE d   1      -0.942   1.186   2.292  0.00  0.00     0.003 A 
ENDROOT
TORSDOF 0
ENDMDL
