MODEL 1
REMARK minimizedAffinity -4.69676447
REMARK minimizedRMSD -1
REMARK  0 active torsions:
REMARK  status: ('A' for Active; 'I' for Inactive)
ROOT
ATOM      1  C2' OXE d   1       0.163  -0.324   1.156  0.00  0.00     0.078 C 
ATOM      2  C1' OXE d   1      -1.193   1.819   2.360  0.00  0.00     0.078 C 
ATOM      3  C1  OXE d   1      -0.474   2.082   1.061  0.00  0.00    -0.078 A 
ATOM      4  C2  OXE d   1       0.227   1.040   0.503  0.00  0.00    -0.078 A 
ATOM      5  C3  OXE d   1       0.863   1.214  -0.723  0.00  0.00     0.003 A 
ATOM      6  C4  OXE d   1       0.925   2.481  -1.315  0.00  0.00    -0.002 A 
ATOM      7  C5  OXE d   1       0.252   3.566  -0.743  0.00  0.00    -0.002 A 
ATOM      8  C6  OXE d   1      -0.486   3.374   0.420  0.00  0.00     0.003 A 
ENDROOT
TORSDOF 0
ENDMDL
