MODEL 1
REMARK minimizedAffinity -3.87982297
REMARK minimizedRMSD -1
REMARK  0 active torsions:
REMARK  status: ('A' for Active; 'I' for Inactive)
ROOT
ATOM      1  C2' OXE d   1       0.003  -1.549  -0.518  0.00  0.00     0.078 C 
ATOM      2  C1' OXE d   1       1.380   0.895  -0.642  0.00  0.00     0.078 C 
ATOM      3  C1  OXE d   1      -0.020   0.903  -0.080  0.00  0.00    -0.078 A 
ATOM      4  C2  OXE d   1      -0.703  -0.289  -0.066  0.00  0.00    -0.078 A 
ATOM      5  C3  OXE d   1      -1.977  -0.347   0.492  0.00  0.00     0.003 A 
ATOM      6  C4  OXE d   1      -2.627   0.825   0.899  0.00  0.00    -0.002 A 
ATOM      7  C5  OXE d   1      -1.964   2.056   0.856  0.00  0.00    -0.002 A 
ATOM      8  C6  OXE d   1      -0.648   2.106   0.411  0.00  0.00     0.003 A 
ENDROOT
TORSDOF 0
ENDMDL
