MODEL 1
REMARK minimizedAffinity -5.50342846
REMARK minimizedRMSD -1
REMARK  0 active torsions:
REMARK  status: ('A' for Active; 'I' for Inactive)
ROOT
ATOM      1  C2' OXE d   1      -0.545   3.082  -1.206  0.00  0.00     0.078 C 
ATOM      2  C1' OXE d   1      -1.898   3.255   1.247  0.00  0.00     0.078 C 
ATOM      3  C1  OXE d   1      -0.970   2.085   1.037  0.00  0.00    -0.078 A 
ATOM      4  C2  OXE d   1      -0.347   1.984  -0.184  0.00  0.00    -0.078 A 
ATOM      5  C3  OXE d   1       0.561   0.954  -0.411  0.00  0.00     0.003 A 
ATOM      6  C4  OXE d   1       0.731  -0.063   0.535  0.00  0.00    -0.002 A 
ATOM      7  C5  OXE d   1       0.077  -0.001   1.770  0.00  0.00    -0.002 A 
ATOM      8  C6  OXE d   1      -0.743   1.087   2.053  0.00  0.00     0.003 A 
ENDROOT
TORSDOF 0
ENDMDL
