MODEL 1
REMARK minimizedAffinity -5.65708447
REMARK minimizedRMSD -1
REMARK  0 active torsions:
REMARK  status: ('A' for Active; 'I' for Inactive)
ROOT
ATOM      1  C2' OXE d   1      -0.916  -0.272   1.625  0.00  0.00     0.078 C 
ATOM      2  C1' OXE d   1       0.592  -0.567  -0.724  0.00  0.00     0.078 C 
ATOM      3  C1  OXE d   1       0.131   0.820  -0.354  0.00  0.00    -0.078 A 
ATOM      4  C2  OXE d   1      -0.646   0.949   0.773  0.00  0.00    -0.078 A 
ATOM      5  C3  OXE d   1      -1.052   2.213   1.189  0.00  0.00     0.003 A 
ATOM      6  C4  OXE d   1      -0.807   3.336   0.389  0.00  0.00    -0.002 A 
ATOM      7  C5  OXE d   1      -0.051   3.221  -0.782  0.00  0.00    -0.002 A 
ATOM      8  C6  OXE d   1       0.460   1.980  -1.145  0.00  0.00     0.003 A 
ENDROOT
TORSDOF 0
ENDMDL
