MODEL 1
REMARK minimizedAffinity -5.90512943
REMARK minimizedRMSD -1
REMARK  0 active torsions:
REMARK  status: ('A' for Active; 'I' for Inactive)
ROOT
ATOM      1  C2' OXE d   1      -1.613   1.902   1.882  0.00  0.00     0.078 C 
ATOM      2  C1' OXE d   1      -0.207  -0.358   0.989  0.00  0.00     0.078 C 
ATOM      3  C1  OXE d   1      -0.061   0.918   0.199  0.00  0.00    -0.078 A 
ATOM      4  C2  OXE d   1      -0.789   2.007   0.616  0.00  0.00    -0.078 A 
ATOM      5  C3  OXE d   1      -0.648   3.224  -0.044  0.00  0.00     0.003 A 
ATOM      6  C4  OXE d   1       0.108   3.310  -1.219  0.00  0.00    -0.002 A 
ATOM      7  C5  OXE d   1       0.826   2.203  -1.684  0.00  0.00    -0.002 A 
ATOM      8  C6  OXE d   1       0.786   1.014  -0.964  0.00  0.00     0.003 A 
ENDROOT
TORSDOF 0
ENDMDL
