MODEL 1
REMARK minimizedAffinity -4.68891859
REMARK minimizedRMSD -1
REMARK  0 active torsions:
REMARK  status: ('A' for Active; 'I' for Inactive)
ROOT
ATOM      1  C2' OXE d   1       0.099  -0.799  -0.991  0.00  0.00     0.078 C 
ATOM      2  C1' OXE d   1      -2.146   0.503   0.079  0.00  0.00     0.078 C 
ATOM      3  C1  OXE d   1      -0.953   0.304   0.979  0.00  0.00    -0.078 A 
ATOM      4  C2  OXE d   1       0.124  -0.375   0.462  0.00  0.00    -0.078 A 
ATOM      5  C3  OXE d   1       1.271  -0.538   1.232  0.00  0.00     0.003 A 
ATOM      6  C4  OXE d   1       1.282  -0.152   2.578  0.00  0.00    -0.002 A 
ATOM      7  C5  OXE d   1       0.182   0.506   3.137  0.00  0.00    -0.002 A 
ATOM      8  C6  OXE d   1      -0.925   0.780   2.341  0.00  0.00     0.003 A 
ENDROOT
TORSDOF 0
ENDMDL
