MODEL 1
REMARK minimizedAffinity -5.9089818
REMARK minimizedRMSD -1
REMARK  0 active torsions:
REMARK  status: ('A' for Active; 'I' for Inactive)
ROOT
ATOM      1  C2' OXE d   1      -2.051  -0.083   0.213  0.00  0.00     0.078 C 
ATOM      2  C1' OXE d   1       0.558  -0.978  -0.307  0.00  0.00     0.078 C 
ATOM      3  C1  OXE d   1       0.329  -0.165   0.943  0.00  0.00    -0.078 A 
ATOM      4  C2  OXE d   1      -0.941   0.309   1.165  0.00  0.00    -0.078 A 
ATOM      5  C3  OXE d   1      -1.219   1.018   2.330  0.00  0.00     0.003 A 
ATOM      6  C4  OXE d   1      -0.185   1.384   3.200  0.00  0.00    -0.002 A 
ATOM      7  C5  OXE d   1       1.123   0.946   2.972  0.00  0.00    -0.002 A 
ATOM      8  C6  OXE d   1       1.389   0.137   1.873  0.00  0.00     0.003 A 
ENDROOT
TORSDOF 0
ENDMDL
