MODEL 1
REMARK minimizedAffinity -6.709692
REMARK minimizedRMSD -1
REMARK  0 active torsions:
REMARK  status: ('A' for Active; 'I' for Inactive)
ROOT
ATOM      1  C2' OXE d   1       0.577  -0.478  -0.655  0.00  0.00     0.078 C 
ATOM      2  C1' OXE d   1      -2.075   0.354  -0.265  0.00  0.00     0.078 C 
ATOM      3  C1  OXE d   1      -1.119   0.486   0.894  0.00  0.00    -0.078 A 
ATOM      4  C2  OXE d   1       0.165   0.034   0.708  0.00  0.00    -0.078 A 
ATOM      5  C3  OXE d   1       1.103   0.182   1.727  0.00  0.00     0.003 A 
ATOM      6  C4  OXE d   1       0.711   0.646   2.988  0.00  0.00    -0.002 A 
ATOM      7  C5  OXE d   1      -0.602   1.076   3.211  0.00  0.00    -0.002 A 
ATOM      8  C6  OXE d   1      -1.516   1.042   2.164  0.00  0.00     0.003 A 
ENDROOT
TORSDOF 0
ENDMDL
