MODEL 1
REMARK minimizedAffinity -4.05105543
REMARK minimizedRMSD -1
REMARK  0 active torsions:
REMARK  status: ('A' for Active; 'I' for Inactive)
ROOT
ATOM      1  C2' OXE d   1       1.659   0.928   2.452  0.00  0.00     0.078 C 
ATOM      2  C1' OXE d   1      -1.096   0.902   2.988  0.00  0.00     0.078 C 
ATOM      3  C1  OXE d   1      -0.640   0.447   1.624  0.00  0.00    -0.078 A 
ATOM      4  C2  OXE d   1       0.706   0.507   1.355  0.00  0.00    -0.078 A 
ATOM      5  C3  OXE d   1       1.185   0.048   0.131  0.00  0.00     0.003 A 
ATOM      6  C4  OXE d   1       0.296  -0.330  -0.882  0.00  0.00    -0.002 A 
ATOM      7  C5  OXE d   1      -1.082  -0.361  -0.642  0.00  0.00    -0.002 A 
ATOM      8  C6  OXE d   1      -1.562  -0.017   0.617  0.00  0.00     0.003 A 
ENDROOT
TORSDOF 0
ENDMDL
