MODEL 1
REMARK minimizedAffinity -5.62437677
REMARK minimizedRMSD -1
REMARK  0 active torsions:
REMARK  status: ('A' for Active; 'I' for Inactive)
ROOT
ATOM      1  C2' OXE d   1       0.801  -0.744  -0.356  0.00  0.00     0.078 C 
ATOM      2  C1' OXE d   1      -1.764   0.391  -0.239  0.00  0.00     0.078 C 
ATOM      3  C1  OXE d   1      -0.912   0.449   1.004  0.00  0.00    -0.078 A 
ATOM      4  C2  OXE d   1       0.324  -0.150   0.952  0.00  0.00    -0.078 A 
ATOM      5  C3  OXE d   1       1.172  -0.078   2.054  0.00  0.00     0.003 A 
ATOM      6  C4  OXE d   1       0.719   0.464   3.262  0.00  0.00    -0.002 A 
ATOM      7  C5  OXE d   1      -0.551   1.044   3.349  0.00  0.00    -0.002 A 
ATOM      8  C6  OXE d   1      -1.361   1.083   2.219  0.00  0.00     0.003 A 
ENDROOT
TORSDOF 0
ENDMDL
