MODEL 1
REMARK minimizedAffinity -5.34039831
REMARK minimizedRMSD -1
REMARK  0 active torsions:
REMARK  status: ('A' for Active; 'I' for Inactive)
ROOT
ATOM      1  C2' OXE d   1       0.973  -0.991  -0.235  0.00  0.00     0.078 C 
ATOM      2  C1' OXE d   1       2.493  -0.648   2.099  0.00  0.00     0.078 C 
ATOM      3  C1  OXE d   1       1.091  -0.093   2.085  0.00  0.00    -0.078 A 
ATOM      4  C2  OXE d   1       0.371  -0.224   0.923  0.00  0.00    -0.078 A 
ATOM      5  C3  OXE d   1      -0.947   0.222   0.874  0.00  0.00     0.003 A 
ATOM      6  C4  OXE d   1      -1.492   0.939   1.946  0.00  0.00    -0.002 A 
ATOM      7  C5  OXE d   1      -0.762   1.118   3.125  0.00  0.00    -0.002 A 
ATOM      8  C6  OXE d   1       0.513   0.573   3.227  0.00  0.00     0.003 A 
ENDROOT
TORSDOF 0
ENDMDL
