MODEL 1
REMARK minimizedAffinity -4.99416113
REMARK minimizedRMSD -1
REMARK  0 active torsions:
REMARK  status: ('A' for Active; 'I' for Inactive)
ROOT
ATOM      1  C2' OXE d   1       0.211  -0.374  -0.762  0.00  0.00     0.078 C 
ATOM      2  C1' OXE d   1       2.189  -0.716   1.201  0.00  0.00     0.078 C 
ATOM      3  C1  OXE d   1       0.871  -0.119   1.627  0.00  0.00    -0.078 A 
ATOM      4  C2  OXE d   1      -0.074   0.088   0.651  0.00  0.00    -0.078 A 
ATOM      5  C3  OXE d   1      -1.327   0.585   0.999  0.00  0.00     0.003 A 
ATOM      6  C4  OXE d   1      -1.580   1.018   2.306  0.00  0.00    -0.002 A 
ATOM      7  C5  OXE d   1      -0.617   0.853   3.308  0.00  0.00    -0.002 A 
ATOM      8  C6  OXE d   1       0.595   0.248   2.994  0.00  0.00     0.003 A 
ENDROOT
TORSDOF 0
ENDMDL
