MODEL 1
REMARK minimizedAffinity -5.14218044
REMARK minimizedRMSD -1
REMARK  0 active torsions:
REMARK  status: ('A' for Active; 'I' for Inactive)
ROOT
ATOM      1  C2' OXE d   1      -2.021   0.988   1.303  0.00  0.00     0.078 C 
ATOM      2  C1' OXE d   1      -0.273  -0.284  -0.488  0.00  0.00     0.078 C 
ATOM      3  C1  OXE d   1       0.200  -0.078   0.930  0.00  0.00    -0.078 A 
ATOM      4  C2  OXE d   1      -0.644   0.587   1.787  0.00  0.00    -0.078 A 
ATOM      5  C3  OXE d   1      -0.280   0.755   3.120  0.00  0.00     0.003 A 
ATOM      6  C4  OXE d   1       0.999   0.391   3.557  0.00  0.00    -0.002 A 
ATOM      7  C5  OXE d   1       1.889  -0.252   2.689  0.00  0.00    -0.002 A 
ATOM      8  C6  OXE d   1       1.490  -0.532   1.387  0.00  0.00     0.003 A 
ENDROOT
TORSDOF 0
ENDMDL
