MODEL 1
REMARK minimizedAffinity -4.97954512
REMARK minimizedRMSD -1
REMARK  1 active torsions:
REMARK  status: ('A' for Active; 'I' for Inactive)
REMARK    1  A    between atoms: N_2  and  C1_3 
ROOT
ATOM      1  C1  UNL d   1       0.355   0.205  -0.919  0.00  0.00     0.143 A 
ATOM      2  C2  UNL d   1       1.058   0.965  -1.860  0.00  0.00    -0.057 A 
ATOM      3  C3  UNL d   1       2.319   0.565  -2.320  0.00  0.00     0.033 A 
ATOM      4  C4  UNL d   1       2.912  -0.591  -1.825  0.00  0.00    -0.042 A 
ATOM      5  C5  UNL d   1       2.242  -1.349  -0.871  0.00  0.00     0.033 A 
ATOM      6  C6  UNL d   1       0.981  -0.948  -0.420  0.00  0.00    -0.057 A 
ENDROOT
BRANCH   1   7
ATOM      7  N   UNL d   1      -0.858   0.601  -0.349  0.00  0.00    -0.732 N 
ATOM      8  C   UNL d   1      -0.942   0.913   1.061  0.00  0.00     0.284 C 
ATOM      9  H3  UNL d   1      -1.379   1.237  -0.948  0.00  0.00     0.395 HD
ENDBRANCH   1   7
TORSDOF 1
ENDMDL
