MODEL 1
REMARK minimizedAffinity -5.34431791
REMARK minimizedRMSD -1
REMARK  1 active torsions:
REMARK  status: ('A' for Active; 'I' for Inactive)
REMARK    1  A    between atoms: N_2  and  C1_3 
ROOT
ATOM      1  C1  UNL d   1       0.068  -0.472   0.160  0.00  0.00     0.143 A 
ATOM      2  C2  UNL d   1       0.260  -1.617  -0.620  0.00  0.00    -0.057 A 
ATOM      3  C3  UNL d   1       1.435  -1.805  -1.358  0.00  0.00     0.033 A 
ATOM      4  C4  UNL d   1       2.430  -0.834  -1.351  0.00  0.00    -0.042 A 
ATOM      5  C5  UNL d   1       2.251   0.324  -0.603  0.00  0.00     0.033 A 
ATOM      6  C6  UNL d   1       1.078   0.503   0.137  0.00  0.00    -0.057 A 
ENDROOT
BRANCH   1   7
ATOM      7  N   UNL d   1      -1.119  -0.182   0.837  0.00  0.00    -0.732 N 
ATOM      8  C   UNL d   1      -1.416   1.171   1.257  0.00  0.00     0.284 C 
ATOM      9  H3  UNL d   1      -1.917  -0.683   0.454  0.00  0.00     0.395 HD
ENDBRANCH   1   7
TORSDOF 1
ENDMDL
