MODEL 1
REMARK minimizedAffinity -3.92868161
REMARK minimizedRMSD -1
REMARK  1 active torsions:
REMARK  status: ('A' for Active; 'I' for Inactive)
REMARK    1  A    between atoms: N_2  and  C1_3 
ROOT
ATOM      1  C1  UNL d   1      -0.150  -0.127  -0.044  0.00  0.00     0.143 A 
ATOM      2  C2  UNL d   1      -0.032  -1.430  -0.540  0.00  0.00    -0.057 A 
ATOM      3  C3  UNL d   1       1.211  -1.953  -0.916  0.00  0.00     0.033 A 
ATOM      4  C4  UNL d   1       2.357  -1.170  -0.830  0.00  0.00    -0.042 A 
ATOM      5  C5  UNL d   1       2.259   0.136  -0.364  0.00  0.00     0.033 A 
ATOM      6  C6  UNL d   1       1.016   0.651   0.016  0.00  0.00    -0.057 A 
ENDROOT
BRANCH   1   7
ATOM      7  N   UNL d   1      -1.371   0.484   0.254  0.00  0.00    -0.732 N 
ATOM      8  C   UNL d   1      -1.782   0.680   1.627  0.00  0.00     0.284 C 
ATOM      9  H3  UNL d   1      -1.568   1.275  -0.356  0.00  0.00     0.395 HD
ENDBRANCH   1   7
TORSDOF 1
ENDMDL
