MODEL 1
REMARK minimizedAffinity -4.39905119
REMARK minimizedRMSD -1
REMARK  1 active torsions:
REMARK  status: ('A' for Active; 'I' for Inactive)
REMARK    1  A    between atoms: N_2  and  C1_3 
ROOT
ATOM      1  C1  UNL d   1       1.241   0.102  -0.576  0.00  0.00     0.143 A 
ATOM      2  C2  UNL d   1       0.218  -0.434   0.214  0.00  0.00    -0.057 A 
ATOM      3  C3  UNL d   1      -1.048   0.162   0.265  0.00  0.00     0.033 A 
ATOM      4  C4  UNL d   1      -1.305   1.325  -0.453  0.00  0.00    -0.042 A 
ATOM      5  C5  UNL d   1      -0.296   1.889  -1.225  0.00  0.00     0.033 A 
ATOM      6  C6  UNL d   1       0.964   1.285  -1.278  0.00  0.00    -0.057 A 
ENDROOT
BRANCH   1   7
ATOM      7  N   UNL d   1       2.549  -0.389  -0.592  0.00  0.00    -0.732 N 
ATOM      8  C   UNL d   1       3.055  -1.100  -1.746  0.00  0.00     0.284 C 
ATOM      9  H3  UNL d   1       3.213   0.264  -0.182  0.00  0.00     0.395 HD
ENDBRANCH   1   7
TORSDOF 1
ENDMDL
