MODEL 1
REMARK minimizedAffinity -4.24383211
REMARK minimizedRMSD -1
REMARK  1 active torsions:
REMARK  status: ('A' for Active; 'I' for Inactive)
REMARK    1  A    between atoms: N_2  and  C1_3 
ROOT
ATOM      1  C1  UNL d   1      -0.253  -0.414   0.047  0.00  0.00     0.143 A 
ATOM      2  C2  UNL d   1      -0.114  -1.723  -0.427  0.00  0.00    -0.057 A 
ATOM      3  C3  UNL d   1       0.982  -2.097  -1.214  0.00  0.00     0.033 A 
ATOM      4  C4  UNL d   1       1.947  -1.159  -1.565  0.00  0.00    -0.042 A 
ATOM      5  C5  UNL d   1       1.816   0.154  -1.125  0.00  0.00     0.033 A 
ATOM      6  C6  UNL d   1       0.722   0.520  -0.335  0.00  0.00    -0.057 A 
ENDROOT
BRANCH   1   7
ATOM      7  N   UNL d   1      -1.370   0.043   0.751  0.00  0.00    -0.732 N 
ATOM      8  C   UNL d   1      -1.264   0.408   2.147  0.00  0.00     0.284 C 
ATOM      9  H3  UNL d   1      -1.945   0.676   0.198  0.00  0.00     0.395 HD
ENDBRANCH   1   7
TORSDOF 1
ENDMDL
