MODEL 1
REMARK minimizedAffinity -4.79769421
REMARK minimizedRMSD -1
REMARK  1 active torsions:
REMARK  status: ('A' for Active; 'I' for Inactive)
REMARK    1  A    between atoms: N_2  and  C1_3 
ROOT
ATOM      1  C1  UNL d   1       0.268  -0.511  -0.411  0.00  0.00     0.143 A 
ATOM      2  C2  UNL d   1       0.689  -1.529  -1.272  0.00  0.00    -0.057 A 
ATOM      3  C3  UNL d   1       1.926  -1.462  -1.926  0.00  0.00     0.033 A 
ATOM      4  C4  UNL d   1       2.752  -0.357  -1.751  0.00  0.00    -0.042 A 
ATOM      5  C5  UNL d   1       2.343   0.679  -0.920  0.00  0.00     0.033 A 
ATOM      6  C6  UNL d   1       1.110   0.603  -0.264  0.00  0.00    -0.057 A 
ENDROOT
BRANCH   1   7
ATOM      7  N   UNL d   1      -0.992  -0.472   0.191  0.00  0.00    -0.732 N 
ATOM      8  C   UNL d   1      -1.338   0.590   1.111  0.00  0.00     0.284 C 
ATOM      9  H3  UNL d   1      -1.739  -0.723  -0.454  0.00  0.00     0.395 HD
ENDBRANCH   1   7
TORSDOF 1
ENDMDL
