MODEL 1
REMARK minimizedAffinity -3.82537794
REMARK minimizedRMSD -1
REMARK  1 active torsions:
REMARK  status: ('A' for Active; 'I' for Inactive)
REMARK    1  A    between atoms: N_2  and  C1_3 
ROOT
ATOM      1  C1  UNL d   1       0.620   0.354  -0.186  0.00  0.00     0.143 A 
ATOM      2  C2  UNL d   1       1.530   1.003  -1.028  0.00  0.00    -0.057 A 
ATOM      3  C3  UNL d   1       2.410   0.280  -1.841  0.00  0.00     0.033 A 
ATOM      4  C4  UNL d   1       2.415  -1.111  -1.806  0.00  0.00    -0.042 A 
ATOM      5  C5  UNL d   1       1.537  -1.777  -0.959  0.00  0.00     0.033 A 
ATOM      6  C6  UNL d   1       0.656  -1.049  -0.154  0.00  0.00    -0.057 A 
ENDROOT
BRANCH   1   7
ATOM      7  N   UNL d   1      -0.213   1.017   0.719  0.00  0.00    -0.732 N 
ATOM      8  C   UNL d   1      -1.218   0.290   1.464  0.00  0.00     0.284 C 
ATOM      9  H3  UNL d   1       0.286   1.715   1.265  0.00  0.00     0.395 HD
ENDBRANCH   1   7
TORSDOF 1
ENDMDL
