MODEL 1
REMARK minimizedAffinity -3.46766472
REMARK minimizedRMSD -1
REMARK  1 active torsions:
REMARK  status: ('A' for Active; 'I' for Inactive)
REMARK    1  A    between atoms: N_2  and  C1_3 
ROOT
ATOM      1  C1  UNL d   1       0.992   1.054  -0.760  0.00  0.00     0.143 A 
ATOM      2  C2  UNL d   1       1.957   0.159  -1.234  0.00  0.00    -0.057 A 
ATOM      3  C3  UNL d   1       2.599   0.366  -2.462  0.00  0.00     0.033 A 
ATOM      4  C4  UNL d   1       2.264   1.460  -3.253  0.00  0.00    -0.042 A 
ATOM      5  C5  UNL d   1       1.290   2.349  -2.813  0.00  0.00     0.033 A 
ATOM      6  C6  UNL d   1       0.658   2.141  -1.584  0.00  0.00    -0.057 A 
ENDROOT
BRANCH   1   7
ATOM      7  N   UNL d   1       0.249   0.851   0.405  0.00  0.00    -0.732 N 
ATOM      8  C   UNL d   1      -0.553  -0.343   0.569  0.00  0.00     0.284 C 
ATOM      9  H3  UNL d   1       0.754   1.131   1.242  0.00  0.00     0.395 HD
ENDBRANCH   1   7
TORSDOF 1
ENDMDL
