MODEL 1
REMARK minimizedAffinity -1.60940051
REMARK minimizedRMSD -1
REMARK  1 active torsions:
REMARK  status: ('A' for Active; 'I' for Inactive)
REMARK    1  A    between atoms: N_2  and  C1_3 
ROOT
ATOM      1  C1  UNL d   1      -0.019  -0.002   0.489  0.00  0.00     0.143 A 
ATOM      2  C2  UNL d   1      -0.164  -1.169  -0.270  0.00  0.00    -0.057 A 
ATOM      3  C3  UNL d   1       0.786  -1.532  -1.232  0.00  0.00     0.033 A 
ATOM      4  C4  UNL d   1       1.887  -0.717  -1.473  0.00  0.00    -0.042 A 
ATOM      5  C5  UNL d   1       2.039   0.460  -0.748  0.00  0.00     0.033 A 
ATOM      6  C6  UNL d   1       1.090   0.814   0.216  0.00  0.00    -0.057 A 
ENDROOT
BRANCH   1   7
ATOM      7  N   UNL d   1      -0.980   0.463   1.390  0.00  0.00    -0.732 N 
ATOM      8  C   UNL d   1      -2.388   0.405   1.062  0.00  0.00     0.284 C 
ATOM      9  H3  UNL d   1      -0.765   0.209   2.352  0.00  0.00     0.395 HD
ENDBRANCH   1   7
TORSDOF 1
ENDMDL
