MODEL 1
REMARK minimizedAffinity -4.68800688
REMARK minimizedRMSD -1
REMARK  1 active torsions:
REMARK  status: ('A' for Active; 'I' for Inactive)
REMARK    1  A    between atoms: N_2  and  C1_3 
ROOT
ATOM      1  C1  UNL d   1       0.302  -0.611   0.331  0.00  0.00     0.143 A 
ATOM      2  C2  UNL d   1       1.312   0.301   0.008  0.00  0.00    -0.057 A 
ATOM      3  C3  UNL d   1       2.231   0.034  -1.015  0.00  0.00     0.033 A 
ATOM      4  C4  UNL d   1       2.173  -1.167  -1.714  0.00  0.00    -0.042 A 
ATOM      5  C5  UNL d   1       1.193  -2.099  -1.393  0.00  0.00     0.033 A 
ATOM      6  C6  UNL d   1       0.274  -1.824  -0.375  0.00  0.00    -0.057 A 
ENDROOT
BRANCH   1   7
ATOM      7  N   UNL d   1      -0.580  -0.447   1.402  0.00  0.00    -0.732 N 
ATOM      8  C   UNL d   1      -1.334   0.779   1.555  0.00  0.00     0.284 C 
ATOM      9  H3  UNL d   1      -1.115  -1.290   1.598  0.00  0.00     0.395 HD
ENDBRANCH   1   7
TORSDOF 1
ENDMDL
