MODEL 1
REMARK minimizedAffinity 0.636287689
REMARK minimizedRMSD -1
REMARK  1 active torsions:
REMARK  status: ('A' for Active; 'I' for Inactive)
REMARK    1  A    between atoms: N_2  and  C1_3 
ROOT
ATOM      1  C1  UNL d   1       1.371   0.451  -0.500  0.00  0.00     0.143 A 
ATOM      2  C2  UNL d   1       0.816   1.535  -1.187  0.00  0.00    -0.057 A 
ATOM      3  C3  UNL d   1      -0.570   1.729  -1.241  0.00  0.00     0.033 A 
ATOM      4  C4  UNL d   1      -1.429   0.821  -0.631  0.00  0.00    -0.042 A 
ATOM      5  C5  UNL d   1      -0.901  -0.278   0.037  0.00  0.00     0.033 A 
ATOM      6  C6  UNL d   1       0.484  -0.462   0.093  0.00  0.00    -0.057 A 
ENDROOT
BRANCH   1   7
ATOM      7  N   UNL d   1       2.735   0.150  -0.493  0.00  0.00    -0.732 N 
ATOM      8  C   UNL d   1       3.279  -0.826  -1.414  0.00  0.00     0.284 C 
ATOM      9  H3  UNL d   1       3.315   0.977  -0.373  0.00  0.00     0.395 HD
ENDBRANCH   1   7
TORSDOF 1
ENDMDL
