MODEL 1
REMARK minimizedAffinity -4.65564442
REMARK minimizedRMSD -1
REMARK  1 active torsions:
REMARK  status: ('A' for Active; 'I' for Inactive)
REMARK    1  A    between atoms: C1_2  and  C2_3 
ROOT
ATOM      1  C2  UNL d   1      -1.093  -0.758  -0.216  0.00  0.00    -0.076 A 
ATOM      2  C3  UNL d   1      -0.893  -1.455   0.988  0.00  0.00     0.004 A 
ATOM      3  C4  UNL d   1       0.383  -1.595   1.532  0.00  0.00    -0.003 A 
ATOM      4  C5  UNL d   1       1.479  -1.039   0.882  0.00  0.00     0.000 A 
ATOM      5  C6  UNL d   1       1.296  -0.329  -0.304  0.00  0.00     0.000 A 
ATOM      6  C7  UNL d   1       0.015  -0.165  -0.858  0.00  0.00    -0.073 A 
ATOM      7  C8  UNL d   1      -0.122   0.605  -2.143  0.00  0.00     0.078 C 
ENDROOT
BRANCH   1   8
ATOM      8  C1  UNL d   1      -2.495  -0.662  -0.773  0.00  0.00     0.053 C 
ATOM      9  C   UNL d   1      -3.335  -1.889  -0.453  0.00  0.00     0.018 C 
ENDBRANCH   1   8
TORSDOF 1
ENDMDL
