MODEL 1
REMARK minimizedAffinity -0.369538546
REMARK minimizedRMSD -1
REMARK  1 active torsions:
REMARK  status: ('A' for Active; 'I' for Inactive)
REMARK    1  A    between atoms: C1_2  and  C2_3 
ROOT
ATOM      1  C2  UNL d   1       4.341   3.786   2.056  0.00  0.00    -0.076 A 
ATOM      2  C3  UNL d   1       5.424   4.682   2.050  0.00  0.00     0.004 A 
ATOM      3  C4  UNL d   1       5.995   5.125   3.242  0.00  0.00    -0.003 A 
ATOM      4  C5  UNL d   1       5.494   4.678   4.459  0.00  0.00     0.000 A 
ATOM      5  C6  UNL d   1       4.431   3.775   4.484  0.00  0.00     0.000 A 
ATOM      6  C7  UNL d   1       3.854   3.306   3.291  0.00  0.00    -0.073 A 
ATOM      7  C8  UNL d   1       2.706   2.338   3.377  0.00  0.00     0.078 C 
ENDROOT
BRANCH   1   8
ATOM      8  C1  UNL d   1       3.744   3.361   0.733  0.00  0.00     0.053 C 
ATOM      9  C   UNL d   1       4.363   4.095  -0.447  0.00  0.00     0.018 C 
ENDBRANCH   1   8
TORSDOF 1
ENDMDL
