MODEL 1
REMARK minimizedAffinity -6.32328033
REMARK minimizedRMSD -1
REMARK  1 active torsions:
REMARK  status: ('A' for Active; 'I' for Inactive)
REMARK    1  A    between atoms: C1_2  and  C2_3 
ROOT
ATOM      1  C2  UNL d   1      -0.097   0.018   0.503  0.00  0.00    -0.076 A 
ATOM      2  C3  UNL d   1      -0.492   0.944  -0.477  0.00  0.00     0.004 A 
ATOM      3  C4  UNL d   1      -1.618   0.717  -1.266  0.00  0.00    -0.003 A 
ATOM      4  C5  UNL d   1      -2.369  -0.439  -1.087  0.00  0.00     0.000 A 
ATOM      5  C6  UNL d   1      -2.002  -1.361  -0.107  0.00  0.00     0.000 A 
ATOM      6  C7  UNL d   1      -0.878  -1.140   0.708  0.00  0.00    -0.073 A 
ATOM      7  C8  UNL d   1      -0.525  -2.170   1.746  0.00  0.00     0.078 C 
ENDROOT
BRANCH   1   8
ATOM      8  C1  UNL d   1       1.149   0.304   1.310  0.00  0.00     0.053 C 
ATOM      9  C   UNL d   1       1.844   1.585   0.874  0.00  0.00     0.018 C 
ENDBRANCH   1   8
TORSDOF 1
ENDMDL
