MODEL 1
REMARK minimizedAffinity 5.85086632
REMARK minimizedRMSD -1
REMARK  1 active torsions:
REMARK  status: ('A' for Active; 'I' for Inactive)
REMARK    1  A    between atoms: C1_2  and  C2_3 
ROOT
ATOM      1  C2  UNL d   1      -0.846  -1.269  -0.336  0.00  0.00    -0.076 A 
ATOM      2  C3  UNL d   1      -1.414  -1.634   0.897  0.00  0.00     0.004 A 
ATOM      3  C4  UNL d   1      -0.630  -1.741   2.045  0.00  0.00    -0.003 A 
ATOM      4  C5  UNL d   1       0.735  -1.484   1.978  0.00  0.00     0.000 A 
ATOM      5  C6  UNL d   1       1.312  -1.103   0.767  0.00  0.00     0.000 A 
ATOM      6  C7  UNL d   1       0.533  -0.974  -0.396  0.00  0.00    -0.073 A 
ATOM      7  C8  UNL d   1       1.209  -0.566  -1.676  0.00  0.00     0.078 C 
ENDROOT
BRANCH   1   8
ATOM      8  C1  UNL d   1      -1.741  -1.195  -1.552  0.00  0.00     0.053 C 
ATOM      9  C   UNL d   1      -2.126   0.232  -1.907  0.00  0.00     0.018 C 
ENDBRANCH   1   8
TORSDOF 1
ENDMDL
