MODEL 1
REMARK minimizedAffinity 7.4686532
REMARK minimizedRMSD -1
REMARK  1 active torsions:
REMARK  status: ('A' for Active; 'I' for Inactive)
REMARK    1  A    between atoms: C1_2  and  C2_3 
ROOT
ATOM      1  C2  UNL d   1      -1.338  -1.324   3.253  0.00  0.00    -0.076 A 
ATOM      2  C3  UNL d   1      -0.685  -0.113   2.966  0.00  0.00     0.004 A 
ATOM      3  C4  UNL d   1      -1.197   1.103   3.416  0.00  0.00    -0.003 A 
ATOM      4  C5  UNL d   1      -2.371   1.127   4.162  0.00  0.00     0.000 A 
ATOM      5  C6  UNL d   1      -3.023  -0.066   4.471  0.00  0.00     0.000 A 
ATOM      6  C7  UNL d   1      -2.511  -1.302   4.038  0.00  0.00    -0.073 A 
ATOM      7  C8  UNL d   1      -3.258  -2.557   4.395  0.00  0.00     0.078 C 
ENDROOT
BRANCH   1   8
ATOM      8  C1  UNL d   1      -0.751  -2.609   2.715  0.00  0.00     0.053 C 
ATOM      9  C   UNL d   1       0.744  -2.502   2.453  0.00  0.00     0.018 C 
ENDBRANCH   1   8
TORSDOF 1
ENDMDL
