MODEL 1
REMARK minimizedAffinity -5.96207237
REMARK minimizedRMSD -1
REMARK  1 active torsions:
REMARK  status: ('A' for Active; 'I' for Inactive)
REMARK    1  A    between atoms: C1_2  and  C2_3 
ROOT
ATOM      1  C2  UNL d   1      -1.072  -0.177  -0.204  0.00  0.00    -0.076 A 
ATOM      2  C3  UNL d   1      -0.900  -0.546   1.142  0.00  0.00     0.004 A 
ATOM      3  C4  UNL d   1       0.302  -0.305   1.804  0.00  0.00    -0.003 A 
ATOM      4  C5  UNL d   1       1.353   0.309   1.132  0.00  0.00     0.000 A 
ATOM      5  C6  UNL d   1       1.194   0.698  -0.198  0.00  0.00     0.000 A 
ATOM      6  C7  UNL d   1      -0.017   0.477  -0.875  0.00  0.00    -0.073 A 
ATOM      7  C8  UNL d   1      -0.130   0.911  -2.311  0.00  0.00     0.078 C 
ENDROOT
BRANCH   1   8
ATOM      8  C1  UNL d   1      -2.388  -0.489  -0.878  0.00  0.00     0.053 C 
ATOM      9  C   UNL d   1      -3.561  -0.455   0.090  0.00  0.00     0.018 C 
ENDBRANCH   1   8
TORSDOF 1
ENDMDL
