MODEL 1
REMARK minimizedAffinity -1.59168768
REMARK minimizedRMSD -1
REMARK  1 active torsions:
REMARK  status: ('A' for Active; 'I' for Inactive)
REMARK    1  A    between atoms: C1_2  and  C2_3 
ROOT
ATOM      1  C2  UNL d   1      -0.282  -0.559  -3.552  0.00  0.00    -0.076 A 
ATOM      2  C3  UNL d   1       0.342   0.066  -2.458  0.00  0.00     0.004 A 
ATOM      3  C4  UNL d   1      -0.304   0.173  -1.228  0.00  0.00    -0.003 A 
ATOM      4  C5  UNL d   1      -1.585  -0.344  -1.071  0.00  0.00     0.000 A 
ATOM      5  C6  UNL d   1      -2.213  -0.983  -2.139  0.00  0.00     0.000 A 
ATOM      6  C7  UNL d   1      -1.569  -1.114  -3.382  0.00  0.00    -0.073 A 
ATOM      7  C8  UNL d   1      -2.295  -1.807  -4.502  0.00  0.00     0.078 C 
ENDROOT
BRANCH   1   8
ATOM      8  C1  UNL d   1       0.457  -0.622  -4.869  0.00  0.00     0.053 C 
ATOM      9  C   UNL d   1       1.179   0.676  -5.194  0.00  0.00     0.018 C 
ENDBRANCH   1   8
TORSDOF 1
ENDMDL
