MODEL 1
REMARK minimizedAffinity 12.7361526
REMARK minimizedRMSD -1
REMARK  1 active torsions:
REMARK  status: ('A' for Active; 'I' for Inactive)
REMARK    1  A    between atoms: C1_2  and  C2_3 
ROOT
ATOM      1  C2  UNL d   1      -4.303   3.983  -0.219  0.00  0.00    -0.076 A 
ATOM      2  C3  UNL d   1      -4.483   4.169   1.162  0.00  0.00     0.004 A 
ATOM      3  C4  UNL d   1      -5.324   5.169   1.648  0.00  0.00    -0.003 A 
ATOM      4  C5  UNL d   1      -6.000   5.999   0.759  0.00  0.00     0.000 A 
ATOM      5  C6  UNL d   1      -5.846   5.817  -0.615  0.00  0.00     0.000 A 
ATOM      6  C7  UNL d   1      -5.015   4.803  -1.121  0.00  0.00    -0.073 A 
ATOM      7  C8  UNL d   1      -4.882   4.656  -2.612  0.00  0.00     0.078 C 
ENDROOT
BRANCH   1   8
ATOM      8  C1  UNL d   1      -3.357   2.901  -0.687  0.00  0.00     0.053 C 
ATOM      9  C   UNL d   1      -3.134   1.827   0.367  0.00  0.00     0.018 C 
ENDBRANCH   1   8
TORSDOF 1
ENDMDL
