MODEL 1
REMARK minimizedAffinity -2.34790421
REMARK minimizedRMSD -1
REMARK  1 active torsions:
REMARK  status: ('A' for Active; 'I' for Inactive)
REMARK    1  A    between atoms: C1_2  and  C2_3 
ROOT
ATOM      1  C2  UNL d   1      -0.597  -1.816   0.323  0.00  0.00    -0.076 A 
ATOM      2  C3  UNL d   1      -1.300  -3.017   0.521  0.00  0.00     0.004 A 
ATOM      3  C4  UNL d   1      -2.366  -3.370  -0.305  0.00  0.00    -0.003 A 
ATOM      4  C5  UNL d   1      -2.745  -2.527  -1.344  0.00  0.00     0.000 A 
ATOM      5  C6  UNL d   1      -2.048  -1.340  -1.567  0.00  0.00     0.000 A 
ATOM      6  C7  UNL d   1      -0.961  -0.978  -0.753  0.00  0.00    -0.073 A 
ATOM      7  C8  UNL d   1      -0.248   0.317  -1.034  0.00  0.00     0.078 C 
ENDROOT
BRANCH   1   8
ATOM      8  C1  UNL d   1       0.533  -1.474   1.268  0.00  0.00     0.053 C 
ATOM      9  C   UNL d   1       0.034  -0.948   2.605  0.00  0.00     0.018 C 
ENDBRANCH   1   8
TORSDOF 1
ENDMDL
