MODEL 1
REMARK minimizedAffinity -4.21613884
REMARK minimizedRMSD -1
REMARK  1 active torsions:
REMARK  status: ('A' for Active; 'I' for Inactive)
REMARK    1  A    between atoms: C1_2  and  C2_3 
ROOT
ATOM      1  C2  UNL d   1      -0.382  -0.720   0.188  0.00  0.00    -0.076 A 
ATOM      2  C3  UNL d   1       0.031  -1.611   1.195  0.00  0.00     0.004 A 
ATOM      3  C4  UNL d   1      -0.778  -2.676   1.586  0.00  0.00    -0.003 A 
ATOM      4  C5  UNL d   1      -2.013  -2.869   0.976  0.00  0.00     0.000 A 
ATOM      5  C6  UNL d   1      -2.431  -2.007  -0.037  0.00  0.00     0.000 A 
ATOM      6  C7  UNL d   1      -1.620  -0.937  -0.454  0.00  0.00    -0.073 A 
ATOM      7  C8  UNL d   1      -2.123  -0.034  -1.547  0.00  0.00     0.078 C 
ENDROOT
BRANCH   1   8
ATOM      8  C1  UNL d   1       0.525   0.433  -0.176  0.00  0.00     0.053 C 
ATOM      9  C   UNL d   1       1.491   0.790   0.944  0.00  0.00     0.018 C 
ENDBRANCH   1   8
TORSDOF 1
ENDMDL
