MODEL 1
REMARK minimizedAffinity -5.33068943
REMARK minimizedRMSD -1
REMARK  1 active torsions:
REMARK  status: ('A' for Active; 'I' for Inactive)
REMARK    1  A    between atoms: C1_2  and  C2_3 
ROOT
ATOM      1  C2  UNL d   1       1.438   0.645   0.418  0.00  0.00    -0.076 A 
ATOM      2  C3  UNL d   1       2.263   1.725   0.056  0.00  0.00     0.004 A 
ATOM      3  C4  UNL d   1       2.792   2.579   1.022  0.00  0.00    -0.003 A 
ATOM      4  C5  UNL d   1       2.506   2.367   2.366  0.00  0.00     0.000 A 
ATOM      5  C6  UNL d   1       1.704   1.290   2.745  0.00  0.00     0.000 A 
ATOM      6  C7  UNL d   1       1.176   0.410   1.785  0.00  0.00    -0.073 A 
ATOM      7  C8  UNL d   1       0.313  -0.731   2.249  0.00  0.00     0.078 C 
ENDROOT
BRANCH   1   8
ATOM      8  C1  UNL d   1       0.871  -0.231  -0.675  0.00  0.00     0.053 C 
ATOM      9  C   UNL d   1      -0.542   0.171  -1.070  0.00  0.00     0.018 C 
ENDBRANCH   1   8
TORSDOF 1
ENDMDL
