MODEL 1
REMARK minimizedAffinity -0.537929952
REMARK minimizedRMSD -1
REMARK  1 active torsions:
REMARK  status: ('A' for Active; 'I' for Inactive)
REMARK    1  A    between atoms: C1_2  and  C2_3 
ROOT
ATOM      1  C2  UNL d   1       0.671   0.005   2.119  0.00  0.00    -0.076 A 
ATOM      2  C3  UNL d   1       1.125  -1.109   1.392  0.00  0.00     0.004 A 
ATOM      3  C4  UNL d   1       0.297  -2.208   1.171  0.00  0.00    -0.003 A 
ATOM      4  C5  UNL d   1      -0.999  -2.211   1.675  0.00  0.00     0.000 A 
ATOM      5  C6  UNL d   1      -1.472  -1.108   2.383  0.00  0.00     0.000 A 
ATOM      6  C7  UNL d   1      -0.656   0.015   2.600  0.00  0.00    -0.073 A 
ATOM      7  C8  UNL d   1      -1.215   1.176   3.377  0.00  0.00     0.078 C 
ENDROOT
BRANCH   1   8
ATOM      8  C1  UNL d   1       1.623   1.157   2.350  0.00  0.00     0.053 C 
ATOM      9  C   UNL d   1       2.128   1.765   1.050  0.00  0.00     0.018 C 
ENDBRANCH   1   8
TORSDOF 1
ENDMDL
