MODEL 1
REMARK minimizedAffinity 0.0399059244
REMARK minimizedRMSD -1
REMARK  0 active torsions:
REMARK  status: ('A' for Active; 'I' for Inactive)
ROOT
ATOM      1  C   UNL d   1       2.539  -0.233   1.369  0.00  0.00     0.020 A 
ATOM      2  C1  UNL d   1       2.925  -1.158   0.400  0.00  0.00     0.020 A 
ATOM      3  C2  UNL d   1       2.005  -1.590  -0.559  0.00  0.00     0.034 A 
ATOM      4  C3  UNL d   1       0.695  -1.097  -0.550  0.00  0.00     0.017 A 
ATOM      5  C4  UNL d   1       0.309  -0.168   0.423  0.00  0.00     0.017 A 
ATOM      6  C5  UNL d   1       1.234   0.261   1.380  0.00  0.00     0.034 A 
ATOM      7 Cl   UNL d   1      -1.289   0.485   0.498  0.00  0.00    -0.070 Cl
ATOM      8 Cl1  UNL d   1      -0.389  -1.674  -1.765  0.00  0.00    -0.070 Cl
ENDROOT
TORSDOF 0
ENDMDL
