MODEL 1
REMARK minimizedAffinity -3.48024583
REMARK minimizedRMSD -1
REMARK  0 active torsions:
REMARK  status: ('A' for Active; 'I' for Inactive)
ROOT
ATOM      1  C   UNL d   1      -0.577  -0.547  -0.798  0.00  0.00     0.020 A 
ATOM      2  C1  UNL d   1      -0.756   0.823  -0.611  0.00  0.00     0.020 A 
ATOM      3  C2  UNL d   1       0.142   1.542   0.181  0.00  0.00     0.034 A 
ATOM      4  C3  UNL d   1       1.223   0.892   0.787  0.00  0.00     0.017 A 
ATOM      5  C4  UNL d   1       1.401  -0.483   0.599  0.00  0.00     0.017 A 
ATOM      6  C5  UNL d   1       0.499  -1.199  -0.195  0.00  0.00     0.034 A 
ATOM      7 Cl   UNL d   1       2.710  -1.355   1.315  0.00  0.00    -0.070 Cl
ATOM      8 Cl1  UNL d   1       2.294   1.844   1.753  0.00  0.00    -0.070 Cl
ENDROOT
TORSDOF 0
ENDMDL
