MODEL 1
REMARK minimizedAffinity -2.37828684
REMARK minimizedRMSD -1
REMARK  0 active torsions:
REMARK  status: ('A' for Active; 'I' for Inactive)
ROOT
ATOM      1  C   UNL d   1       2.508  -1.633   0.922  0.00  0.00     0.020 A 
ATOM      2  C1  UNL d   1       2.184  -0.453   1.592  0.00  0.00     0.020 A 
ATOM      3  C2  UNL d   1       1.090   0.308   1.175  0.00  0.00     0.034 A 
ATOM      4  C3  UNL d   1       0.316  -0.108   0.086  0.00  0.00     0.017 A 
ATOM      5  C4  UNL d   1       0.642  -1.292  -0.586  0.00  0.00     0.017 A 
ATOM      6  C5  UNL d   1       1.739  -2.051  -0.164  0.00  0.00     0.034 A 
ATOM      7 Cl   UNL d   1      -0.265  -1.871  -1.938  0.00  0.00    -0.070 Cl
ATOM      8 Cl1  UNL d   1      -1.022   0.882  -0.375  0.00  0.00    -0.070 Cl
ENDROOT
TORSDOF 0
ENDMDL
