MODEL 1
REMARK minimizedAffinity -3.22422314
REMARK minimizedRMSD -1
REMARK  0 active torsions:
REMARK  status: ('A' for Active; 'I' for Inactive)
ROOT
ATOM      1  C   UNL d   1       2.449  -1.832   1.135  0.00  0.00     0.020 A 
ATOM      2  C1  UNL d   1       1.910  -0.908   2.029  0.00  0.00     0.020 A 
ATOM      3  C2  UNL d   1       0.784  -0.164   1.670  0.00  0.00     0.034 A 
ATOM      4  C3  UNL d   1       0.193  -0.344   0.414  0.00  0.00     0.017 A 
ATOM      5  C4  UNL d   1       0.734  -1.272  -0.482  0.00  0.00     0.017 A 
ATOM      6  C5  UNL d   1       1.862  -2.014  -0.117  0.00  0.00     0.034 A 
ATOM      7 Cl   UNL d   1       0.060  -1.549  -2.049  0.00  0.00    -0.070 Cl
ATOM      8 Cl1  UNL d   1      -1.198   0.610   0.037  0.00  0.00    -0.070 Cl
ENDROOT
TORSDOF 0
ENDMDL
