MODEL 1
REMARK minimizedAffinity -4.70418835
REMARK minimizedRMSD -1
REMARK  0 active torsions:
REMARK  status: ('A' for Active; 'I' for Inactive)
ROOT
ATOM      1  C   UNL d   1       1.625  -2.225   0.544  0.00  0.00     0.020 A 
ATOM      2  C1  UNL d   1       2.856  -1.664   0.884  0.00  0.00     0.020 A 
ATOM      3  C2  UNL d   1       3.049  -0.286   0.775  0.00  0.00     0.034 A 
ATOM      4  C3  UNL d   1       2.010   0.537   0.326  0.00  0.00     0.017 A 
ATOM      5  C4  UNL d   1       0.775  -0.026  -0.014  0.00  0.00     0.017 A 
ATOM      6  C5  UNL d   1       0.587  -1.407   0.097  0.00  0.00     0.034 A 
ATOM      7 Cl   UNL d   1      -0.555   0.925  -0.575  0.00  0.00    -0.070 Cl
ATOM      8 Cl1  UNL d   1       2.318   2.234   0.217  0.00  0.00    -0.070 Cl
ENDROOT
TORSDOF 0
ENDMDL
