MODEL 1
REMARK minimizedAffinity -2.1188693
REMARK minimizedRMSD -1
REMARK  0 active torsions:
REMARK  status: ('A' for Active; 'I' for Inactive)
ROOT
ATOM      1  C   UNL d   1      -2.215  -0.441   0.431  0.00  0.00     0.020 A 
ATOM      2  C1  UNL d   1      -1.732  -1.749   0.459  0.00  0.00     0.020 A 
ATOM      3  C2  UNL d   1      -0.400  -2.008   0.131  0.00  0.00     0.034 A 
ATOM      4  C3  UNL d   1       0.454  -0.959  -0.227  0.00  0.00     0.017 A 
ATOM      5  C4  UNL d   1      -0.032   0.354  -0.255  0.00  0.00     0.017 A 
ATOM      6  C5  UNL d   1      -1.367   0.608   0.075  0.00  0.00     0.034 A 
ATOM      7 Cl   UNL d   1       0.961   1.701  -0.687  0.00  0.00    -0.070 Cl
ATOM      8 Cl1  UNL d   1       2.089  -1.352  -0.621  0.00  0.00    -0.070 Cl
ENDROOT
TORSDOF 0
ENDMDL
