MODEL 1
REMARK minimizedAffinity -4.09195089
REMARK minimizedRMSD -1
REMARK  0 active torsions:
REMARK  status: ('A' for Active; 'I' for Inactive)
ROOT
ATOM      1  C   UNL d   1       3.165   1.182   0.028  0.00  0.00     0.020 A 
ATOM      2  C1  UNL d   1       3.725  -0.088  -0.102  0.00  0.00     0.020 A 
ATOM      3  C2  UNL d   1       2.898  -1.211  -0.183  0.00  0.00     0.034 A 
ATOM      4  C3  UNL d   1       1.506  -1.065  -0.135  0.00  0.00     0.017 A 
ATOM      5  C4  UNL d   1       0.946   0.211  -0.005  0.00  0.00     0.017 A 
ATOM      6  C5  UNL d   1       1.778   1.331   0.076  0.00  0.00     0.034 A 
ATOM      7 Cl   UNL d   1      -0.762   0.471   0.062  0.00  0.00    -0.070 Cl
ATOM      8 Cl1  UNL d   1       0.544  -2.496  -0.241  0.00  0.00    -0.070 Cl
ENDROOT
TORSDOF 0
ENDMDL
