MODEL 1
REMARK minimizedAffinity -4.83881998
REMARK minimizedRMSD -1
REMARK  0 active torsions:
REMARK  status: ('A' for Active; 'I' for Inactive)
ROOT
ATOM      1  C   UNL d   1       1.159  -1.871  -0.193  0.00  0.00     0.020 A 
ATOM      2  C1  UNL d   1       2.152  -1.849   0.786  0.00  0.00     0.020 A 
ATOM      3  C2  UNL d   1       2.615  -0.629   1.284  0.00  0.00     0.034 A 
ATOM      4  C3  UNL d   1       2.086   0.574   0.802  0.00  0.00     0.017 A 
ATOM      5  C4  UNL d   1       1.090   0.551  -0.181  0.00  0.00     0.017 A 
ATOM      6  C5  UNL d   1       0.630  -0.673  -0.675  0.00  0.00     0.034 A 
ATOM      7 Cl   UNL d   1       0.389   1.994  -0.824  0.00  0.00    -0.070 Cl
ATOM      8 Cl1  UNL d   1       2.706   2.046   1.462  0.00  0.00    -0.070 Cl
ENDROOT
TORSDOF 0
ENDMDL
