MODEL 1
REMARK minimizedAffinity -3.46531057
REMARK minimizedRMSD -1
REMARK  0 active torsions:
REMARK  status: ('A' for Active; 'I' for Inactive)
ROOT
ATOM      1  C   UNL d   1       4.032   0.438   0.101  0.00  0.00     0.020 A 
ATOM      2  C1  UNL d   1       3.450   1.694   0.271  0.00  0.00     0.020 A 
ATOM      3  C2  UNL d   1       2.059   1.823   0.283  0.00  0.00     0.034 A 
ATOM      4  C3  UNL d   1       1.246   0.696   0.124  0.00  0.00     0.017 A 
ATOM      5  C4  UNL d   1       1.831  -0.564  -0.047  0.00  0.00     0.017 A 
ATOM      6  C5  UNL d   1       3.224  -0.688  -0.058  0.00  0.00     0.034 A 
ATOM      7 Cl   UNL d   1       0.893  -2.002  -0.250  0.00  0.00    -0.070 Cl
ATOM      8 Cl1  UNL d   1      -0.466   0.929   0.149  0.00  0.00    -0.070 Cl
ENDROOT
TORSDOF 0
ENDMDL
