MODEL 1
REMARK minimizedAffinity 37.5775719
REMARK minimizedRMSD -1
REMARK  0 active torsions:
REMARK  status: ('A' for Active; 'I' for Inactive)
ROOT
ATOM      1  C   UNL d   1      -2.481  -2.216  -0.920  0.00  0.00     0.124 A 
ATOM      2  C1  UNL d   1      -2.842  -2.722   0.321  0.00  0.00     0.062 A 
ATOM      3  C2  UNL d   1      -1.871  -2.970   1.286  0.00  0.00     0.162 A 
ATOM      4  C3  UNL d   1      -0.527  -2.712   1.014  0.00  0.00    -0.034 A 
ATOM      5  C4  UNL d   1      -0.171  -2.205  -0.236  0.00  0.00     0.162 A 
ATOM      6  C5  UNL d   1      -1.146  -1.958  -1.198  0.00  0.00     0.062 A 
ATOM      7  F   UNL d   1      -0.794  -1.469  -2.396  0.00  0.00    -0.097 F 
ATOM      8  F1  UNL d   1       1.112  -1.945  -0.531  0.00  0.00    -0.096 F 
ATOM      9  I   UNL d   1       0.929  -3.083   2.454  0.00  0.00    -0.060 I 
ATOM     10  F2  UNL d   1      -2.249  -3.459   2.476  0.00  0.00    -0.096 F 
ATOM     11  F3  UNL d   1      -4.132  -2.972   0.591  0.00  0.00    -0.097 F 
ATOM     12  F4  UNL d   1      -3.417  -1.978  -1.847  0.00  0.00    -0.092 F 
ENDROOT
TORSDOF 0
ENDMDL
