MODEL 1
REMARK minimizedAffinity 27.5622158
REMARK minimizedRMSD -1
REMARK  0 active torsions:
REMARK  status: ('A' for Active; 'I' for Inactive)
ROOT
ATOM      1  C   UNL d   1       3.207  -3.113  -4.831  0.00  0.00     0.124 A 
ATOM      2  C1  UNL d   1       4.222  -4.057  -4.772  0.00  0.00     0.062 A 
ATOM      3  C2  UNL d   1       5.021  -4.156  -3.636  0.00  0.00     0.162 A 
ATOM      4  C3  UNL d   1       4.807  -3.308  -2.549  0.00  0.00    -0.034 A 
ATOM      5  C4  UNL d   1       3.785  -2.360  -2.617  0.00  0.00     0.162 A 
ATOM      6  C5  UNL d   1       2.989  -2.265  -3.754  0.00  0.00     0.062 A 
ATOM      7  F   UNL d   1       2.009  -1.352  -3.809  0.00  0.00    -0.097 F 
ATOM      8  F1  UNL d   1       3.552  -1.530  -1.590  0.00  0.00    -0.096 F 
ATOM      9  I   UNL d   1       6.000  -3.453  -0.850  0.00  0.00    -0.060 I 
ATOM     10  F2  UNL d   1       5.995  -5.078  -3.607  0.00  0.00    -0.096 F 
ATOM     11  F3  UNL d   1       4.435  -4.876  -5.812  0.00  0.00    -0.097 F 
ATOM     12  F4  UNL d   1       2.440  -3.019  -5.925  0.00  0.00    -0.092 F 
ENDROOT
TORSDOF 0
ENDMDL
