MODEL 1
REMARK minimizedAffinity 23.9897766
REMARK minimizedRMSD -1
REMARK  0 active torsions:
REMARK  status: ('A' for Active; 'I' for Inactive)
ROOT
ATOM      1  C   UNL d   1      -0.889   2.396   0.546  0.00  0.00     0.124 A 
ATOM      2  C1  UNL d   1      -0.516   3.708   0.804  0.00  0.00     0.062 A 
ATOM      3  C2  UNL d   1      -1.442   4.738   0.670  0.00  0.00     0.162 A 
ATOM      4  C3  UNL d   1      -2.751   4.461   0.276  0.00  0.00    -0.034 A 
ATOM      5  C4  UNL d   1      -3.119   3.140   0.016  0.00  0.00     0.162 A 
ATOM      6  C5  UNL d   1      -2.190   2.113   0.152  0.00  0.00     0.062 A 
ATOM      7  F   UNL d   1      -2.552   0.847  -0.098  0.00  0.00    -0.097 F 
ATOM      8  F1  UNL d   1      -4.369   2.838  -0.365  0.00  0.00    -0.096 F 
ATOM      9  I   UNL d   1      -4.139   5.999   0.073  0.00  0.00    -0.060 I 
ATOM     10  F2  UNL d   1      -1.054   5.996   0.926  0.00  0.00    -0.096 F 
ATOM     11  F3  UNL d   1       0.740   3.984   1.184  0.00  0.00    -0.097 F 
ATOM     12  F4  UNL d   1       0.004   1.406   0.675  0.00  0.00    -0.092 F 
ENDROOT
TORSDOF 0
ENDMDL
