MODEL 1
REMARK minimizedAffinity 35.5120201
REMARK minimizedRMSD -1
REMARK  0 active torsions:
REMARK  status: ('A' for Active; 'I' for Inactive)
ROOT
ATOM      1  C   UNL d   1       2.207  -0.885  -3.796  0.00  0.00     0.124 A 
ATOM      2  C1  UNL d   1       2.161   0.467  -4.105  0.00  0.00     0.062 A 
ATOM      3  C2  UNL d   1       3.242   1.080  -4.731  0.00  0.00     0.162 A 
ATOM      4  C3  UNL d   1       4.380   0.341  -5.053  0.00  0.00    -0.034 A 
ATOM      5  C4  UNL d   1       4.421  -1.019  -4.738  0.00  0.00     0.162 A 
ATOM      6  C5  UNL d   1       3.337  -1.626  -4.112  0.00  0.00     0.062 A 
ATOM      7  F   UNL d   1       3.384  -2.933  -3.814  0.00  0.00    -0.097 F 
ATOM      8  F1  UNL d   1       5.499  -1.759  -5.033  0.00  0.00    -0.096 F 
ATOM      9  I   UNL d   1       6.000   1.253  -5.989  0.00  0.00    -0.060 I 
ATOM     10  F2  UNL d   1       3.170   2.388  -5.018  0.00  0.00    -0.096 F 
ATOM     11  F3  UNL d   1       1.071   1.186  -3.799  0.00  0.00    -0.097 F 
ATOM     12  F4  UNL d   1       1.166  -1.472  -3.193  0.00  0.00    -0.092 F 
ENDROOT
TORSDOF 0
ENDMDL
