MODEL 1
REMARK minimizedAffinity 29.3232613
REMARK minimizedRMSD -1
REMARK  0 active torsions:
REMARK  status: ('A' for Active; 'I' for Inactive)
ROOT
ATOM      1  C   UNL d   1      -0.396  -3.009  -0.238  0.00  0.00     0.124 A 
ATOM      2  C1  UNL d   1       0.505  -4.004  -0.592  0.00  0.00     0.062 A 
ATOM      3  C2  UNL d   1       1.424  -3.785  -1.613  0.00  0.00     0.162 A 
ATOM      4  C3  UNL d   1       1.449  -2.564  -2.288  0.00  0.00    -0.034 A 
ATOM      5  C4  UNL d   1       0.540  -1.568  -1.927  0.00  0.00     0.162 A 
ATOM      6  C5  UNL d   1      -0.377  -1.793  -0.905  0.00  0.00     0.062 A 
ATOM      7  F   UNL d   1      -1.247  -0.830  -0.565  0.00  0.00    -0.097 F 
ATOM      8  F1  UNL d   1       0.536  -0.383  -2.555  0.00  0.00    -0.096 F 
ATOM      9  I   UNL d   1       2.823  -2.232  -3.816  0.00  0.00    -0.060 I 
ATOM     10  F2  UNL d   1       2.283  -4.764  -1.934  0.00  0.00    -0.096 F 
ATOM     11  F3  UNL d   1       0.489  -5.181   0.051  0.00  0.00    -0.097 F 
ATOM     12  F4  UNL d   1      -1.280  -3.223   0.745  0.00  0.00    -0.092 F 
ENDROOT
TORSDOF 0
ENDMDL
