MODEL 1
REMARK minimizedAffinity 28.8652649
REMARK minimizedRMSD -1
REMARK  0 active torsions:
REMARK  status: ('A' for Active; 'I' for Inactive)
ROOT
ATOM      1  C   UNL d   1       4.230  -4.638  -3.258  0.00  0.00     0.124 A 
ATOM      2  C1  UNL d   1       3.380  -3.679  -2.725  0.00  0.00     0.062 A 
ATOM      3  C2  UNL d   1       3.312  -2.410  -3.293  0.00  0.00     0.162 A 
ATOM      4  C3  UNL d   1       4.096  -2.093  -4.402  0.00  0.00    -0.034 A 
ATOM      5  C4  UNL d   1       4.949  -3.062  -4.933  0.00  0.00     0.162 A 
ATOM      6  C5  UNL d   1       5.013  -4.329  -4.361  0.00  0.00     0.062 A 
ATOM      7  F   UNL d   1       5.835  -5.254  -4.878  0.00  0.00    -0.097 F 
ATOM      8  F1  UNL d   1       5.716  -2.791  -5.999  0.00  0.00    -0.096 F 
ATOM      9  I   UNL d   1       3.997  -0.197  -5.254  0.00  0.00    -0.060 I 
ATOM     10  F2  UNL d   1       2.482  -1.503  -2.756  0.00  0.00    -0.096 F 
ATOM     11  F3  UNL d   1       2.623  -3.975  -1.658  0.00  0.00    -0.097 F 
ATOM     12  F4  UNL d   1       4.294  -5.858  -2.709  0.00  0.00    -0.092 F 
ENDROOT
TORSDOF 0
ENDMDL
