MODEL 1
REMARK minimizedAffinity 30.871212
REMARK minimizedRMSD -1
REMARK  0 active torsions:
REMARK  status: ('A' for Active; 'I' for Inactive)
ROOT
ATOM      1  C   UNL d   1      -0.747   2.382   0.755  0.00  0.00     0.124 A 
ATOM      2  C1  UNL d   1      -0.356   3.701   0.943  0.00  0.00     0.062 A 
ATOM      3  C2  UNL d   1      -1.267   4.735   0.753  0.00  0.00     0.162 A 
ATOM      4  C3  UNL d   1      -2.580   4.456   0.372  0.00  0.00    -0.034 A 
ATOM      5  C4  UNL d   1      -2.965   3.127   0.184  0.00  0.00     0.162 A 
ATOM      6  C5  UNL d   1      -2.051   2.097   0.376  0.00  0.00     0.062 A 
ATOM      7  F   UNL d   1      -2.430   0.824   0.193  0.00  0.00    -0.097 F 
ATOM      8  F1  UNL d   1      -4.220   2.823  -0.181  0.00  0.00    -0.096 F 
ATOM      9  I   UNL d   1      -3.946   6.000   0.087  0.00  0.00    -0.060 I 
ATOM     10  F2  UNL d   1      -0.861   6.000   0.941  0.00  0.00    -0.096 F 
ATOM     11  F3  UNL d   1       0.904   3.979   1.308  0.00  0.00    -0.097 F 
ATOM     12  F4  UNL d   1       0.133   1.389   0.938  0.00  0.00    -0.092 F 
ENDROOT
TORSDOF 0
ENDMDL
