MODEL 1
REMARK minimizedAffinity 26.1511707
REMARK minimizedRMSD -1
REMARK  0 active torsions:
REMARK  status: ('A' for Active; 'I' for Inactive)
ROOT
ATOM      1  C   UNL d   1      -2.600  -2.406  -0.643  0.00  0.00     0.124 A 
ATOM      2  C1  UNL d   1      -2.374  -2.157  -1.990  0.00  0.00     0.062 A 
ATOM      3  C2  UNL d   1      -1.074  -2.027  -2.469  0.00  0.00     0.162 A 
ATOM      4  C3  UNL d   1       0.011  -2.147  -1.601  0.00  0.00    -0.034 A 
ATOM      5  C4  UNL d   1      -0.224  -2.396  -0.248  0.00  0.00     0.162 A 
ATOM      6  C5  UNL d   1      -1.525  -2.525   0.226  0.00  0.00     0.062 A 
ATOM      7  F   UNL d   1      -1.742  -2.766   1.528  0.00  0.00    -0.097 F 
ATOM      8  F1  UNL d   1       0.797  -2.517   0.614  0.00  0.00    -0.096 F 
ATOM      9  I   UNL d   1       1.957  -1.953  -2.314  0.00  0.00    -0.060 I 
ATOM     10  F2  UNL d   1      -0.885  -1.786  -3.775  0.00  0.00    -0.096 F 
ATOM     11  F3  UNL d   1      -3.411  -2.040  -2.832  0.00  0.00    -0.097 F 
ATOM     12  F4  UNL d   1      -3.852  -2.529  -0.184  0.00  0.00    -0.092 F 
ENDROOT
TORSDOF 0
ENDMDL
