MODEL 1
REMARK minimizedAffinity 33.2168884
REMARK minimizedRMSD -1
REMARK  0 active torsions:
REMARK  status: ('A' for Active; 'I' for Inactive)
ROOT
ATOM      1  C   UNL d   1      -2.530  -1.987  -1.530  0.00  0.00     0.124 A 
ATOM      2  C1  UNL d   1      -2.909  -2.279  -0.227  0.00  0.00     0.062 A 
ATOM      3  C2  UNL d   1      -1.945  -2.563   0.735  0.00  0.00     0.162 A 
ATOM      4  C3  UNL d   1      -0.591  -2.556   0.399  0.00  0.00    -0.034 A 
ATOM      5  C4  UNL d   1      -0.218  -2.263  -0.913  0.00  0.00     0.162 A 
ATOM      6  C5  UNL d   1      -1.185  -1.980  -1.872  0.00  0.00     0.062 A 
ATOM      7  F   UNL d   1      -0.816  -1.699  -3.131  0.00  0.00    -0.097 F 
ATOM      8  F1  UNL d   1       1.075  -2.248  -1.271  0.00  0.00    -0.096 F 
ATOM      9  I   UNL d   1       0.853  -2.980   1.836  0.00  0.00    -0.060 I 
ATOM     10  F2  UNL d   1      -2.341  -2.841   1.987  0.00  0.00    -0.096 F 
ATOM     11  F3  UNL d   1      -4.208  -2.288   0.105  0.00  0.00    -0.097 F 
ATOM     12  F4  UNL d   1      -3.460  -1.715  -2.455  0.00  0.00    -0.092 F 
ENDROOT
TORSDOF 0
ENDMDL
