MODEL 1
REMARK minimizedAffinity 24.6012878
REMARK minimizedRMSD -1
REMARK  0 active torsions:
REMARK  status: ('A' for Active; 'I' for Inactive)
ROOT
ATOM      1  C   UNL d   1       1.144  -2.904  -2.972  0.00  0.00     0.124 A 
ATOM      2  C1  UNL d   1       1.608  -2.224  -4.090  0.00  0.00     0.062 A 
ATOM      3  C2  UNL d   1       2.552  -2.813  -4.925  0.00  0.00     0.162 A 
ATOM      4  C3  UNL d   1       3.039  -4.091  -4.647  0.00  0.00    -0.034 A 
ATOM      5  C4  UNL d   1       2.568  -4.768  -3.520  0.00  0.00     0.162 A 
ATOM      6  C5  UNL d   1       1.624  -4.175  -2.689  0.00  0.00     0.062 A 
ATOM      7  F   UNL d   1       1.177  -4.833  -1.609  0.00  0.00    -0.097 F 
ATOM      8  F1  UNL d   1       3.014  -5.997  -3.223  0.00  0.00    -0.096 F 
ATOM      9  I   UNL d   1       4.451  -4.975  -5.894  0.00  0.00    -0.060 I 
ATOM     10  F2  UNL d   1       2.983  -2.133  -5.998  0.00  0.00    -0.096 F 
ATOM     11  F3  UNL d   1       1.146  -0.996  -4.365  0.00  0.00    -0.097 F 
ATOM     12  F4  UNL d   1       0.235  -2.334  -2.169  0.00  0.00    -0.092 F 
ENDROOT
TORSDOF 0
ENDMDL
