MODEL 1
REMARK minimizedAffinity 39.14925
REMARK minimizedRMSD -1
REMARK  0 active torsions:
REMARK  status: ('A' for Active; 'I' for Inactive)
ROOT
ATOM      1  C   UNL d   1      -0.542  -2.781   0.428  0.00  0.00     0.124 A 
ATOM      2  C1  UNL d   1      -1.558  -2.323   1.255  0.00  0.00     0.062 A 
ATOM      3  C2  UNL d   1      -2.120  -1.068   1.044  0.00  0.00     0.162 A 
ATOM      4  C3  UNL d   1      -1.668  -0.260   0.001  0.00  0.00    -0.034 A 
ATOM      5  C4  UNL d   1      -0.644  -0.727  -0.826  0.00  0.00     0.162 A 
ATOM      6  C5  UNL d   1      -0.086  -1.983  -0.612  0.00  0.00     0.062 A 
ATOM      7  F   UNL d   1       0.896  -2.423  -1.412  0.00  0.00    -0.097 F 
ATOM      8  F1  UNL d   1      -0.186   0.024  -1.839  0.00  0.00    -0.096 F 
ATOM      9  I   UNL d   1      -2.505   1.618  -0.318  0.00  0.00    -0.060 I 
ATOM     10  F2  UNL d   1      -3.101  -0.651   1.859  0.00  0.00    -0.096 F 
ATOM     11  F3  UNL d   1      -2.000  -3.092   2.261  0.00  0.00    -0.097 F 
ATOM     12  F4  UNL d   1      -0.002  -3.989   0.634  0.00  0.00    -0.092 F 
ENDROOT
TORSDOF 0
ENDMDL
