MODEL 1
REMARK minimizedAffinity 29.4761772
REMARK minimizedRMSD -1
REMARK  0 active torsions:
REMARK  status: ('A' for Active; 'I' for Inactive)
ROOT
ATOM      1  C   UNL d   1      -0.563  -1.535  -2.209  0.00  0.00     0.124 A 
ATOM      2  C1  UNL d   1       0.338  -1.872  -3.210  0.00  0.00     0.062 A 
ATOM      3  C2  UNL d   1       1.706  -1.859  -2.953  0.00  0.00     0.162 A 
ATOM      4  C3  UNL d   1       2.182  -1.509  -1.690  0.00  0.00    -0.034 A 
ATOM      5  C4  UNL d   1       1.269  -1.170  -0.689  0.00  0.00     0.162 A 
ATOM      6  C5  UNL d   1      -0.097  -1.185  -0.950  0.00  0.00     0.062 A 
ATOM      7  F   UNL d   1      -0.966  -0.859   0.018  0.00  0.00    -0.097 F 
ATOM      8  F1  UNL d   1       1.693  -0.828   0.537  0.00  0.00    -0.096 F 
ATOM      9  I   UNL d   1       4.226  -1.488  -1.302  0.00  0.00    -0.060 I 
ATOM     10  F2  UNL d   1       2.554  -2.190  -3.939  0.00  0.00    -0.096 F 
ATOM     11  F3  UNL d   1      -0.110  -2.211  -4.428  0.00  0.00    -0.097 F 
ATOM     12  F4  UNL d   1      -1.879  -1.548  -2.459  0.00  0.00    -0.092 F 
ENDROOT
TORSDOF 0
ENDMDL
