MODEL 1
REMARK minimizedAffinity 30.9727001
REMARK minimizedRMSD -1
REMARK  0 active torsions:
REMARK  status: ('A' for Active; 'I' for Inactive)
ROOT
ATOM      1  C   UNL d   1       4.747   5.253  -2.448  0.00  0.00     0.124 A 
ATOM      2  C1  UNL d   1       3.516   5.552  -3.014  0.00  0.00     0.062 A 
ATOM      3  C2  UNL d   1       2.347   5.388  -2.276  0.00  0.00     0.162 A 
ATOM      4  C3  UNL d   1       2.404   4.923  -0.962  0.00  0.00    -0.034 A 
ATOM      5  C4  UNL d   1       3.646   4.624  -0.400  0.00  0.00     0.162 A 
ATOM      6  C5  UNL d   1       4.811   4.789  -1.142  0.00  0.00     0.062 A 
ATOM      7  F   UNL d   1       6.000   4.499  -0.593  0.00  0.00    -0.097 F 
ATOM      8  F1  UNL d   1       3.737   4.175   0.861  0.00  0.00    -0.096 F 
ATOM      9  I   UNL d   1       0.659   4.677   0.145  0.00  0.00    -0.060 I 
ATOM     10  F2  UNL d   1       1.171   5.685  -2.849  0.00  0.00    -0.096 F 
ATOM     11  F3  UNL d   1       3.451   6.000  -4.277  0.00  0.00    -0.097 F 
ATOM     12  F4  UNL d   1       5.870   5.410  -3.161  0.00  0.00    -0.092 F 
ENDROOT
TORSDOF 0
ENDMDL
