MODEL 1
REMARK minimizedAffinity 21.303894
REMARK minimizedRMSD -1
REMARK  0 active torsions:
REMARK  status: ('A' for Active; 'I' for Inactive)
ROOT
ATOM      1  C   UNL d   1       1.198  -1.489  -1.456  0.00  0.00     0.124 A 
ATOM      2  C1  UNL d   1       0.791  -1.984  -2.687  0.00  0.00     0.062 A 
ATOM      3  C2  UNL d   1       1.735  -2.339  -3.646  0.00  0.00     0.162 A 
ATOM      4  C3  UNL d   1       3.097  -2.202  -3.376  0.00  0.00    -0.034 A 
ATOM      5  C4  UNL d   1       3.499  -1.704  -2.136  0.00  0.00     0.162 A 
ATOM      6  C5  UNL d   1       2.551  -1.350  -1.181  0.00  0.00     0.062 A 
ATOM      7  F   UNL d   1       2.946  -0.872   0.008  0.00  0.00    -0.097 F 
ATOM      8  F1  UNL d   1       4.800  -1.559  -1.844  0.00  0.00    -0.096 F 
ATOM      9  I   UNL d   1       4.513  -2.733  -4.807  0.00  0.00    -0.060 I 
ATOM     10  F2  UNL d   1       1.314  -2.814  -4.827  0.00  0.00    -0.096 F 
ATOM     11  F3  UNL d   1      -0.516  -2.119  -2.955  0.00  0.00    -0.097 F 
ATOM     12  F4  UNL d   1       0.287  -1.147  -0.536  0.00  0.00    -0.092 F 
ENDROOT
TORSDOF 0
ENDMDL
