MODEL 1
REMARK minimizedAffinity 22.9395618
REMARK minimizedRMSD -1
REMARK  0 active torsions:
REMARK  status: ('A' for Active; 'I' for Inactive)
ROOT
ATOM      1  C   UNL d   1       5.699  -2.395  -4.756  0.00  0.00     0.124 A 
ATOM      2  C1  UNL d   1       5.782  -3.767  -4.559  0.00  0.00     0.062 A 
ATOM      3  C2  UNL d   1       5.868  -4.286  -3.271  0.00  0.00     0.162 A 
ATOM      4  C3  UNL d   1       5.871  -3.433  -2.167  0.00  0.00    -0.034 A 
ATOM      5  C4  UNL d   1       5.788  -2.054  -2.372  0.00  0.00     0.162 A 
ATOM      6  C5  UNL d   1       5.702  -1.541  -3.662  0.00  0.00     0.062 A 
ATOM      7  F   UNL d   1       5.622  -0.215  -3.850  0.00  0.00    -0.097 F 
ATOM      8  F1  UNL d   1       5.788  -1.205  -1.334  0.00  0.00    -0.096 F 
ATOM      9  I   UNL d   1       5.999  -4.205  -0.239  0.00  0.00    -0.060 I 
ATOM     10  F2  UNL d   1       5.947  -5.615  -3.111  0.00  0.00    -0.096 F 
ATOM     11  F3  UNL d   1       5.780  -4.595  -5.614  0.00  0.00    -0.097 F 
ATOM     12  F4  UNL d   1       5.617  -1.899  -5.997  0.00  0.00    -0.092 F 
ENDROOT
TORSDOF 0
ENDMDL
