MODEL 1
REMARK minimizedAffinity 4.3188653
REMARK minimizedRMSD -1
REMARK  0 active torsions:
REMARK  status: ('A' for Active; 'I' for Inactive)
ROOT
ATOM      1  C2' OXE d   1       0.789  -0.426   4.365  0.00  0.00     0.078 C 
ATOM      2  C1' OXE d   1       0.239  -2.303   2.351  0.00  0.00     0.078 C 
ATOM      3  C1  OXE d   1      -0.626  -2.323   3.587  0.00  0.00    -0.078 A 
ATOM      4  C2  OXE d   1      -0.320  -1.432   4.587  0.00  0.00    -0.078 A 
ATOM      5  C3  OXE d   1      -1.120  -1.371   5.724  0.00  0.00     0.003 A 
ATOM      6  C4  OXE d   1      -2.138  -2.311   5.926  0.00  0.00    -0.002 A 
ATOM      7  C5  OXE d   1      -2.440  -3.253   4.937  0.00  0.00    -0.002 A 
ATOM      8  C6  OXE d   1      -1.723  -3.245   3.746  0.00  0.00     0.003 A 
ENDROOT
TORSDOF 0
ENDMDL
