MODEL 1
REMARK minimizedAffinity 4.52598953
REMARK minimizedRMSD -1
REMARK  0 active torsions:
REMARK  status: ('A' for Active; 'I' for Inactive)
ROOT
ATOM      1  C2' OXE d   1       0.802  -2.108   1.873  0.00  0.00     0.078 C 
ATOM      2  C1' OXE d   1      -1.879  -2.496   2.609  0.00  0.00     0.078 C 
ATOM      3  C1  OXE d   1      -1.001  -1.701   3.543  0.00  0.00    -0.078 A 
ATOM      4  C2  OXE d   1       0.321  -1.557   3.198  0.00  0.00    -0.078 A 
ATOM      5  C3  OXE d   1       1.162  -0.787   3.997  0.00  0.00     0.003 A 
ATOM      6  C4  OXE d   1       0.712  -0.289   5.225  0.00  0.00    -0.002 A 
ATOM      7  C5  OXE d   1      -0.620  -0.459   5.615  0.00  0.00    -0.002 A 
ATOM      8  C6  OXE d   1      -1.499  -1.125   4.768  0.00  0.00     0.003 A 
ENDROOT
TORSDOF 0
ENDMDL
