MODEL 1
REMARK minimizedAffinity 9.2310276
REMARK minimizedRMSD -1
REMARK  0 active torsions:
REMARK  status: ('A' for Active; 'I' for Inactive)
ROOT
ATOM      1  C2' OXE d   1       1.140  -5.730   2.895  0.00  0.00     0.078 C 
ATOM      2  C1' OXE d   1       1.270  -3.897   0.773  0.00  0.00     0.078 C 
ATOM      3  C1  OXE d   1       0.365  -3.567   1.934  0.00  0.00    -0.078 A 
ATOM      4  C2  OXE d   1       0.272  -4.491   2.946  0.00  0.00    -0.078 A 
ATOM      5  C3  OXE d   1      -0.506  -4.212   4.066  0.00  0.00     0.003 A 
ATOM      6  C4  OXE d   1      -1.313  -3.068   4.101  0.00  0.00    -0.002 A 
ATOM      7  C5  OXE d   1      -1.264  -2.132   3.062  0.00  0.00    -0.002 A 
ATOM      8  C6  OXE d   1      -0.400  -2.345   1.994  0.00  0.00     0.003 A 
ENDROOT
TORSDOF 0
ENDMDL
