MODEL 1
REMARK minimizedAffinity 13.3638773
REMARK minimizedRMSD -1
REMARK  0 active torsions:
REMARK  status: ('A' for Active; 'I' for Inactive)
ROOT
ATOM      1  C2' OXE d   1       1.376  -3.175   1.118  0.00  0.00     0.078 C 
ATOM      2  C1' OXE d   1       2.259  -0.557   1.615  0.00  0.00     0.078 C 
ATOM      3  C1  OXE d   1       1.120  -1.085   2.450  0.00  0.00    -0.078 A 
ATOM      4  C2  OXE d   1       0.663  -2.350   2.168  0.00  0.00    -0.078 A 
ATOM      5  C3  OXE d   1      -0.349  -2.906   2.945  0.00  0.00     0.003 A 
ATOM      6  C4  OXE d   1      -1.010  -2.133   3.908  0.00  0.00    -0.002 A 
ATOM      7  C5  OXE d   1      -0.587  -0.828   4.183  0.00  0.00    -0.002 A 
ATOM      8  C6  OXE d   1       0.502  -0.305   3.494  0.00  0.00     0.003 A 
ENDROOT
TORSDOF 0
ENDMDL
