MODEL 1
REMARK minimizedAffinity 12.0936422
REMARK minimizedRMSD -1
REMARK  0 active torsions:
REMARK  status: ('A' for Active; 'I' for Inactive)
ROOT
ATOM      1  C2' OXE d   1      -0.457  -0.651   4.503  0.00  0.00     0.078 C 
ATOM      2  C1' OXE d   1       0.538  -1.489   2.015  0.00  0.00     0.078 C 
ATOM      3  C1  OXE d   1       1.439  -0.651   2.888  0.00  0.00    -0.078 A 
ATOM      4  C2  OXE d   1       0.927  -0.206   4.083  0.00  0.00    -0.078 A 
ATOM      5  C3  OXE d   1       1.735   0.524   4.950  0.00  0.00     0.003 A 
ATOM      6  C4  OXE d   1       3.011   0.939   4.550  0.00  0.00    -0.002 A 
ATOM      7  C5  OXE d   1       3.537   0.531   3.319  0.00  0.00    -0.002 A 
ATOM      8  C6  OXE d   1       2.782  -0.298   2.497  0.00  0.00     0.003 A 
ENDROOT
TORSDOF 0
ENDMDL
