MODEL 1
REMARK minimizedAffinity 13.9279861
REMARK minimizedRMSD -1
REMARK  0 active torsions:
REMARK  status: ('A' for Active; 'I' for Inactive)
ROOT
ATOM      1  C2' OXE d   1      -1.174  -0.392   4.647  0.00  0.00     0.078 C 
ATOM      2  C1' OXE d   1      -1.984  -2.728   3.318  0.00  0.00     0.078 C 
ATOM      3  C1  OXE d   1      -0.795  -1.982   2.767  0.00  0.00    -0.078 A 
ATOM      4  C2  OXE d   1      -0.435  -0.814   3.396  0.00  0.00    -0.078 A 
ATOM      5  C3  OXE d   1       0.688  -0.116   2.961  0.00  0.00     0.003 A 
ATOM      6  C4  OXE d   1       1.360  -0.507   1.797  0.00  0.00    -0.002 A 
ATOM      7  C5  OXE d   1       0.984  -1.671   1.118  0.00  0.00    -0.002 A 
ATOM      8  C6  OXE d   1      -0.062  -2.441   1.613  0.00  0.00     0.003 A 
ENDROOT
TORSDOF 0
ENDMDL
