MODEL 1
REMARK minimizedAffinity 5.43212318
REMARK minimizedRMSD -1
REMARK  0 active torsions:
REMARK  status: ('A' for Active; 'I' for Inactive)
ROOT
ATOM      1  C2' OXE d   1      -3.181   2.175  -2.126  0.00  0.00     0.078 C 
ATOM      2  C1' OXE d   1      -1.905   4.036  -3.796  0.00  0.00     0.078 C 
ATOM      3  C1  OXE d   1      -1.106   3.445  -2.662  0.00  0.00    -0.078 A 
ATOM      4  C2  OXE d   1      -1.752   2.571  -1.822  0.00  0.00    -0.078 A 
ATOM      5  C3  OXE d   1      -1.046   1.955  -0.792  0.00  0.00     0.003 A 
ATOM      6  C4  OXE d   1       0.273   2.334  -0.512  0.00  0.00    -0.002 A 
ATOM      7  C5  OXE d   1       0.937   3.253  -1.331  0.00  0.00    -0.002 A 
ATOM      8  C6  OXE d   1       0.277   3.785  -2.433  0.00  0.00     0.003 A 
ENDROOT
TORSDOF 0
ENDMDL
