MODEL 1
REMARK minimizedAffinity 8.81027031
REMARK minimizedRMSD -1
REMARK  0 active torsions:
REMARK  status: ('A' for Active; 'I' for Inactive)
ROOT
ATOM      1  C2' OXE d   1      -0.573  -0.874   5.254  0.00  0.00     0.078 C 
ATOM      2  C1' OXE d   1      -1.640  -2.965   3.714  0.00  0.00     0.078 C 
ATOM      3  C1  OXE d   1      -0.500  -2.171   3.128  0.00  0.00    -0.078 A 
ATOM      4  C2  OXE d   1      -0.014  -1.120   3.869  0.00  0.00    -0.078 A 
ATOM      5  C3  OXE d   1       1.073  -0.389   3.398  0.00  0.00     0.003 A 
ATOM      6  C4  OXE d   1       1.577  -0.616   2.112  0.00  0.00    -0.002 A 
ATOM      7  C5  OXE d   1       1.071  -1.656   1.325  0.00  0.00    -0.002 A 
ATOM      8  C6  OXE d   1       0.063  -2.468   1.834  0.00  0.00     0.003 A 
ENDROOT
TORSDOF 0
ENDMDL
