MODEL 1
REMARK minimizedAffinity 2.85054779
REMARK minimizedRMSD -1
REMARK  0 active torsions:
REMARK  status: ('A' for Active; 'I' for Inactive)
ROOT
ATOM      1  C2' OXE d   1       1.428   0.038   1.513  0.00  0.00     0.078 C 
ATOM      2  C1' OXE d   1       0.777  -2.664   1.117  0.00  0.00     0.078 C 
ATOM      3  C1  OXE d   1       0.345  -2.019   2.410  0.00  0.00    -0.078 A 
ATOM      4  C2  OXE d   1       0.708  -0.709   2.615  0.00  0.00    -0.078 A 
ATOM      5  C3  OXE d   1       0.288  -0.050   3.767  0.00  0.00     0.003 A 
ATOM      6  C4  OXE d   1      -0.368  -0.751   4.786  0.00  0.00    -0.002 A 
ATOM      7  C5  OXE d   1      -0.713  -2.096   4.614  0.00  0.00    -0.002 A 
ATOM      8  C6  OXE d   1      -0.402  -2.731   3.417  0.00  0.00     0.003 A 
ENDROOT
TORSDOF 0
ENDMDL
