MODEL 1
REMARK minimizedAffinity 14.7326145
REMARK minimizedRMSD -1
REMARK  0 active torsions:
REMARK  status: ('A' for Active; 'I' for Inactive)
ROOT
ATOM      1  C2' OXE d   1       1.866  -3.276  -0.095  0.00  0.00     0.078 C 
ATOM      2  C1' OXE d   1      -0.012  -1.987   1.545  0.00  0.00     0.078 C 
ATOM      3  C1  OXE d   1       1.429  -1.557   1.654  0.00  0.00    -0.078 A 
ATOM      4  C2  OXE d   1       2.348  -2.225   0.882  0.00  0.00    -0.078 A 
ATOM      5  C3  OXE d   1       3.683  -1.832   0.903  0.00  0.00     0.003 A 
ATOM      6  C4  OXE d   1       4.123  -0.866   1.817  0.00  0.00    -0.002 A 
ATOM      7  C5  OXE d   1       3.209  -0.201   2.641  0.00  0.00    -0.002 A 
ATOM      8  C6  OXE d   1       1.856  -0.504   2.542  0.00  0.00     0.003 A 
ENDROOT
TORSDOF 0
ENDMDL
