MODEL 1
REMARK minimizedAffinity 7.42817926
REMARK minimizedRMSD -1
REMARK  0 active torsions:
REMARK  status: ('A' for Active; 'I' for Inactive)
ROOT
ATOM      1  C2' OXE d   1      -2.745  -3.292   1.865  0.00  0.00     0.078 C 
ATOM      2  C1' OXE d   1      -5.029  -3.691   3.447  0.00  0.00     0.078 C 
ATOM      3  C1  OXE d   1      -4.932  -4.451   2.148  0.00  0.00    -0.078 A 
ATOM      4  C2  OXE d   1      -3.832  -4.215   1.358  0.00  0.00    -0.078 A 
ATOM      5  C3  OXE d   1      -3.666  -4.931   0.176  0.00  0.00     0.003 A 
ATOM      6  C4  OXE d   1      -4.682  -5.775  -0.290  0.00  0.00    -0.002 A 
ATOM      7  C5  OXE d   1      -5.828  -5.999   0.480  0.00  0.00    -0.002 A 
ATOM      8  C6  OXE d   1      -5.948  -5.379   1.719  0.00  0.00     0.003 A 
ENDROOT
TORSDOF 0
ENDMDL
