MODEL 1
REMARK minimizedAffinity 21.3417683
REMARK minimizedRMSD -1
REMARK  0 active torsions:
REMARK  status: ('A' for Active; 'I' for Inactive)
ROOT
ATOM      1  C2' OXE d   1      -1.455   6.000  -5.245  0.00  0.00     0.078 C 
ATOM      2  C1' OXE d   1      -2.664   3.578  -5.991  0.00  0.00     0.078 C 
ATOM      3  C1  OXE d   1      -2.108   3.686  -4.593  0.00  0.00    -0.078 A 
ATOM      4  C2  OXE d   1      -1.476   4.858  -4.252  0.00  0.00    -0.078 A 
ATOM      5  C3  OXE d   1      -0.994   5.030  -2.958  0.00  0.00     0.003 A 
ATOM      6  C4  OXE d   1      -1.008   3.965  -2.049  0.00  0.00    -0.002 A 
ATOM      7  C5  OXE d   1      -1.611   2.750  -2.389  0.00  0.00    -0.002 A 
ATOM      8  C6  OXE d   1      -2.202   2.608  -3.640  0.00  0.00     0.003 A 
ENDROOT
TORSDOF 0
ENDMDL
