MODEL 1
REMARK minimizedAffinity 10.8502245
REMARK minimizedRMSD -1
REMARK  0 active torsions:
REMARK  status: ('A' for Active; 'I' for Inactive)
ROOT
ATOM      1  C2' OXE d   1       1.106  -4.674   1.728  0.00  0.00     0.078 C 
ATOM      2  C1' OXE d   1      -1.316  -3.266   1.540  0.00  0.00     0.078 C 
ATOM      3  C1  OXE d   1      -0.042  -2.465   1.640  0.00  0.00    -0.078 A 
ATOM      4  C2  OXE d   1       1.134  -3.161   1.779  0.00  0.00    -0.078 A 
ATOM      5  C3  OXE d   1       2.343  -2.472   1.820  0.00  0.00     0.003 A 
ATOM      6  C4  OXE d   1       2.360  -1.073   1.876  0.00  0.00    -0.002 A 
ATOM      7  C5  OXE d   1       1.170  -0.344   1.776  0.00  0.00    -0.002 A 
ATOM      8  C6  OXE d   1      -0.033  -1.023   1.615  0.00  0.00     0.003 A 
ENDROOT
TORSDOF 0
ENDMDL
