MODEL 1
REMARK minimizedAffinity 5.85139275
REMARK minimizedRMSD -1
REMARK  0 active torsions:
REMARK  status: ('A' for Active; 'I' for Inactive)
ROOT
ATOM      1  C2' OXE d   1      -4.661  -2.140   2.087  0.00  0.00     0.078 C 
ATOM      2  C1' OXE d   1      -3.508  -4.077   3.760  0.00  0.00     0.078 C 
ATOM      3  C1  OXE d   1      -3.716  -4.434   2.309  0.00  0.00    -0.078 A 
ATOM      4  C2  OXE d   1      -4.323  -3.497   1.508  0.00  0.00    -0.078 A 
ATOM      5  C3  OXE d   1      -4.489  -3.754   0.150  0.00  0.00     0.003 A 
ATOM      6  C4  OXE d   1      -4.183  -5.016  -0.375  0.00  0.00    -0.002 A 
ATOM      7  C5  OXE d   1      -3.600  -5.998   0.432  0.00  0.00    -0.002 A 
ATOM      8  C6  OXE d   1      -3.321  -5.709   1.764  0.00  0.00     0.003 A 
ENDROOT
TORSDOF 0
ENDMDL
