MODEL 1
REMARK minimizedAffinity 18.1342087
REMARK minimizedRMSD -1
REMARK  0 active torsions:
REMARK  status: ('A' for Active; 'I' for Inactive)
ROOT
ATOM      1  C2' OXE d   1      -5.077   4.353  -0.816  0.00  0.00     0.078 C 
ATOM      2  C1' OXE d   1      -4.939   1.835  -2.049  0.00  0.00     0.078 C 
ATOM      3  C1  OXE d   1      -3.898   2.859  -2.423  0.00  0.00    -0.078 A 
ATOM      4  C2  OXE d   1      -4.000   4.104  -1.851  0.00  0.00    -0.078 A 
ATOM      5  C3  OXE d   1      -3.033   5.068  -2.120  0.00  0.00     0.003 A 
ATOM      6  C4  OXE d   1      -2.047   4.833  -3.085  0.00  0.00    -0.002 A 
ATOM      7  C5  OXE d   1      -1.948   3.585  -3.710  0.00  0.00    -0.002 A 
ATOM      8  C6  OXE d   1      -2.838   2.576  -3.360  0.00  0.00     0.003 A 
ENDROOT
TORSDOF 0
ENDMDL
