MODEL 1
REMARK minimizedAffinity 4.63509369
REMARK minimizedRMSD -1
REMARK  0 active torsions:
REMARK  status: ('A' for Active; 'I' for Inactive)
ROOT
ATOM      1  C2' OXE d   1       2.383   0.627   1.064  0.00  0.00     0.078 C 
ATOM      2  C1' OXE d   1       0.573  -0.472   2.907  0.00  0.00     0.078 C 
ATOM      3  C1  OXE d   1       1.352  -1.423   2.033  0.00  0.00    -0.078 A 
ATOM      4  C2  OXE d   1       2.201  -0.875   1.102  0.00  0.00    -0.078 A 
ATOM      5  C3  OXE d   1       2.983  -1.709   0.307  0.00  0.00     0.003 A 
ATOM      6  C4  OXE d   1       2.801  -3.097   0.342  0.00  0.00    -0.002 A 
ATOM      7  C5  OXE d   1       1.912  -3.674   1.255  0.00  0.00    -0.002 A 
ATOM      8  C6  OXE d   1       1.213  -2.855   2.135  0.00  0.00     0.003 A 
ENDROOT
TORSDOF 0
ENDMDL
