MODEL 1
REMARK minimizedAffinity 15.5228004
REMARK minimizedRMSD -1
REMARK  0 active torsions:
REMARK  status: ('A' for Active; 'I' for Inactive)
ROOT
ATOM      1  C2' OXE d   1      -3.062   2.625  -5.998  0.00  0.00     0.078 C 
ATOM      2  C1' OXE d   1      -2.768   1.932  -3.294  0.00  0.00     0.078 C 
ATOM      3  C1  OXE d   1      -2.545   3.373  -3.679  0.00  0.00    -0.078 A 
ATOM      4  C2  OXE d   1      -2.645   3.694  -5.012  0.00  0.00    -0.078 A 
ATOM      5  C3  OXE d   1      -2.502   5.019  -5.414  0.00  0.00     0.003 A 
ATOM      6  C4  OXE d   1      -2.107   6.000  -4.497  0.00  0.00    -0.002 A 
ATOM      7  C5  OXE d   1      -1.960   5.686  -3.142  0.00  0.00    -0.002 A 
ATOM      8  C6  OXE d   1      -2.216   4.390  -2.710  0.00  0.00     0.003 A 
ENDROOT
TORSDOF 0
ENDMDL
