MODEL 1
REMARK minimizedAffinity 12.9047623
REMARK minimizedRMSD -1
REMARK  0 active torsions:
REMARK  status: ('A' for Active; 'I' for Inactive)
ROOT
ATOM      1  C2' OXE d   1       3.194  -1.485   0.472  0.00  0.00     0.078 C 
ATOM      2  C1' OXE d   1       3.972   0.414   2.388  0.00  0.00     0.078 C 
ATOM      3  C1  OXE d   1       2.606  -0.208   2.529  0.00  0.00    -0.078 A 
ATOM      4  C2  OXE d   1       2.215  -1.102   1.561  0.00  0.00    -0.078 A 
ATOM      5  C3  OXE d   1       0.986  -1.746   1.673  0.00  0.00     0.003 A 
ATOM      6  C4  OXE d   1       0.082  -1.378   2.677  0.00  0.00    -0.002 A 
ATOM      7  C5  OXE d   1       0.445  -0.441   3.651  0.00  0.00    -0.002 A 
ATOM      8  C6  OXE d   1       1.716   0.120   3.616  0.00  0.00     0.003 A 
ENDROOT
TORSDOF 0
ENDMDL
