MODEL 1
REMARK minimizedAffinity 16.2086563
REMARK minimizedRMSD -1
REMARK  0 active torsions:
REMARK  status: ('A' for Active; 'I' for Inactive)
ROOT
ATOM      1  C2' OXE d   1      -1.614   6.000  -2.964  0.00  0.00     0.078 C 
ATOM      2  C1' OXE d   1      -1.496   3.219  -3.327  0.00  0.00     0.078 C 
ATOM      3  C1  OXE d   1      -2.635   3.774  -2.509  0.00  0.00    -0.078 A 
ATOM      4  C2  OXE d   1      -2.659   5.131  -2.297  0.00  0.00    -0.078 A 
ATOM      5  C3  OXE d   1      -3.718   5.701  -1.596  0.00  0.00     0.003 A 
ATOM      6  C4  OXE d   1      -4.675   4.890  -0.974  0.00  0.00    -0.002 A 
ATOM      7  C5  OXE d   1      -4.647   3.502  -1.143  0.00  0.00    -0.002 A 
ATOM      8  C6  OXE d   1      -3.660   2.932  -1.941  0.00  0.00     0.003 A 
ENDROOT
TORSDOF 0
ENDMDL
