MODEL 1
REMARK minimizedAffinity 6.54487181
REMARK minimizedRMSD -1
REMARK  2 active torsions:
REMARK  status: ('A' for Active; 'I' for Inactive)
REMARK    1  A    between atoms: C2'_3  and  C1'_4 
REMARK    2  A    between atoms: C1'_4  and  C1_5 
ROOT
ATOM      1  C1  I4B d   1      -4.422   2.203  -3.358  0.00  0.00    -0.075 A 
ATOM      2  C2  I4B d   1      -4.352   0.885  -3.732  0.00  0.00     0.003 A 
ATOM      3  C3  I4B d   1      -4.996   0.444  -4.914  0.00  0.00     0.002 A 
ATOM      4  C4  I4B d   1      -5.735   1.340  -5.659  0.00  0.00    -0.004 A 
ATOM      5  C5  I4B d   1      -5.786   2.681  -5.291  0.00  0.00     0.002 A 
ATOM      6  C6  I4B d   1      -5.115   3.119  -4.139  0.00  0.00     0.003 A 
ENDROOT
BRANCH   1   7
ATOM      7  C1' I4B d   1      -3.758   2.628  -2.086  0.00  0.00     0.060 C 
BRANCH   7   8
ATOM      8  C2' I4B d   1      -4.696   2.306  -0.940  0.00  0.00    -0.013 C 
ATOM      9  C4' I4B d   1      -4.105   2.723   0.381  0.00  0.00     0.013 C 
ATOM     10  C3' I4B d   1      -5.997   3.006  -1.196  0.00  0.00     0.013 C 
ENDBRANCH   7   8
ENDBRANCH   1   7
TORSDOF 2
ENDMDL
