MODEL 1
REMARK minimizedAffinity 6.86578846
REMARK minimizedRMSD -1
REMARK  2 active torsions:
REMARK  status: ('A' for Active; 'I' for Inactive)
REMARK    1  A    between atoms: C2'_3  and  C1'_4 
REMARK    2  A    between atoms: C1'_4  and  C1_5 
ROOT
ATOM      1  C1  I4B d   1       0.913  -0.995   0.976  0.00  0.00    -0.075 A 
ATOM      2  C2  I4B d   1      -0.351  -0.481   1.127  0.00  0.00     0.003 A 
ATOM      3  C3  I4B d   1      -1.343  -0.728   0.147  0.00  0.00     0.002 A 
ATOM      4  C4  I4B d   1      -1.016  -1.447  -0.985  0.00  0.00    -0.004 A 
ATOM      5  C5  I4B d   1       0.259  -1.987  -1.125  0.00  0.00     0.002 A 
ATOM      6  C6  I4B d   1       1.227  -1.770  -0.133  0.00  0.00     0.003 A 
ENDROOT
BRANCH   1   7
ATOM      7  C1' I4B d   1       1.945  -0.687   2.014  0.00  0.00     0.060 C 
BRANCH   7   8
ATOM      8  C2' I4B d   1       1.966  -1.832   3.006  0.00  0.00    -0.013 C 
ATOM      9  C4' I4B d   1       3.291  -2.548   2.984  0.00  0.00     0.013 C 
ATOM     10  C3' I4B d   1       1.676  -1.271   4.366  0.00  0.00     0.013 C 
ENDBRANCH   7   8
ENDBRANCH   1   7
TORSDOF 2
ENDMDL
