MODEL 1
REMARK minimizedAffinity 5.7806983
REMARK minimizedRMSD -1
REMARK  2 active torsions:
REMARK  status: ('A' for Active; 'I' for Inactive)
REMARK    1  A    between atoms: C2'_3  and  C1'_4 
REMARK    2  A    between atoms: C1'_4  and  C1_5 
ROOT
ATOM      1  C1  I4B d   1       2.258  -0.242   3.067  0.00  0.00    -0.075 A 
ATOM      2  C2  I4B d   1       2.285   0.570   4.174  0.00  0.00     0.003 A 
ATOM      3  C3  I4B d   1       2.640   1.935   4.049  0.00  0.00     0.002 A 
ATOM      4  C4  I4B d   1       3.008   2.430   2.814  0.00  0.00    -0.004 A 
ATOM      5  C5  I4B d   1       2.958   1.612   1.690  0.00  0.00     0.002 A 
ATOM      6  C6  I4B d   1       2.569   0.270   1.814  0.00  0.00     0.003 A 
ENDROOT
BRANCH   1   7
ATOM      7  C1' I4B d   1       1.910  -1.686   3.241  0.00  0.00     0.060 C 
BRANCH   7   8
ATOM      8  C2' I4B d   1       3.022  -2.342   4.033  0.00  0.00    -0.013 C 
ATOM      9  C4' I4B d   1       2.882  -3.842   4.031  0.00  0.00     0.013 C 
ATOM     10  C3' I4B d   1       4.330  -1.921   3.431  0.00  0.00     0.013 C 
ENDBRANCH   7   8
ENDBRANCH   1   7
TORSDOF 2
ENDMDL
