MODEL 1
REMARK minimizedAffinity 11.2249241
REMARK minimizedRMSD -1
REMARK  2 active torsions:
REMARK  status: ('A' for Active; 'I' for Inactive)
REMARK    1  A    between atoms: C2'_3  and  C1'_4 
REMARK    2  A    between atoms: C1'_4  and  C1_5 
ROOT
ATOM      1  C1  I4B d   1       2.419  -1.235   3.062  0.00  0.00    -0.075 A 
ATOM      2  C2  I4B d   1       1.696  -2.345   3.421  0.00  0.00     0.003 A 
ATOM      3  C3  I4B d   1       2.318  -3.403   4.127  0.00  0.00     0.002 A 
ATOM      4  C4  I4B d   1       3.667  -3.333   4.406  0.00  0.00    -0.004 A 
ATOM      5  C5  I4B d   1       4.394  -2.197   4.062  0.00  0.00     0.002 A 
ATOM      6  C6  I4B d   1       3.763  -1.135   3.397  0.00  0.00     0.003 A 
ENDROOT
BRANCH   1   7
ATOM      7  C1' I4B d   1       1.739  -0.150   2.289  0.00  0.00     0.060 C 
BRANCH   7   8
ATOM      8  C2' I4B d   1       2.806   0.658   1.580  0.00  0.00    -0.013 C 
ATOM      9  C4' I4B d   1       3.207   0.010   0.281  0.00  0.00     0.013 C 
ATOM     10  C3' I4B d   1       2.267   2.039   1.353  0.00  0.00     0.013 C 
ENDBRANCH   7   8
ENDBRANCH   1   7
TORSDOF 2
ENDMDL
