MODEL 1
REMARK minimizedAffinity 11.5659781
REMARK minimizedRMSD -1
REMARK  2 active torsions:
REMARK  status: ('A' for Active; 'I' for Inactive)
REMARK    1  A    between atoms: C2'_3  and  C1'_4 
REMARK    2  A    between atoms: C1'_4  and  C1_5 
ROOT
ATOM      1  C1  I4B d   1      -0.644  -2.480  -1.888  0.00  0.00    -0.075 A 
ATOM      2  C2  I4B d   1      -1.695  -3.211  -2.384  0.00  0.00     0.003 A 
ATOM      3  C3  I4B d   1      -2.707  -3.685  -1.514  0.00  0.00     0.002 A 
ATOM      4  C4  I4B d   1      -2.602  -3.451  -0.158  0.00  0.00    -0.004 A 
ATOM      5  C5  I4B d   1      -1.548  -2.691   0.340  0.00  0.00     0.002 A 
ATOM      6  C6  I4B d   1      -0.569  -2.192  -0.531  0.00  0.00     0.003 A 
ENDROOT
BRANCH   1   7
ATOM      7  C1' I4B d   1       0.424  -2.023  -2.830  0.00  0.00     0.060 C 
BRANCH   7   8
ATOM      8  C2' I4B d   1       1.765  -2.264  -2.168  0.00  0.00    -0.013 C 
ATOM      9  C4' I4B d   1       2.239  -3.676  -2.395  0.00  0.00     0.013 C 
ATOM     10  C3' I4B d   1       2.741  -1.270  -2.723  0.00  0.00     0.013 C 
ENDBRANCH   7   8
ENDBRANCH   1   7
TORSDOF 2
ENDMDL
