MODEL 1
REMARK minimizedAffinity 2.80656123
REMARK minimizedRMSD -1
REMARK  2 active torsions:
REMARK  status: ('A' for Active; 'I' for Inactive)
REMARK    1  A    between atoms: C2'_3  and  C1'_4 
REMARK    2  A    between atoms: C1'_4  and  C1_5 
ROOT
ATOM      1  C1  I4B d   1       0.793  -1.203   1.287  0.00  0.00    -0.075 A 
ATOM      2  C2  I4B d   1       1.132  -1.732   2.507  0.00  0.00     0.003 A 
ATOM      3  C3  I4B d   1       2.050  -1.056   3.347  0.00  0.00     0.002 A 
ATOM      4  C4  I4B d   1       2.639   0.113   2.909  0.00  0.00    -0.004 A 
ATOM      5  C5  I4B d   1       2.277   0.660   1.682  0.00  0.00     0.002 A 
ATOM      6  C6  I4B d   1       1.339   0.005   0.870  0.00  0.00     0.003 A 
ENDROOT
BRANCH   1   7
ATOM      7  C1' I4B d   1      -0.154  -1.959   0.411  0.00  0.00     0.060 C 
BRANCH   7   8
ATOM      8  C2' I4B d   1       0.623  -2.470  -0.785  0.00  0.00    -0.013 C 
ATOM      9  C4' I4B d   1       1.111  -3.877  -0.558  0.00  0.00     0.013 C 
ATOM     10  C3' I4B d   1      -0.273  -2.395  -1.985  0.00  0.00     0.013 C 
ENDBRANCH   7   8
ENDBRANCH   1   7
TORSDOF 2
ENDMDL
