MODEL 1
REMARK minimizedAffinity 2.41881323
REMARK minimizedRMSD -1
REMARK  0 active torsions:
REMARK  status: ('A' for Active; 'I' for Inactive)
ROOT
ATOM      1  C   UNL d   1      -0.353  -5.999  -3.508  0.00  0.00     0.172 C 
ATOM      2  N   UNL d   1       0.649  -5.999  -2.467  0.00  0.00    -0.070 N 
ATOM      3  C1  UNL d   1       0.402  -5.999  -1.121  0.00  0.00    -0.004 A 
ATOM      4  C2  UNL d   1       1.616  -6.000  -0.468  0.00  0.00    -0.047 A 
ATOM      5  C3  UNL d   1       2.628  -5.998  -1.458  0.00  0.00    -0.047 A 
ATOM      6  C4  UNL d   1       2.002  -5.998  -2.686  0.00  0.00    -0.004 A 
ENDROOT
TORSDOF 0
ENDMDL
