MODEL 1
REMARK minimizedAffinity 2.17747903
REMARK minimizedRMSD -1
REMARK  0 active torsions:
REMARK  status: ('A' for Active; 'I' for Inactive)
ROOT
ATOM      1  C   UNL d   1      -0.015   2.765   1.568  0.00  0.00     0.172 C 
ATOM      2  N   UNL d   1       0.104   3.926   0.718  0.00  0.00    -0.070 N 
ATOM      3  C1  UNL d   1       0.779   3.979  -0.472  0.00  0.00    -0.004 A 
ATOM      4  C2  UNL d   1       0.656   5.257  -0.971  0.00  0.00    -0.047 A 
ATOM      5  C3  UNL d   1      -0.119   5.999  -0.048  0.00  0.00    -0.047 A 
ATOM      6  C4  UNL d   1      -0.447   5.151   0.988  0.00  0.00    -0.004 A 
ENDROOT
TORSDOF 0
ENDMDL
