MODEL 1
REMARK minimizedAffinity 2.82160878
REMARK minimizedRMSD -1
REMARK  0 active torsions:
REMARK  status: ('A' for Active; 'I' for Inactive)
ROOT
ATOM      1  C   UNL d   1      -2.934   0.787  -0.519  0.00  0.00     0.172 C 
ATOM      2  N   UNL d   1      -2.115   0.224  -1.567  0.00  0.00    -0.070 N 
ATOM      3  C1  UNL d   1      -1.107  -0.685  -1.391  0.00  0.00    -0.004 A 
ATOM      4  C2  UNL d   1      -0.574  -0.970  -2.630  0.00  0.00    -0.047 A 
ATOM      5  C3  UNL d   1      -1.287  -0.204  -3.584  0.00  0.00    -0.047 A 
ATOM      6  C4  UNL d   1      -2.235   0.526  -2.898  0.00  0.00    -0.004 A 
ENDROOT
TORSDOF 0
ENDMDL
