MODEL 1
REMARK minimizedAffinity 5.03110886
REMARK minimizedRMSD -1
REMARK  0 active torsions:
REMARK  status: ('A' for Active; 'I' for Inactive)
ROOT
ATOM      1  C   UNL d   1      -0.768   2.467   1.725  0.00  0.00     0.172 C 
ATOM      2  N   UNL d   1      -0.412   3.563   0.856  0.00  0.00    -0.070 N 
ATOM      3  C1  UNL d   1      -1.118   4.728   0.709  0.00  0.00    -0.004 A 
ATOM      4  C2  UNL d   1      -0.452   5.512  -0.207  0.00  0.00    -0.047 A 
ATOM      5  C3  UNL d   1       0.693   4.794  -0.627  0.00  0.00    -0.047 A 
ATOM      6  C4  UNL d   1       0.693   3.591   0.047  0.00  0.00    -0.004 A 
ENDROOT
TORSDOF 0
ENDMDL
