MODEL 1
REMARK minimizedAffinity 4.30817509
REMARK minimizedRMSD -1
REMARK  0 active torsions:
REMARK  status: ('A' for Active; 'I' for Inactive)
ROOT
ATOM      1  C   UNL d   1      -0.199   2.954   2.085  0.00  0.00     0.172 C 
ATOM      2  N   UNL d   1      -0.165   4.004   1.095  0.00  0.00    -0.070 N 
ATOM      3  C1  UNL d   1      -0.702   5.255   1.239  0.00  0.00    -0.004 A 
ATOM      4  C2  UNL d   1      -0.459   5.955   0.077  0.00  0.00    -0.047 A 
ATOM      5  C3  UNL d   1       0.248   5.095  -0.796  0.00  0.00    -0.047 A 
ATOM      6  C4  UNL d   1       0.416   3.893  -0.141  0.00  0.00    -0.004 A 
ENDROOT
TORSDOF 0
ENDMDL
