MODEL 1
REMARK minimizedAffinity 8.05645943
REMARK minimizedRMSD -1
REMARK  2 active torsions:
REMARK  status: ('A' for Active; 'I' for Inactive)
REMARK    1  A    between atoms: C1_2  and  C2_3 
REMARK    2  A    between atoms: C2_3  and  C3_4 
ROOT
ATOM      1  C3  UNL d   1      -2.938   1.665   2.253  0.00  0.00    -0.075 A 
ATOM      2  C4  UNL d   1      -3.322   0.571   3.043  0.00  0.00     0.002 A 
ATOM      3  C5  UNL d   1      -2.557  -0.595   3.057  0.00  0.00     0.002 A 
ATOM      4  C6  UNL d   1      -1.407  -0.688   2.276  0.00  0.00    -0.004 A 
ATOM      5  C7  UNL d   1      -1.025   0.387   1.475  0.00  0.00     0.002 A 
ATOM      6  C8  UNL d   1      -1.786   1.557   1.463  0.00  0.00     0.002 A 
ENDROOT
BRANCH   1   7
ATOM      7  C2  UNL d   1      -3.745   2.941   2.256  0.00  0.00     0.056 C 
BRANCH   7   8
ATOM      8  C1  UNL d   1      -4.472   3.216   3.577  0.00  0.00     0.007 C 
ATOM      9  C   UNL d   1      -5.979   3.361   3.413  0.00  0.00     0.009 C 
ENDBRANCH   7   8
ENDBRANCH   1   7
TORSDOF 2
ENDMDL
