MODEL 1
REMARK minimizedAffinity 6.06804609
REMARK minimizedRMSD -1
REMARK  2 active torsions:
REMARK  status: ('A' for Active; 'I' for Inactive)
REMARK    1  A    between atoms: C1_2  and  C2_3 
REMARK    2  A    between atoms: C2_3  and  C3_4 
ROOT
ATOM      1  C3  UNL d   1      -3.938   0.126   1.665  0.00  0.00    -0.075 A 
ATOM      2  C4  UNL d   1      -2.794  -0.683   1.614  0.00  0.00     0.002 A 
ATOM      3  C5  UNL d   1      -1.544  -0.165   1.956  0.00  0.00     0.002 A 
ATOM      4  C6  UNL d   1      -1.421   1.168   2.340  0.00  0.00    -0.004 A 
ATOM      5  C7  UNL d   1      -2.549   1.986   2.378  0.00  0.00     0.002 A 
ATOM      6  C8  UNL d   1      -3.801   1.469   2.041  0.00  0.00     0.002 A 
ENDROOT
BRANCH   1   7
ATOM      7  C2  UNL d   1      -5.298  -0.437   1.325  0.00  0.00     0.056 C 
BRANCH   7   8
ATOM      8  C1  UNL d   1      -5.320  -1.961   1.168  0.00  0.00     0.007 C 
ATOM      9  C   UNL d   1      -5.591  -2.413  -0.261  0.00  0.00     0.009 C 
ENDBRANCH   7   8
ENDBRANCH   1   7
TORSDOF 2
ENDMDL
