MODEL 1
REMARK minimizedAffinity 9.61409187
REMARK minimizedRMSD -1
REMARK  2 active torsions:
REMARK  status: ('A' for Active; 'I' for Inactive)
REMARK    1  A    between atoms: C1_2  and  C2_3 
REMARK    2  A    between atoms: C2_3  and  C3_4 
ROOT
ATOM      1  C3  UNL d   1       3.616   4.733  -4.713  0.00  0.00    -0.075 A 
ATOM      2  C4  UNL d   1       3.471   3.627  -5.563  0.00  0.00     0.002 A 
ATOM      3  C5  UNL d   1       4.574   2.842  -5.898  0.00  0.00     0.002 A 
ATOM      4  C6  UNL d   1       5.836   3.157  -5.397  0.00  0.00    -0.004 A 
ATOM      5  C7  UNL d   1       5.994   4.264  -4.565  0.00  0.00     0.002 A 
ATOM      6  C8  UNL d   1       4.891   5.049  -4.225  0.00  0.00     0.002 A 
ENDROOT
BRANCH   1   7
ATOM      7  C2  UNL d   1       2.421   5.570  -4.323  0.00  0.00     0.056 C 
BRANCH   7   8
ATOM      8  C1  UNL d   1       1.216   5.410  -5.256  0.00  0.00     0.007 C 
ATOM      9  C   UNL d   1      -0.090   5.888  -4.638  0.00  0.00     0.009 C 
ENDBRANCH   7   8
ENDBRANCH   1   7
TORSDOF 2
ENDMDL
