MODEL 1
REMARK minimizedAffinity 12.0632772
REMARK minimizedRMSD -1
REMARK  2 active torsions:
REMARK  status: ('A' for Active; 'I' for Inactive)
REMARK    1  A    between atoms: C1_2  and  C2_3 
REMARK    2  A    between atoms: C2_3  and  C3_4 
ROOT
ATOM      1  C3  UNL d   1      -0.013  -1.977  -5.385  0.00  0.00    -0.075 A 
ATOM      2  C4  UNL d   1       0.972  -2.076  -4.392  0.00  0.00     0.002 A 
ATOM      3  C5  UNL d   1       1.527  -0.928  -3.827  0.00  0.00     0.002 A 
ATOM      4  C6  UNL d   1       1.112   0.332  -4.252  0.00  0.00    -0.004 A 
ATOM      5  C7  UNL d   1       0.145   0.443  -5.249  0.00  0.00     0.002 A 
ATOM      6  C8  UNL d   1      -0.415  -0.705  -5.814  0.00  0.00     0.002 A 
ENDROOT
BRANCH   1   7
ATOM      7  C2  UNL d   1      -0.638  -3.216  -5.980  0.00  0.00     0.056 C 
BRANCH   7   8
ATOM      8  C1  UNL d   1      -2.171  -3.194  -5.999  0.00  0.00     0.007 C 
ATOM      9  C   UNL d   1      -2.791  -4.585  -5.999  0.00  0.00     0.009 C 
ENDBRANCH   7   8
ENDBRANCH   1   7
TORSDOF 2
ENDMDL
