MODEL 1
REMARK minimizedAffinity 7.42356682
REMARK minimizedRMSD -1
REMARK  2 active torsions:
REMARK  status: ('A' for Active; 'I' for Inactive)
REMARK    1  A    between atoms: C1_2  and  C2_3 
REMARK    2  A    between atoms: C2_3  and  C3_4 
ROOT
ATOM      1  C3  UNL d   1       2.368   0.837  -5.555  0.00  0.00    -0.075 A 
ATOM      2  C4  UNL d   1       2.486  -0.265  -4.695  0.00  0.00     0.002 A 
ATOM      3  C5  UNL d   1       1.355  -0.986  -4.309  0.00  0.00     0.002 A 
ATOM      4  C6  UNL d   1       0.095  -0.608  -4.767  0.00  0.00    -0.004 A 
ATOM      5  C7  UNL d   1      -0.035   0.495  -5.608  0.00  0.00     0.002 A 
ATOM      6  C8  UNL d   1       1.095   1.215  -6.000  0.00  0.00     0.002 A 
ENDROOT
BRANCH   1   7
ATOM      7  C2  UNL d   1       3.591   1.603  -6.000  0.00  0.00     0.056 C 
BRANCH   7   8
ATOM      8  C1  UNL d   1       3.411   3.125  -5.991  0.00  0.00     0.007 C 
ATOM      9  C   UNL d   1       4.513   3.855  -5.235  0.00  0.00     0.009 C 
ENDBRANCH   7   8
ENDBRANCH   1   7
TORSDOF 2
ENDMDL
