MODEL 1
REMARK minimizedAffinity 3.82289481
REMARK minimizedRMSD -1
REMARK  2 active torsions:
REMARK  status: ('A' for Active; 'I' for Inactive)
REMARK    1  A    between atoms: C1_2  and  C2_3 
REMARK    2  A    between atoms: C2_3  and  C3_4 
ROOT
ATOM      1  C3  UNL d   1      -5.740  -2.684  -2.547  0.00  0.00    -0.075 A 
ATOM      2  C4  UNL d   1      -5.978  -3.713  -3.469  0.00  0.00     0.002 A 
ATOM      3  C5  UNL d   1      -5.710  -3.525  -4.825  0.00  0.00     0.002 A 
ATOM      4  C6  UNL d   1      -5.211  -2.306  -5.277  0.00  0.00    -0.004 A 
ATOM      5  C7  UNL d   1      -4.986  -1.271  -4.372  0.00  0.00     0.002 A 
ATOM      6  C8  UNL d   1      -5.249  -1.457  -3.014  0.00  0.00     0.002 A 
ENDROOT
BRANCH   1   7
ATOM      7  C2  UNL d   1      -6.000  -2.891  -1.074  0.00  0.00     0.056 C 
BRANCH   7   8
ATOM      8  C1  UNL d   1      -5.438  -1.781  -0.179  0.00  0.00     0.007 C 
ATOM      9  C   UNL d   1      -5.999  -1.809   1.236  0.00  0.00     0.009 C 
ENDBRANCH   7   8
ENDBRANCH   1   7
TORSDOF 2
ENDMDL
