MODEL 1
REMARK minimizedAffinity 13.7134457
REMARK minimizedRMSD -1
REMARK  2 active torsions:
REMARK  status: ('A' for Active; 'I' for Inactive)
REMARK    1  A    between atoms: C1_2  and  C2_3 
REMARK    2  A    between atoms: C2_3  and  C3_4 
ROOT
ATOM      1  C3  UNL d   1      -3.074  -0.818   0.912  0.00  0.00    -0.075 A 
ATOM      2  C4  UNL d   1      -2.364  -2.027   0.911  0.00  0.00     0.002 A 
ATOM      3  C5  UNL d   1      -2.983  -3.212   0.512  0.00  0.00     0.002 A 
ATOM      4  C6  UNL d   1      -4.320  -3.205   0.120  0.00  0.00    -0.004 A 
ATOM      5  C7  UNL d   1      -5.040  -2.012   0.133  0.00  0.00     0.002 A 
ATOM      6  C8  UNL d   1      -4.421  -0.824   0.528  0.00  0.00     0.002 A 
ENDROOT
BRANCH   1   7
ATOM      7  C2  UNL d   1      -2.401   0.473   1.314  0.00  0.00     0.056 C 
BRANCH   7   8
ATOM      8  C1  UNL d   1      -3.042   1.726   0.708  0.00  0.00     0.007 C 
ATOM      9  C   UNL d   1      -3.294   2.825   1.731  0.00  0.00     0.009 C 
ENDBRANCH   7   8
ENDBRANCH   1   7
TORSDOF 2
ENDMDL
