MODEL 1
REMARK minimizedAffinity 12.9595823
REMARK minimizedRMSD -1
REMARK  2 active torsions:
REMARK  status: ('A' for Active; 'I' for Inactive)
REMARK    1  A    between atoms: C1_2  and  C2_3 
REMARK    2  A    between atoms: C2_3  and  C3_4 
ROOT
ATOM      1  C3  UNL d   1      -5.420   5.290   2.698  0.00  0.00    -0.075 A 
ATOM      2  C4  UNL d   1      -4.398   4.331   2.756  0.00  0.00     0.002 A 
ATOM      3  C5  UNL d   1      -3.951   3.702   1.593  0.00  0.00     0.002 A 
ATOM      4  C6  UNL d   1      -4.526   4.014   0.363  0.00  0.00    -0.004 A 
ATOM      5  C7  UNL d   1      -5.553   4.953   0.297  0.00  0.00     0.002 A 
ATOM      6  C8  UNL d   1      -5.999   5.588   1.457  0.00  0.00     0.002 A 
ENDROOT
BRANCH   1   7
ATOM      7  C2  UNL d   1      -5.887   5.997   3.948  0.00  0.00     0.056 C 
BRANCH   7   8
ATOM      8  C1  UNL d   1      -5.481   5.297   5.249  0.00  0.00     0.007 C 
ATOM      9  C   UNL d   1      -4.341   5.997   5.977  0.00  0.00     0.009 C 
ENDBRANCH   7   8
ENDBRANCH   1   7
TORSDOF 2
ENDMDL
