MODEL 1
REMARK minimizedAffinity 8.99903584
REMARK minimizedRMSD -1
REMARK  2 active torsions:
REMARK  status: ('A' for Active; 'I' for Inactive)
REMARK    1  A    between atoms: C1_2  and  C2_3 
REMARK    2  A    between atoms: C2_3  and  C3_4 
ROOT
ATOM      1  C3  UNL d   1      -1.131   2.328   2.210  0.00  0.00    -0.075 A 
ATOM      2  C4  UNL d   1      -0.550   1.085   2.500  0.00  0.00     0.002 A 
ATOM      3  C5  UNL d   1       0.652   1.011   3.204  0.00  0.00     0.002 A 
ATOM      4  C6  UNL d   1       1.293   2.177   3.618  0.00  0.00    -0.004 A 
ATOM      5  C7  UNL d   1       0.734   3.418   3.321  0.00  0.00     0.002 A 
ATOM      6  C8  UNL d   1      -0.472   3.494   2.620  0.00  0.00     0.002 A 
ENDROOT
BRANCH   1   7
ATOM      7  C2  UNL d   1      -2.447   2.413   1.474  0.00  0.00     0.056 C 
BRANCH   7   8
ATOM      8  C1  UNL d   1      -3.362   3.541   1.962  0.00  0.00     0.007 C 
ATOM      9  C   UNL d   1      -4.770   3.462   1.388  0.00  0.00     0.009 C 
ENDBRANCH   7   8
ENDBRANCH   1   7
TORSDOF 2
ENDMDL
