MODEL 1
REMARK minimizedAffinity -5.66244125
REMARK minimizedRMSD -1
REMARK  0 active torsions:
REMARK  status: ('A' for Active; 'I' for Inactive)
ROOT
ATOM      1  C4' PXY d   1       0.595  -0.844  -1.517  0.00  0.00     0.077 C 
ATOM      2  C1' PXY d   1      -0.712   1.255   3.708  0.00  0.00     0.077 C 
ATOM      3  C1  PXY d   1      -0.382   0.701   2.336  0.00  0.00    -0.082 A 
ATOM      4  C2  PXY d   1       0.857   0.325   2.064  0.00  0.00     0.003 A 
ATOM      5  C3  PXY d   1       1.180  -0.148   0.818  0.00  0.00     0.003 A 
ATOM      6  C4  PXY d   1       0.214  -0.288  -0.142  0.00  0.00    -0.082 A 
ATOM      7  C5  PXY d   1      -1.055   0.084   0.132  0.00  0.00     0.003 A 
ATOM      8  C6  PXY d   1      -1.353   0.601   1.389  0.00  0.00     0.003 A 
ENDROOT
TORSDOF 0
ENDMDL
