MODEL 1
REMARK minimizedAffinity -4.58877134
REMARK minimizedRMSD -1
REMARK  0 active torsions:
REMARK  status: ('A' for Active; 'I' for Inactive)
ROOT
ATOM      1  C4' PXY d   1       0.658  -0.209  -2.290  0.00  0.00     0.077 C 
ATOM      2  C1' PXY d   1      -1.244   0.008   3.164  0.00  0.00     0.077 C 
ATOM      3  C1  PXY d   1      -0.733  -0.047   1.738  0.00  0.00    -0.082 A 
ATOM      4  C2  PXY d   1      -1.558   0.213   0.737  0.00  0.00     0.003 A 
ATOM      5  C3  PXY d   1      -1.121   0.137  -0.560  0.00  0.00     0.003 A 
ATOM      6  C4  PXY d   1       0.188  -0.156  -0.834  0.00  0.00    -0.082 A 
ATOM      7  C5  PXY d   1       1.039  -0.412   0.182  0.00  0.00     0.003 A 
ATOM      8  C6  PXY d   1       0.566  -0.370   1.490  0.00  0.00     0.003 A 
ENDROOT
TORSDOF 0
ENDMDL
