MODEL 1
REMARK minimizedAffinity -4.7570796
REMARK minimizedRMSD -1
REMARK  0 active torsions:
REMARK  status: ('A' for Active; 'I' for Inactive)
ROOT
ATOM      1  C4' PXY d   1       0.215  -0.539  -1.902  0.00  0.00     0.077 C 
ATOM      2  C1' PXY d   1      -0.600   1.388   3.486  0.00  0.00     0.077 C 
ATOM      3  C1  PXY d   1      -0.398   0.878   2.073  0.00  0.00    -0.082 A 
ATOM      4  C2  PXY d   1       0.828   0.668   1.622  0.00  0.00     0.003 A 
ATOM      5  C3  PXY d   1       1.030   0.237   0.336  0.00  0.00     0.003 A 
ATOM      6  C4  PXY d   1      -0.037  -0.033  -0.479  0.00  0.00    -0.082 A 
ATOM      7  C5  PXY d   1      -1.291   0.169  -0.023  0.00  0.00     0.003 A 
ATOM      8  C6  PXY d   1      -1.473   0.646   1.272  0.00  0.00     0.003 A 
ENDROOT
TORSDOF 0
ENDMDL
