MODEL 1
REMARK minimizedAffinity -3.34813476
REMARK minimizedRMSD -1
REMARK  0 active torsions:
REMARK  status: ('A' for Active; 'I' for Inactive)
ROOT
ATOM      1  C4' PXY d   1      -0.055   0.771   3.567  0.00  0.00     0.077 C 
ATOM      2  C1' PXY d   1       0.149  -0.447  -2.080  0.00  0.00     0.077 C 
ATOM      3  C1  PXY d   1       0.085  -0.121  -0.601  0.00  0.00    -0.082 A 
ATOM      4  C2  PXY d   1       1.191  -0.154   0.125  0.00  0.00     0.003 A 
ATOM      5  C3  PXY d   1       1.145   0.107   1.471  0.00  0.00     0.003 A 
ATOM      6  C4  PXY d   1      -0.036   0.458   2.069  0.00  0.00    -0.082 A 
ATOM      7  C5  PXY d   1      -1.166   0.504   1.333  0.00  0.00     0.003 A 
ATOM      8  C6  PXY d   1      -1.106   0.195  -0.023  0.00  0.00     0.003 A 
ENDROOT
TORSDOF 0
ENDMDL
