MODEL 1
REMARK minimizedAffinity -5.22732019
REMARK minimizedRMSD -1
REMARK  0 active torsions:
REMARK  status: ('A' for Active; 'I' for Inactive)
ROOT
ATOM      1  C4' PXY d   1       0.682  -0.790  -1.602  0.00  0.00     0.077 C 
ATOM      2  C1' PXY d   1      -0.402   1.266   3.690  0.00  0.00     0.077 C 
ATOM      3  C1  PXY d   1      -0.130   0.724   2.301  0.00  0.00    -0.082 A 
ATOM      4  C2  PXY d   1       1.087   0.311   1.986  0.00  0.00     0.003 A 
ATOM      5  C3  PXY d   1       1.357  -0.153   0.725  0.00  0.00     0.003 A 
ATOM      6  C4  PXY d   1       0.360  -0.244  -0.209  0.00  0.00    -0.082 A 
ATOM      7  C5  PXY d   1      -0.887   0.165   0.108  0.00  0.00     0.003 A 
ATOM      8  C6  PXY d   1      -1.132   0.671   1.381  0.00  0.00     0.003 A 
ENDROOT
TORSDOF 0
ENDMDL
