MODEL 1
REMARK minimizedAffinity -3.58150172
REMARK minimizedRMSD -1
REMARK  0 active torsions:
REMARK  status: ('A' for Active; 'I' for Inactive)
ROOT
ATOM      1  C4' PXY d   1       0.057  -0.782  -1.984  0.00  0.00     0.077 C 
ATOM      2  C1' PXY d   1       0.617  -0.354   3.754  0.00  0.00     0.077 C 
ATOM      3  C1  PXY d   1       0.457  -0.466   2.250  0.00  0.00    -0.082 A 
ATOM      4  C2  PXY d   1       1.423  -1.012   1.529  0.00  0.00     0.003 A 
ATOM      5  C3  PXY d   1       1.308  -1.092   0.165  0.00  0.00     0.003 A 
ATOM      6  C4  PXY d   1       0.171  -0.657  -0.462  0.00  0.00    -0.082 A 
ATOM      7  C5  PXY d   1      -0.823  -0.109   0.268  0.00  0.00     0.003 A 
ATOM      8  C6  PXY d   1      -0.670   0.001   1.647  0.00  0.00     0.003 A 
ENDROOT
TORSDOF 0
ENDMDL
