MODEL 1
REMARK minimizedAffinity -1.56867397
REMARK minimizedRMSD -1
REMARK  0 active torsions:
REMARK  status: ('A' for Active; 'I' for Inactive)
ROOT
ATOM      1  C4' PXY d   1       0.436  -1.275  -2.705  0.00  0.00     0.077 C 
ATOM      2  C1' PXY d   1      -1.092   0.149   2.685  0.00  0.00     0.077 C 
ATOM      3  C1  PXY d   1      -0.679  -0.226   1.275  0.00  0.00    -0.082 A 
ATOM      4  C2  PXY d   1      -1.382   0.220   0.247  0.00  0.00     0.003 A 
ATOM      5  C3  PXY d   1      -1.042  -0.136  -1.032  0.00  0.00     0.003 A 
ATOM      6  C4  PXY d   1       0.061  -0.913  -1.265  0.00  0.00    -0.082 A 
ATOM      7  C5  PXY d   1       0.790  -1.364  -0.222  0.00  0.00     0.003 A 
ATOM      8  C6  PXY d   1       0.404  -1.025   1.071  0.00  0.00     0.003 A 
ENDROOT
TORSDOF 0
ENDMDL
