MODEL 1
REMARK minimizedAffinity -4.07516623
REMARK minimizedRMSD -1
REMARK  0 active torsions:
REMARK  status: ('A' for Active; 'I' for Inactive)
ROOT
ATOM      1  C4' PXY d   1       2.367  -0.815   3.371  0.00  0.00     0.077 C 
ATOM      2  C1' PXY d   1      -2.327   0.450   0.243  0.00  0.00     0.077 C 
ATOM      3  C1  PXY d   1      -1.099   0.127   1.072  0.00  0.00    -0.082 A 
ATOM      4  C2  PXY d   1      -0.060  -0.461   0.501  0.00  0.00     0.003 A 
ATOM      5  C3  PXY d   1       1.046  -0.788   1.242  0.00  0.00     0.003 A 
ATOM      6  C4  PXY d   1       1.110  -0.462   2.571  0.00  0.00    -0.082 A 
ATOM      7  C5  PXY d   1       0.059   0.147   3.158  0.00  0.00     0.003 A 
ATOM      8  C6  PXY d   1      -1.070   0.434   2.397  0.00  0.00     0.003 A 
ENDROOT
TORSDOF 0
ENDMDL
