MODEL 1
REMARK minimizedAffinity -4.43580389
REMARK minimizedRMSD -1
REMARK  0 active torsions:
REMARK  status: ('A' for Active; 'I' for Inactive)
ROOT
ATOM      1  C4' PXY d   1       0.247  -0.654  -1.764  0.00  0.00     0.077 C 
ATOM      2  C1' PXY d   1      -0.555   1.222   3.644  0.00  0.00     0.077 C 
ATOM      3  C1  PXY d   1      -0.355   0.723   2.227  0.00  0.00    -0.082 A 
ATOM      4  C2  PXY d   1       0.856   0.730   1.695  0.00  0.00     0.003 A 
ATOM      5  C3  PXY d   1       1.050   0.312   0.404  0.00  0.00     0.003 A 
ATOM      6  C4  PXY d   1       0.000  -0.168  -0.333  0.00  0.00    -0.082 A 
ATOM      7  C5  PXY d   1      -1.237  -0.188   0.206  0.00  0.00     0.003 A 
ATOM      8  C6  PXY d   1      -1.419   0.279   1.504  0.00  0.00     0.003 A 
ENDROOT
TORSDOF 0
ENDMDL
