MODEL 1
REMARK minimizedAffinity -3.50906897
REMARK minimizedRMSD -1
REMARK  0 active torsions:
REMARK  status: ('A' for Active; 'I' for Inactive)
ROOT
ATOM      1  C4' PXY d   1       0.715  -0.871  -1.969  0.00  0.00     0.077 C 
ATOM      2  C1' PXY d   1      -1.148   1.302   3.053  0.00  0.00     0.077 C 
ATOM      3  C1  PXY d   1      -0.649   0.740   1.737  0.00  0.00    -0.082 A 
ATOM      4  C2  PXY d   1      -1.507   0.188   0.894  0.00  0.00     0.003 A 
ATOM      5  C3  PXY d   1      -1.068  -0.354  -0.286  0.00  0.00     0.003 A 
ATOM      6  C4  PXY d   1       0.255  -0.282  -0.632  0.00  0.00    -0.082 A 
ATOM      7  C5  PXY d   1       1.135   0.289   0.217  0.00  0.00     0.003 A 
ATOM      8  C6  PXY d   1       0.675   0.797   1.429  0.00  0.00     0.003 A 
ENDROOT
TORSDOF 0
ENDMDL
