MODEL 1
REMARK minimizedAffinity -4.51338434
REMARK minimizedRMSD -1
REMARK  0 active torsions:
REMARK  status: ('A' for Active; 'I' for Inactive)
ROOT
ATOM      1  C4' PXY d   1       2.537   0.423   3.322  0.00  0.00     0.077 C 
ATOM      2  C1' PXY d   1      -2.609   0.202   0.697  0.00  0.00     0.077 C 
ATOM      3  C1  PXY d   1      -1.255   0.250   1.378  0.00  0.00    -0.082 A 
ATOM      4  C2  PXY d   1      -1.158   0.729   2.608  0.00  0.00     0.003 A 
ATOM      5  C3  PXY d   1       0.063   0.810   3.226  0.00  0.00     0.003 A 
ATOM      6  C4  PXY d   1       1.189   0.346   2.600  0.00  0.00    -0.082 A 
ATOM      7  C5  PXY d   1       1.096  -0.154   1.349  0.00  0.00     0.003 A 
ATOM      8  C6  PXY d   1      -0.146  -0.189   0.723  0.00  0.00     0.003 A 
ENDROOT
TORSDOF 0
ENDMDL
