MODEL 1
REMARK minimizedAffinity -3.82263756
REMARK minimizedRMSD -1
REMARK  0 active torsions:
REMARK  status: ('A' for Active; 'I' for Inactive)
ROOT
ATOM      1  C4' PXY d   1       0.774   0.380  -1.563  0.00  0.00     0.077 C 
ATOM      2  C1' PXY d   1      -0.171   0.608   4.135  0.00  0.00     0.077 C 
ATOM      3  C1  PXY d   1       0.088   0.556   2.642  0.00  0.00    -0.082 A 
ATOM      4  C2  PXY d   1      -0.917   0.328   1.812  0.00  0.00     0.003 A 
ATOM      5  C3  PXY d   1      -0.696   0.245   0.461  0.00  0.00     0.003 A 
ATOM      6  C4  PXY d   1       0.558   0.451  -0.049  0.00  0.00    -0.082 A 
ATOM      7  C5  PXY d   1       1.586   0.694   0.791  0.00  0.00     0.003 A 
ATOM      8  C6  PXY d   1       1.348   0.733   2.161  0.00  0.00     0.003 A 
ENDROOT
TORSDOF 0
ENDMDL
