MODEL 1
REMARK minimizedAffinity -3.6695807
REMARK minimizedRMSD -1
REMARK  0 active torsions:
REMARK  status: ('A' for Active; 'I' for Inactive)
ROOT
ATOM      1  C4' PXY d   1       5.278   1.093   5.015  0.00  0.00     0.077 C 
ATOM      2  C1' PXY d   1       4.820   5.771   1.650  0.00  0.00     0.077 C 
ATOM      3  C1  PXY d   1       4.951   4.549   2.538  0.00  0.00    -0.082 A 
ATOM      4  C2  PXY d   1       4.368   3.416   2.182  0.00  0.00     0.003 A 
ATOM      5  C3  PXY d   1       4.450   2.310   2.988  0.00  0.00     0.003 A 
ATOM      6  C4  PXY d   1       5.180   2.350   4.146  0.00  0.00    -0.082 A 
ATOM      7  C5  PXY d   1       5.787   3.499   4.511  0.00  0.00     0.003 A 
ATOM      8  C6  PXY d   1       5.657   4.622   3.699  0.00  0.00     0.003 A 
ENDROOT
TORSDOF 0
ENDMDL
