MODEL 1
REMARK minimizedAffinity -3.04776978
REMARK minimizedRMSD -1
REMARK  0 active torsions:
REMARK  status: ('A' for Active; 'I' for Inactive)
ROOT
ATOM      1  C4' PXY d   1      -2.330  -0.013  -0.473  0.00  0.00     0.077 C 
ATOM      2  C1' PXY d   1       1.115  -0.433   4.149  0.00  0.00     0.077 C 
ATOM      3  C1  PXY d   1       0.201  -0.322   2.945  0.00  0.00    -0.082 A 
ATOM      4  C2  PXY d   1       0.613  -0.767   1.769  0.00  0.00     0.003 A 
ATOM      5  C3  PXY d   1      -0.189  -0.646   0.663  0.00  0.00     0.003 A 
ATOM      6  C4  PXY d   1      -1.445  -0.113   0.772  0.00  0.00    -0.082 A 
ATOM      7  C5  PXY d   1      -1.876   0.333   1.971  0.00  0.00     0.003 A 
ATOM      8  C6  PXY d   1      -1.031   0.239   3.074  0.00  0.00     0.003 A 
ENDROOT
TORSDOF 0
ENDMDL
