MODEL 1
REMARK minimizedAffinity 16.0745792
REMARK minimizedRMSD -1
REMARK  2 active torsions:
REMARK  status: ('A' for Active; 'I' for Inactive)
REMARK    1  A    between atoms: C1_2  and  C2_3 
REMARK    2  A    between atoms: C2_3  and  C3_4 
ROOT
ATOM      1  C3  UNL d   1      -1.858   3.726  -3.433  0.00  0.00    -0.075 A 
ATOM      2  C4  UNL d   1      -1.900   3.241  -4.748  0.00  0.00     0.002 A 
ATOM      3  C5  UNL d   1      -1.919   4.124  -5.828  0.00  0.00     0.002 A 
ATOM      4  C6  UNL d   1      -1.907   5.500  -5.608  0.00  0.00    -0.004 A 
ATOM      5  C7  UNL d   1      -1.882   5.992  -4.305  0.00  0.00     0.002 A 
ATOM      6  C8  UNL d   1      -1.858   5.111  -3.222  0.00  0.00     0.002 A 
ENDROOT
BRANCH   1   7
ATOM      7  C2  UNL d   1      -1.807   2.775  -2.261  0.00  0.00     0.056 C 
BRANCH   7   8
ATOM      8  C1  UNL d   1      -0.391   2.336  -1.875  0.00  0.00     0.007 C 
ATOM      9  C   UNL d   1       0.122   3.008  -0.607  0.00  0.00     0.009 C 
ENDBRANCH   7   8
ENDBRANCH   1   7
TORSDOF 2
ENDMDL
