MODEL 1
REMARK minimizedAffinity 9.286273
REMARK minimizedRMSD -1
REMARK  2 active torsions:
REMARK  status: ('A' for Active; 'I' for Inactive)
REMARK    1  A    between atoms: C1_2  and  C2_3 
REMARK    2  A    between atoms: C2_3  and  C3_4 
ROOT
ATOM      1  C3  UNL d   1      -3.263  -3.772   2.139  0.00  0.00    -0.075 A 
ATOM      2  C4  UNL d   1      -2.668  -5.031   1.969  0.00  0.00     0.002 A 
ATOM      3  C5  UNL d   1      -3.271  -5.996   1.161  0.00  0.00     0.002 A 
ATOM      4  C6  UNL d   1      -4.478  -5.719   0.522  0.00  0.00    -0.004 A 
ATOM      5  C7  UNL d   1      -5.086  -4.478   0.698  0.00  0.00     0.002 A 
ATOM      6  C8  UNL d   1      -4.483  -3.509   1.502  0.00  0.00     0.002 A 
ENDROOT
BRANCH   1   7
ATOM      7  C2  UNL d   1      -2.602  -2.713   2.988  0.00  0.00     0.056 C 
BRANCH   7   8
ATOM      8  C1  UNL d   1      -1.347  -2.102   2.357  0.00  0.00     0.007 C 
ATOM      9  C   UNL d   1      -0.873  -0.839   3.064  0.00  0.00     0.009 C 
ENDBRANCH   7   8
ENDBRANCH   1   7
TORSDOF 2
ENDMDL
