MODEL 1
REMARK minimizedAffinity 14.8985291
REMARK minimizedRMSD -1
REMARK  2 active torsions:
REMARK  status: ('A' for Active; 'I' for Inactive)
REMARK    1  A    between atoms: C1_2  and  C2_3 
REMARK    2  A    between atoms: C2_3  and  C3_4 
ROOT
ATOM      1  C3  UNL d   1      -1.144   3.015  -2.107  0.00  0.00    -0.075 A 
ATOM      2  C4  UNL d   1      -1.836   4.193  -1.789  0.00  0.00     0.002 A 
ATOM      3  C5  UNL d   1      -3.218   4.271  -1.962  0.00  0.00     0.002 A 
ATOM      4  C6  UNL d   1      -3.924   3.180  -2.464  0.00  0.00    -0.004 A 
ATOM      5  C7  UNL d   1      -3.245   2.010  -2.799  0.00  0.00     0.002 A 
ATOM      6  C8  UNL d   1      -1.862   1.927  -2.622  0.00  0.00     0.002 A 
ENDROOT
BRANCH   1   7
ATOM      7  C2  UNL d   1       0.347   2.913  -1.894  0.00  0.00     0.056 C 
BRANCH   7   8
ATOM      8  C1  UNL d   1       0.756   2.704  -0.432  0.00  0.00     0.007 C 
ATOM      9  C   UNL d   1       0.390   3.877   0.468  0.00  0.00     0.009 C 
ENDBRANCH   7   8
ENDBRANCH   1   7
TORSDOF 2
ENDMDL
