MODEL 1
REMARK minimizedAffinity 15.4867268
REMARK minimizedRMSD -1
REMARK  2 active torsions:
REMARK  status: ('A' for Active; 'I' for Inactive)
REMARK    1  A    between atoms: C1_2  and  C2_3 
REMARK    2  A    between atoms: C2_3  and  C3_4 
ROOT
ATOM      1  C3  UNL d   1      -2.321   2.838  -1.305  0.00  0.00    -0.075 A 
ATOM      2  C4  UNL d   1      -1.948   3.068   0.028  0.00  0.00     0.002 A 
ATOM      3  C5  UNL d   1      -0.608   2.999   0.411  0.00  0.00     0.002 A 
ATOM      4  C6  UNL d   1       0.373   2.690  -0.529  0.00  0.00    -0.004 A 
ATOM      5  C7  UNL d   1       0.012   2.443  -1.852  0.00  0.00     0.002 A 
ATOM      6  C8  UNL d   1      -1.327   2.516  -2.239  0.00  0.00     0.002 A 
ENDROOT
BRANCH   1   7
ATOM      7  C2  UNL d   1      -3.765   2.940  -1.731  0.00  0.00     0.056 C 
BRANCH   7   8
ATOM      8  C1  UNL d   1      -4.745   3.148  -0.572  0.00  0.00     0.007 C 
ATOM      9  C   UNL d   1      -5.551   4.435  -0.690  0.00  0.00     0.009 C 
ENDBRANCH   7   8
ENDBRANCH   1   7
TORSDOF 2
ENDMDL
