MODEL 1
REMARK minimizedAffinity 12.7940235
REMARK minimizedRMSD -1
REMARK  2 active torsions:
REMARK  status: ('A' for Active; 'I' for Inactive)
REMARK    1  A    between atoms: C1_2  and  C2_3 
REMARK    2  A    between atoms: C2_3  and  C3_4 
ROOT
ATOM      1  C3  UNL d   1       1.263  -0.544   2.315  0.00  0.00    -0.075 A 
ATOM      2  C4  UNL d   1       1.402  -1.804   1.716  0.00  0.00     0.002 A 
ATOM      3  C5  UNL d   1       2.605  -2.173   1.114  0.00  0.00     0.002 A 
ATOM      4  C6  UNL d   1       3.679  -1.285   1.094  0.00  0.00    -0.004 A 
ATOM      5  C7  UNL d   1       3.546  -0.025   1.672  0.00  0.00     0.002 A 
ATOM      6  C8  UNL d   1       2.345   0.346   2.279  0.00  0.00     0.002 A 
ENDROOT
BRANCH   1   7
ATOM      7  C2  UNL d   1      -0.027  -0.149   2.995  0.00  0.00     0.056 C 
BRANCH   7   8
ATOM      8  C1  UNL d   1       0.077  -0.049   4.520  0.00  0.00     0.007 C 
ATOM      9  C   UNL d   1       1.505   0.146   5.013  0.00  0.00     0.009 C 
ENDBRANCH   7   8
ENDBRANCH   1   7
TORSDOF 2
ENDMDL
