MODEL 1
REMARK minimizedAffinity 14.860054
REMARK minimizedRMSD -1
REMARK  2 active torsions:
REMARK  status: ('A' for Active; 'I' for Inactive)
REMARK    1  A    between atoms: C1_2  and  C2_3 
REMARK    2  A    between atoms: C2_3  and  C3_4 
ROOT
ATOM      1  C3  UNL d   1       3.402  -0.783   1.070  0.00  0.00    -0.075 A 
ATOM      2  C4  UNL d   1       2.103  -1.223   1.362  0.00  0.00     0.002 A 
ATOM      3  C5  UNL d   1       1.414  -0.717   2.464  0.00  0.00     0.002 A 
ATOM      4  C6  UNL d   1       2.016   0.227   3.292  0.00  0.00    -0.004 A 
ATOM      5  C7  UNL d   1       3.313   0.660   3.022  0.00  0.00     0.002 A 
ATOM      6  C8  UNL d   1       4.003   0.158   1.917  0.00  0.00     0.002 A 
ENDROOT
BRANCH   1   7
ATOM      7  C2  UNL d   1       4.142  -1.305  -0.138  0.00  0.00     0.056 C 
BRANCH   7   8
ATOM      8  C1  UNL d   1       4.275  -0.288  -1.276  0.00  0.00     0.007 C 
ATOM      9  C   UNL d   1       4.898  -0.874  -2.536  0.00  0.00     0.009 C 
ENDBRANCH   7   8
ENDBRANCH   1   7
TORSDOF 2
ENDMDL
