MODEL 1
REMARK minimizedAffinity 21.3651924
REMARK minimizedRMSD -1
REMARK  2 active torsions:
REMARK  status: ('A' for Active; 'I' for Inactive)
REMARK    1  A    between atoms: C1_2  and  C2_3 
REMARK    2  A    between atoms: C2_3  and  C3_4 
ROOT
ATOM      1  C3  UNL d   1       0.342  -1.660   1.668  0.00  0.00    -0.075 A 
ATOM      2  C4  UNL d   1       1.641  -1.884   1.189  0.00  0.00     0.002 A 
ATOM      3  C5  UNL d   1       2.722  -1.176   1.715  0.00  0.00     0.002 A 
ATOM      4  C6  UNL d   1       2.517  -0.230   2.717  0.00  0.00    -0.004 A 
ATOM      5  C7  UNL d   1       1.229   0.013   3.189  0.00  0.00     0.002 A 
ATOM      6  C8  UNL d   1       0.146  -0.698   2.668  0.00  0.00     0.002 A 
ENDROOT
BRANCH   1   7
ATOM      7  C2  UNL d   1      -0.828  -2.445   1.124  0.00  0.00     0.056 C 
BRANCH   7   8
ATOM      8  C1  UNL d   1      -1.731  -3.048   2.205  0.00  0.00     0.007 C 
ATOM      9  C   UNL d   1      -3.160  -3.283   1.731  0.00  0.00     0.009 C 
ENDBRANCH   7   8
ENDBRANCH   1   7
TORSDOF 2
ENDMDL
