MODEL 1
REMARK minimizedAffinity 3.9398036
REMARK minimizedRMSD -1
REMARK  2 active torsions:
REMARK  status: ('A' for Active; 'I' for Inactive)
REMARK    1  A    between atoms: C1_2  and  C2_3 
REMARK    2  A    between atoms: C2_3  and  C3_4 
ROOT
ATOM      1  C3  UNL d   1      -1.550  -1.928   3.708  0.00  0.00    -0.075 A 
ATOM      2  C4  UNL d   1      -0.654  -1.821   2.635  0.00  0.00     0.002 A 
ATOM      3  C5  UNL d   1       0.487  -1.026   2.741  0.00  0.00     0.002 A 
ATOM      4  C6  UNL d   1       0.742  -0.321   3.916  0.00  0.00    -0.004 A 
ATOM      5  C7  UNL d   1      -0.150  -0.407   4.982  0.00  0.00     0.002 A 
ATOM      6  C8  UNL d   1      -1.291  -1.206   4.880  0.00  0.00     0.002 A 
ENDROOT
BRANCH   1   7
ATOM      7  C2  UNL d   1      -2.771  -2.811   3.610  0.00  0.00     0.056 C 
BRANCH   7   8
ATOM      8  C1  UNL d   1      -3.156  -3.186   2.175  0.00  0.00     0.007 C 
ATOM      9  C   UNL d   1      -4.630  -2.959   1.869  0.00  0.00     0.009 C 
ENDBRANCH   7   8
ENDBRANCH   1   7
TORSDOF 2
ENDMDL
