MODEL 1
REMARK minimizedAffinity 10.7876005
REMARK minimizedRMSD -1
REMARK  2 active torsions:
REMARK  status: ('A' for Active; 'I' for Inactive)
REMARK    1  A    between atoms: C1_2  and  C2_3 
REMARK    2  A    between atoms: C2_3  and  C3_4 
ROOT
ATOM      1  C3  UNL d   1       1.224  -0.790   2.715  0.00  0.00    -0.075 A 
ATOM      2  C4  UNL d   1       0.875  -2.077   2.279  0.00  0.00     0.002 A 
ATOM      3  C5  UNL d   1       1.690  -2.764   1.379  0.00  0.00     0.002 A 
ATOM      4  C6  UNL d   1       2.854  -2.172   0.896  0.00  0.00    -0.004 A 
ATOM      5  C7  UNL d   1       3.201  -0.887   1.309  0.00  0.00     0.002 A 
ATOM      6  C8  UNL d   1       2.391  -0.199   2.213  0.00  0.00     0.002 A 
ENDROOT
BRANCH   1   7
ATOM      7  C2  UNL d   1       0.362  -0.052   3.712  0.00  0.00     0.056 C 
BRANCH   7   8
ATOM      8  C1  UNL d   1       0.959   0.017   5.121  0.00  0.00     0.007 C 
ATOM      9  C   UNL d   1       2.465   0.246   5.125  0.00  0.00     0.009 C 
ENDBRANCH   7   8
ENDBRANCH   1   7
TORSDOF 2
ENDMDL
