MODEL 1
REMARK minimizedAffinity 10.2579279
REMARK minimizedRMSD -1
REMARK  2 active torsions:
REMARK  status: ('A' for Active; 'I' for Inactive)
REMARK    1  A    between atoms: C1_2  and  C2_3 
REMARK    2  A    between atoms: C2_3  and  C3_4 
ROOT
ATOM      1  C3  UNL d   1       2.307  -0.392   2.558  0.00  0.00    -0.075 A 
ATOM      2  C4  UNL d   1       1.077  -0.773   2.003  0.00  0.00     0.002 A 
ATOM      3  C5  UNL d   1      -0.103  -0.643   2.737  0.00  0.00     0.002 A 
ATOM      4  C6  UNL d   1      -0.066  -0.141   4.036  0.00  0.00    -0.004 A 
ATOM      5  C7  UNL d   1       1.152   0.224   4.604  0.00  0.00     0.002 A 
ATOM      6  C8  UNL d   1       2.333   0.099   3.870  0.00  0.00     0.002 A 
ENDROOT
BRANCH   1   7
ATOM      7  C2  UNL d   1       3.583  -0.503   1.758  0.00  0.00     0.056 C 
BRANCH   7   8
ATOM      8  C1  UNL d   1       4.790   0.178   2.412  0.00  0.00     0.007 C 
ATOM      9  C   UNL d   1       5.853  -0.806   2.881  0.00  0.00     0.009 C 
ENDBRANCH   7   8
ENDBRANCH   1   7
TORSDOF 2
ENDMDL
