MODEL 1
REMARK minimizedAffinity 19.6364536
REMARK minimizedRMSD -1
REMARK  2 active torsions:
REMARK  status: ('A' for Active; 'I' for Inactive)
REMARK    1  A    between atoms: C1_2  and  C2_3 
REMARK    2  A    between atoms: C2_3  and  C3_4 
ROOT
ATOM      1  C3  UNL d   1      -0.110  -0.758   3.476  0.00  0.00    -0.075 A 
ATOM      2  C4  UNL d   1      -0.608  -1.965   2.965  0.00  0.00     0.002 A 
ATOM      3  C5  UNL d   1       0.019  -2.591   1.887  0.00  0.00     0.002 A 
ATOM      4  C6  UNL d   1       1.144  -2.015   1.302  0.00  0.00    -0.004 A 
ATOM      5  C7  UNL d   1       1.638  -0.808   1.791  0.00  0.00     0.002 A 
ATOM      6  C8  UNL d   1       1.015  -0.181   2.871  0.00  0.00     0.002 A 
ENDROOT
BRANCH   1   7
ATOM      7  C2  UNL d   1      -0.767  -0.090   4.660  0.00  0.00     0.056 C 
BRANCH   7   8
ATOM      8  C1  UNL d   1      -0.065  -0.359   5.996  0.00  0.00     0.007 C 
ATOM      9  C   UNL d   1       1.403   0.045   5.995  0.00  0.00     0.009 C 
ENDBRANCH   7   8
ENDBRANCH   1   7
TORSDOF 2
ENDMDL
