MODEL 1
REMARK minimizedAffinity 6.70149279
REMARK minimizedRMSD -1
REMARK  2 active torsions:
REMARK  status: ('A' for Active; 'I' for Inactive)
REMARK    1  A    between atoms: C1_2  and  C2_3 
REMARK    2  A    between atoms: C2_3  and  C3_4 
ROOT
ATOM      1  C3  UNL d   1      -2.551   3.434  -2.001  0.00  0.00    -0.075 A 
ATOM      2  C4  UNL d   1      -2.354   4.764  -2.398  0.00  0.00     0.002 A 
ATOM      3  C5  UNL d   1      -3.249   5.761  -2.006  0.00  0.00     0.002 A 
ATOM      4  C6  UNL d   1      -4.355   5.439  -1.223  0.00  0.00    -0.004 A 
ATOM      5  C7  UNL d   1      -4.570   4.118  -0.837  0.00  0.00     0.002 A 
ATOM      6  C8  UNL d   1      -3.674   3.119  -1.224  0.00  0.00     0.002 A 
ENDROOT
BRANCH   1   7
ATOM      7  C2  UNL d   1      -1.571   2.356  -2.397  0.00  0.00     0.056 C 
BRANCH   7   8
ATOM      8  C1  UNL d   1      -0.846   1.707  -1.213  0.00  0.00     0.007 C 
ATOM      9  C   UNL d   1      -0.144   2.714  -0.312  0.00  0.00     0.009 C 
ENDBRANCH   7   8
ENDBRANCH   1   7
TORSDOF 2
ENDMDL
