MODEL 1
REMARK minimizedAffinity 11.0389309
REMARK minimizedRMSD -1
REMARK  2 active torsions:
REMARK  status: ('A' for Active; 'I' for Inactive)
REMARK    1  A    between atoms: C1_2  and  C2_3 
REMARK    2  A    between atoms: C2_3  and  C3_4 
ROOT
ATOM      1  C3  UNL d   1      -1.840   4.351  -3.262  0.00  0.00    -0.075 A 
ATOM      2  C4  UNL d   1      -3.079   4.219  -2.620  0.00  0.00     0.002 A 
ATOM      3  C5  UNL d   1      -3.397   3.050  -1.927  0.00  0.00     0.002 A 
ATOM      4  C6  UNL d   1      -2.486   1.997  -1.877  0.00  0.00    -0.004 A 
ATOM      5  C7  UNL d   1      -1.259   2.111  -2.526  0.00  0.00     0.002 A 
ATOM      6  C8  UNL d   1      -0.936   3.281  -3.216  0.00  0.00     0.002 A 
ENDROOT
BRANCH   1   7
ATOM      7  C2  UNL d   1      -1.478   5.625  -3.989  0.00  0.00     0.056 C 
BRANCH   7   8
ATOM      8  C1  UNL d   1      -1.517   5.504  -5.516  0.00  0.00     0.007 C 
ATOM      9  C   UNL d   1      -1.986   4.138  -5.999  0.00  0.00     0.009 C 
ENDBRANCH   7   8
ENDBRANCH   1   7
TORSDOF 2
ENDMDL
