MODEL 1
REMARK minimizedAffinity 16.5126247
REMARK minimizedRMSD -1
REMARK  2 active torsions:
REMARK  status: ('A' for Active; 'I' for Inactive)
REMARK    1  A    between atoms: C1_2  and  C2_3 
REMARK    2  A    between atoms: C2_3  and  C3_4 
ROOT
ATOM      1  C3  UNL d   1      -2.518   3.371  -3.300  0.00  0.00    -0.075 A 
ATOM      2  C4  UNL d   1      -3.557   2.473  -3.014  0.00  0.00     0.002 A 
ATOM      3  C5  UNL d   1      -4.517   2.785  -2.051  0.00  0.00     0.002 A 
ATOM      4  C6  UNL d   1      -4.446   3.990  -1.356  0.00  0.00    -0.004 A 
ATOM      5  C7  UNL d   1      -3.409   4.882  -1.620  0.00  0.00     0.002 A 
ATOM      6  C8  UNL d   1      -2.449   4.575  -2.586  0.00  0.00     0.002 A 
ENDROOT
BRANCH   1   7
ATOM      7  C2  UNL d   1      -1.493   3.053  -4.362  0.00  0.00     0.056 C 
BRANCH   7   8
ATOM      8  C1  UNL d   1      -1.907   3.475  -5.775  0.00  0.00     0.007 C 
ATOM      9  C   UNL d   1      -3.413   3.425  -6.000  0.00  0.00     0.009 C 
ENDBRANCH   7   8
ENDBRANCH   1   7
TORSDOF 2
ENDMDL
