MODEL 1
REMARK minimizedAffinity 18.0867672
REMARK minimizedRMSD -1
REMARK  3 active torsions:
REMARK  status: ('A' for Active; 'I' for Inactive)
REMARK    1  A    between atoms: C3'_2  and  C2'_3 
REMARK    2  A    between atoms: C2'_3  and  C1'_4 
REMARK    3  A    between atoms: C1'_4  and  C1_5 
ROOT
ATOM      1  C1  N4B d   1      -2.591  -0.101  -0.939  0.00  0.00    -0.075 A 
ATOM      2  C2  N4B d   1      -2.460   1.111  -1.652  0.00  0.00     0.002 A 
ATOM      3  C3  N4B d   1      -2.556   1.115  -3.022  0.00  0.00     0.002 A 
ATOM      4  C4  N4B d   1      -2.762  -0.078  -3.698  0.00  0.00    -0.004 A 
ATOM      5  C5  N4B d   1      -2.913  -1.241  -3.000  0.00  0.00     0.002 A 
ATOM      6  C6  N4B d   1      -2.823  -1.259  -1.623  0.00  0.00     0.002 A 
ENDROOT
BRANCH   1   7
ATOM      7  C1' N4B d   1      -2.408  -0.168   0.553  0.00  0.00     0.057 C 
BRANCH   7   8
ATOM      8  C2' N4B d   1      -1.295   0.791   0.965  0.00  0.00     0.009 C 
BRANCH   8   9
ATOM      9  C3' N4B d   1       0.021   0.068   1.197  0.00  0.00     0.004 C 
ATOM     10  C4' N4B d   1       0.672   0.449   2.493  0.00  0.00     0.003 C 
ENDBRANCH   8   9
ENDBRANCH   7   8
ENDBRANCH   1   7
TORSDOF 3
ENDMDL
