MODEL 1
REMARK minimizedAffinity 4.67053843
REMARK minimizedRMSD -1
REMARK  3 active torsions:
REMARK  status: ('A' for Active; 'I' for Inactive)
REMARK    1  A    between atoms: C3'_2  and  C2'_3 
REMARK    2  A    between atoms: C2'_3  and  C1'_4 
REMARK    3  A    between atoms: C1'_4  and  C1_5 
ROOT
ATOM      1  C1  N4B d   1       0.699  -1.862   1.118  0.00  0.00    -0.075 A 
ATOM      2  C2  N4B d   1       0.618  -0.472   1.359  0.00  0.00     0.002 A 
ATOM      3  C3  N4B d   1      -0.607   0.147   1.403  0.00  0.00     0.002 A 
ATOM      4  C4  N4B d   1      -1.759  -0.596   1.190  0.00  0.00    -0.004 A 
ATOM      5  C5  N4B d   1      -1.674  -1.942   0.983  0.00  0.00     0.002 A 
ATOM      6  C6  N4B d   1      -0.449  -2.578   0.941  0.00  0.00     0.002 A 
ENDROOT
BRANCH   1   7
ATOM      7  C1' N4B d   1       2.020  -2.567   0.977  0.00  0.00     0.057 C 
BRANCH   7   8
ATOM      8  C2' N4B d   1       3.080  -1.563   0.535  0.00  0.00     0.009 C 
BRANCH   8   9
ATOM      9  C3' N4B d   1       3.378  -1.668  -0.950  0.00  0.00     0.004 C 
ATOM     10  C4' N4B d   1       3.353  -0.338  -1.643  0.00  0.00     0.003 C 
ENDBRANCH   8   9
ENDBRANCH   7   8
ENDBRANCH   1   7
TORSDOF 3
ENDMDL
