MODEL 1
REMARK minimizedAffinity 2.71684837
REMARK minimizedRMSD -1
REMARK  3 active torsions:
REMARK  status: ('A' for Active; 'I' for Inactive)
REMARK    1  A    between atoms: C3'_2  and  C2'_3 
REMARK    2  A    between atoms: C2'_3  and  C1'_4 
REMARK    3  A    between atoms: C1'_4  and  C1_5 
ROOT
ATOM      1  C1  N4B d   1       1.681  -1.155   3.024  0.00  0.00    -0.075 A 
ATOM      2  C2  N4B d   1       1.852  -2.340   3.774  0.00  0.00     0.002 A 
ATOM      3  C3  N4B d   1       1.636  -2.331   5.130  0.00  0.00     0.002 A 
ATOM      4  C4  N4B d   1       1.267  -1.151   5.758  0.00  0.00    -0.004 A 
ATOM      5  C5  N4B d   1       1.079  -0.017   5.023  0.00  0.00     0.002 A 
ATOM      6  C6  N4B d   1       1.290  -0.012   3.659  0.00  0.00     0.002 A 
ENDROOT
BRANCH   1   7
ATOM      7  C1' N4B d   1       1.990  -1.095   1.553  0.00  0.00     0.057 C 
BRANCH   7   8
ATOM      8  C2' N4B d   1       3.501  -1.179   1.354  0.00  0.00     0.009 C 
BRANCH   8   9
ATOM      9  C3' N4B d   1       3.877  -2.179   0.276  0.00  0.00     0.004 C 
ATOM     10  C4' N4B d   1       5.351  -2.456   0.229  0.00  0.00     0.003 C 
ENDBRANCH   8   9
ENDBRANCH   7   8
ENDBRANCH   1   7
TORSDOF 3
ENDMDL
