MODEL 1
REMARK minimizedAffinity -4.49708843
REMARK minimizedRMSD -1
REMARK  1 active torsions:
REMARK  status: ('A' for Active; 'I' for Inactive)
REMARK    1  A    between atoms: C1_2  and  C2_3 
ROOT
ATOM      1  C2  UNL d   1      -0.361   0.058  -0.362  0.00  0.00    -0.077 A 
ATOM      2  C3  UNL d   1       0.574   0.923  -0.948  0.00  0.00     0.002 A 
ATOM      3  C4  UNL d   1       1.841   0.457  -1.304  0.00  0.00     0.002 A 
ATOM      4  C5  UNL d   1       2.183  -0.876  -1.083  0.00  0.00    -0.004 A 
ATOM      5  C6  UNL d   1       1.260  -1.743  -0.500  0.00  0.00     0.002 A 
ATOM      6  C7  UNL d   1      -0.006  -1.279  -0.142  0.00  0.00     0.002 A 
ENDROOT
BRANCH   1   7
ATOM      7  C1  UNL d   1      -1.745   0.547  -0.022  0.00  0.00     0.055 C 
ATOM      8  C   UNL d   1      -1.913   0.731   1.479  0.00  0.00     0.019 C 
ENDBRANCH   1   7
TORSDOF 1
ENDMDL
