MODEL 1
REMARK minimizedAffinity -4.39064646
REMARK minimizedRMSD -1
REMARK  1 active torsions:
REMARK  status: ('A' for Active; 'I' for Inactive)
REMARK    1  A    between atoms: C1_2  and  C2_3 
ROOT
ATOM      1  C2  UNL d   1       1.304  -0.677  -0.725  0.00  0.00    -0.077 A 
ATOM      2  C3  UNL d   1       0.264  -1.334  -0.052  0.00  0.00     0.002 A 
ATOM      3  C4  UNL d   1      -0.870  -0.629   0.355  0.00  0.00     0.002 A 
ATOM      4  C5  UNL d   1      -0.977   0.735   0.091  0.00  0.00    -0.004 A 
ATOM      5  C6  UNL d   1       0.053   1.398  -0.575  0.00  0.00     0.002 A 
ATOM      6  C7  UNL d   1       1.187   0.695  -0.983  0.00  0.00     0.002 A 
ENDROOT
BRANCH   1   7
ATOM      7  C1  UNL d   1       2.506  -1.445  -1.209  0.00  0.00     0.055 C 
ATOM      8  C   UNL d   1       3.712  -0.534  -1.385  0.00  0.00     0.019 C 
ENDBRANCH   1   7
TORSDOF 1
ENDMDL
