MODEL 1
REMARK minimizedAffinity -4.50351954
REMARK minimizedRMSD -1
REMARK  1 active torsions:
REMARK  status: ('A' for Active; 'I' for Inactive)
REMARK    1  A    between atoms: C1_2  and  C2_3 
ROOT
ATOM      1  C2  UNL d   1       1.364   0.326  -0.586  0.00  0.00    -0.077 A 
ATOM      2  C3  UNL d   1       0.326  -0.492  -0.116  0.00  0.00     0.002 A 
ATOM      3  C4  UNL d   1      -1.006  -0.147  -0.353  0.00  0.00     0.002 A 
ATOM      4  C5  UNL d   1      -1.313   1.012  -1.063  0.00  0.00    -0.004 A 
ATOM      5  C6  UNL d   1      -0.288   1.832  -1.532  0.00  0.00     0.002 A 
ATOM      6  C7  UNL d   1       1.044   1.490  -1.296  0.00  0.00     0.002 A 
ENDROOT
BRANCH   1   7
ATOM      7  C1  UNL d   1       2.802  -0.070  -0.375  0.00  0.00     0.055 C 
ATOM      8  C   UNL d   1       3.414  -0.632  -1.649  0.00  0.00     0.019 C 
ENDBRANCH   1   7
TORSDOF 1
ENDMDL
