MODEL 1
REMARK minimizedAffinity -3.91143012
REMARK minimizedRMSD -1
REMARK  1 active torsions:
REMARK  status: ('A' for Active; 'I' for Inactive)
REMARK    1  A    between atoms: C1_2  and  C2_3 
ROOT
ATOM      1  C2  UNL d   1      -0.248  -0.156  -0.092  0.00  0.00    -0.077 A 
ATOM      2  C3  UNL d   1       0.219   0.622  -1.160  0.00  0.00     0.002 A 
ATOM      3  C4  UNL d   1       1.331   0.212  -1.898  0.00  0.00     0.002 A 
ATOM      4  C5  UNL d   1       1.982  -0.977  -1.579  0.00  0.00    -0.004 A 
ATOM      5  C6  UNL d   1       1.526  -1.757  -0.516  0.00  0.00     0.002 A 
ATOM      6  C7  UNL d   1       0.415  -1.349   0.223  0.00  0.00     0.002 A 
ENDROOT
BRANCH   1   7
ATOM      7  C1  UNL d   1      -1.477   0.259   0.675  0.00  0.00     0.055 C 
ATOM      8  C   UNL d   1      -1.115   0.810   2.046  0.00  0.00     0.019 C 
ENDBRANCH   1   7
TORSDOF 1
ENDMDL
