MODEL 1
REMARK minimizedAffinity -4.06709576
REMARK minimizedRMSD -1
REMARK  1 active torsions:
REMARK  status: ('A' for Active; 'I' for Inactive)
REMARK    1  A    between atoms: C1_2  and  C2_3 
ROOT
ATOM      1  C2  UNL d   1       0.796  -0.075  -0.191  0.00  0.00    -0.077 A 
ATOM      2  C3  UNL d   1       1.348   0.921  -1.008  0.00  0.00     0.002 A 
ATOM      3  C4  UNL d   1       2.318   0.597  -1.959  0.00  0.00     0.002 A 
ATOM      4  C5  UNL d   1       2.740  -0.723  -2.105  0.00  0.00    -0.004 A 
ATOM      5  C6  UNL d   1       2.198  -1.721  -1.295  0.00  0.00     0.002 A 
ATOM      6  C7  UNL d   1       1.230  -1.398  -0.343  0.00  0.00     0.002 A 
ENDROOT
BRANCH   1   7
ATOM      7  C1  UNL d   1      -0.285   0.264   0.802  0.00  0.00     0.055 C 
ATOM      8  C   UNL d   1      -1.608   0.546   0.104  0.00  0.00     0.019 C 
ENDBRANCH   1   7
TORSDOF 1
ENDMDL
