MODEL 1
REMARK minimizedAffinity -3.3773315
REMARK minimizedRMSD -1
REMARK  1 active torsions:
REMARK  status: ('A' for Active; 'I' for Inactive)
REMARK    1  A    between atoms: C1_2  and  C2_3 
ROOT
ATOM      1  C2  UNL d   1      -0.988   0.038   1.161  0.00  0.00    -0.077 A 
ATOM      2  C3  UNL d   1      -2.373  -0.107   0.999  0.00  0.00     0.002 A 
ATOM      3  C4  UNL d   1      -3.239   0.155   2.062  0.00  0.00     0.002 A 
ATOM      4  C5  UNL d   1      -2.731   0.568   3.292  0.00  0.00    -0.004 A 
ATOM      5  C6  UNL d   1      -1.355   0.714   3.463  0.00  0.00     0.002 A 
ATOM      6  C7  UNL d   1      -0.487   0.451   2.402  0.00  0.00     0.002 A 
ENDROOT
BRANCH   1   7
ATOM      7  C1  UNL d   1      -0.055  -0.197   0.001  0.00  0.00     0.055 C 
ATOM      8  C   UNL d   1       0.640  -1.546   0.115  0.00  0.00     0.019 C 
ENDBRANCH   1   7
TORSDOF 1
ENDMDL
