MODEL 1
REMARK minimizedAffinity -4.71214819
REMARK minimizedRMSD -1
REMARK  1 active torsions:
REMARK  status: ('A' for Active; 'I' for Inactive)
REMARK    1  A    between atoms: C1_2  and  C2_3 
ROOT
ATOM      1  C2  UNL d   1       0.390  -0.791  -0.361  0.00  0.00    -0.077 A 
ATOM      2  C3  UNL d   1       1.179   0.206   0.228  0.00  0.00     0.002 A 
ATOM      3  C4  UNL d   1       2.500   0.397  -0.184  0.00  0.00     0.002 A 
ATOM      4  C5  UNL d   1       3.040  -0.401  -1.189  0.00  0.00    -0.004 A 
ATOM      5  C6  UNL d   1       2.263  -1.397  -1.781  0.00  0.00     0.002 A 
ATOM      6  C7  UNL d   1       0.944  -1.590  -1.369  0.00  0.00     0.002 A 
ENDROOT
BRANCH   1   7
ATOM      7  C1  UNL d   1      -1.050  -0.966   0.047  0.00  0.00     0.055 C 
ATOM      8  C   UNL d   1      -1.512   0.171   0.948  0.00  0.00     0.019 C 
ENDBRANCH   1   7
TORSDOF 1
ENDMDL
