MODEL 1
REMARK minimizedAffinity -4.8685565
REMARK minimizedRMSD -1
REMARK  1 active torsions:
REMARK  status: ('A' for Active; 'I' for Inactive)
REMARK    1  A    between atoms: C1_2  and  C2_3 
ROOT
ATOM      1  C2  UNL d   1       1.135   0.514  -0.713  0.00  0.00    -0.077 A 
ATOM      2  C3  UNL d   1       1.923  -0.584  -1.086  0.00  0.00     0.002 A 
ATOM      3  C4  UNL d   1       1.460  -1.886  -0.883  0.00  0.00     0.002 A 
ATOM      4  C5  UNL d   1       0.208  -2.101  -0.312  0.00  0.00    -0.004 A 
ATOM      5  C6  UNL d   1      -0.582  -1.015   0.064  0.00  0.00     0.002 A 
ATOM      6  C7  UNL d   1      -0.121   0.286  -0.136  0.00  0.00     0.002 A 
ENDROOT
BRANCH   1   7
ATOM      7  C1  UNL d   1       1.611   1.919  -0.976  0.00  0.00     0.055 C 
ATOM      8  C   UNL d   1       0.492   2.788  -1.531  0.00  0.00     0.019 C 
ENDBRANCH   1   7
TORSDOF 1
ENDMDL
