MODEL 1
REMARK minimizedAffinity -4.96891403
REMARK minimizedRMSD -1
REMARK  1 active torsions:
REMARK  status: ('A' for Active; 'I' for Inactive)
REMARK    1  A    between atoms: C1_2  and  C2_3 
ROOT
ATOM      1  C2  UNL d   1      -0.046  -0.324   0.349  0.00  0.00    -0.077 A 
ATOM      2  C3  UNL d   1      -0.716  -0.097   1.560  0.00  0.00     0.002 A 
ATOM      3  C4  UNL d   1      -1.535   1.023   1.715  0.00  0.00     0.002 A 
ATOM      4  C5  UNL d   1      -1.695   1.922   0.663  0.00  0.00    -0.004 A 
ATOM      5  C6  UNL d   1      -1.032   1.707  -0.544  0.00  0.00     0.002 A 
ATOM      6  C7  UNL d   1      -0.212   0.588  -0.701  0.00  0.00     0.002 A 
ENDROOT
BRANCH   1   7
ATOM      7  C1  UNL d   1       0.799  -1.557   0.163  0.00  0.00     0.055 C 
ATOM      8  C   UNL d   1       1.468  -1.568  -1.203  0.00  0.00     0.019 C 
ENDBRANCH   1   7
TORSDOF 1
ENDMDL
