MODEL 1
REMARK minimizedAffinity -3.86508512
REMARK minimizedRMSD -1
REMARK  1 active torsions:
REMARK  status: ('A' for Active; 'I' for Inactive)
REMARK    1  A    between atoms: C1_2  and  C2_3 
ROOT
ATOM      1  C2  UNL d   1       5.625   1.066   4.552  0.00  0.00    -0.077 A 
ATOM      2  C3  UNL d   1       5.989   0.526   5.794  0.00  0.00     0.002 A 
ATOM      3  C4  UNL d   1       5.970  -0.855   5.996  0.00  0.00     0.002 A 
ATOM      4  C5  UNL d   1       5.592  -1.707   4.961  0.00  0.00    -0.004 A 
ATOM      5  C6  UNL d   1       5.227  -1.180   3.723  0.00  0.00     0.002 A 
ATOM      6  C7  UNL d   1       5.244   0.200   3.519  0.00  0.00     0.002 A 
ENDROOT
BRANCH   1   7
ATOM      7  C1  UNL d   1       5.693   2.553   4.316  0.00  0.00     0.055 C 
ATOM      8  C   UNL d   1       6.000   3.304   5.604  0.00  0.00     0.019 C 
ENDBRANCH   1   7
TORSDOF 1
ENDMDL
