MODEL 1
REMARK minimizedAffinity 1.21957266
REMARK minimizedRMSD -1
REMARK  1 active torsions:
REMARK  status: ('A' for Active; 'I' for Inactive)
REMARK    1  A    between atoms: C1_2  and  C2_3 
ROOT
ATOM      1  C2  UNL d   1      -5.943  -3.770  -0.867  0.00  0.00    -0.076 A 
ATOM      2  C3  UNL d   1      -6.000  -2.366  -0.885  0.00  0.00     0.004 A 
ATOM      3  C4  UNL d   1      -5.929  -1.660  -2.085  0.00  0.00    -0.003 A 
ATOM      4  C5  UNL d   1      -5.802  -2.348  -3.287  0.00  0.00     0.000 A 
ATOM      5  C6  UNL d   1      -5.762  -3.741  -3.290  0.00  0.00     0.000 A 
ATOM      6  C7  UNL d   1      -5.848  -4.469  -2.090  0.00  0.00    -0.073 A 
ATOM      7  C8  UNL d   1      -5.794  -5.971  -2.151  0.00  0.00     0.078 C 
ENDROOT
BRANCH   1   8
ATOM      8  C1  UNL d   1      -5.997  -4.480   0.466  0.00  0.00     0.053 C 
ATOM      9  C   UNL d   1      -5.985  -5.994   0.321  0.00  0.00     0.018 C 
ENDBRANCH   1   8
TORSDOF 1
ENDMDL
