MODEL 1
REMARK minimizedAffinity 4.73652649
REMARK minimizedRMSD -1
REMARK  1 active torsions:
REMARK  status: ('A' for Active; 'I' for Inactive)
REMARK    1  A    between atoms: C1_2  and  C2_3 
ROOT
ATOM      1  C2  UNL d   1       1.380  -0.287   3.246  0.00  0.00    -0.076 A 
ATOM      2  C3  UNL d   1       0.700  -1.342   3.880  0.00  0.00     0.004 A 
ATOM      3  C4  UNL d   1      -0.681  -1.484   3.755  0.00  0.00    -0.003 A 
ATOM      4  C5  UNL d   1      -1.405  -0.573   2.993  0.00  0.00     0.000 A 
ATOM      5  C6  UNL d   1      -0.745   0.468   2.342  0.00  0.00     0.000 A 
ATOM      6  C7  UNL d   1       0.649   0.616   2.445  0.00  0.00    -0.073 A 
ATOM      7  C8  UNL d   1       1.309   1.762   1.727  0.00  0.00     0.078 C 
ENDROOT
BRANCH   1   8
ATOM      8  C1  UNL d   1       2.874  -0.169   3.440  0.00  0.00     0.053 C 
ATOM      9  C   UNL d   1       3.651  -0.433   2.159  0.00  0.00     0.018 C 
ENDBRANCH   1   8
TORSDOF 1
ENDMDL
