MODEL 1
REMARK minimizedAffinity 2.02317953
REMARK minimizedRMSD -1
REMARK  1 active torsions:
REMARK  status: ('A' for Active; 'I' for Inactive)
REMARK    1  A    between atoms: C1_2  and  C2_3 
ROOT
ATOM      1  C2  UNL d   1       2.840   0.499   1.984  0.00  0.00    -0.076 A 
ATOM      2  C3  UNL d   1       2.560  -0.506   2.926  0.00  0.00     0.004 A 
ATOM      3  C4  UNL d   1       1.352  -0.520   3.622  0.00  0.00    -0.003 A 
ATOM      4  C5  UNL d   1       0.405   0.471   3.386  0.00  0.00     0.000 A 
ATOM      5  C6  UNL d   1       0.659   1.465   2.443  0.00  0.00     0.000 A 
ATOM      6  C7  UNL d   1       1.865   1.485   1.721  0.00  0.00    -0.073 A 
ATOM      7  C8  UNL d   1       2.089   2.584   0.719  0.00  0.00     0.078 C 
ENDROOT
BRANCH   1   8
ATOM      8  C1  UNL d   1       4.178   0.479   1.280  0.00  0.00     0.053 C 
ATOM      9  C   UNL d   1       5.321   0.105   2.212  0.00  0.00     0.018 C 
ENDBRANCH   1   8
TORSDOF 1
ENDMDL
