MODEL 1
REMARK minimizedAffinity -1.43655992
REMARK minimizedRMSD -1
REMARK  1 active torsions:
REMARK  status: ('A' for Active; 'I' for Inactive)
REMARK    1  A    between atoms: C1_2  and  C2_3 
ROOT
ATOM      1  C2  UNL d   1      -5.968  -3.448  -1.159  0.00  0.00    -0.076 A 
ATOM      2  C3  UNL d   1      -5.993  -4.611  -1.947  0.00  0.00     0.004 A 
ATOM      3  C4  UNL d   1      -5.942  -5.875  -1.362  0.00  0.00    -0.003 A 
ATOM      4  C5  UNL d   1      -5.866  -5.996   0.021  0.00  0.00     0.000 A 
ATOM      5  C6  UNL d   1      -5.858  -4.853   0.819  0.00  0.00     0.000 A 
ATOM      6  C7  UNL d   1      -5.925  -3.571   0.246  0.00  0.00    -0.073 A 
ATOM      7  C8  UNL d   1      -5.907  -2.372   1.154  0.00  0.00     0.078 C 
ENDROOT
BRANCH   1   8
ATOM      8  C1  UNL d   1      -5.999  -2.104  -1.851  0.00  0.00     0.053 C 
ATOM      9  C   UNL d   1      -5.561  -2.187  -3.305  0.00  0.00     0.018 C 
ENDBRANCH   1   8
TORSDOF 1
ENDMDL
