MODEL 1
REMARK minimizedAffinity 12.5659552
REMARK minimizedRMSD -1
REMARK  1 active torsions:
REMARK  status: ('A' for Active; 'I' for Inactive)
REMARK    1  A    between atoms: C1_2  and  C2_3 
ROOT
ATOM      1  C2  UNL d   1       3.578   4.445  -4.821  0.00  0.00    -0.076 A 
ATOM      2  C3  UNL d   1       4.868   4.897  -4.494  0.00  0.00     0.004 A 
ATOM      3  C4  UNL d   1       6.000   4.192  -4.899  0.00  0.00    -0.003 A 
ATOM      4  C5  UNL d   1       5.860   3.023  -5.639  0.00  0.00     0.000 A 
ATOM      5  C6  UNL d   1       4.588   2.569  -5.988  0.00  0.00     0.000 A 
ATOM      6  C7  UNL d   1       3.437   3.277  -5.601  0.00  0.00    -0.073 A 
ATOM      7  C8  UNL d   1       2.090   2.739  -6.000  0.00  0.00     0.078 C 
ENDROOT
BRANCH   1   8
ATOM      8  C1  UNL d   1       2.387   5.237  -4.330  0.00  0.00     0.053 C 
ATOM      9  C   UNL d   1       2.009   4.894  -2.898  0.00  0.00     0.018 C 
ENDBRANCH   1   8
TORSDOF 1
ENDMDL
