MODEL 1
REMARK minimizedAffinity 1.4572432
REMARK minimizedRMSD -1
REMARK  1 active torsions:
REMARK  status: ('A' for Active; 'I' for Inactive)
REMARK    1  A    between atoms: C1_2  and  C2_3 
ROOT
ATOM      1  C2  UNL d   1      -5.565  -4.725  -0.489  0.00  0.00    -0.076 A 
ATOM      2  C3  UNL d   1      -5.515  -3.498   0.196  0.00  0.00     0.004 A 
ATOM      3  C4  UNL d   1      -5.689  -2.291  -0.479  0.00  0.00    -0.003 A 
ATOM      4  C5  UNL d   1      -5.916  -2.292  -1.851  0.00  0.00     0.000 A 
ATOM      5  C6  UNL d   1      -5.986  -3.500  -2.544  0.00  0.00     0.000 A 
ATOM      6  C7  UNL d   1      -5.829  -4.726  -1.875  0.00  0.00    -0.073 A 
ATOM      7  C8  UNL d   1      -5.908  -5.999  -2.673  0.00  0.00     0.078 C 
ENDROOT
BRANCH   1   8
ATOM      8  C1  UNL d   1      -5.342  -6.000   0.292  0.00  0.00     0.053 C 
ATOM      9  C   UNL d   1      -5.998  -5.966   1.664  0.00  0.00     0.018 C 
ENDBRANCH   1   8
TORSDOF 1
ENDMDL
