MODEL 1
REMARK minimizedAffinity -4.46215153
REMARK minimizedRMSD -1
REMARK  1 active torsions:
REMARK  status: ('A' for Active; 'I' for Inactive)
REMARK    1  A    between atoms: C1_2  and  C2_3 
ROOT
ATOM      1  C2  UNL d   1      -5.689  -3.624  -0.820  0.00  0.00    -0.076 A 
ATOM      2  C3  UNL d   1      -5.624  -4.962  -1.243  0.00  0.00     0.004 A 
ATOM      3  C4  UNL d   1      -5.321  -5.985  -0.346  0.00  0.00    -0.003 A 
ATOM      4  C5  UNL d   1      -5.078  -5.685   0.990  0.00  0.00     0.000 A 
ATOM      5  C6  UNL d   1      -5.156  -4.365   1.431  0.00  0.00     0.000 A 
ATOM      6  C7  UNL d   1      -5.477  -3.324   0.543  0.00  0.00    -0.073 A 
ATOM      7  C8  UNL d   1      -5.541  -1.917   1.072  0.00  0.00     0.078 C 
ENDROOT
BRANCH   1   8
ATOM      8  C1  UNL d   1      -5.996  -2.554  -1.843  0.00  0.00     0.053 C 
ATOM      9  C   UNL d   1      -4.990  -2.533  -2.983  0.00  0.00     0.018 C 
ENDBRANCH   1   8
TORSDOF 1
ENDMDL
