MODEL 1
REMARK minimizedAffinity 8.02937603
REMARK minimizedRMSD -1
REMARK  1 active torsions:
REMARK  status: ('A' for Active; 'I' for Inactive)
REMARK    1  A    between atoms: C1_2  and  C2_3 
ROOT
ATOM      1  C2  UNL d   1      -5.093  -4.565   0.108  0.00  0.00    -0.076 A 
ATOM      2  C3  UNL d   1      -4.905  -3.289   0.668  0.00  0.00     0.004 A 
ATOM      3  C4  UNL d   1      -5.105  -2.137  -0.090  0.00  0.00    -0.003 A 
ATOM      4  C5  UNL d   1      -5.497  -2.242  -1.420  0.00  0.00     0.000 A 
ATOM      5  C6  UNL d   1      -5.705  -3.499  -1.987  0.00  0.00     0.000 A 
ATOM      6  C7  UNL d   1      -5.523  -4.670  -1.231  0.00  0.00    -0.073 A 
ATOM      7  C8  UNL d   1      -5.756  -6.000  -1.895  0.00  0.00     0.078 C 
ENDROOT
BRANCH   1   8
ATOM      8  C1  UNL d   1      -4.835  -5.779   0.971  0.00  0.00     0.053 C 
ATOM      9  C   UNL d   1      -5.924  -5.999   2.009  0.00  0.00     0.018 C 
ENDBRANCH   1   8
TORSDOF 1
ENDMDL
