MODEL 1
REMARK minimizedAffinity 13.6538305
REMARK minimizedRMSD -1
REMARK  1 active torsions:
REMARK  status: ('A' for Active; 'I' for Inactive)
REMARK    1  A    between atoms: C1_2  and  C2_3 
ROOT
ATOM      1  C2  UNL d   1       2.367   4.295  -3.447  0.00  0.00    -0.076 A 
ATOM      2  C3  UNL d   1       1.005   4.552  -3.680  0.00  0.00     0.004 A 
ATOM      3  C4  UNL d   1       0.550   4.921  -4.945  0.00  0.00    -0.003 A 
ATOM      4  C5  UNL d   1       1.451   5.039  -5.998  0.00  0.00     0.000 A 
ATOM      5  C6  UNL d   1       2.803   4.770  -5.789  0.00  0.00     0.000 A 
ATOM      6  C7  UNL d   1       3.275   4.381  -4.524  0.00  0.00    -0.073 A 
ATOM      7  C8  UNL d   1       4.745   4.109  -4.354  0.00  0.00     0.078 C 
ENDROOT
BRANCH   1   8
ATOM      8  C1  UNL d   1       2.805   3.925  -2.049  0.00  0.00     0.053 C 
ATOM      9  C   UNL d   1       1.997   2.774  -1.470  0.00  0.00     0.018 C 
ENDBRANCH   1   8
TORSDOF 1
ENDMDL
