MODEL 1
REMARK minimizedAffinity 1.79959488
REMARK minimizedRMSD -1
REMARK  1 active torsions:
REMARK  status: ('A' for Active; 'I' for Inactive)
REMARK    1  A    between atoms: C1_2  and  C2_3 
ROOT
ATOM      1  C2  UNL d   1       1.254   0.552  -2.008  0.00  0.00    -0.076 A 
ATOM      2  C3  UNL d   1       2.380   1.035  -2.698  0.00  0.00     0.004 A 
ATOM      3  C4  UNL d   1       2.902   2.298  -2.423  0.00  0.00    -0.003 A 
ATOM      4  C5  UNL d   1       2.307   3.098  -1.454  0.00  0.00     0.000 A 
ATOM      5  C6  UNL d   1       1.200   2.628  -0.749  0.00  0.00     0.000 A 
ATOM      6  C7  UNL d   1       0.671   1.351  -1.002  0.00  0.00    -0.073 A 
ATOM      7  C8  UNL d   1      -0.528   0.898  -0.215  0.00  0.00     0.078 C 
ENDROOT
BRANCH   1   8
ATOM      8  C1  UNL d   1       0.715  -0.814  -2.368  0.00  0.00     0.053 C 
ATOM      9  C   UNL d   1       1.531  -1.494  -3.457  0.00  0.00     0.018 C 
ENDBRANCH   1   8
TORSDOF 1
ENDMDL
