MODEL 1
REMARK minimizedAffinity 10.7948217
REMARK minimizedRMSD -1
REMARK  1 active torsions:
REMARK  status: ('A' for Active; 'I' for Inactive)
REMARK    1  A    between atoms: C1_2  and  C2_3 
ROOT
ATOM      1  C2  UNL d   1       1.403   1.473  -2.036  0.00  0.00    -0.076 A 
ATOM      2  C3  UNL d   1       2.300   0.931  -2.972  0.00  0.00     0.004 A 
ATOM      3  C4  UNL d   1       2.145  -0.372  -3.444  0.00  0.00    -0.003 A 
ATOM      4  C5  UNL d   1       1.089  -1.153  -2.987  0.00  0.00     0.000 A 
ATOM      5  C6  UNL d   1       0.179  -0.625  -2.072  0.00  0.00     0.000 A 
ATOM      6  C7  UNL d   1       0.312   0.692  -1.598  0.00  0.00    -0.073 A 
ATOM      7  C8  UNL d   1      -0.694   1.207  -0.607  0.00  0.00     0.078 C 
ENDROOT
BRANCH   1   8
ATOM      8  C1  UNL d   1       1.638   2.882  -1.539  0.00  0.00     0.053 C 
ATOM      9  C   UNL d   1       2.286   3.769  -2.590  0.00  0.00     0.018 C 
ENDBRANCH   1   8
TORSDOF 1
ENDMDL
