MODEL 1
REMARK minimizedAffinity 4.5118041
REMARK minimizedRMSD -1
REMARK  1 active torsions:
REMARK  status: ('A' for Active; 'I' for Inactive)
REMARK    1  A    between atoms: C1_2  and  C2_3 
ROOT
ATOM      1  C2  UNL d   1      -5.627  -3.340  -1.697  0.00  0.00    -0.076 A 
ATOM      2  C3  UNL d   1      -5.973  -4.428  -2.517  0.00  0.00     0.004 A 
ATOM      3  C4  UNL d   1      -5.634  -5.732  -2.159  0.00  0.00    -0.003 A 
ATOM      4  C5  UNL d   1      -4.944  -5.969  -0.975  0.00  0.00     0.000 A 
ATOM      5  C6  UNL d   1      -4.609  -4.903  -0.141  0.00  0.00     0.000 A 
ATOM      6  C7  UNL d   1      -4.957  -3.584  -0.479  0.00  0.00    -0.073 A 
ATOM      7  C8  UNL d   1      -4.565  -2.472   0.455  0.00  0.00     0.078 C 
ENDROOT
BRANCH   1   8
ATOM      8  C1  UNL d   1      -5.998  -1.946  -2.150  0.00  0.00     0.053 C 
ATOM      9  C   UNL d   1      -5.969  -1.798  -3.663  0.00  0.00     0.018 C 
ENDBRANCH   1   8
TORSDOF 1
ENDMDL
