MODEL 1
REMARK minimizedAffinity 13.9159327
REMARK minimizedRMSD -1
REMARK  1 active torsions:
REMARK  status: ('A' for Active; 'I' for Inactive)
REMARK    1  A    between atoms: C1_2  and  C2_3 
ROOT
ATOM      1  C2  UNL d   1       3.638   3.821  -4.895  0.00  0.00    -0.076 A 
ATOM      2  C3  UNL d   1       3.144   5.096  -4.566  0.00  0.00     0.004 A 
ATOM      3  C4  UNL d   1       1.866   5.492  -4.955  0.00  0.00    -0.003 A 
ATOM      4  C5  UNL d   1       1.060   4.621  -5.679  0.00  0.00     0.000 A 
ATOM      5  C6  UNL d   1       1.527   3.347  -6.000  0.00  0.00     0.000 A 
ATOM      6  C7  UNL d   1       2.807   2.925  -5.601  0.00  0.00    -0.073 A 
ATOM      7  C8  UNL d   1       3.262   1.542  -5.979  0.00  0.00     0.078 C 
ENDROOT
BRANCH   1   8
ATOM      8  C1  UNL d   1       5.042   3.456  -4.470  0.00  0.00     0.053 C 
ATOM      9  C   UNL d   1       5.999   4.637  -4.544  0.00  0.00     0.018 C 
ENDBRANCH   1   8
TORSDOF 1
ENDMDL
