MODEL 1
REMARK minimizedAffinity 10.5189114
REMARK minimizedRMSD -1
REMARK  1 active torsions:
REMARK  status: ('A' for Active; 'I' for Inactive)
REMARK    1  A    between atoms: C1_2  and  C2_3 
ROOT
ATOM      1  C2  UNL d   1       2.126   3.514  -2.238  0.00  0.00    -0.076 A 
ATOM      2  C3  UNL d   1       2.029   4.870  -2.598  0.00  0.00     0.004 A 
ATOM      3  C4  UNL d   1       2.821   5.401  -3.615  0.00  0.00    -0.003 A 
ATOM      4  C5  UNL d   1       3.722   4.585  -4.289  0.00  0.00     0.000 A 
ATOM      5  C6  UNL d   1       3.819   3.234  -3.957  0.00  0.00     0.000 A 
ATOM      6  C7  UNL d   1       3.017   2.679  -2.946  0.00  0.00    -0.073 A 
ATOM      7  C8  UNL d   1       3.167   1.217  -2.625  0.00  0.00     0.078 C 
ENDROOT
BRANCH   1   8
ATOM      8  C1  UNL d   1       1.261   3.001  -1.109  0.00  0.00     0.053 C 
ATOM      9  C   UNL d   1       2.008   2.937   0.214  0.00  0.00     0.018 C 
ENDBRANCH   1   8
TORSDOF 1
ENDMDL
