MODEL 1
REMARK minimizedAffinity 4.67272043
REMARK minimizedRMSD -1
REMARK  1 active torsions:
REMARK  status: ('A' for Active; 'I' for Inactive)
REMARK    1  A    between atoms: C1_2  and  C2_3 
ROOT
ATOM      1  C2  UNL d   1       0.775   1.796   3.434  0.00  0.00    -0.076 A 
ATOM      2  C3  UNL d   1       1.473   0.576   3.412  0.00  0.00     0.004 A 
ATOM      3  C4  UNL d   1       0.818  -0.622   3.132  0.00  0.00    -0.003 A 
ATOM      4  C5  UNL d   1      -0.547  -0.619   2.867  0.00  0.00     0.000 A 
ATOM      5  C6  UNL d   1      -1.253   0.584   2.867  0.00  0.00     0.000 A 
ATOM      6  C7  UNL d   1      -0.604   1.802   3.132  0.00  0.00    -0.073 A 
ATOM      7  C8  UNL d   1      -1.415   3.069   3.125  0.00  0.00     0.078 C 
ENDROOT
BRANCH   1   8
ATOM      8  C1  UNL d   1       1.533   3.059   3.771  0.00  0.00     0.053 C 
ATOM      9  C   UNL d   1       1.941   3.121   5.235  0.00  0.00     0.018 C 
ENDBRANCH   1   8
TORSDOF 1
ENDMDL
