MODEL 1
REMARK minimizedAffinity 12.094141
REMARK minimizedRMSD -1
REMARK  1 active torsions:
REMARK  status: ('A' for Active; 'I' for Inactive)
REMARK    1  A    between atoms: C1_2  and  C2_3 
ROOT
ATOM      1  C2  UNL d   1       3.293   4.570  -5.230  0.00  0.00    -0.076 A 
ATOM      2  C3  UNL d   1       4.432   5.316  -4.881  0.00  0.00     0.004 A 
ATOM      3  C4  UNL d   1       5.696   4.729  -4.864  0.00  0.00    -0.003 A 
ATOM      4  C5  UNL d   1       5.841   3.387  -5.197  0.00  0.00     0.000 A 
ATOM      5  C6  UNL d   1       4.724   2.636  -5.563  0.00  0.00     0.000 A 
ATOM      6  C7  UNL d   1       3.445   3.217  -5.601  0.00  0.00    -0.073 A 
ATOM      7  C8  UNL d   1       2.274   2.360  -5.997  0.00  0.00     0.078 C 
ENDROOT
BRANCH   1   8
ATOM      8  C1  UNL d   1       1.944   5.254  -5.204  0.00  0.00     0.053 C 
ATOM      9  C   UNL d   1       1.484   5.582  -3.792  0.00  0.00     0.018 C 
ENDBRANCH   1   8
TORSDOF 1
ENDMDL
