MODEL 1
REMARK minimizedAffinity 5.14296389
REMARK minimizedRMSD -1
REMARK  1 active torsions:
REMARK  status: ('A' for Active; 'I' for Inactive)
REMARK    1  A    between atoms: C1_2  and  C2_3 
ROOT
ATOM      1  C2  UNL d   1       1.894   1.049   2.793  0.00  0.00    -0.076 A 
ATOM      2  C3  UNL d   1       2.163   2.336   2.297  0.00  0.00     0.004 A 
ATOM      3  C4  UNL d   1       1.269   3.386   2.502  0.00  0.00    -0.003 A 
ATOM      4  C5  UNL d   1       0.091   3.165   3.208  0.00  0.00     0.000 A 
ATOM      5  C6  UNL d   1      -0.183   1.899   3.723  0.00  0.00     0.000 A 
ATOM      6  C7  UNL d   1       0.715   0.834   3.539  0.00  0.00    -0.073 A 
ATOM      7  C8  UNL d   1       0.365  -0.513   4.111  0.00  0.00     0.078 C 
ENDROOT
BRANCH   1   8
ATOM      8  C1  UNL d   1       2.888  -0.057   2.516  0.00  0.00     0.053 C 
ATOM      9  C   UNL d   1       4.182   0.462   1.910  0.00  0.00     0.018 C 
ENDBRANCH   1   8
TORSDOF 1
ENDMDL
