MODEL 1
REMARK minimizedAffinity 5.47754765
REMARK minimizedRMSD -1
REMARK  3 active torsions:
REMARK  status: ('A' for Active; 'I' for Inactive)
REMARK    1  A    between atoms: C3'_2  and  C2'_3 
REMARK    2  A    between atoms: C2'_3  and  C1'_4 
REMARK    3  A    between atoms: C1'_4  and  C1_5 
ROOT
ATOM      1  C1  N4B d   1       0.648   0.245   1.993  0.00  0.00    -0.075 A 
ATOM      2  C2  N4B d   1      -0.191  -0.599   1.232  0.00  0.00     0.002 A 
ATOM      3  C3  N4B d   1      -1.314  -0.089   0.629  0.00  0.00     0.002 A 
ATOM      4  C4  N4B d   1      -1.627   1.253   0.787  0.00  0.00    -0.004 A 
ATOM      5  C5  N4B d   1      -0.799   2.067   1.502  0.00  0.00     0.002 A 
ATOM      6  C6  N4B d   1       0.335   1.568   2.111  0.00  0.00     0.002 A 
ENDROOT
BRANCH   1   7
ATOM      7  C1' N4B d   1       1.840  -0.286   2.742  0.00  0.00     0.057 C 
BRANCH   7   8
ATOM      8  C2' N4B d   1       2.964  -0.577   1.753  0.00  0.00     0.009 C 
BRANCH   8   9
ATOM      9  C3' N4B d   1       4.257  -0.952   2.456  0.00  0.00     0.004 C 
ATOM     10  C4' N4B d   1       5.446  -0.917   1.543  0.00  0.00     0.003 C 
ENDBRANCH   8   9
ENDBRANCH   7   8
ENDBRANCH   1   7
TORSDOF 3
ENDMDL
