MODEL 1
REMARK minimizedAffinity -2.35001445
REMARK minimizedRMSD -1
REMARK  3 active torsions:
REMARK  status: ('A' for Active; 'I' for Inactive)
REMARK    1  A    between atoms: C3'_2  and  C2'_3 
REMARK    2  A    between atoms: C2'_3  and  C1'_4 
REMARK    3  A    between atoms: C1'_4  and  C1_5 
ROOT
ATOM      1  C1  N4B d   1      -2.571   1.188   2.899  0.00  0.00    -0.075 A 
ATOM      2  C2  N4B d   1      -2.161  -0.025   2.303  0.00  0.00     0.002 A 
ATOM      3  C3  N4B d   1      -1.059  -0.049   1.484  0.00  0.00     0.002 A 
ATOM      4  C4  N4B d   1      -0.365   1.125   1.233  0.00  0.00    -0.004 A 
ATOM      5  C5  N4B d   1      -0.752   2.287   1.833  0.00  0.00     0.002 A 
ATOM      6  C6  N4B d   1      -1.856   2.326   2.662  0.00  0.00     0.002 A 
ENDROOT
BRANCH   1   7
ATOM      7  C1' N4B d   1      -3.819   1.280   3.733  0.00  0.00     0.057 C 
BRANCH   7   8
ATOM      8  C2' N4B d   1      -3.803   2.590   4.516  0.00  0.00     0.009 C 
BRANCH   8   9
ATOM      9  C3' N4B d   1      -4.715   2.538   5.730  0.00  0.00     0.004 C 
ATOM     10  C4' N4B d   1      -5.398   3.845   5.999  0.00  0.00     0.003 C 
ENDBRANCH   8   9
ENDBRANCH   7   8
ENDBRANCH   1   7
TORSDOF 3
ENDMDL
