MODEL 1
REMARK minimizedAffinity -2.69983172
REMARK minimizedRMSD -1
REMARK  3 active torsions:
REMARK  status: ('A' for Active; 'I' for Inactive)
REMARK    1  A    between atoms: C3'_2  and  C2'_3 
REMARK    2  A    between atoms: C2'_3  and  C1'_4 
REMARK    3  A    between atoms: C1'_4  and  C1_5 
ROOT
ATOM      1  C1  N4B d   1      -2.148   1.128   2.625  0.00  0.00    -0.075 A 
ATOM      2  C2  N4B d   1      -1.374   0.212   1.878  0.00  0.00     0.002 A 
ATOM      3  C3  N4B d   1      -0.309   0.659   1.135  0.00  0.00     0.002 A 
ATOM      4  C4  N4B d   1      -0.012   2.014   1.108  0.00  0.00    -0.004 A 
ATOM      5  C5  N4B d   1      -0.748   2.888   1.852  0.00  0.00     0.002 A 
ATOM      6  C6  N4B d   1      -1.819   2.453   2.607  0.00  0.00     0.002 A 
ENDROOT
BRANCH   1   7
ATOM      7  C1' N4B d   1      -3.373   0.698   3.384  0.00  0.00     0.057 C 
BRANCH   7   8
ATOM      8  C2' N4B d   1      -4.084   1.934   3.928  0.00  0.00     0.009 C 
BRANCH   8   9
ATOM      9  C3' N4B d   1      -4.229   1.887   5.439  0.00  0.00     0.004 C 
ATOM     10  C4' N4B d   1      -4.872   3.121   5.999  0.00  0.00     0.003 C 
ENDBRANCH   8   9
ENDBRANCH   7   8
ENDBRANCH   1   7
TORSDOF 3
ENDMDL
