MODEL 1
REMARK minimizedAffinity -2.30428195
REMARK minimizedRMSD -1
REMARK  3 active torsions:
REMARK  status: ('A' for Active; 'I' for Inactive)
REMARK    1  A    between atoms: C3'_2  and  C2'_3 
REMARK    2  A    between atoms: C2'_3  and  C1'_4 
REMARK    3  A    between atoms: C1'_4  and  C1_5 
ROOT
ATOM      1  C1  N4B d   1      -3.501   1.082   3.759  0.00  0.00    -0.075 A 
ATOM      2  C2  N4B d   1      -3.174  -0.206   3.280  0.00  0.00     0.002 A 
ATOM      3  C3  N4B d   1      -1.965  -0.424   2.666  0.00  0.00     0.002 A 
ATOM      4  C4  N4B d   1      -1.079   0.630   2.503  0.00  0.00    -0.004 A 
ATOM      5  C5  N4B d   1      -1.391   1.865   2.991  0.00  0.00     0.002 A 
ATOM      6  C6  N4B d   1      -2.601   2.098   3.614  0.00  0.00     0.002 A 
ENDROOT
BRANCH   1   7
ATOM      7  C1' N4B d   1      -4.845   1.388   4.361  0.00  0.00     0.057 C 
BRANCH   7   8
ATOM      8  C2' N4B d   1      -4.657   2.303   5.568  0.00  0.00     0.009 C 
BRANCH   8   9
ATOM      9  C3' N4B d   1      -5.962   2.949   6.000  0.00  0.00     0.004 C 
ATOM     10  C4' N4B d   1      -5.966   4.436   5.806  0.00  0.00     0.003 C 
ENDBRANCH   8   9
ENDBRANCH   7   8
ENDBRANCH   1   7
TORSDOF 3
ENDMDL
