MODEL 1
REMARK minimizedAffinity -0.896732271
REMARK minimizedRMSD -1
REMARK  3 active torsions:
REMARK  status: ('A' for Active; 'I' for Inactive)
REMARK    1  A    between atoms: C3'_2  and  C2'_3 
REMARK    2  A    between atoms: C2'_3  and  C1'_4 
REMARK    3  A    between atoms: C1'_4  and  C1_5 
ROOT
ATOM      1  C1  N4B d   1      -2.614   1.404   2.769  0.00  0.00    -0.075 A 
ATOM      2  C2  N4B d   1      -2.278   0.140   2.238  0.00  0.00     0.002 A 
ATOM      3  C3  N4B d   1      -1.153  -0.002   1.463  0.00  0.00     0.002 A 
ATOM      4  C4  N4B d   1      -0.363   1.105   1.192  0.00  0.00    -0.004 A 
ATOM      5  C5  N4B d   1      -0.681   2.318   1.730  0.00  0.00     0.002 A 
ATOM      6  C6  N4B d   1      -1.806   2.474   2.514  0.00  0.00     0.002 A 
ENDROOT
BRANCH   1   7
ATOM      7  C1' N4B d   1      -3.880   1.626   3.551  0.00  0.00     0.057 C 
BRANCH   7   8
ATOM      8  C2' N4B d   1      -3.749   2.912   4.362  0.00  0.00     0.009 C 
BRANCH   8   9
ATOM      9  C3' N4B d   1      -4.548   2.853   5.653  0.00  0.00     0.004 C 
ATOM     10  C4' N4B d   1      -5.190   4.163   5.999  0.00  0.00     0.003 C 
ENDBRANCH   8   9
ENDBRANCH   7   8
ENDBRANCH   1   7
TORSDOF 3
ENDMDL
