MODEL 1
REMARK minimizedAffinity -1.66300774
REMARK minimizedRMSD -1
REMARK  3 active torsions:
REMARK  status: ('A' for Active; 'I' for Inactive)
REMARK    1  A    between atoms: C3'_2  and  C2'_3 
REMARK    2  A    between atoms: C2'_3  and  C1'_4 
REMARK    3  A    between atoms: C1'_4  and  C1_5 
ROOT
ATOM      1  C1  N4B d   1      -2.304   0.937   2.768  0.00  0.00    -0.075 A 
ATOM      2  C2  N4B d   1      -1.590   2.152   2.680  0.00  0.00     0.002 A 
ATOM      3  C3  N4B d   1      -0.402   2.203   1.992  0.00  0.00     0.002 A 
ATOM      4  C4  N4B d   1       0.098   1.051   1.403  0.00  0.00    -0.004 A 
ATOM      5  C5  N4B d   1      -0.610  -0.113   1.471  0.00  0.00     0.002 A 
ATOM      6  C6  N4B d   1      -1.807  -0.177   2.156  0.00  0.00     0.002 A 
ENDROOT
BRANCH   1   7
ATOM      7  C1' N4B d   1      -3.563   0.813   3.582  0.00  0.00     0.057 C 
BRANCH   7   8
ATOM      8  C2' N4B d   1      -3.955   2.190   4.110  0.00  0.00     0.009 C 
BRANCH   8   9
ATOM      9  C3' N4B d   1      -4.483   2.123   5.534  0.00  0.00     0.004 C 
ATOM     10  C4' N4B d   1      -5.312   3.317   5.902  0.00  0.00     0.003 C 
ENDBRANCH   8   9
ENDBRANCH   7   8
ENDBRANCH   1   7
TORSDOF 3
ENDMDL
