MODEL 1
REMARK minimizedAffinity -3.69581246
REMARK minimizedRMSD -1
REMARK  3 active torsions:
REMARK  status: ('A' for Active; 'I' for Inactive)
REMARK    1  A    between atoms: C3'_2  and  C2'_3 
REMARK    2  A    between atoms: C2'_3  and  C1'_4 
REMARK    3  A    between atoms: C1'_4  and  C1_5 
ROOT
ATOM      1  C1  N4B d   1      -1.397   1.458   2.249  0.00  0.00    -0.075 A 
ATOM      2  C2  N4B d   1      -1.740   0.121   1.950  0.00  0.00     0.002 A 
ATOM      3  C3  N4B d   1      -0.809  -0.718   1.388  0.00  0.00     0.002 A 
ATOM      4  C4  N4B d   1       0.460  -0.239   1.100  0.00  0.00    -0.004 A 
ATOM      5  C5  N4B d   1       0.792   1.046   1.416  0.00  0.00     0.002 A 
ATOM      6  C6  N4B d   1      -0.133   1.899   1.984  0.00  0.00     0.002 A 
ENDROOT
BRANCH   1   7
ATOM      7  C1' N4B d   1      -2.406   2.436   2.784  0.00  0.00     0.057 C 
BRANCH   7   8
ATOM      8  C2' N4B d   1      -3.431   1.686   3.630  0.00  0.00     0.009 C 
BRANCH   8   9
ATOM      9  C3' N4B d   1      -4.485   2.618   4.204  0.00  0.00     0.004 C 
ATOM     10  C4' N4B d   1      -4.635   2.479   5.689  0.00  0.00     0.003 C 
ENDBRANCH   8   9
ENDBRANCH   7   8
ENDBRANCH   1   7
TORSDOF 3
ENDMDL
