MODEL 1
REMARK minimizedAffinity -0.359744102
REMARK minimizedRMSD -1
REMARK  3 active torsions:
REMARK  status: ('A' for Active; 'I' for Inactive)
REMARK    1  A    between atoms: C3'_2  and  C2'_3 
REMARK    2  A    between atoms: C2'_3  and  C1'_4 
REMARK    3  A    between atoms: C1'_4  and  C1_5 
ROOT
ATOM      1  C1  N4B d   1      -0.981   0.338   2.250  0.00  0.00    -0.075 A 
ATOM      2  C2  N4B d   1      -0.071   0.950   1.360  0.00  0.00     0.002 A 
ATOM      3  C3  N4B d   1      -0.098   2.312   1.179  0.00  0.00     0.002 A 
ATOM      4  C4  N4B d   1      -1.035   3.075   1.860  0.00  0.00    -0.004 A 
ATOM      5  C5  N4B d   1      -1.893   2.479   2.737  0.00  0.00     0.002 A 
ATOM      6  C6  N4B d   1      -1.874   1.112   2.931  0.00  0.00     0.002 A 
ENDROOT
BRANCH   1   7
ATOM      7  C1' N4B d   1      -1.045  -1.156   2.415  0.00  0.00     0.057 C 
BRANCH   7   8
ATOM      8  C2' N4B d   1      -2.495  -1.572   2.645  0.00  0.00     0.009 C 
BRANCH   8   9
ATOM      9  C3' N4B d   1      -2.626  -2.573   3.780  0.00  0.00     0.004 C 
ATOM     10  C4' N4B d   1      -4.053  -2.844   4.153  0.00  0.00     0.003 C 
ENDBRANCH   8   9
ENDBRANCH   7   8
ENDBRANCH   1   7
TORSDOF 3
ENDMDL
