MODEL 1
REMARK minimizedAffinity -2.60348225
REMARK minimizedRMSD -1
REMARK  0 active torsions:
REMARK  status: ('A' for Active; 'I' for Inactive)
ROOT
ATOM      1  C   UNL d   1       5.704   5.365  -5.467  0.00  0.00     0.020 A 
ATOM      2  C1  UNL d   1       4.610   4.527  -5.684  0.00  0.00     0.020 A 
ATOM      3  C2  UNL d   1       3.813   4.129  -4.610  0.00  0.00     0.034 A 
ATOM      4  C3  UNL d   1       4.107   4.568  -3.313  0.00  0.00     0.017 A 
ATOM      5  C4  UNL d   1       5.204   5.409  -3.097  0.00  0.00     0.017 A 
ATOM      6  C5  UNL d   1       6.000   5.805  -4.177  0.00  0.00     0.034 A 
ATOM      7 Cl   UNL d   1       5.630   5.992  -1.527  0.00  0.00    -0.070 Cl
ATOM      8 Cl1  UNL d   1       3.077   4.036  -2.032  0.00  0.00    -0.070 Cl
ENDROOT
TORSDOF 0
ENDMDL
