MODEL 1
REMARK minimizedAffinity 0.779261291
REMARK minimizedRMSD -1
REMARK  0 active torsions:
REMARK  status: ('A' for Active; 'I' for Inactive)
ROOT
ATOM      1  C   UNL d   1       5.439   5.248  -4.663  0.00  0.00     0.020 A 
ATOM      2  C1  UNL d   1       4.145   4.751  -4.809  0.00  0.00     0.020 A 
ATOM      3  C2  UNL d   1       3.402   4.395  -3.682  0.00  0.00     0.034 A 
ATOM      4  C3  UNL d   1       3.953   4.535  -2.403  0.00  0.00     0.017 A 
ATOM      5  C4  UNL d   1       5.252   5.034  -2.257  0.00  0.00     0.017 A 
ATOM      6  C5  UNL d   1       5.992   5.389  -3.389  0.00  0.00     0.034 A 
ATOM      7 Cl   UNL d   1       6.000   5.234  -0.711  0.00  0.00    -0.070 Cl
ATOM      8 Cl1  UNL d   1       2.977   4.075  -1.053  0.00  0.00    -0.070 Cl
ENDROOT
TORSDOF 0
ENDMDL
