MODEL 1
REMARK minimizedAffinity -0.354261041
REMARK minimizedRMSD -1
REMARK  0 active torsions:
REMARK  status: ('A' for Active; 'I' for Inactive)
ROOT
ATOM      1  C   UNL d   1       5.994   2.573  -4.961  0.00  0.00     0.020 A 
ATOM      2  C1  UNL d   1       5.081   2.773  -5.995  0.00  0.00     0.020 A 
ATOM      3  C2  UNL d   1       4.173   3.833  -5.930  0.00  0.00     0.034 A 
ATOM      4  C3  UNL d   1       4.176   4.696  -4.828  0.00  0.00     0.017 A 
ATOM      5  C4  UNL d   1       5.093   4.494  -3.790  0.00  0.00     0.017 A 
ATOM      6  C5  UNL d   1       6.000   3.432  -3.861  0.00  0.00     0.034 A 
ATOM      7 Cl   UNL d   1       5.158   5.517  -2.398  0.00  0.00    -0.070 Cl
ATOM      8 Cl1  UNL d   1       3.026   5.985  -4.814  0.00  0.00    -0.070 Cl
ENDROOT
TORSDOF 0
ENDMDL
