MODEL 1
REMARK minimizedAffinity 2.45214725
REMARK minimizedRMSD -1
REMARK  0 active torsions:
REMARK  status: ('A' for Active; 'I' for Inactive)
ROOT
ATOM      1  C   UNL d   1       5.475   5.506  -5.168  0.00  0.00     0.020 A 
ATOM      2  C1  UNL d   1       4.236   4.875  -5.271  0.00  0.00     0.020 A 
ATOM      3  C2  UNL d   1       3.521   4.548  -4.117  0.00  0.00     0.034 A 
ATOM      4  C3  UNL d   1       4.044   4.851  -2.855  0.00  0.00     0.017 A 
ATOM      5  C4  UNL d   1       5.288   5.484  -2.752  0.00  0.00     0.017 A 
ATOM      6  C5  UNL d   1       6.000   5.810  -3.911  0.00  0.00     0.034 A 
ATOM      7 Cl   UNL d   1       5.998   5.890  -1.230  0.00  0.00    -0.070 Cl
ATOM      8 Cl1  UNL d   1       3.105   4.418  -1.471  0.00  0.00    -0.070 Cl
ENDROOT
TORSDOF 0
ENDMDL
