MODEL 1
REMARK minimizedAffinity -1.52709818
REMARK minimizedRMSD -1
REMARK  0 active torsions:
REMARK  status: ('A' for Active; 'I' for Inactive)
ROOT
ATOM      1  C   UNL d   1       5.991   3.158  -5.092  0.00  0.00     0.020 A 
ATOM      2  C1  UNL d   1       4.953   3.374  -5.998  0.00  0.00     0.020 A 
ATOM      3  C2  UNL d   1       3.918   4.255  -5.677  0.00  0.00     0.034 A 
ATOM      4  C3  UNL d   1       3.918   4.923  -4.447  0.00  0.00     0.017 A 
ATOM      5  C4  UNL d   1       4.960   4.705  -3.538  0.00  0.00     0.017 A 
ATOM      6  C5  UNL d   1       5.994   3.823  -3.865  0.00  0.00     0.034 A 
ATOM      7 Cl   UNL d   1       5.029   5.493  -2.001  0.00  0.00    -0.070 Cl
ATOM      8 Cl1  UNL d   1       2.606   5.998  -4.117  0.00  0.00    -0.070 Cl
ENDROOT
TORSDOF 0
ENDMDL
