MODEL 1
REMARK minimizedAffinity -3.19273663
REMARK minimizedRMSD -1
REMARK  0 active torsions:
REMARK  status: ('A' for Active; 'I' for Inactive)
ROOT
ATOM      1  C   UNL d   1       5.046   2.868  -5.972  0.00  0.00     0.020 A 
ATOM      2  C1  UNL d   1       5.976   2.601  -4.967  0.00  0.00     0.020 A 
ATOM      3  C2  UNL d   1       6.000   3.386  -3.812  0.00  0.00     0.034 A 
ATOM      4  C3  UNL d   1       5.093   4.441  -3.659  0.00  0.00     0.017 A 
ATOM      5  C4  UNL d   1       4.160   4.707  -4.668  0.00  0.00     0.017 A 
ATOM      6  C5  UNL d   1       4.140   3.919  -5.822  0.00  0.00     0.034 A 
ATOM      7 Cl   UNL d   1       3.009   5.991  -4.550  0.00  0.00    -0.070 Cl
ATOM      8 Cl1  UNL d   1       5.179   5.369  -2.204  0.00  0.00    -0.070 Cl
ENDROOT
TORSDOF 0
ENDMDL
