MODEL 1
REMARK minimizedAffinity -4.73118496
REMARK minimizedRMSD -1
REMARK  0 active torsions:
REMARK  status: ('A' for Active; 'I' for Inactive)
ROOT
ATOM      1  C   UNL d   1       5.567   3.068  -5.079  0.00  0.00     0.020 A 
ATOM      2  C1  UNL d   1       4.281   3.315  -5.558  0.00  0.00     0.020 A 
ATOM      3  C2  UNL d   1       3.426   4.167  -4.856  0.00  0.00     0.034 A 
ATOM      4  C3  UNL d   1       3.855   4.775  -3.671  0.00  0.00     0.017 A 
ATOM      5  C4  UNL d   1       5.146   4.528  -3.191  0.00  0.00     0.017 A 
ATOM      6  C5  UNL d   1       5.999   3.674  -3.898  0.00  0.00     0.034 A 
ATOM      7 Cl   UNL d   1       5.748   5.242  -1.736  0.00  0.00    -0.070 Cl
ATOM      8 Cl1  UNL d   1       2.745   5.818  -2.855  0.00  0.00    -0.070 Cl
ENDROOT
TORSDOF 0
ENDMDL
