MODEL 1
REMARK minimizedAffinity 0.156763569
REMARK minimizedRMSD -1
REMARK  0 active torsions:
REMARK  status: ('A' for Active; 'I' for Inactive)
ROOT
ATOM      1  C   UNL d   1       3.914   4.872  -1.584  0.00  0.00     0.020 A 
ATOM      2  C1  UNL d   1       5.305   4.872  -1.673  0.00  0.00     0.020 A 
ATOM      3  C2  UNL d   1       5.928   5.223  -2.873  0.00  0.00     0.034 A 
ATOM      4  C3  UNL d   1       5.159   5.575  -3.988  0.00  0.00     0.017 A 
ATOM      5  C4  UNL d   1       3.762   5.574  -3.897  0.00  0.00     0.017 A 
ATOM      6  C5  UNL d   1       3.144   5.222  -2.694  0.00  0.00     0.034 A 
ATOM      7 Cl   UNL d   1       2.747   5.997  -5.231  0.00  0.00    -0.070 Cl
ATOM      8 Cl1  UNL d   1       5.995   5.998  -5.440  0.00  0.00    -0.070 Cl
ENDROOT
TORSDOF 0
ENDMDL
