MODEL 1
REMARK minimizedAffinity -1.46358049
REMARK minimizedRMSD -1
REMARK  0 active torsions:
REMARK  status: ('A' for Active; 'I' for Inactive)
ROOT
ATOM      1  C   UNL d   1       5.994   2.247  -4.892  0.00  0.00     0.020 A 
ATOM      2  C1  UNL d   1       5.215   2.578  -6.000  0.00  0.00     0.020 A 
ATOM      3  C2  UNL d   1       4.441   3.741  -5.987  0.00  0.00     0.034 A 
ATOM      4  C3  UNL d   1       4.445   4.577  -4.865  0.00  0.00     0.017 A 
ATOM      5  C4  UNL d   1       5.227   4.243  -3.753  0.00  0.00     0.017 A 
ATOM      6  C5  UNL d   1       6.000   3.078  -3.771  0.00  0.00     0.034 A 
ATOM      7 Cl   UNL d   1       5.283   5.225  -2.331  0.00  0.00    -0.070 Cl
ATOM      8 Cl1  UNL d   1       3.465   5.999  -4.918  0.00  0.00    -0.070 Cl
ENDROOT
TORSDOF 0
ENDMDL
