MODEL 1
REMARK minimizedAffinity -2.54055405
REMARK minimizedRMSD -1
REMARK  0 active torsions:
REMARK  status: ('A' for Active; 'I' for Inactive)
ROOT
ATOM      1  C   UNL d   1       5.117   2.970  -5.999  0.00  0.00     0.020 A 
ATOM      2  C1  UNL d   1       6.000   2.627  -4.976  0.00  0.00     0.020 A 
ATOM      3  C2  UNL d   1       5.975   3.327  -3.768  0.00  0.00     0.034 A 
ATOM      4  C3  UNL d   1       5.067   4.375  -3.581  0.00  0.00     0.017 A 
ATOM      5  C4  UNL d   1       4.181   4.719  -4.609  0.00  0.00     0.017 A 
ATOM      6  C5  UNL d   1       4.210   4.014  -5.816  0.00  0.00     0.034 A 
ATOM      7 Cl   UNL d   1       3.031   6.000  -4.451  0.00  0.00    -0.070 Cl
ATOM      8 Cl1  UNL d   1       5.091   5.198  -2.062  0.00  0.00    -0.070 Cl
ENDROOT
TORSDOF 0
ENDMDL
