MODEL 1
REMARK minimizedAffinity -2.71859169
REMARK minimizedRMSD -1
REMARK  0 active torsions:
REMARK  status: ('A' for Active; 'I' for Inactive)
ROOT
ATOM      1  C   UNL d   1       5.998   3.524  -5.189  0.00  0.00     0.020 A 
ATOM      2  C1  UNL d   1       4.874   3.683  -5.999  0.00  0.00     0.020 A 
ATOM      3  C2  UNL d   1       3.751   4.354  -5.510  0.00  0.00     0.034 A 
ATOM      4  C3  UNL d   1       3.749   4.867  -4.208  0.00  0.00     0.017 A 
ATOM      5  C4  UNL d   1       4.877   4.706  -3.396  0.00  0.00     0.017 A 
ATOM      6  C5  UNL d   1       5.999   4.034  -3.890  0.00  0.00     0.034 A 
ATOM      7 Cl   UNL d   1       4.949   5.312  -1.778  0.00  0.00    -0.070 Cl
ATOM      8 Cl1  UNL d   1       2.325   5.685  -3.669  0.00  0.00    -0.070 Cl
ENDROOT
TORSDOF 0
ENDMDL
