MODEL 1
REMARK minimizedAffinity 3.95988894
REMARK minimizedRMSD -1
REMARK  0 active torsions:
REMARK  status: ('A' for Active; 'I' for Inactive)
ROOT
ATOM      1  C   UNL d   1       4.125   5.368  -5.526  0.00  0.00     0.020 A 
ATOM      2  C1  UNL d   1       5.436   5.825  -5.392  0.00  0.00     0.020 A 
ATOM      3  C2  UNL d   1       5.995   5.979  -4.122  0.00  0.00     0.034 A 
ATOM      4  C3  UNL d   1       5.244   5.676  -2.981  0.00  0.00     0.017 A 
ATOM      5  C4  UNL d   1       3.929   5.217  -3.116  0.00  0.00     0.017 A 
ATOM      6  C5  UNL d   1       3.374   5.065  -4.390  0.00  0.00     0.034 A 
ATOM      7 Cl   UNL d   1       2.940   4.822  -1.755  0.00  0.00    -0.070 Cl
ATOM      8 Cl1  UNL d   1       6.000   5.889  -1.442  0.00  0.00    -0.070 Cl
ENDROOT
TORSDOF 0
ENDMDL
