MODEL 1
REMARK minimizedAffinity 0.854835629
REMARK minimizedRMSD -1
REMARK  0 active torsions:
REMARK  status: ('A' for Active; 'I' for Inactive)
ROOT
ATOM      1  C   UNL d   1       5.068   4.883  -1.478  0.00  0.00     0.020 A 
ATOM      2  C1  UNL d   1       6.000   5.317  -2.421  0.00  0.00     0.020 A 
ATOM      3  C2  UNL d   1       5.655   5.362  -3.773  0.00  0.00     0.034 A 
ATOM      4  C3  UNL d   1       4.376   4.972  -4.187  0.00  0.00     0.017 A 
ATOM      5  C4  UNL d   1       3.442   4.537  -3.240  0.00  0.00     0.017 A 
ATOM      6  C5  UNL d   1       3.792   4.494  -1.887  0.00  0.00     0.034 A 
ATOM      7 Cl   UNL d   1       1.844   4.041  -3.674  0.00  0.00    -0.070 Cl
ATOM      8 Cl1  UNL d   1       4.018   5.053  -5.875  0.00  0.00    -0.070 Cl
ENDROOT
TORSDOF 0
ENDMDL
