MODEL 1
REMARK minimizedAffinity 3.81036258
REMARK minimizedRMSD -1
REMARK  0 active torsions:
REMARK  status: ('A' for Active; 'I' for Inactive)
ROOT
ATOM      1  C   UNL d   1       5.999   5.708  -2.310  0.00  0.00     0.020 A 
ATOM      2  C1  UNL d   1       5.477   4.784  -1.405  0.00  0.00     0.020 A 
ATOM      3  C2  UNL d   1       4.262   4.152  -1.676  0.00  0.00     0.034 A 
ATOM      4  C3  UNL d   1       3.565   4.443  -2.855  0.00  0.00     0.017 A 
ATOM      5  C4  UNL d   1       4.090   5.370  -3.762  0.00  0.00     0.017 A 
ATOM      6  C5  UNL d   1       5.307   6.000  -3.485  0.00  0.00     0.034 A 
ATOM      7 Cl   UNL d   1       3.288   5.780  -5.237  0.00  0.00    -0.070 Cl
ATOM      8 Cl1  UNL d   1       2.068   3.623  -3.125  0.00  0.00    -0.070 Cl
ENDROOT
TORSDOF 0
ENDMDL
