MODEL 1
REMARK minimizedAffinity 2.70925736
REMARK minimizedRMSD -1
REMARK  0 active torsions:
REMARK  status: ('A' for Active; 'I' for Inactive)
ROOT
ATOM      1  C   UNL d   1       5.415   5.286  -5.407  0.00  0.00     0.020 A 
ATOM      2  C1  UNL d   1       4.075   4.936  -5.571  0.00  0.00     0.020 A 
ATOM      3  C2  UNL d   1       3.308   4.575  -4.461  0.00  0.00     0.034 A 
ATOM      4  C3  UNL d   1       3.879   4.564  -3.184  0.00  0.00     0.017 A 
ATOM      5  C4  UNL d   1       5.224   4.916  -3.021  0.00  0.00     0.017 A 
ATOM      6  C5  UNL d   1       5.988   5.276  -4.135  0.00  0.00     0.034 A 
ATOM      7 Cl   UNL d   1       5.999   4.925  -1.476  0.00  0.00    -0.070 Cl
ATOM      8 Cl1  UNL d   1       2.871   4.108  -1.857  0.00  0.00    -0.070 Cl
ENDROOT
TORSDOF 0
ENDMDL
