MODEL 1
REMARK minimizedAffinity -1.62295151
REMARK minimizedRMSD -1
REMARK  0 active torsions:
REMARK  status: ('A' for Active; 'I' for Inactive)
ROOT
ATOM      1  C   UNL d   1       5.671   5.641  -5.474  0.00  0.00     0.020 A 
ATOM      2  C1  UNL d   1       4.523   4.894  -5.739  0.00  0.00     0.020 A 
ATOM      3  C2  UNL d   1       3.704   4.477  -4.688  0.00  0.00     0.034 A 
ATOM      4  C3  UNL d   1       4.031   4.806  -3.367  0.00  0.00     0.017 A 
ATOM      5  C4  UNL d   1       5.183   5.555  -3.103  0.00  0.00     0.017 A 
ATOM      6  C5  UNL d   1       6.000   5.971  -4.159  0.00  0.00     0.034 A 
ATOM      7 Cl   UNL d   1       5.652   6.000  -1.499  0.00  0.00    -0.070 Cl
ATOM      8 Cl1  UNL d   1       2.973   4.257  -2.117  0.00  0.00    -0.070 Cl
ENDROOT
TORSDOF 0
ENDMDL
