MODEL 1
REMARK minimizedAffinity 1.32169306
REMARK minimizedRMSD -1
REMARK  0 active torsions:
REMARK  status: ('A' for Active; 'I' for Inactive)
ROOT
ATOM      1  C   UNL d   1       5.602  -3.625  -0.831  0.00  0.00     0.020 A 
ATOM      2  C1  UNL d   1       4.666  -2.628  -1.100  0.00  0.00     0.020 A 
ATOM      3  C2  UNL d   1       4.126  -2.504  -2.382  0.00  0.00     0.034 A 
ATOM      4  C3  UNL d   1       4.523  -3.379  -3.400  0.00  0.00     0.017 A 
ATOM      5  C4  UNL d   1       5.462  -4.380  -3.129  0.00  0.00     0.017 A 
ATOM      6  C5  UNL d   1       5.999  -4.499  -1.844  0.00  0.00     0.034 A 
ATOM      7 Cl   UNL d   1       6.000  -5.497  -4.334  0.00  0.00    -0.070 Cl
ATOM      8 Cl1  UNL d   1       3.814  -3.168  -4.961  0.00  0.00    -0.070 Cl
ENDROOT
TORSDOF 0
ENDMDL
