MODEL 1
REMARK minimizedAffinity 2.52289033
REMARK minimizedRMSD -1
REMARK  0 active torsions:
REMARK  status: ('A' for Active; 'I' for Inactive)
ROOT
ATOM      1  C   UNL d   1       4.592   3.959  -5.587  0.00  0.00     0.020 A 
ATOM      2  C1  UNL d   1       5.842   4.011  -4.971  0.00  0.00     0.020 A 
ATOM      3  C2  UNL d   1       5.984   4.639  -3.732  0.00  0.00     0.034 A 
ATOM      4  C3  UNL d   1       4.875   5.217  -3.104  0.00  0.00     0.017 A 
ATOM      5  C4  UNL d   1       3.620   5.164  -3.723  0.00  0.00     0.017 A 
ATOM      6  C5  UNL d   1       3.484   4.534  -4.964  0.00  0.00     0.034 A 
ATOM      7 Cl   UNL d   1       2.205   5.854  -3.010  0.00  0.00    -0.070 Cl
ATOM      8 Cl1  UNL d   1       5.123   5.976  -1.572  0.00  0.00    -0.070 Cl
ENDROOT
TORSDOF 0
ENDMDL
