MODEL 1
REMARK minimizedAffinity 0.2672005
REMARK minimizedRMSD -1
REMARK  0 active torsions:
REMARK  status: ('A' for Active; 'I' for Inactive)
ROOT
ATOM      1  C   UNL d   1       4.831   4.605  -5.994  0.00  0.00     0.020 A 
ATOM      2  C1  UNL d   1       6.000   4.479  -5.244  0.00  0.00     0.020 A 
ATOM      3  C2  UNL d   1       5.997   4.802  -3.886  0.00  0.00     0.034 A 
ATOM      4  C3  UNL d   1       4.822   5.253  -3.272  0.00  0.00     0.017 A 
ATOM      5  C4  UNL d   1       3.649   5.379  -4.025  0.00  0.00     0.017 A 
ATOM      6  C5  UNL d   1       3.658   5.054  -5.385  0.00  0.00     0.034 A 
ATOM      7 Cl   UNL d   1       2.161   5.928  -3.338  0.00  0.00    -0.070 Cl
ATOM      8 Cl1  UNL d   1       4.891   5.633  -1.588  0.00  0.00    -0.070 Cl
ENDROOT
TORSDOF 0
ENDMDL
