MODEL 1
REMARK minimizedAffinity 3.9028194
REMARK minimizedRMSD -1
REMARK  1 active torsions:
REMARK  status: ('A' for Active; 'I' for Inactive)
REMARK    1  A    between atoms: C3_4  and  O_7 
ROOT
ATOM      1  C   UNL d   1      -3.897  -5.991   0.222  0.00  0.00    -0.033 A 
ATOM      2  C1  UNL d   1      -5.290  -5.988   0.316  0.00  0.00     0.039 A 
ATOM      3  C2  UNL d   1      -6.000  -4.797   0.150  0.00  0.00    -0.080 A 
ATOM      4  C3  UNL d   1      -5.306  -3.619  -0.111  0.00  0.00     0.150 A 
ATOM      5  C4  UNL d   1      -3.918  -3.615  -0.211  0.00  0.00    -0.007 A 
ATOM      6  C5  UNL d   1      -3.211  -4.805  -0.043  0.00  0.00     0.039 A 
ENDROOT
BRANCH   4   7
ATOM      7  O   UNL d   1      -5.955  -2.431  -0.276  0.00  0.00    -0.526 OA
ATOM      8  H5  UNL d   1      -6.907  -2.581  -0.152  0.00  0.00     0.418 HD
ENDBRANCH   4   7
TORSDOF 1
ENDMDL
