MODEL 1
REMARK minimizedAffinity -0.0554201379
REMARK minimizedRMSD -1
REMARK  1 active torsions:
REMARK  status: ('A' for Active; 'I' for Inactive)
REMARK    1  A    between atoms: C3_4  and  O_7 
ROOT
ATOM      1  C   UNL d   1      -2.150   1.546   1.402  0.00  0.00    -0.033 A 
ATOM      2  C1  UNL d   1      -1.778   0.362   2.041  0.00  0.00     0.039 A 
ATOM      3  C2  UNL d   1      -2.465  -0.067   3.178  0.00  0.00    -0.080 A 
ATOM      4  C3  UNL d   1      -3.523   0.697   3.665  0.00  0.00     0.150 A 
ATOM      5  C4  UNL d   1      -3.902   1.876   3.032  0.00  0.00    -0.007 A 
ATOM      6  C5  UNL d   1      -3.213   2.303   1.897  0.00  0.00     0.039 A 
ENDROOT
BRANCH   4   7
ATOM      7  O   UNL d   1      -4.221   0.322   4.775  0.00  0.00    -0.526 OA
ATOM      8  H5  UNL d   1      -3.829  -0.497   5.122  0.00  0.00     0.418 HD
ENDBRANCH   4   7
TORSDOF 1
ENDMDL
