MODEL 1
REMARK minimizedAffinity 0.442094892
REMARK minimizedRMSD -1
REMARK  1 active torsions:
REMARK  status: ('A' for Active; 'I' for Inactive)
REMARK    1  A    between atoms: C3_4  and  O_7 
ROOT
ATOM      1  C   UNL d   1      -3.906  -6.000   0.798  0.00  0.00    -0.033 A 
ATOM      2  C1  UNL d   1      -5.279  -5.974   1.053  0.00  0.00     0.039 A 
ATOM      3  C2  UNL d   1      -6.000  -4.790   0.884  0.00  0.00    -0.080 A 
ATOM      4  C3  UNL d   1      -5.338  -3.642   0.459  0.00  0.00     0.150 A 
ATOM      5  C4  UNL d   1      -3.971  -3.661   0.200  0.00  0.00    -0.007 A 
ATOM      6  C5  UNL d   1      -3.253  -4.844   0.370  0.00  0.00     0.039 A 
ENDROOT
BRANCH   4   7
ATOM      7  O   UNL d   1      -5.998  -2.462   0.285  0.00  0.00    -0.526 OA
ATOM      8  H5  UNL d   1      -6.929  -2.591   0.530  0.00  0.00     0.418 HD
ENDBRANCH   4   7
TORSDOF 1
ENDMDL
