MODEL 1
REMARK minimizedAffinity 7.32956123
REMARK minimizedRMSD -1
REMARK  1 active torsions:
REMARK  status: ('A' for Active; 'I' for Inactive)
REMARK    1  A    between atoms: C3_4  and  O_7 
ROOT
ATOM      1  C   UNL d   1      -5.998  -3.927   1.197  0.00  0.00    -0.033 A 
ATOM      2  C1  UNL d   1      -5.034  -3.268   0.432  0.00  0.00     0.039 A 
ATOM      3  C2  UNL d   1      -3.895  -3.951   0.002  0.00  0.00    -0.080 A 
ATOM      4  C3  UNL d   1      -3.733  -5.291   0.342  0.00  0.00     0.150 A 
ATOM      5  C4  UNL d   1      -4.691  -5.955   1.101  0.00  0.00    -0.007 A 
ATOM      6  C5  UNL d   1      -5.827  -5.271   1.530  0.00  0.00     0.039 A 
ENDROOT
BRANCH   4   7
ATOM      7  O   UNL d   1      -2.635  -5.998  -0.051  0.00  0.00    -0.526 OA
ATOM      8  H5  UNL d   1      -2.046  -5.403  -0.543  0.00  0.00     0.418 HD
ENDBRANCH   4   7
TORSDOF 1
ENDMDL
