MODEL 1
REMARK minimizedAffinity 5.17551422
REMARK minimizedRMSD -1
REMARK  1 active torsions:
REMARK  status: ('A' for Active; 'I' for Inactive)
REMARK    1  A    between atoms: C3_4  and  O_7 
ROOT
ATOM      1  C   UNL d   1      -5.436  -1.262   0.343  0.00  0.00    -0.033 A 
ATOM      2  C1  UNL d   1      -4.507  -1.608   1.327  0.00  0.00     0.039 A 
ATOM      3  C2  UNL d   1      -4.143  -2.943   1.507  0.00  0.00    -0.080 A 
ATOM      4  C3  UNL d   1      -4.713  -3.922   0.698  0.00  0.00     0.150 A 
ATOM      5  C4  UNL d   1      -5.636  -3.585  -0.287  0.00  0.00    -0.007 A 
ATOM      6  C5  UNL d   1      -5.999  -2.251  -0.464  0.00  0.00     0.039 A 
ENDROOT
BRANCH   4   7
ATOM      7  O   UNL d   1      -4.391  -5.240   0.839  0.00  0.00    -0.526 OA
ATOM      8  H5  UNL d   1      -3.764  -5.326   1.577  0.00  0.00     0.418 HD
ENDBRANCH   4   7
TORSDOF 1
ENDMDL
