MODEL 1
REMARK minimizedAffinity 6.49581385
REMARK minimizedRMSD -1
REMARK  1 active torsions:
REMARK  status: ('A' for Active; 'I' for Inactive)
REMARK    1  A    between atoms: C3_4  and  O_7 
ROOT
ATOM      1  C   UNL d   1      -1.211  -2.916  -5.996  0.00  0.00    -0.033 A 
ATOM      2  C1  UNL d   1      -1.408  -4.298  -5.999  0.00  0.00     0.039 A 
ATOM      3  C2  UNL d   1      -2.703  -4.821  -5.998  0.00  0.00    -0.080 A 
ATOM      4  C3  UNL d   1      -3.790  -3.952  -5.994  0.00  0.00     0.150 A 
ATOM      5  C4  UNL d   1      -3.602  -2.574  -5.995  0.00  0.00    -0.007 A 
ATOM      6  C5  UNL d   1      -2.308  -2.053  -5.996  0.00  0.00     0.039 A 
ENDROOT
BRANCH   4   7
ATOM      7  O   UNL d   1      -5.073  -4.415  -5.988  0.00  0.00    -0.526 OA
ATOM      8  H5  UNL d   1      -5.049  -5.386  -5.959  0.00  0.00     0.418 HD
ENDBRANCH   4   7
TORSDOF 1
ENDMDL
