MODEL 1
REMARK minimizedAffinity 3.67746663
REMARK minimizedRMSD -1
REMARK  1 active torsions:
REMARK  status: ('A' for Active; 'I' for Inactive)
REMARK    1  A    between atoms: C3_4  and  O_7 
ROOT
ATOM      1  C   UNL d   1       3.596   4.861  -5.503  0.00  0.00    -0.033 A 
ATOM      2  C1  UNL d   1       2.234   5.004  -5.230  0.00  0.00     0.039 A 
ATOM      3  C2  UNL d   1       1.745   4.743  -3.949  0.00  0.00    -0.080 A 
ATOM      4  C3  UNL d   1       2.628   4.342  -2.949  0.00  0.00     0.150 A 
ATOM      5  C4  UNL d   1       3.987   4.202  -3.213  0.00  0.00    -0.007 A 
ATOM      6  C5  UNL d   1       4.472   4.461  -4.494  0.00  0.00     0.039 A 
ENDROOT
BRANCH   4   7
ATOM      7  O   UNL d   1       2.197   4.072  -1.685  0.00  0.00    -0.526 OA
ATOM      8  H5  UNL d   1       1.232   4.184  -1.658  0.00  0.00     0.418 HD
ENDBRANCH   4   7
TORSDOF 1
ENDMDL
