MODEL 1
REMARK minimizedAffinity 5.56885147
REMARK minimizedRMSD -1
REMARK  1 active torsions:
REMARK  status: ('A' for Active; 'I' for Inactive)
REMARK    1  A    between atoms: C3_4  and  O_7 
ROOT
ATOM      1  C   UNL d   1       2.182   5.246  -5.290  0.00  0.00    -0.033 A 
ATOM      2  C1  UNL d   1       2.611   4.122  -5.999  0.00  0.00     0.039 A 
ATOM      3  C2  UNL d   1       3.884   3.595  -5.772  0.00  0.00    -0.080 A 
ATOM      4  C3  UNL d   1       4.716   4.199  -4.834  0.00  0.00     0.150 A 
ATOM      5  C4  UNL d   1       4.294   5.317  -4.121  0.00  0.00    -0.007 A 
ATOM      6  C5  UNL d   1       3.023   5.842  -4.350  0.00  0.00     0.039 A 
ENDROOT
BRANCH   4   7
ATOM      7  O   UNL d   1       5.969   3.724  -4.582  0.00  0.00    -0.526 OA
ATOM      8  H5  UNL d   1       6.134   2.966  -5.168  0.00  0.00     0.418 HD
ENDBRANCH   4   7
TORSDOF 1
ENDMDL
