MODEL 1
REMARK minimizedAffinity 2.41699243
REMARK minimizedRMSD -1
REMARK  1 active torsions:
REMARK  status: ('A' for Active; 'I' for Inactive)
REMARK    1  A    between atoms: C3_4  and  O_7 
ROOT
ATOM      1  C   UNL d   1      -1.482  -0.257   1.547  0.00  0.00    -0.033 A 
ATOM      2  C1  UNL d   1      -0.874   0.595   2.471  0.00  0.00     0.039 A 
ATOM      3  C2  UNL d   1      -1.433   1.845   2.745  0.00  0.00    -0.080 A 
ATOM      4  C3  UNL d   1      -2.599   2.230   2.089  0.00  0.00     0.150 A 
ATOM      5  C4  UNL d   1      -3.212   1.385   1.170  0.00  0.00    -0.007 A 
ATOM      6  C5  UNL d   1      -2.652   0.138   0.897  0.00  0.00     0.039 A 
ENDROOT
BRANCH   4   7
ATOM      7  O   UNL d   1      -3.178   3.443   2.319  0.00  0.00    -0.526 OA
ATOM      8  H5  UNL d   1      -2.629   3.930   2.955  0.00  0.00     0.418 HD
ENDBRANCH   4   7
TORSDOF 1
ENDMDL
