MODEL 1
REMARK minimizedAffinity 6.63473225
REMARK minimizedRMSD -1
REMARK  1 active torsions:
REMARK  status: ('A' for Active; 'I' for Inactive)
REMARK    1  A    between atoms: C3_4  and  O_7 
ROOT
ATOM      1  C   UNL d   1      -0.803  -0.167   2.943  0.00  0.00    -0.033 A 
ATOM      2  C1  UNL d   1       0.517  -0.195   3.398  0.00  0.00     0.039 A 
ATOM      3  C2  UNL d   1       1.344   0.914   3.214  0.00  0.00    -0.080 A 
ATOM      4  C3  UNL d   1       0.840   2.045   2.576  0.00  0.00     0.150 A 
ATOM      5  C4  UNL d   1      -0.475   2.081   2.124  0.00  0.00    -0.007 A 
ATOM      6  C5  UNL d   1      -1.299   0.972   2.307  0.00  0.00     0.039 A 
ENDROOT
BRANCH   4   7
ATOM      7  O   UNL d   1       1.611   3.150   2.370  0.00  0.00    -0.526 OA
ATOM      8  H5  UNL d   1       2.504   2.970   2.709  0.00  0.00     0.418 HD
ENDBRANCH   4   7
TORSDOF 1
ENDMDL
