MODEL 1
REMARK minimizedAffinity 8.5439539
REMARK minimizedRMSD -1
REMARK  1 active torsions:
REMARK  status: ('A' for Active; 'I' for Inactive)
REMARK    1  A    between atoms: C3_4  and  O_7 
ROOT
ATOM      1  C   UNL d   1       1.965   1.782  -6.000  0.00  0.00    -0.033 A 
ATOM      2  C1  UNL d   1       3.044   1.444  -5.180  0.00  0.00     0.039 A 
ATOM      3  C2  UNL d   1       2.927   0.393  -4.268  0.00  0.00    -0.080 A 
ATOM      4  C3  UNL d   1       1.729  -0.311  -4.187  0.00  0.00     0.150 A 
ATOM      5  C4  UNL d   1       0.652   0.017  -5.004  0.00  0.00    -0.007 A 
ATOM      6  C5  UNL d   1       0.770   1.067  -5.913  0.00  0.00     0.039 A 
ENDROOT
BRANCH   4   7
ATOM      7  O   UNL d   1       1.566  -1.342  -3.309  0.00  0.00    -0.526 OA
ATOM      8  H5  UNL d   1       2.383  -1.436  -2.791  0.00  0.00     0.418 HD
ENDBRANCH   4   7
TORSDOF 1
ENDMDL
