MODEL 1
REMARK minimizedAffinity 8.29946423
REMARK minimizedRMSD -1
REMARK  1 active torsions:
REMARK  status: ('A' for Active; 'I' for Inactive)
REMARK    1  A    between atoms: C3_4  and  O_7 
ROOT
ATOM      1  C   UNL d   1       2.111   4.882  -5.369  0.00  0.00    -0.033 A 
ATOM      2  C1  UNL d   1       2.758   5.616  -4.372  0.00  0.00     0.039 A 
ATOM      3  C2  UNL d   1       4.064   5.292  -4.001  0.00  0.00    -0.080 A 
ATOM      4  C3  UNL d   1       4.712   4.235  -4.634  0.00  0.00     0.150 A 
ATOM      5  C4  UNL d   1       4.076   3.503  -5.631  0.00  0.00    -0.007 A 
ATOM      6  C5  UNL d   1       2.771   3.827  -5.999  0.00  0.00     0.039 A 
ENDROOT
BRANCH   4   7
ATOM      7  O   UNL d   1       5.986   3.879  -4.302  0.00  0.00    -0.526 OA
ATOM      8  H5  UNL d   1       6.288   4.454  -3.579  0.00  0.00     0.418 HD
ENDBRANCH   4   7
TORSDOF 1
ENDMDL
