MODEL 1
REMARK minimizedAffinity 4.35060406
REMARK minimizedRMSD -1
REMARK  1 active torsions:
REMARK  status: ('A' for Active; 'I' for Inactive)
REMARK    1  A    between atoms: C3_4  and  O_7 
ROOT
ATOM      1  C   UNL d   1      -4.414  -3.502  -6.000  0.00  0.00    -0.033 A 
ATOM      2  C1  UNL d   1      -3.329  -2.623  -5.998  0.00  0.00     0.039 A 
ATOM      3  C2  UNL d   1      -3.377  -1.452  -5.239  0.00  0.00    -0.080 A 
ATOM      4  C3  UNL d   1      -4.515  -1.172  -4.487  0.00  0.00     0.150 A 
ATOM      5  C4  UNL d   1      -5.598  -2.045  -4.480  0.00  0.00    -0.007 A 
ATOM      6  C5  UNL d   1      -5.548  -3.214  -5.240  0.00  0.00     0.039 A 
ENDROOT
BRANCH   4   7
ATOM      7  O   UNL d   1      -4.610  -0.040  -3.734  0.00  0.00    -0.526 OA
ATOM      8  H5  UNL d   1      -3.800   0.482  -3.858  0.00  0.00     0.418 HD
ENDBRANCH   4   7
TORSDOF 1
ENDMDL
