MODEL 1
REMARK minimizedAffinity -1.3062185
REMARK minimizedRMSD -1
REMARK  1 active torsions:
REMARK  status: ('A' for Active; 'I' for Inactive)
REMARK    1  A    between atoms: C3_4  and  O_7 
ROOT
ATOM      1  C   UNL d   1      -1.537   2.405   4.734  0.00  0.00    -0.033 A 
ATOM      2  C1  UNL d   1      -2.638   1.615   4.398  0.00  0.00     0.039 A 
ATOM      3  C2  UNL d   1      -2.718   1.027   3.134  0.00  0.00    -0.080 A 
ATOM      4  C3  UNL d   1      -1.691   1.235   2.218  0.00  0.00     0.150 A 
ATOM      5  C4  UNL d   1      -0.589   2.017   2.548  0.00  0.00    -0.007 A 
ATOM      6  C5  UNL d   1      -0.511   2.605   3.810  0.00  0.00     0.039 A 
ENDROOT
BRANCH   4   7
ATOM      7  O   UNL d   1      -1.726   0.686   0.971  0.00  0.00    -0.526 OA
ATOM      8  H5  UNL d   1      -2.560   0.195   0.874  0.00  0.00     0.418 HD
ENDBRANCH   4   7
TORSDOF 1
ENDMDL
