MODEL 1
REMARK minimizedAffinity -2.2330761
REMARK minimizedRMSD -1
REMARK  1 active torsions:
REMARK  status: ('A' for Active; 'I' for Inactive)
REMARK    1  A    between atoms: C3_4  and  O_7 
ROOT
ATOM      1  C   UNL d   1      -3.484  -0.077   1.925  0.00  0.00    -0.033 A 
ATOM      2  C1  UNL d   1      -4.350   0.927   1.489  0.00  0.00     0.039 A 
ATOM      3  C2  UNL d   1      -4.447   2.125   2.201  0.00  0.00    -0.080 A 
ATOM      4  C3  UNL d   1      -3.673   2.305   3.344  0.00  0.00     0.150 A 
ATOM      5  C4  UNL d   1      -2.806   1.309   3.782  0.00  0.00    -0.007 A 
ATOM      6  C5  UNL d   1      -2.711   0.114   3.070  0.00  0.00     0.039 A 
ENDROOT
BRANCH   4   7
ATOM      7  O   UNL d   1      -3.737   3.454   4.075  0.00  0.00    -0.526 OA
ATOM      8  H5  UNL d   1      -4.399   4.039   3.670  0.00  0.00     0.418 HD
ENDBRANCH   4   7
TORSDOF 1
ENDMDL
