MODEL 1
REMARK minimizedAffinity -4.8259511
REMARK minimizedRMSD -1
REMARK  1 active torsions:
REMARK  status: ('A' for Active; 'I' for Inactive)
REMARK    1  A    between atoms: C3_4  and  O_7 
ROOT
ATOM      1  C   UNL d   1       0.426   1.049  -0.079  0.00  0.00    -0.033 A 
ATOM      2  C1  UNL d   1       1.621   1.699  -0.394  0.00  0.00     0.039 A 
ATOM      3  C2  UNL d   1       2.213   1.508  -1.644  0.00  0.00    -0.080 A 
ATOM      4  C3  UNL d   1       1.600   0.666  -2.569  0.00  0.00     0.150 A 
ATOM      5  C4  UNL d   1       0.408   0.019  -2.263  0.00  0.00    -0.007 A 
ATOM      6  C5  UNL d   1      -0.181   0.210  -1.014  0.00  0.00     0.039 A 
ENDROOT
BRANCH   4   7
ATOM      7  O   UNL d   1       2.143   0.445  -3.800  0.00  0.00    -0.526 OA
ATOM      8  H5  UNL d   1       2.980   0.935  -3.860  0.00  0.00     0.418 HD
ENDBRANCH   4   7
TORSDOF 1
ENDMDL
