MODEL 1
REMARK minimizedAffinity -4.93504715
REMARK minimizedRMSD -1
REMARK  1 active torsions:
REMARK  status: ('A' for Active; 'I' for Inactive)
REMARK    1  A    between atoms: C3_4  and  O_7 
ROOT
ATOM      1  C   UNL d   1       0.065   0.014   0.247  0.00  0.00    -0.033 A 
ATOM      2  C1  UNL d   1      -0.091  -0.977  -0.724  0.00  0.00     0.039 A 
ATOM      3  C2  UNL d   1       0.595  -0.881  -1.937  0.00  0.00    -0.080 A 
ATOM      4  C3  UNL d   1       1.432   0.207  -2.165  0.00  0.00     0.150 A 
ATOM      5  C4  UNL d   1       1.595   1.196  -1.199  0.00  0.00    -0.007 A 
ATOM      6  C5  UNL d   1       0.909   1.099   0.011  0.00  0.00     0.039 A 
ENDROOT
BRANCH   4   7
ATOM      7  O   UNL d   1       2.118   0.346  -3.334  0.00  0.00    -0.526 OA
ATOM      8  H5  UNL d   1       1.886  -0.396  -3.917  0.00  0.00     0.418 HD
ENDBRANCH   4   7
TORSDOF 1
ENDMDL
