MODEL 1
REMARK minimizedAffinity -2.32605815
REMARK minimizedRMSD -1
REMARK  1 active torsions:
REMARK  status: ('A' for Active; 'I' for Inactive)
REMARK    1  A    between atoms: C3_4  and  O_7 
ROOT
ATOM      1  C   UNL d   1      -0.296   0.199   0.150  0.00  0.00    -0.033 A 
ATOM      2  C1  UNL d   1      -0.067  -0.676  -0.914  0.00  0.00     0.039 A 
ATOM      3  C2  UNL d   1       1.121  -0.596  -1.643  0.00  0.00    -0.080 A 
ATOM      4  C3  UNL d   1       2.071   0.361  -1.298  0.00  0.00     0.150 A 
ATOM      5  C4  UNL d   1       1.852   1.233  -0.237  0.00  0.00    -0.007 A 
ATOM      6  C5  UNL d   1       0.665   1.152   0.489  0.00  0.00     0.039 A 
ENDROOT
BRANCH   4   7
ATOM      7  O   UNL d   1       3.244   0.480  -1.983  0.00  0.00    -0.526 OA
ATOM      8  H5  UNL d   1       3.245  -0.168  -2.707  0.00  0.00     0.418 HD
ENDBRANCH   4   7
TORSDOF 1
ENDMDL
