MODEL 1
REMARK minimizedAffinity -2.84294915
REMARK minimizedRMSD -1
REMARK  1 active torsions:
REMARK  status: ('A' for Active; 'I' for Inactive)
REMARK    1  A    between atoms: C3_4  and  O_7 
ROOT
ATOM      1  C   UNL d   1      -1.168   0.361   0.657  0.00  0.00    -0.033 A 
ATOM      2  C1  UNL d   1      -1.382   1.137  -0.484  0.00  0.00     0.039 A 
ATOM      3  C2  UNL d   1      -0.295   1.644  -1.198  0.00  0.00    -0.080 A 
ATOM      4  C3  UNL d   1       0.998   1.367  -0.763  0.00  0.00     0.150 A 
ATOM      5  C4  UNL d   1       1.218   0.592   0.371  0.00  0.00    -0.007 A 
ATOM      6  C5  UNL d   1       0.132   0.087   1.084  0.00  0.00     0.039 A 
ENDROOT
BRANCH   4   7
ATOM      7  O   UNL d   1       2.091   1.844  -1.425  0.00  0.00    -0.526 OA
ATOM      8  H5  UNL d   1       1.785   2.387  -2.171  0.00  0.00     0.418 HD
ENDBRANCH   4   7
TORSDOF 1
ENDMDL
