MODEL 1
REMARK minimizedAffinity -3.85019493
REMARK minimizedRMSD -1
REMARK  1 active torsions:
REMARK  status: ('A' for Active; 'I' for Inactive)
REMARK    1  A    between atoms: C3_4  and  O_7 
ROOT
ATOM      1  C   UNL d   1       0.066   0.692  -0.529  0.00  0.00    -0.033 A 
ATOM      2  C1  UNL d   1       0.163  -0.357  -1.446  0.00  0.00     0.039 A 
ATOM      3  C2  UNL d   1       0.156  -1.680  -0.999  0.00  0.00    -0.080 A 
ATOM      4  C3  UNL d   1       0.050  -1.940   0.364  0.00  0.00     0.150 A 
ATOM      5  C4  UNL d   1      -0.052  -0.901   1.283  0.00  0.00    -0.007 A 
ATOM      6  C5  UNL d   1      -0.043   0.420   0.835  0.00  0.00     0.039 A 
ENDROOT
BRANCH   4   7
ATOM      7  O   UNL d   1       0.043  -3.215   0.848  0.00  0.00    -0.526 OA
ATOM      8  H5  UNL d   1       0.148  -3.828   0.101  0.00  0.00     0.418 HD
ENDBRANCH   4   7
TORSDOF 1
ENDMDL
