MODEL 1
REMARK minimizedAffinity -5.5465188
REMARK minimizedRMSD -1
REMARK  1 active torsions:
REMARK  status: ('A' for Active; 'I' for Inactive)
REMARK    1  A    between atoms: C3_4  and  O_7 
ROOT
ATOM      1  C   UNL d   1       1.952  -0.983  -2.846  0.00  0.00    -0.033 A 
ATOM      2  C1  UNL d   1       1.525  -1.987  -1.974  0.00  0.00     0.039 A 
ATOM      3  C2  UNL d   1       0.824  -1.655  -0.814  0.00  0.00    -0.080 A 
ATOM      4  C3  UNL d   1       0.555  -0.318  -0.537  0.00  0.00     0.150 A 
ATOM      5  C4  UNL d   1       0.974   0.687  -1.403  0.00  0.00    -0.007 A 
ATOM      6  C5  UNL d   1       1.675   0.354  -2.561  0.00  0.00     0.039 A 
ENDROOT
BRANCH   4   7
ATOM      7  O   UNL d   1      -0.122   0.056   0.586  0.00  0.00    -0.526 OA
ATOM      8  H5  UNL d   1      -0.323  -0.742   1.104  0.00  0.00     0.418 HD
ENDBRANCH   4   7
TORSDOF 1
ENDMDL
