MODEL 1
REMARK minimizedAffinity -1.81613922
REMARK minimizedRMSD -1
REMARK  1 active torsions:
REMARK  status: ('A' for Active; 'I' for Inactive)
REMARK    1  A    between atoms: C3_4  and  O_7 
ROOT
ATOM      1  C   UNL d   1       1.863   1.754  -0.861  0.00  0.00    -0.033 A 
ATOM      2  C1  UNL d   1       2.529   0.694  -1.478  0.00  0.00     0.039 A 
ATOM      3  C2  UNL d   1       2.171  -0.623  -1.185  0.00  0.00    -0.080 A 
ATOM      4  C3  UNL d   1       1.146  -0.866  -0.275  0.00  0.00     0.150 A 
ATOM      5  C4  UNL d   1       0.475   0.186   0.341  0.00  0.00    -0.007 A 
ATOM      6  C5  UNL d   1       0.835   1.500   0.047  0.00  0.00     0.039 A 
ENDROOT
BRANCH   4   7
ATOM      7  O   UNL d   1       0.765  -2.135   0.047  0.00  0.00    -0.526 OA
ATOM      8  H5  UNL d   1       1.335  -2.759  -0.432  0.00  0.00     0.418 HD
ENDBRANCH   4   7
TORSDOF 1
ENDMDL
