MODEL 1
REMARK minimizedAffinity -4.30837297
REMARK minimizedRMSD -1
REMARK  1 active torsions:
REMARK  status: ('A' for Active; 'I' for Inactive)
REMARK    1  A    between atoms: C3_4  and  O_7 
ROOT
ATOM      1  C   UNL d   1       0.836   1.642  -0.165  0.00  0.00    -0.033 A 
ATOM      2  C1  UNL d   1       1.737   1.374  -1.197  0.00  0.00     0.039 A 
ATOM      3  C2  UNL d   1       2.059   0.054  -1.520  0.00  0.00    -0.080 A 
ATOM      4  C3  UNL d   1       1.472  -0.986  -0.804  0.00  0.00     0.150 A 
ATOM      5  C4  UNL d   1       0.571  -0.726   0.222  0.00  0.00    -0.007 A 
ATOM      6  C5  UNL d   1       0.251   0.592   0.543  0.00  0.00     0.039 A 
ENDROOT
BRANCH   4   7
ATOM      7  O   UNL d   1       1.759  -2.291  -1.080  0.00  0.00    -0.526 OA
ATOM      8  H5  UNL d   1       2.419  -2.317  -1.793  0.00  0.00     0.418 HD
ENDBRANCH   4   7
TORSDOF 1
ENDMDL
