MODEL 1
REMARK minimizedAffinity -3.44713116
REMARK minimizedRMSD -1
REMARK  1 active torsions:
REMARK  status: ('A' for Active; 'I' for Inactive)
REMARK    1  A    between atoms: C3_4  and  O_7 
ROOT
ATOM      1  C   UNL d   1       0.768   1.677  -0.729  0.00  0.00    -0.033 A 
ATOM      2  C1  UNL d   1       1.685   0.923  -1.465  0.00  0.00     0.039 A 
ATOM      3  C2  UNL d   1       1.670  -0.471  -1.383  0.00  0.00    -0.080 A 
ATOM      4  C3  UNL d   1       0.734  -1.098  -0.565  0.00  0.00     0.150 A 
ATOM      5  C4  UNL d   1      -0.185  -0.353   0.168  0.00  0.00    -0.007 A 
ATOM      6  C5  UNL d   1      -0.167   1.039   0.086  0.00  0.00     0.039 A 
ENDROOT
BRANCH   4   7
ATOM      7  O   UNL d   1       0.683  -2.455  -0.449  0.00  0.00    -0.526 OA
ATOM      8  H5  UNL d   1       1.395  -2.836  -0.990  0.00  0.00     0.418 HD
ENDBRANCH   4   7
TORSDOF 1
ENDMDL
