MODEL 1
REMARK minimizedAffinity -3.67855525
REMARK minimizedRMSD -1
REMARK  1 active torsions:
REMARK  status: ('A' for Active; 'I' for Inactive)
REMARK    1  A    between atoms: C3_4  and  O_7 
ROOT
ATOM      1  C   UNL d   1       2.366   0.601  -1.869  0.00  0.00    -0.033 A 
ATOM      2  C1  UNL d   1       1.934  -0.683  -1.530  0.00  0.00     0.039 A 
ATOM      3  C2  UNL d   1       0.823  -0.851  -0.701  0.00  0.00    -0.080 A 
ATOM      4  C3  UNL d   1       0.153   0.271  -0.221  0.00  0.00     0.150 A 
ATOM      5  C4  UNL d   1       0.576   1.552  -0.557  0.00  0.00    -0.007 A 
ATOM      6  C5  UNL d   1       1.686   1.718  -1.384  0.00  0.00     0.039 A 
ENDROOT
BRANCH   4   7
ATOM      7  O   UNL d   1      -0.934   0.156   0.595  0.00  0.00    -0.526 OA
ATOM      8  H5  UNL d   1      -1.093  -0.787   0.765  0.00  0.00     0.418 HD
ENDBRANCH   4   7
TORSDOF 1
ENDMDL
