MODEL 1
REMARK minimizedAffinity -4.43976307
REMARK minimizedRMSD -1
REMARK  1 active torsions:
REMARK  status: ('A' for Active; 'I' for Inactive)
REMARK    1  A    between atoms: C3_4  and  O_7 
ROOT
ATOM      1  C   UNL d   1       1.973   0.823  -1.751  0.00  0.00    -0.033 A 
ATOM      2  C1  UNL d   1       1.935  -0.573  -1.733  0.00  0.00     0.039 A 
ATOM      3  C2  UNL d   1       1.310  -1.242  -0.679  0.00  0.00    -0.080 A 
ATOM      4  C3  UNL d   1       0.728  -0.505   0.349  0.00  0.00     0.150 A 
ATOM      5  C4  UNL d   1       0.759   0.885   0.335  0.00  0.00    -0.007 A 
ATOM      6  C5  UNL d   1       1.384   1.552  -0.718  0.00  0.00     0.039 A 
ENDROOT
BRANCH   4   7
ATOM      7  O   UNL d   1       0.111  -1.114   1.401  0.00  0.00    -0.526 OA
ATOM      8  H5  UNL d   1       0.192  -2.076   1.291  0.00  0.00     0.418 HD
ENDBRANCH   4   7
TORSDOF 1
ENDMDL
