MODEL 1
REMARK minimizedAffinity -3.40005088
REMARK minimizedRMSD -1
REMARK  1 active torsions:
REMARK  status: ('A' for Active; 'I' for Inactive)
REMARK    1  A    between atoms: C3_4  and  O_7 
ROOT
ATOM      1  C   UNL d   1      -2.685   0.270   1.805  0.00  0.00    -0.033 A 
ATOM      2  C1  UNL d   1      -2.716   0.568   0.441  0.00  0.00     0.039 A 
ATOM      3  C2  UNL d   1      -1.556   0.450  -0.327  0.00  0.00    -0.080 A 
ATOM      4  C3  UNL d   1      -0.374   0.032   0.278  0.00  0.00     0.150 A 
ATOM      5  C4  UNL d   1      -0.337  -0.270   1.636  0.00  0.00    -0.007 A 
ATOM      6  C5  UNL d   1      -1.496  -0.150   2.402  0.00  0.00     0.039 A 
ENDROOT
BRANCH   4   7
ATOM      7  O   UNL d   1       0.784  -0.093  -0.430  0.00  0.00    -0.526 OA
ATOM      8  H5  UNL d   1       0.614   0.177  -1.348  0.00  0.00     0.418 HD
ENDBRANCH   4   7
TORSDOF 1
ENDMDL
