MODEL 1
REMARK minimizedAffinity -2.30201077
REMARK minimizedRMSD -1
REMARK  1 active torsions:
REMARK  status: ('A' for Active; 'I' for Inactive)
REMARK    1  A    between atoms: C3_4  and  O_7 
ROOT
ATOM      1  C   UNL d   1       0.141   1.519  -1.951  0.00  0.00    -0.033 A 
ATOM      2  C1  UNL d   1       0.920   1.326  -3.093  0.00  0.00     0.039 A 
ATOM      3  C2  UNL d   1       2.239   0.882  -2.974  0.00  0.00    -0.080 A 
ATOM      4  C3  UNL d   1       2.765   0.634  -1.709  0.00  0.00     0.150 A 
ATOM      5  C4  UNL d   1       1.993   0.820  -0.567  0.00  0.00    -0.007 A 
ATOM      6  C5  UNL d   1       0.677   1.264  -0.688  0.00  0.00     0.039 A 
ENDROOT
BRANCH   4   7
ATOM      7  O   UNL d   1       4.048   0.204  -1.543  0.00  0.00    -0.526 OA
ATOM      8  H5  UNL d   1       4.469   0.148  -2.416  0.00  0.00     0.418 HD
ENDBRANCH   4   7
TORSDOF 1
ENDMDL
