MODEL 1
REMARK minimizedAffinity -2.49534941
REMARK minimizedRMSD -1
REMARK  1 active torsions:
REMARK  status: ('A' for Active; 'I' for Inactive)
REMARK    1  A    between atoms: C3_4  and  O_7 
ROOT
ATOM      1  C   UNL d   1       1.213  -2.059  -0.560  0.00  0.00    -0.033 A 
ATOM      2  C1  UNL d   1       2.373  -1.661  -1.228  0.00  0.00     0.039 A 
ATOM      3  C2  UNL d   1       2.616  -0.305  -1.460  0.00  0.00    -0.080 A 
ATOM      4  C3  UNL d   1       1.693   0.639  -1.020  0.00  0.00     0.150 A 
ATOM      5  C4  UNL d   1       0.538   0.249  -0.351  0.00  0.00    -0.007 A 
ATOM      6  C5  UNL d   1       0.296  -1.104  -0.120  0.00  0.00     0.039 A 
ENDROOT
BRANCH   4   7
ATOM      7  O   UNL d   1       1.884   1.973  -1.228  0.00  0.00    -0.526 OA
ATOM      8  H5  UNL d   1       2.710   2.091  -1.727  0.00  0.00     0.418 HD
ENDBRANCH   4   7
TORSDOF 1
ENDMDL
