MODEL 1
REMARK minimizedAffinity -3.11277509
REMARK minimizedRMSD -1
REMARK  1 active torsions:
REMARK  status: ('A' for Active; 'I' for Inactive)
REMARK    1  A    between atoms: C3_4  and  O_7 
ROOT
ATOM      1  C   UNL d   1      -2.392  -0.640   1.694  0.00  0.00    -0.033 A 
ATOM      2  C1  UNL d   1      -3.637  -0.147   1.299  0.00  0.00     0.039 A 
ATOM      3  C2  UNL d   1      -3.998   1.168   1.600  0.00  0.00    -0.080 A 
ATOM      4  C3  UNL d   1      -3.105   1.979   2.295  0.00  0.00     0.150 A 
ATOM      5  C4  UNL d   1      -1.861   1.496   2.688  0.00  0.00    -0.007 A 
ATOM      6  C5  UNL d   1      -1.503   0.183   2.387  0.00  0.00     0.039 A 
ENDROOT
BRANCH   4   7
ATOM      7  O   UNL d   1      -3.414   3.267   2.615  0.00  0.00    -0.526 OA
ATOM      8  H5  UNL d   1      -4.316   3.454   2.305  0.00  0.00     0.418 HD
ENDBRANCH   4   7
TORSDOF 1
ENDMDL
