MODEL 1
REMARK minimizedAffinity -4.20647383
REMARK minimizedRMSD -1
REMARK  1 active torsions:
REMARK  status: ('A' for Active; 'I' for Inactive)
REMARK    1  A    between atoms: C3_4  and  O_7 
ROOT
ATOM      1  C   UNL d   1      -0.935   0.098   1.973  0.00  0.00    -0.033 A 
ATOM      2  C1  UNL d   1      -2.182   0.454   2.490  0.00  0.00     0.039 A 
ATOM      3  C2  UNL d   1      -3.311   0.440   1.669  0.00  0.00    -0.080 A 
ATOM      4  C3  UNL d   1      -3.179   0.067   0.334  0.00  0.00     0.150 A 
ATOM      5  C4  UNL d   1      -1.941  -0.293  -0.187  0.00  0.00    -0.007 A 
ATOM      6  C5  UNL d   1      -0.815  -0.278   0.635  0.00  0.00     0.039 A 
ENDROOT
BRANCH   4   7
ATOM      7  O   UNL d   1      -4.251   0.042  -0.508  0.00  0.00    -0.526 OA
ATOM      8  H5  UNL d   1      -5.035   0.342  -0.018  0.00  0.00     0.418 HD
ENDBRANCH   4   7
TORSDOF 1
ENDMDL
