MODEL 1
REMARK minimizedAffinity -0.801868558
REMARK minimizedRMSD -1
REMARK  0 active torsions:
REMARK  status: ('A' for Active; 'I' for Inactive)
ROOT
ATOM      1  C   UNL d   1       2.082  -0.813  -3.523  0.00  0.00     0.077 C 
ATOM      2  C1  UNL d   1       1.520  -0.053  -2.359  0.00  0.00    -0.074 A 
ATOM      3  C2  UNL d   1       1.825   1.299  -2.168  0.00  0.00    -0.005 A 
ATOM      4  C3  UNL d   1       1.287   1.995  -1.086  0.00  0.00     0.006 A 
ATOM      5  C4  UNL d   1       0.440   1.349  -0.186  0.00  0.00    -0.005 A 
ATOM      6  C5  UNL d   1       0.123  -0.002  -0.361  0.00  0.00    -0.074 A 
ATOM      7  C6  UNL d   1      -0.794  -0.709   0.593  0.00  0.00     0.077 C 
ATOM      8  C7  UNL d   1       0.662  -0.693  -1.454  0.00  0.00    -0.001 A 
ENDROOT
TORSDOF 0
ENDMDL
