MODEL 1
REMARK minimizedAffinity -3.62508059
REMARK minimizedRMSD -1
REMARK  0 active torsions:
REMARK  status: ('A' for Active; 'I' for Inactive)
ROOT
ATOM      1  C   UNL d   1      -0.586   0.143  -0.089  0.00  0.00     0.077 C 
ATOM      2  C1  UNL d   1       0.551  -0.010  -1.055  0.00  0.00    -0.074 A 
ATOM      3  C2  UNL d   1       0.341  -0.530  -2.337  0.00  0.00    -0.005 A 
ATOM      4  C3  UNL d   1       1.407  -0.657  -3.227  0.00  0.00     0.006 A 
ATOM      5  C4  UNL d   1       2.692  -0.268  -2.846  0.00  0.00    -0.005 A 
ATOM      6  C5  UNL d   1       2.921   0.254  -1.569  0.00  0.00    -0.074 A 
ATOM      7  C6  UNL d   1       4.294   0.687  -1.147  0.00  0.00     0.077 C 
ATOM      8  C7  UNL d   1       1.843   0.386  -0.682  0.00  0.00    -0.001 A 
ENDROOT
TORSDOF 0
ENDMDL
