MODEL 1
REMARK minimizedAffinity -2.01679659
REMARK minimizedRMSD -1
REMARK  0 active torsions:
REMARK  status: ('A' for Active; 'I' for Inactive)
ROOT
ATOM      1  C   UNL d   1      -0.333  -0.297   0.748  0.00  0.00     0.077 C 
ATOM      2  C1  UNL d   1      -1.633   0.189   1.316  0.00  0.00    -0.074 A 
ATOM      3  C2  UNL d   1      -2.747  -0.654   1.389  0.00  0.00    -0.005 A 
ATOM      4  C3  UNL d   1      -3.946  -0.190   1.929  0.00  0.00     0.006 A 
ATOM      5  C4  UNL d   1      -4.044   1.120   2.401  0.00  0.00    -0.005 A 
ATOM      6  C5  UNL d   1      -2.941   1.977   2.337  0.00  0.00    -0.074 A 
ATOM      7  C6  UNL d   1      -3.027   3.384   2.849  0.00  0.00     0.077 C 
ATOM      8  C7  UNL d   1      -1.737   1.501   1.799  0.00  0.00    -0.001 A 
ENDROOT
TORSDOF 0
ENDMDL
