MODEL 1
REMARK minimizedAffinity -5.01678133
REMARK minimizedRMSD -1
REMARK  0 active torsions:
REMARK  status: ('A' for Active; 'I' for Inactive)
ROOT
ATOM      1  C   UNL d   1      -2.594   3.598   3.290  0.00  0.00     0.077 C 
ATOM      2  C1  UNL d   1      -2.594   2.301   2.536  0.00  0.00    -0.074 A 
ATOM      3  C2  UNL d   1      -3.793   1.668   2.196  0.00  0.00    -0.005 A 
ATOM      4  C3  UNL d   1      -3.778   0.467   1.486  0.00  0.00     0.006 A 
ATOM      5  C4  UNL d   1      -2.565  -0.112   1.111  0.00  0.00    -0.005 A 
ATOM      6  C5  UNL d   1      -1.355   0.507   1.442  0.00  0.00    -0.074 A 
ATOM      7  C6  UNL d   1      -0.043  -0.096   1.038  0.00  0.00     0.077 C 
ATOM      8  C7  UNL d   1      -1.379   1.717   2.149  0.00  0.00    -0.001 A 
ENDROOT
TORSDOF 0
ENDMDL
