MODEL 1
REMARK minimizedAffinity -4.08581591
REMARK minimizedRMSD -1
REMARK  0 active torsions:
REMARK  status: ('A' for Active; 'I' for Inactive)
ROOT
ATOM      1  C   UNL d   1       3.573   1.608  -1.220  0.00  0.00     0.077 C 
ATOM      2  C1  UNL d   1       2.365   0.728  -1.343  0.00  0.00    -0.074 A 
ATOM      3  C2  UNL d   1       2.166  -0.065  -2.478  0.00  0.00    -0.005 A 
ATOM      4  C3  UNL d   1       1.043  -0.885  -2.574  0.00  0.00     0.006 A 
ATOM      5  C4  UNL d   1       0.108  -0.921  -1.539  0.00  0.00    -0.005 A 
ATOM      6  C5  UNL d   1       0.290  -0.136  -0.396  0.00  0.00    -0.074 A 
ATOM      7  C6  UNL d   1      -0.699  -0.170   0.730  0.00  0.00     0.077 C 
ATOM      8  C7  UNL d   1       1.426   0.681  -0.304  0.00  0.00    -0.001 A 
ENDROOT
TORSDOF 0
ENDMDL
