MODEL 1
REMARK minimizedAffinity -3.63177466
REMARK minimizedRMSD -1
REMARK  0 active torsions:
REMARK  status: ('A' for Active; 'I' for Inactive)
ROOT
ATOM      1  C   UNL d   1       3.510   0.749  -1.109  0.00  0.00     0.077 C 
ATOM      2  C1  UNL d   1       2.069   0.374  -1.287  0.00  0.00    -0.074 A 
ATOM      3  C2  UNL d   1       1.550   0.098  -2.556  0.00  0.00    -0.005 A 
ATOM      4  C3  UNL d   1       0.210  -0.259  -2.705  0.00  0.00     0.006 A 
ATOM      5  C4  UNL d   1      -0.623  -0.344  -1.589  0.00  0.00    -0.005 A 
ATOM      6  C5  UNL d   1      -0.122  -0.072  -0.312  0.00  0.00    -0.074 A 
ATOM      7  C6  UNL d   1      -1.001  -0.168   0.899  0.00  0.00     0.077 C 
ATOM      8  C7  UNL d   1       1.228   0.279  -0.170  0.00  0.00    -0.001 A 
ENDROOT
TORSDOF 0
ENDMDL
