MODEL 1
REMARK minimizedAffinity -4.41021585
REMARK minimizedRMSD -1
REMARK  0 active torsions:
REMARK  status: ('A' for Active; 'I' for Inactive)
ROOT
ATOM      1  C   UNL d   1       0.370   0.381  -2.401  0.00  0.00     0.077 C 
ATOM      2  C1  UNL d   1       0.112  -0.231  -1.056  0.00  0.00    -0.074 A 
ATOM      3  C2  UNL d   1       0.546  -1.527  -0.761  0.00  0.00    -0.005 A 
ATOM      4  C3  UNL d   1       0.307  -2.079   0.497  0.00  0.00     0.006 A 
ATOM      5  C4  UNL d   1      -0.367  -1.342   1.472  0.00  0.00    -0.005 A 
ATOM      6  C5  UNL d   1      -0.807  -0.043   1.195  0.00  0.00    -0.074 A 
ATOM      7  C6  UNL d   1      -1.524   0.767   2.234  0.00  0.00     0.077 C 
ATOM      8  C7  UNL d   1      -0.557   0.507  -0.070  0.00  0.00    -0.001 A 
ENDROOT
TORSDOF 0
ENDMDL
