MODEL 1
REMARK minimizedAffinity -2.15137672
REMARK minimizedRMSD -1
REMARK  0 active torsions:
REMARK  status: ('A' for Active; 'I' for Inactive)
ROOT
ATOM      1  C   UNL d   1      -2.327   0.379   0.931  0.00  0.00     0.077 C 
ATOM      2  C1  UNL d   1      -0.951   0.239   0.353  0.00  0.00    -0.074 A 
ATOM      3  C2  UNL d   1       0.172   0.158   1.182  0.00  0.00    -0.005 A 
ATOM      4  C3  UNL d   1       1.446   0.018   0.630  0.00  0.00     0.006 A 
ATOM      5  C4  UNL d   1       1.609  -0.041  -0.754  0.00  0.00    -0.005 A 
ATOM      6  C5  UNL d   1       0.497   0.038  -1.599  0.00  0.00    -0.074 A 
ATOM      7  C6  UNL d   1       0.654  -0.034  -3.089  0.00  0.00     0.077 C 
ATOM      8  C7  UNL d   1      -0.780   0.171  -1.037  0.00  0.00    -0.001 A 
ENDROOT
TORSDOF 0
ENDMDL
