MODEL 1
REMARK minimizedAffinity -3.65495276
REMARK minimizedRMSD -1
REMARK  0 active torsions:
REMARK  status: ('A' for Active; 'I' for Inactive)
ROOT
ATOM      1  C   UNL d   1       0.382  -1.813   1.898  0.00  0.00     0.077 C 
ATOM      2  C1  UNL d   1       0.160  -0.911   0.720  0.00  0.00    -0.074 A 
ATOM      3  C2  UNL d   1      -0.909  -0.009   0.697  0.00  0.00    -0.005 A 
ATOM      4  C3  UNL d   1      -1.096   0.830  -0.401  0.00  0.00     0.006 A 
ATOM      5  C4  UNL d   1      -0.219   0.777  -1.485  0.00  0.00    -0.005 A 
ATOM      6  C5  UNL d   1       0.856  -0.118  -1.478  0.00  0.00    -0.074 A 
ATOM      7  C6  UNL d   1       1.814  -0.181  -2.631  0.00  0.00     0.077 C 
ATOM      8  C7  UNL d   1       1.042  -0.953  -0.369  0.00  0.00    -0.001 A 
ENDROOT
TORSDOF 0
ENDMDL
