MODEL 1
REMARK minimizedAffinity -3.84426713
REMARK minimizedRMSD -1
REMARK  0 active torsions:
REMARK  status: ('A' for Active; 'I' for Inactive)
ROOT
ATOM      1  C   UNL d   1       0.069  -2.774   0.767  0.00  0.00     0.077 C 
ATOM      2  C1  UNL d   1       0.477  -1.490   0.108  0.00  0.00    -0.074 A 
ATOM      3  C2  UNL d   1       0.325  -0.264   0.765  0.00  0.00    -0.005 A 
ATOM      4  C3  UNL d   1       0.718   0.921   0.143  0.00  0.00     0.006 A 
ATOM      5  C4  UNL d   1       1.266   0.892  -1.140  0.00  0.00    -0.005 A 
ATOM      6  C5  UNL d   1       1.427  -0.324  -1.812  0.00  0.00    -0.074 A 
ATOM      7  C6  UNL d   1       2.024  -0.373  -3.187  0.00  0.00     0.077 C 
ATOM      8  C7  UNL d   1       1.036  -1.511  -1.178  0.00  0.00    -0.001 A 
ENDROOT
TORSDOF 0
ENDMDL
