MODEL 1
REMARK minimizedAffinity -3.31944704
REMARK minimizedRMSD -1
REMARK  0 active torsions:
REMARK  status: ('A' for Active; 'I' for Inactive)
ROOT
ATOM      1  C   UNL d   1       0.053  -2.790   0.741  0.00  0.00     0.077 C 
ATOM      2  C1  UNL d   1       0.421  -1.424   0.244  0.00  0.00    -0.074 A 
ATOM      3  C2  UNL d   1       0.547  -0.347   1.128  0.00  0.00    -0.005 A 
ATOM      4  C3  UNL d   1       0.899   0.916   0.653  0.00  0.00     0.006 A 
ATOM      5  C4  UNL d   1       1.128   1.115  -0.709  0.00  0.00    -0.005 A 
ATOM      6  C5  UNL d   1       1.007   0.051  -1.608  0.00  0.00    -0.074 A 
ATOM      7  C6  UNL d   1       1.259   0.245  -3.074  0.00  0.00     0.077 C 
ATOM      8  C7  UNL d   1       0.659  -1.217  -1.122  0.00  0.00    -0.001 A 
ENDROOT
TORSDOF 0
ENDMDL
