MODEL 1
REMARK minimizedAffinity -3.97722316
REMARK minimizedRMSD -1
REMARK  0 active torsions:
REMARK  status: ('A' for Active; 'I' for Inactive)
ROOT
ATOM      1  C   UNL d   1      -0.991  -0.057   1.263  0.00  0.00     0.077 C 
ATOM      2  C1  UNL d   1       0.108  -0.580   0.387  0.00  0.00    -0.074 A 
ATOM      3  C2  UNL d   1       0.311  -1.955   0.232  0.00  0.00    -0.005 A 
ATOM      4  C3  UNL d   1       1.331  -2.427  -0.594  0.00  0.00     0.006 A 
ATOM      5  C4  UNL d   1       2.158  -1.530  -1.271  0.00  0.00    -0.005 A 
ATOM      6  C5  UNL d   1       1.970  -0.151  -1.129  0.00  0.00    -0.074 A 
ATOM      7  C6  UNL d   1       2.844   0.826  -1.857  0.00  0.00     0.077 C 
ATOM      8  C7  UNL d   1       0.938   0.315  -0.303  0.00  0.00    -0.001 A 
ENDROOT
TORSDOF 0
ENDMDL
