MODEL 1
REMARK minimizedAffinity -4.11971045
REMARK minimizedRMSD -1
REMARK  0 active torsions:
REMARK  status: ('A' for Active; 'I' for Inactive)
ROOT
ATOM      1  C   UNL d   1       1.833  -1.058  -3.365  0.00  0.00     0.077 C 
ATOM      2  C1  UNL d   1       1.502  -0.304  -2.112  0.00  0.00    -0.074 A 
ATOM      3  C2  UNL d   1       2.290   0.773  -1.692  0.00  0.00    -0.005 A 
ATOM      4  C3  UNL d   1       1.965   1.471  -0.529  0.00  0.00     0.006 A 
ATOM      5  C4  UNL d   1       0.849   1.101   0.224  0.00  0.00    -0.005 A 
ATOM      6  C5  UNL d   1       0.049   0.028  -0.181  0.00  0.00    -0.074 A 
ATOM      7  C6  UNL d   1      -1.158  -0.376   0.611  0.00  0.00     0.077 C 
ATOM      8  C7  UNL d   1       0.379  -0.664  -1.354  0.00  0.00    -0.001 A 
ENDROOT
TORSDOF 0
ENDMDL
