MODEL 1
REMARK minimizedAffinity -3.39978528
REMARK minimizedRMSD -1
REMARK  0 active torsions:
REMARK  status: ('A' for Active; 'I' for Inactive)
ROOT
ATOM      1  C   UNL d   1      -1.190  -0.137   1.533  0.00  0.00     0.077 C 
ATOM      2  C1  UNL d   1      -0.598   0.123   0.179  0.00  0.00    -0.074 A 
ATOM      3  C2  UNL d   1      -1.407   0.174  -0.961  0.00  0.00    -0.005 A 
ATOM      4  C3  UNL d   1      -0.844   0.426  -2.212  0.00  0.00     0.006 A 
ATOM      5  C4  UNL d   1       0.531   0.630  -2.335  0.00  0.00    -0.005 A 
ATOM      6  C5  UNL d   1       1.355   0.584  -1.206  0.00  0.00    -0.074 A 
ATOM      7  C6  UNL d   1       2.834   0.811  -1.320  0.00  0.00     0.077 C 
ATOM      8  C7  UNL d   1       0.781   0.337   0.048  0.00  0.00    -0.001 A 
ENDROOT
TORSDOF 0
ENDMDL
