MODEL 1
REMARK minimizedAffinity -3.21543217
REMARK minimizedRMSD -1
REMARK  0 active torsions:
REMARK  status: ('A' for Active; 'I' for Inactive)
ROOT
ATOM      1  C   UNL d   1      -0.738  -0.083   1.709  0.00  0.00     0.077 C 
ATOM      2  C1  UNL d   1      -0.151  -0.738   0.494  0.00  0.00    -0.074 A 
ATOM      3  C2  UNL d   1      -0.086  -2.131   0.389  0.00  0.00    -0.005 A 
ATOM      4  C3  UNL d   1       0.453  -2.726  -0.752  0.00  0.00     0.006 A 
ATOM      5  C4  UNL d   1       0.932  -1.935  -1.797  0.00  0.00    -0.005 A 
ATOM      6  C5  UNL d   1       0.875  -0.541  -1.710  0.00  0.00    -0.074 A 
ATOM      7  C6  UNL d   1       1.376   0.324  -2.829  0.00  0.00     0.077 C 
ATOM      8  C7  UNL d   1       0.325   0.050  -0.564  0.00  0.00    -0.001 A 
ENDROOT
TORSDOF 0
ENDMDL
