MODEL 1
REMARK minimizedAffinity -3.69556332
REMARK minimizedRMSD -1
REMARK  0 active torsions:
REMARK  status: ('A' for Active; 'I' for Inactive)
ROOT
ATOM      1  C   UNL d   1      -0.936   0.352   1.593  0.00  0.00     0.077 C 
ATOM      2  C1  UNL d   1      -0.323  -0.229   0.354  0.00  0.00    -0.074 A 
ATOM      3  C2  UNL d   1       0.293   0.592  -0.596  0.00  0.00    -0.005 A 
ATOM      4  C3  UNL d   1       0.868   0.036  -1.739  0.00  0.00     0.006 A 
ATOM      5  C4  UNL d   1       0.832  -1.344  -1.943  0.00  0.00    -0.005 A 
ATOM      6  C5  UNL d   1       0.222  -2.181  -1.004  0.00  0.00    -0.074 A 
ATOM      7  C6  UNL d   1       0.184  -3.667  -1.203  0.00  0.00     0.077 C 
ATOM      8  C7  UNL d   1      -0.347  -1.616   0.146  0.00  0.00    -0.001 A 
ENDROOT
TORSDOF 0
ENDMDL
