MODEL 1
REMARK minimizedAffinity -4.02231789
REMARK minimizedRMSD -1
REMARK  0 active torsions:
REMARK  status: ('A' for Active; 'I' for Inactive)
ROOT
ATOM      1  C   UNL d   1      -1.314   0.299   1.862  0.00  0.00     0.077 C 
ATOM      2  C1  UNL d   1      -0.567  -0.433   0.787  0.00  0.00    -0.074 A 
ATOM      3  C2  UNL d   1      -0.288  -1.798   0.907  0.00  0.00    -0.005 A 
ATOM      4  C3  UNL d   1       0.400  -2.467  -0.106  0.00  0.00     0.006 A 
ATOM      5  C4  UNL d   1       0.813  -1.779  -1.247  0.00  0.00    -0.005 A 
ATOM      6  C5  UNL d   1       0.542  -0.414  -1.386  0.00  0.00    -0.074 A 
ATOM      7  C6  UNL d   1       0.971   0.338  -2.610  0.00  0.00     0.077 C 
ATOM      8  C7  UNL d   1      -0.155   0.250  -0.367  0.00  0.00    -0.001 A 
ENDROOT
TORSDOF 0
ENDMDL
