MODEL 1
REMARK minimizedAffinity -4.52827692
REMARK minimizedRMSD -1
REMARK  0 active torsions:
REMARK  status: ('A' for Active; 'I' for Inactive)
ROOT
ATOM      1  C   UNL d   1      -0.934  -0.285   0.708  0.00  0.00     0.077 C 
ATOM      2  C1  UNL d   1      -0.202  -0.731  -0.523  0.00  0.00    -0.074 A 
ATOM      3  C2  UNL d   1       0.002   0.145  -1.594  0.00  0.00    -0.005 A 
ATOM      4  C3  UNL d   1       0.692  -0.280  -2.729  0.00  0.00     0.006 A 
ATOM      5  C4  UNL d   1       1.185  -1.584  -2.804  0.00  0.00    -0.005 A 
ATOM      6  C5  UNL d   1       0.991  -2.473  -1.742  0.00  0.00    -0.074 A 
ATOM      7  C6  UNL d   1       1.523  -3.875  -1.803  0.00  0.00     0.077 C 
ATOM      8  C7  UNL d   1       0.303  -2.036  -0.603  0.00  0.00    -0.001 A 
ENDROOT
TORSDOF 0
ENDMDL
