MODEL 1
REMARK minimizedAffinity -4.80214596
REMARK minimizedRMSD -1
REMARK  0 active torsions:
REMARK  status: ('A' for Active; 'I' for Inactive)
ROOT
ATOM      1  C   UNL d   1      -0.880   0.266   0.645  0.00  0.00     0.077 C 
ATOM      2  C1  UNL d   1      -0.033  -0.607  -0.233  0.00  0.00    -0.074 A 
ATOM      3  C2  UNL d   1      -0.107  -2.001  -0.148  0.00  0.00    -0.005 A 
ATOM      4  C3  UNL d   1       0.679  -2.799  -0.978  0.00  0.00     0.006 A 
ATOM      5  C4  UNL d   1       1.547  -2.213  -1.900  0.00  0.00    -0.005 A 
ATOM      6  C5  UNL d   1       1.635  -0.821  -2.000  0.00  0.00    -0.074 A 
ATOM      7  C6  UNL d   1       2.555  -0.174  -2.993  0.00  0.00     0.077 C 
ATOM      8  C7  UNL d   1       0.836  -0.025  -1.168  0.00  0.00    -0.001 A 
ENDROOT
TORSDOF 0
ENDMDL
