MODEL 1
REMARK minimizedAffinity 9.62393951
REMARK minimizedRMSD -1
REMARK  0 active torsions:
REMARK  status: ('A' for Active; 'I' for Inactive)
ROOT
ATOM      1  C1  DEN d   1       2.641  -5.901  -2.287  0.00  0.00     0.130 A 
ATOM      2  C2  DEN d   1       3.763  -5.964  -1.354  0.00  0.00    -0.031 A 
ATOM      3  C3  DEN d   1       5.011  -5.994  -2.143  0.00  0.00     0.027 A 
ATOM      4  C4  DEN d   1       5.314  -5.947  -4.704  0.00  0.00     0.027 A 
ATOM      5  C5  DEN d   1       4.653  -5.907  -5.912  0.00  0.00    -0.003 A 
ATOM      6  C6  DEN d   1       3.286  -5.897  -5.997  0.00  0.00     0.001 A 
ATOM      7  C7  DEN d   1       2.535  -5.882  -4.851  0.00  0.00     0.017 A 
ATOM      8  C8  DEN d   1       3.194  -5.929  -3.629  0.00  0.00    -0.094 A 
ATOM      9  C9  DEN d   1       4.577  -5.926  -3.564  0.00  0.00    -0.072 A 
ENDROOT
TORSDOF 0
ENDMDL
