MODEL 1
REMARK minimizedAffinity 12.7218819
REMARK minimizedRMSD -1
REMARK  0 active torsions:
REMARK  status: ('A' for Active; 'I' for Inactive)
ROOT
ATOM      1  C1  DEN d   1      -2.683   2.543  -0.518  0.00  0.00     0.130 A 
ATOM      2  C2  DEN d   1      -1.884   1.801   0.453  0.00  0.00    -0.031 A 
ATOM      3  C3  DEN d   1      -2.628   1.771   1.729  0.00  0.00     0.027 A 
ATOM      4  C4  DEN d   1      -4.929   2.792   2.290  0.00  0.00     0.027 A 
ATOM      5  C5  DEN d   1      -5.983   3.525   1.792  0.00  0.00    -0.003 A 
ATOM      6  C6  DEN d   1      -5.996   4.008   0.510  0.00  0.00     0.001 A 
ATOM      7  C7  DEN d   1      -4.954   3.724  -0.332  0.00  0.00     0.017 A 
ATOM      8  C8  DEN d   1      -3.884   2.991   0.165  0.00  0.00    -0.094 A 
ATOM      9  C9  DEN d   1      -3.895   2.502   1.460  0.00  0.00    -0.072 A 
ENDROOT
TORSDOF 0
ENDMDL
