MODEL 1
REMARK minimizedAffinity 14.3869219
REMARK minimizedRMSD -1
REMARK  0 active torsions:
REMARK  status: ('A' for Active; 'I' for Inactive)
ROOT
ATOM      1  C1  DEN d   1       4.911  -1.891  -3.072  0.00  0.00     0.130 A 
ATOM      2  C2  DEN d   1       3.635  -1.651  -2.405  0.00  0.00    -0.031 A 
ATOM      3  C3  DEN d   1       2.943  -2.947  -2.262  0.00  0.00     0.027 A 
ATOM      4  C4  DEN d   1       3.721  -5.292  -3.002  0.00  0.00     0.027 A 
ATOM      5  C5  DEN d   1       4.730  -5.997  -3.621  0.00  0.00    -0.003 A 
ATOM      6  C6  DEN d   1       5.845  -5.383  -4.127  0.00  0.00     0.001 A 
ATOM      7  C7  DEN d   1       6.000  -4.029  -3.982  0.00  0.00     0.017 A 
ATOM      8  C8  DEN d   1       4.983  -3.311  -3.366  0.00  0.00    -0.094 A 
ATOM      9  C9  DEN d   1       3.869  -3.952  -2.850  0.00  0.00    -0.072 A 
ENDROOT
TORSDOF 0
ENDMDL
