MODEL 1
REMARK minimizedAffinity 7.91257286
REMARK minimizedRMSD -1
REMARK  0 active torsions:
REMARK  status: ('A' for Active; 'I' for Inactive)
ROOT
ATOM      1  C1  DEN d   1       2.158   5.905  -0.587  0.00  0.00     0.130 A 
ATOM      2  C2  DEN d   1       2.955   5.747  -1.800  0.00  0.00    -0.031 A 
ATOM      3  C3  DEN d   1       3.393   4.339  -1.879  0.00  0.00     0.027 A 
ATOM      4  C4  DEN d   1       2.913   2.398  -0.250  0.00  0.00     0.027 A 
ATOM      5  C5  DEN d   1       2.291   2.049   0.929  0.00  0.00    -0.003 A 
ATOM      6  C6  DEN d   1       1.615   2.961   1.696  0.00  0.00     0.001 A 
ATOM      7  C7  DEN d   1       1.507   4.258   1.270  0.00  0.00     0.017 A 
ATOM      8  C8  DEN d   1       2.138   4.619   0.086  0.00  0.00    -0.094 A 
ATOM      9  C9  DEN d   1       2.806   3.680  -0.681  0.00  0.00    -0.072 A 
ENDROOT
TORSDOF 0
ENDMDL
