MODEL 1
REMARK minimizedAffinity 11.5359297
REMARK minimizedRMSD -1
REMARK  0 active torsions:
REMARK  status: ('A' for Active; 'I' for Inactive)
ROOT
ATOM      1  C1  DEN d   1      -2.316   3.070   2.346  0.00  0.00     0.130 A 
ATOM      2  C2  DEN d   1      -1.458   3.182   1.170  0.00  0.00    -0.031 A 
ATOM      3  C3  DEN d   1      -2.305   3.021  -0.030  0.00  0.00     0.027 A 
ATOM      4  C4  DEN d   1      -4.847   2.615  -0.178  0.00  0.00     0.027 A 
ATOM      5  C5  DEN d   1      -6.000   2.434   0.555  0.00  0.00    -0.003 A 
ATOM      6  C6  DEN d   1      -6.000   2.419   1.924  0.00  0.00     0.001 A 
ATOM      7  C7  DEN d   1      -4.831   2.632   2.605  0.00  0.00     0.017 A 
ATOM      8  C8  DEN d   1      -3.663   2.808   1.874  0.00  0.00    -0.094 A 
ATOM      9  C9  DEN d   1      -3.686   2.832   0.490  0.00  0.00    -0.072 A 
ENDROOT
TORSDOF 0
ENDMDL
