MODEL 1
REMARK minimizedAffinity 12.7210703
REMARK minimizedRMSD -1
REMARK  0 active torsions:
REMARK  status: ('A' for Active; 'I' for Inactive)
ROOT
ATOM      1  C1  DEN d   1       1.988   5.278  -2.341  0.00  0.00     0.130 A 
ATOM      2  C2  DEN d   1       2.073   5.364  -0.886  0.00  0.00    -0.031 A 
ATOM      3  C3  DEN d   1       3.475   5.657  -0.527  0.00  0.00     0.027 A 
ATOM      4  C4  DEN d   1       5.511   5.989  -2.075  0.00  0.00     0.027 A 
ATOM      5  C5  DEN d   1       5.934   5.999  -3.386  0.00  0.00    -0.003 A 
ATOM      6  C6  DEN d   1       5.086   5.739  -4.429  0.00  0.00     0.001 A 
ATOM      7  C7  DEN d   1       3.760   5.501  -4.183  0.00  0.00     0.017 A 
ATOM      8  C8  DEN d   1       3.327   5.481  -2.864  0.00  0.00    -0.094 A 
ATOM      9  C9  DEN d   1       4.197   5.759  -1.823  0.00  0.00    -0.072 A 
ENDROOT
TORSDOF 0
ENDMDL
