MODEL 1
REMARK minimizedAffinity 11.9368515
REMARK minimizedRMSD -1
REMARK  0 active torsions:
REMARK  status: ('A' for Active; 'I' for Inactive)
ROOT
ATOM      1  C1  DEN d   1       2.573   0.734   5.906  0.00  0.00     0.130 A 
ATOM      2  C2  DEN d   1       2.270   2.010   5.265  0.00  0.00    -0.031 A 
ATOM      3  C3  DEN d   1       2.136   1.772   3.814  0.00  0.00     0.027 A 
ATOM      4  C4  DEN d   1       2.363  -0.438   2.505  0.00  0.00     0.027 A 
ATOM      5  C5  DEN d   1       2.626  -1.786   2.614  0.00  0.00    -0.003 A 
ATOM      6  C6  DEN d   1       2.921  -2.377   3.814  0.00  0.00     0.001 A 
ATOM      7  C7  DEN d   1       2.915  -1.627   4.960  0.00  0.00     0.017 A 
ATOM      8  C8  DEN d   1       2.659  -0.266   4.857  0.00  0.00    -0.094 A 
ATOM      9  C9  DEN d   1       2.351   0.311   3.636  0.00  0.00    -0.072 A 
ENDROOT
TORSDOF 0
ENDMDL
