MODEL 1
REMARK minimizedAffinity -4.66761065
REMARK minimizedRMSD -1
REMARK  0 active torsions:
REMARK  status: ('A' for Active; 'I' for Inactive)
ROOT
ATOM      1  C2' OXE d   1       1.004   0.039  -0.196  0.00  0.00     0.078 C 
ATOM      2  C1' OXE d   1      -0.547  -1.625   1.448  0.00  0.00     0.078 C 
ATOM      3  C1  OXE d   1      -1.263  -0.795   0.412  0.00  0.00    -0.078 A 
ATOM      4  C2  OXE d   1      -0.501   0.051  -0.356  0.00  0.00    -0.078 A 
ATOM      5  C3  OXE d   1      -1.104   0.799  -1.364  0.00  0.00     0.003 A 
ATOM      6  C4  OXE d   1      -2.498   0.812  -1.499  0.00  0.00    -0.002 A 
ATOM      7  C5  OXE d   1      -3.296  -0.013  -0.699  0.00  0.00    -0.002 A 
ATOM      8  C6  OXE d   1      -2.692  -0.852   0.230  0.00  0.00     0.003 A 
ENDROOT
TORSDOF 0
ENDMDL
