MODEL 1
REMARK minimizedAffinity -3.64579868
REMARK minimizedRMSD -1
REMARK  0 active torsions:
REMARK  status: ('A' for Active; 'I' for Inactive)
ROOT
ATOM      1  C2' OXE d   1      -0.092   0.637  -2.442  0.00  0.00     0.078 C 
ATOM      2  C1' OXE d   1       0.965   0.554   0.157  0.00  0.00     0.078 C 
ATOM      3  C1  OXE d   1      -0.470   0.132  -0.032  0.00  0.00    -0.078 A 
ATOM      4  C2  OXE d   1      -0.993   0.220  -1.300  0.00  0.00    -0.078 A 
ATOM      5  C3  OXE d   1      -2.296  -0.208  -1.540  0.00  0.00     0.003 A 
ATOM      6  C4  OXE d   1      -3.126  -0.583  -0.477  0.00  0.00    -0.002 A 
ATOM      7  C5  OXE d   1      -2.625  -0.642   0.828  0.00  0.00    -0.002 A 
ATOM      8  C6  OXE d   1      -1.290  -0.329   1.061  0.00  0.00     0.003 A 
ENDROOT
TORSDOF 0
ENDMDL
