MODEL 1
REMARK minimizedAffinity -2.6194849
REMARK minimizedRMSD -1
REMARK  0 active torsions:
REMARK  status: ('A' for Active; 'I' for Inactive)
ROOT
ATOM      1  C2' OXE d   1       0.558   0.308  -1.168  0.00  0.00     0.078 C 
ATOM      2  C1' OXE d   1       0.239  -0.749   1.413  0.00  0.00     0.078 C 
ATOM      3  C1  OXE d   1       1.083   0.491   1.260  0.00  0.00    -0.078 A 
ATOM      4  C2  OXE d   1       1.272   0.975  -0.012  0.00  0.00    -0.078 A 
ATOM      5  C3  OXE d   1       1.997   2.148  -0.203  0.00  0.00     0.003 A 
ATOM      6  C4  OXE d   1       2.662   2.753   0.870  0.00  0.00    -0.002 A 
ATOM      7  C5  OXE d   1       2.515   2.253   2.169  0.00  0.00    -0.002 A 
ATOM      8  C6  OXE d   1       1.696   1.151   2.386  0.00  0.00     0.003 A 
ENDROOT
TORSDOF 0
ENDMDL
