MODEL 1
REMARK minimizedAffinity -3.60099959
REMARK minimizedRMSD -1
REMARK  0 active torsions:
REMARK  status: ('A' for Active; 'I' for Inactive)
ROOT
ATOM      1  C2' OXE d   1       1.134   0.416  -0.143  0.00  0.00     0.078 C 
ATOM      2  C1' OXE d   1      -0.497   1.221  -2.281  0.00  0.00     0.078 C 
ATOM      3  C1  OXE d   1      -1.098   0.306  -1.243  0.00  0.00    -0.078 A 
ATOM      4  C2  OXE d   1      -0.279  -0.120  -0.226  0.00  0.00    -0.078 A 
ATOM      5  C3  OXE d   1      -0.798  -0.921   0.788  0.00  0.00     0.003 A 
ATOM      6  C4  OXE d   1      -2.103  -1.421   0.698  0.00  0.00    -0.002 A 
ATOM      7  C5  OXE d   1      -2.942  -1.031  -0.352  0.00  0.00    -0.002 A 
ATOM      8  C6  OXE d   1      -2.469  -0.136  -1.305  0.00  0.00     0.003 A 
ENDROOT
TORSDOF 0
ENDMDL
