MODEL 1
REMARK minimizedAffinity -5.06407547
REMARK minimizedRMSD -1
REMARK  0 active torsions:
REMARK  status: ('A' for Active; 'I' for Inactive)
ROOT
ATOM      1  C2' OXE d   1      -0.865  -1.976   1.832  0.00  0.00     0.078 C 
ATOM      2  C1' OXE d   1      -2.643  -0.796   0.008  0.00  0.00     0.078 C 
ATOM      3  C1  OXE d   1      -1.229  -0.270   0.053  0.00  0.00    -0.078 A 
ATOM      4  C2  OXE d   1      -0.379  -0.822   0.981  0.00  0.00    -0.078 A 
ATOM      5  C3  OXE d   1       0.950  -0.412   1.027  0.00  0.00     0.003 A 
ATOM      6  C4  OXE d   1       1.388   0.662   0.244  0.00  0.00    -0.002 A 
ATOM      7  C5  OXE d   1       0.528   1.265  -0.680  0.00  0.00    -0.002 A 
ATOM      8  C6  OXE d   1      -0.769   0.783  -0.817  0.00  0.00     0.003 A 
ENDROOT
TORSDOF 0
ENDMDL
