MODEL 1
REMARK minimizedAffinity -0.597832501
REMARK minimizedRMSD -1
REMARK  0 active torsions:
REMARK  status: ('A' for Active; 'I' for Inactive)
ROOT
ATOM      1  C2' OXE d   1       0.575  -1.558   1.389  0.00  0.00     0.078 C 
ATOM      2  C1' OXE d   1       0.998   1.175   0.907  0.00  0.00     0.078 C 
ATOM      3  C1  OXE d   1      -0.035   0.465   0.069  0.00  0.00    -0.078 A 
ATOM      4  C2  OXE d   1      -0.203  -0.883   0.280  0.00  0.00    -0.078 A 
ATOM      5  C3  OXE d   1      -1.181  -1.575  -0.427  0.00  0.00     0.003 A 
ATOM      6  C4  OXE d   1      -1.889  -0.945  -1.458  0.00  0.00    -0.002 A 
ATOM      7  C5  OXE d   1      -1.706   0.417  -1.717  0.00  0.00    -0.002 A 
ATOM      8  C6  OXE d   1      -0.815   1.145  -0.935  0.00  0.00     0.003 A 
ENDROOT
TORSDOF 0
ENDMDL
