MODEL 1
REMARK minimizedAffinity -5.41701412
REMARK minimizedRMSD -1
REMARK  0 active torsions:
REMARK  status: ('A' for Active; 'I' for Inactive)
ROOT
ATOM      1  C2' OXE d   1       1.831  -0.556   0.588  0.00  0.00     0.078 C 
ATOM      2  C1' OXE d   1      -0.378  -1.996   1.551  0.00  0.00     0.078 C 
ATOM      3  C1  OXE d   1      -0.605  -1.044   0.403  0.00  0.00    -0.078 A 
ATOM      4  C2  OXE d   1       0.472  -0.310  -0.031  0.00  0.00    -0.078 A 
ATOM      5  C3  OXE d   1       0.330   0.542  -1.123  0.00  0.00     0.003 A 
ATOM      6  C4  OXE d   1      -0.932   0.772  -1.683  0.00  0.00    -0.002 A 
ATOM      7  C5  OXE d   1      -2.050   0.064  -1.229  0.00  0.00    -0.002 A 
ATOM      8  C6  OXE d   1      -1.896  -0.878  -0.217  0.00  0.00     0.003 A 
ENDROOT
TORSDOF 0
ENDMDL
