MODEL 1
REMARK minimizedAffinity -3.80144739
REMARK minimizedRMSD -1
REMARK  0 active torsions:
REMARK  status: ('A' for Active; 'I' for Inactive)
ROOT
ATOM      1  C2' OXE d   1       0.691   1.084   0.363  0.00  0.00     0.078 C 
ATOM      2  C1' OXE d   1       0.235   0.326  -2.301  0.00  0.00     0.078 C 
ATOM      3  C1  OXE d   1      -0.818  -0.025  -1.280  0.00  0.00    -0.078 A 
ATOM      4  C2  OXE d   1      -0.566   0.308   0.029  0.00  0.00    -0.078 A 
ATOM      5  C3  OXE d   1      -1.528   0.056   1.003  0.00  0.00     0.003 A 
ATOM      6  C4  OXE d   1      -2.682  -0.670   0.687  0.00  0.00    -0.002 A 
ATOM      7  C5  OXE d   1      -2.941  -1.054  -0.633  0.00  0.00    -0.002 A 
ATOM      8  C6  OXE d   1      -2.041  -0.703  -1.633  0.00  0.00     0.003 A 
ENDROOT
TORSDOF 0
ENDMDL
