MODEL 1
REMARK minimizedAffinity -5.41550016
REMARK minimizedRMSD -1
REMARK  0 active torsions:
REMARK  status: ('A' for Active; 'I' for Inactive)
ROOT
ATOM      1  C2' OXE d   1      -2.990  -0.780  -0.002  0.00  0.00     0.078 C 
ATOM      2  C1' OXE d   1      -1.081  -1.645   1.865  0.00  0.00     0.078 C 
ATOM      3  C1  OXE d   1      -0.595  -0.852   0.678  0.00  0.00    -0.078 A 
ATOM      4  C2  OXE d   1      -1.530  -0.472  -0.255  0.00  0.00    -0.078 A 
ATOM      5  C3  OXE d   1      -1.143   0.308  -1.341  0.00  0.00     0.003 A 
ATOM      6  C4  OXE d   1       0.211   0.580  -1.572  0.00  0.00    -0.002 A 
ATOM      7  C5  OXE d   1       1.184   0.169  -0.655  0.00  0.00    -0.002 A 
ATOM      8  C6  OXE d   1       0.794  -0.510   0.494  0.00  0.00     0.003 A 
ENDROOT
TORSDOF 0
ENDMDL
