MODEL 1
REMARK minimizedAffinity -4.04241323
REMARK minimizedRMSD -1
REMARK  0 active torsions:
REMARK  status: ('A' for Active; 'I' for Inactive)
ROOT
ATOM      1  C2' OXE d   1      -0.003   0.403  -2.120  0.00  0.00     0.078 C 
ATOM      2  C1' OXE d   1       1.257   0.255   0.384  0.00  0.00     0.078 C 
ATOM      3  C1  OXE d   1      -0.224  -0.027   0.324  0.00  0.00    -0.078 A 
ATOM      4  C2  OXE d   1      -0.841   0.093  -0.898  0.00  0.00    -0.078 A 
ATOM      5  C3  OXE d   1      -2.194  -0.209  -1.019  0.00  0.00     0.003 A 
ATOM      6  C4  OXE d   1      -2.964  -0.485   0.117  0.00  0.00    -0.002 A 
ATOM      7  C5  OXE d   1      -2.362  -0.573   1.377  0.00  0.00    -0.002 A 
ATOM      8  C6  OXE d   1      -0.989  -0.389   1.491  0.00  0.00     0.003 A 
ENDROOT
TORSDOF 0
ENDMDL
