MODEL 1
REMARK minimizedAffinity -3.20714521
REMARK minimizedRMSD -1
REMARK  0 active torsions:
REMARK  status: ('A' for Active; 'I' for Inactive)
ROOT
ATOM      1  C2' OXE d   1       0.023  -0.200  -2.277  0.00  0.00     0.078 C 
ATOM      2  C1' OXE d   1       0.759   0.361   0.374  0.00  0.00     0.078 C 
ATOM      3  C1  OXE d   1      -0.623  -0.192   0.129  0.00  0.00    -0.078 A 
ATOM      4  C2  OXE d   1      -0.991  -0.420  -1.175  0.00  0.00    -0.078 A 
ATOM      5  C3  OXE d   1      -2.234  -0.981  -1.452  0.00  0.00     0.003 A 
ATOM      6  C4  OXE d   1      -3.170  -1.172  -0.428  0.00  0.00    -0.002 A 
ATOM      7  C5  OXE d   1      -2.829  -0.910   0.903  0.00  0.00    -0.002 A 
ATOM      8  C6  OXE d   1      -1.548  -0.460   1.203  0.00  0.00     0.003 A 
ENDROOT
TORSDOF 0
ENDMDL
