MODEL 1
REMARK minimizedAffinity -4.64450264
REMARK minimizedRMSD -1
REMARK  0 active torsions:
REMARK  status: ('A' for Active; 'I' for Inactive)
ROOT
ATOM      1  C2' OXE d   1      -0.358   0.712  -2.373  0.00  0.00     0.078 C 
ATOM      2  C1' OXE d   1       0.971   0.446   0.085  0.00  0.00     0.078 C 
ATOM      3  C1  OXE d   1      -0.412  -0.144  -0.034  0.00  0.00    -0.078 A 
ATOM      4  C2  OXE d   1      -1.074   0.031  -1.226  0.00  0.00    -0.078 A 
ATOM      5  C3  OXE d   1      -2.330  -0.540  -1.408  0.00  0.00     0.003 A 
ATOM      6  C4  OXE d   1      -2.988  -1.159  -0.339  0.00  0.00    -0.002 A 
ATOM      7  C5  OXE d   1      -2.349  -1.314   0.896  0.00  0.00    -0.002 A 
ATOM      8  C6  OXE d   1      -1.047  -0.851   1.051  0.00  0.00     0.003 A 
ENDROOT
TORSDOF 0
ENDMDL
