MODEL 1
REMARK minimizedAffinity -4.73700905
REMARK minimizedRMSD -1
REMARK  0 active torsions:
REMARK  status: ('A' for Active; 'I' for Inactive)
ROOT
ATOM      1  C2' OXE d   1       1.443   0.389   0.316  0.00  0.00     0.078 C 
ATOM      2  C1' OXE d   1      -0.172  -1.406   1.746  0.00  0.00     0.078 C 
ATOM      3  C1  OXE d   1      -0.766  -0.741   0.530  0.00  0.00    -0.078 A 
ATOM      4  C2  OXE d   1       0.015   0.171  -0.137  0.00  0.00    -0.078 A 
ATOM      5  C3  OXE d   1      -0.465   0.772  -1.297  0.00  0.00     0.003 A 
ATOM      6  C4  OXE d   1      -1.789   0.573  -1.703  0.00  0.00    -0.002 A 
ATOM      7  C5  OXE d   1      -2.616  -0.322  -1.015  0.00  0.00    -0.002 A 
ATOM      8  C6  OXE d   1      -2.107  -1.018   0.076  0.00  0.00     0.003 A 
ENDROOT
TORSDOF 0
ENDMDL
