MODEL 1
REMARK minimizedAffinity -3.82511401
REMARK minimizedRMSD -1
REMARK  0 active torsions:
REMARK  status: ('A' for Active; 'I' for Inactive)
ROOT
ATOM      1  C2' OXE d   1      -2.813  -0.746  -0.704  0.00  0.00     0.078 C 
ATOM      2  C1' OXE d   1      -1.304   0.831  -2.468  0.00  0.00     0.078 C 
ATOM      3  C1  OXE d   1      -0.653   0.401  -1.177  0.00  0.00    -0.078 A 
ATOM      4  C2  OXE d   1      -1.415  -0.331  -0.299  0.00  0.00    -0.078 A 
ATOM      5  C3  OXE d   1      -0.846  -0.800   0.882  0.00  0.00     0.003 A 
ATOM      6  C4  OXE d   1       0.444  -0.404   1.253  0.00  0.00    -0.002 A 
ATOM      7  C5  OXE d   1       1.223   0.375   0.391  0.00  0.00    -0.002 A 
ATOM      8  C6  OXE d   1       0.706   0.749  -0.844  0.00  0.00     0.003 A 
ENDROOT
TORSDOF 0
ENDMDL
