MODEL 1
REMARK minimizedAffinity 1.4641484
REMARK minimizedRMSD -1
REMARK  0 active torsions:
REMARK  status: ('A' for Active; 'I' for Inactive)
ROOT
ATOM      1  C2' OXE d   1      -0.772  -1.751   2.387  0.00  0.00     0.078 C 
ATOM      2  C1' OXE d   1      -2.770  -0.763   0.680  0.00  0.00     0.078 C 
ATOM      3  C1  OXE d   1      -1.338  -0.410   0.366  0.00  0.00    -0.078 A 
ATOM      4  C2  OXE d   1      -0.371  -0.858   1.233  0.00  0.00    -0.078 A 
ATOM      5  C3  OXE d   1       0.971  -0.606   0.960  0.00  0.00     0.003 A 
ATOM      6  C4  OXE d   1       1.333   0.229  -0.104  0.00  0.00    -0.002 A 
ATOM      7  C5  OXE d   1       0.360   0.729  -0.977  0.00  0.00    -0.002 A 
ATOM      8  C6  OXE d   1      -0.973   0.385  -0.781  0.00  0.00     0.003 A 
ENDROOT
TORSDOF 0
ENDMDL
