MODEL 1
REMARK minimizedAffinity -3.79426646
REMARK minimizedRMSD -1
REMARK  0 active torsions:
REMARK  status: ('A' for Active; 'I' for Inactive)
ROOT
ATOM      1  C2' OXE d   1      -0.946  -2.251   1.633  0.00  0.00     0.078 C 
ATOM      2  C1' OXE d   1      -2.655  -0.741  -0.003  0.00  0.00     0.078 C 
ATOM      3  C1  OXE d   1      -1.243  -0.245   0.186  0.00  0.00    -0.078 A 
ATOM      4  C2  OXE d   1      -0.428  -0.965   1.025  0.00  0.00    -0.078 A 
ATOM      5  C3  OXE d   1       0.900  -0.582   1.192  0.00  0.00     0.003 A 
ATOM      6  C4  OXE d   1       1.368   0.614   0.634  0.00  0.00    -0.002 A 
ATOM      7  C5  OXE d   1       0.542   1.383  -0.192  0.00  0.00    -0.002 A 
ATOM      8  C6  OXE d   1      -0.750   0.946  -0.460  0.00  0.00     0.003 A 
ENDROOT
TORSDOF 0
ENDMDL
