MODEL 1
REMARK minimizedAffinity -4.8820672
REMARK minimizedRMSD -1
REMARK  0 active torsions:
REMARK  status: ('A' for Active; 'I' for Inactive)
ROOT
ATOM      1  C2' OXE d   1      -3.423  -1.467   0.200  0.00  0.00     0.078 C 
ATOM      2  C1' OXE d   1      -1.386  -1.949   2.071  0.00  0.00     0.078 C 
ATOM      3  C1  OXE d   1      -1.017  -1.227   0.800  0.00  0.00    -0.078 A 
ATOM      4  C2  OXE d   1      -2.010  -1.037  -0.131  0.00  0.00    -0.078 A 
ATOM      5  C3  OXE d   1      -1.735  -0.328  -1.297  0.00  0.00     0.003 A 
ATOM      6  C4  OXE d   1      -0.424   0.058  -1.600  0.00  0.00    -0.002 A 
ATOM      7  C5  OXE d   1       0.610  -0.161  -0.684  0.00  0.00    -0.002 A 
ATOM      8  C6  OXE d   1       0.323  -0.763   0.537  0.00  0.00     0.003 A 
ENDROOT
TORSDOF 0
ENDMDL
