MODEL 1
REMARK minimizedAffinity -4.20151949
REMARK minimizedRMSD -1
REMARK  0 active torsions:
REMARK  status: ('A' for Active; 'I' for Inactive)
ROOT
ATOM      1  C2' OXE d   1      -1.776   0.739  -2.258  0.00  0.00     0.078 C 
ATOM      2  C1' OXE d   1      -3.032  -0.424  -0.033  0.00  0.00     0.078 C 
ATOM      3  C1  OXE d   1      -1.530  -0.298  -0.006  0.00  0.00    -0.078 A 
ATOM      4  C2  OXE d   1      -0.919   0.230  -1.118  0.00  0.00    -0.078 A 
ATOM      5  C3  OXE d   1       0.460   0.419  -1.123  0.00  0.00     0.003 A 
ATOM      6  C4  OXE d   1       1.245  -0.064  -0.070  0.00  0.00    -0.002 A 
ATOM      7  C5  OXE d   1       0.647  -0.641   1.055  0.00  0.00    -0.002 A 
ATOM      8  C6  OXE d   1      -0.739  -0.727   1.121  0.00  0.00     0.003 A 
ENDROOT
TORSDOF 0
ENDMDL
