MODEL 1
REMARK minimizedAffinity 0.667205036
REMARK minimizedRMSD -1
REMARK  2 active torsions:
REMARK  status: ('A' for Active; 'I' for Inactive)
REMARK    1  A    between atoms: C1_2  and  C2_3 
REMARK    2  A    between atoms: C2_3  and  C3_4 
ROOT
ATOM      1  C3  UNL d   1       1.379   5.757   5.217  0.00  0.00    -0.075 A 
ATOM      2  C4  UNL d   1       1.209   5.372   3.879  0.00  0.00     0.002 A 
ATOM      3  C5  UNL d   1      -0.069   5.255   3.332  0.00  0.00     0.002 A 
ATOM      4  C6  UNL d   1      -1.191   5.510   4.117  0.00  0.00    -0.004 A 
ATOM      5  C7  UNL d   1      -1.035   5.878   5.452  0.00  0.00     0.002 A 
ATOM      6  C8  UNL d   1       0.243   6.000   6.000  0.00  0.00     0.002 A 
ENDROOT
BRANCH   1   7
ATOM      7  C2  UNL d   1       2.761   5.914   5.806  0.00  0.00     0.056 C 
BRANCH   7   8
ATOM      8  C1  UNL d   1       3.867   5.235   4.992  0.00  0.00     0.007 C 
ATOM      9  C   UNL d   1       5.184   5.999   5.013  0.00  0.00     0.009 C 
ENDBRANCH   7   8
ENDBRANCH   1   7
TORSDOF 2
ENDMDL
