MODEL 1
REMARK minimizedAffinity 9.60051918
REMARK minimizedRMSD -1
REMARK  2 active torsions:
REMARK  status: ('A' for Active; 'I' for Inactive)
REMARK    1  A    between atoms: C1_2  and  C2_3 
REMARK    2  A    between atoms: C2_3  and  C3_4 
ROOT
ATOM      1  C3  UNL d   1       3.901  -4.503  -0.834  0.00  0.00    -0.075 A 
ATOM      2  C4  UNL d   1       2.570  -4.493  -0.394  0.00  0.00     0.002 A 
ATOM      3  C5  UNL d   1       2.080  -3.424   0.358  0.00  0.00     0.002 A 
ATOM      4  C6  UNL d   1       2.916  -2.360   0.688  0.00  0.00    -0.004 A 
ATOM      5  C7  UNL d   1       4.245  -2.367   0.270  0.00  0.00     0.002 A 
ATOM      6  C8  UNL d   1       4.736  -3.433  -0.486  0.00  0.00     0.002 A 
ENDROOT
BRANCH   1   7
ATOM      7  C2  UNL d   1       4.429  -5.642  -1.673  0.00  0.00     0.056 C 
BRANCH   7   8
ATOM      8  C1  UNL d   1       5.736  -5.323  -2.407  0.00  0.00     0.007 C 
ATOM      9  C   UNL d   1       5.814  -5.948  -3.793  0.00  0.00     0.009 C 
ENDBRANCH   7   8
ENDBRANCH   1   7
TORSDOF 2
ENDMDL
