MODEL 1
REMARK minimizedAffinity 12.2532177
REMARK minimizedRMSD -1
REMARK  2 active torsions:
REMARK  status: ('A' for Active; 'I' for Inactive)
REMARK    1  A    between atoms: C1_2  and  C2_3 
REMARK    2  A    between atoms: C2_3  and  C3_4 
ROOT
ATOM      1  C3  UNL d   1      -1.038  -0.158  -1.648  0.00  0.00    -0.075 A 
ATOM      2  C4  UNL d   1      -2.391  -0.194  -1.279  0.00  0.00     0.002 A 
ATOM      3  C5  UNL d   1      -3.228   0.890  -1.549  0.00  0.00     0.002 A 
ATOM      4  C6  UNL d   1      -2.722   2.024  -2.180  0.00  0.00    -0.004 A 
ATOM      5  C7  UNL d   1      -1.376   2.077  -2.536  0.00  0.00     0.002 A 
ATOM      6  C8  UNL d   1      -0.538   0.993  -2.271  0.00  0.00     0.002 A 
ENDROOT
BRANCH   1   7
ATOM      7  C2  UNL d   1      -0.134  -1.339  -1.386  0.00  0.00     0.056 C 
BRANCH   7   8
ATOM      8  C1  UNL d   1       0.440  -1.381   0.034  0.00  0.00     0.007 C 
ATOM      9  C   UNL d   1       1.301  -2.610   0.297  0.00  0.00     0.009 C 
ENDBRANCH   7   8
ENDBRANCH   1   7
TORSDOF 2
ENDMDL
