MODEL 1
REMARK minimizedAffinity 1.37634218
REMARK minimizedRMSD -1
REMARK  2 active torsions:
REMARK  status: ('A' for Active; 'I' for Inactive)
REMARK    1  A    between atoms: C1_2  and  C2_3 
REMARK    2  A    between atoms: C2_3  and  C3_4 
ROOT
ATOM      1  C3  UNL d   1      -3.617   3.592  -4.977  0.00  0.00    -0.075 A 
ATOM      2  C4  UNL d   1      -3.163   4.846  -4.544  0.00  0.00     0.002 A 
ATOM      3  C5  UNL d   1      -3.928   5.991  -4.765  0.00  0.00     0.002 A 
ATOM      4  C6  UNL d   1      -5.150   5.899  -5.429  0.00  0.00    -0.004 A 
ATOM      5  C7  UNL d   1      -5.603   4.661  -5.878  0.00  0.00     0.002 A 
ATOM      6  C8  UNL d   1      -4.841   3.512  -5.654  0.00  0.00     0.002 A 
ENDROOT
BRANCH   1   7
ATOM      7  C2  UNL d   1      -2.807   2.344  -4.715  0.00  0.00     0.056 C 
BRANCH   7   8
ATOM      8  C1  UNL d   1      -1.971   2.402  -3.432  0.00  0.00     0.007 C 
ATOM      9  C   UNL d   1      -2.666   1.773  -2.233  0.00  0.00     0.009 C 
ENDBRANCH   7   8
ENDBRANCH   1   7
TORSDOF 2
ENDMDL
