MODEL 1
REMARK minimizedAffinity 9.57190037
REMARK minimizedRMSD -1
REMARK  1 active torsions:
REMARK  status: ('A' for Active; 'I' for Inactive)
REMARK    1  A    between atoms: C1_2  and  C2_3 
ROOT
ATOM      1  C2  UNL d   1       1.888  -1.697  -3.321  0.00  0.00    -0.076 A 
ATOM      2  C3  UNL d   1       2.674  -0.894  -4.166  0.00  0.00     0.004 A 
ATOM      3  C4  UNL d   1       2.895  -1.253  -5.495  0.00  0.00    -0.003 A 
ATOM      4  C5  UNL d   1       2.335  -2.420  -6.000  0.00  0.00     0.000 A 
ATOM      5  C6  UNL d   1       1.538  -3.220  -5.181  0.00  0.00     0.000 A 
ATOM      6  C7  UNL d   1       1.292  -2.864  -3.844  0.00  0.00    -0.073 A 
ATOM      7  C8  UNL d   1       0.430  -3.767  -3.004  0.00  0.00     0.078 C 
ENDROOT
BRANCH   1   8
ATOM      8  C1  UNL d   1       1.705  -1.271  -1.882  0.00  0.00     0.053 C 
ATOM      9  C   UNL d   1       2.618  -0.118  -1.495  0.00  0.00     0.018 C 
ENDBRANCH   1   8
TORSDOF 1
ENDMDL
