MODEL 1
REMARK minimizedAffinity 15.2300978
REMARK minimizedRMSD -1
REMARK  1 active torsions:
REMARK  status: ('A' for Active; 'I' for Inactive)
REMARK    1  A    between atoms: C1_2  and  C2_3 
ROOT
ATOM      1  C2  UNL d   1      -4.674  -4.373   1.630  0.00  0.00    -0.076 A 
ATOM      2  C3  UNL d   1      -3.492  -4.374   2.391  0.00  0.00     0.004 A 
ATOM      3  C4  UNL d   1      -2.412  -5.181   2.038  0.00  0.00    -0.003 A 
ATOM      4  C5  UNL d   1      -2.495  -5.999   0.917  0.00  0.00     0.000 A 
ATOM      5  C6  UNL d   1      -3.653  -5.998   0.140  0.00  0.00     0.000 A 
ATOM      6  C7  UNL d   1      -4.745  -5.178   0.473  0.00  0.00    -0.073 A 
ATOM      7  C8  UNL d   1      -5.972  -5.221  -0.397  0.00  0.00     0.078 C 
ENDROOT
BRANCH   1   8
ATOM      8  C1  UNL d   1      -5.823  -3.498   2.077  0.00  0.00     0.053 C 
ATOM      9  C   UNL d   1      -5.354  -2.255   2.818  0.00  0.00     0.018 C 
ENDBRANCH   1   8
TORSDOF 1
ENDMDL
