MODEL 1
REMARK minimizedAffinity 10.0762901
REMARK minimizedRMSD -1
REMARK  1 active torsions:
REMARK  status: ('A' for Active; 'I' for Inactive)
REMARK    1  A    between atoms: C1_2  and  C2_3 
ROOT
ATOM      1  C2  UNL d   1       1.787   1.413   0.199  0.00  0.00    -0.076 A 
ATOM      2  C3  UNL d   1       1.780   0.016   0.048  0.00  0.00     0.004 A 
ATOM      3  C4  UNL d   1       1.949  -0.571  -1.205  0.00  0.00    -0.003 A 
ATOM      4  C5  UNL d   1       2.129   0.230  -2.328  0.00  0.00     0.000 A 
ATOM      5  C6  UNL d   1       2.156   1.618  -2.194  0.00  0.00     0.000 A 
ATOM      6  C7  UNL d   1       2.003   2.225  -0.935  0.00  0.00    -0.073 A 
ATOM      7  C8  UNL d   1       2.035   3.727  -0.850  0.00  0.00     0.078 C 
ENDROOT
BRANCH   1   8
ATOM      8  C1  UNL d   1       1.572   1.994   1.578  0.00  0.00     0.053 C 
ATOM      9  C   UNL d   1       0.373   1.382   2.287  0.00  0.00     0.018 C 
ENDBRANCH   1   8
TORSDOF 1
ENDMDL
