MODEL 1
REMARK minimizedAffinity 19.6342869
REMARK minimizedRMSD -1
REMARK  1 active torsions:
REMARK  status: ('A' for Active; 'I' for Inactive)
REMARK    1  A    between atoms: C1_2  and  C2_3 
ROOT
ATOM      1  C2  UNL d   1       2.602   0.517  -1.694  0.00  0.00    -0.076 A 
ATOM      2  C3  UNL d   1       3.010   1.828  -1.994  0.00  0.00     0.004 A 
ATOM      3  C4  UNL d   1       3.841   2.537  -1.128  0.00  0.00    -0.003 A 
ATOM      4  C5  UNL d   1       4.277   1.946   0.052  0.00  0.00     0.000 A 
ATOM      5  C6  UNL d   1       3.896   0.640   0.358  0.00  0.00     0.000 A 
ATOM      6  C7  UNL d   1       3.073  -0.094  -0.512  0.00  0.00    -0.073 A 
ATOM      7  C8  UNL d   1       2.688  -1.497  -0.130  0.00  0.00     0.078 C 
ENDROOT
BRANCH   1   8
ATOM      8  C1  UNL d   1       1.678  -0.193  -2.658  0.00  0.00     0.053 C 
ATOM      9  C   UNL d   1       2.434  -1.014  -3.691  0.00  0.00     0.018 C 
ENDBRANCH   1   8
TORSDOF 1
ENDMDL
