MODEL 1
REMARK minimizedAffinity 18.9622765
REMARK minimizedRMSD -1
REMARK  1 active torsions:
REMARK  status: ('A' for Active; 'I' for Inactive)
REMARK    1  A    between atoms: C1_2  and  C2_3 
ROOT
ATOM      1  C2  UNL d   1       1.134   3.343   1.393  0.00  0.00    -0.076 A 
ATOM      2  C3  UNL d   1      -0.239   3.177   1.645  0.00  0.00     0.004 A 
ATOM      3  C4  UNL d   1      -0.689   2.252   2.585  0.00  0.00    -0.003 A 
ATOM      4  C5  UNL d   1       0.227   1.478   3.290  0.00  0.00     0.000 A 
ATOM      5  C6  UNL d   1       1.593   1.642   3.065  0.00  0.00     0.000 A 
ATOM      6  C7  UNL d   1       2.064   2.582   2.132  0.00  0.00    -0.073 A 
ATOM      7  C8  UNL d   1       3.549   2.713   1.926  0.00  0.00     0.078 C 
ENDROOT
BRANCH   1   8
ATOM      8  C1  UNL d   1       1.562   4.343   0.342  0.00  0.00     0.053 C 
ATOM      9  C   UNL d   1       1.196   5.771   0.713  0.00  0.00     0.018 C 
ENDBRANCH   1   8
TORSDOF 1
ENDMDL
