MODEL 1
REMARK minimizedAffinity 11.5426092
REMARK minimizedRMSD -1
REMARK  1 active torsions:
REMARK  status: ('A' for Active; 'I' for Inactive)
REMARK    1  A    between atoms: C1_2  and  C2_3 
ROOT
ATOM      1  C2  UNL d   1       2.641   0.951  -0.202  0.00  0.00    -0.076 A 
ATOM      2  C3  UNL d   1       3.817   1.273  -0.902  0.00  0.00     0.004 A 
ATOM      3  C4  UNL d   1       4.724   2.201  -0.391  0.00  0.00    -0.003 A 
ATOM      4  C5  UNL d   1       4.469   2.820   0.827  0.00  0.00     0.000 A 
ATOM      5  C6  UNL d   1       3.317   2.500   1.543  0.00  0.00     0.000 A 
ATOM      6  C7  UNL d   1       2.400   1.555   1.050  0.00  0.00    -0.073 A 
ATOM      7  C8  UNL d   1       1.170   1.251   1.861  0.00  0.00     0.078 C 
ENDROOT
BRANCH   1   8
ATOM      8  C1  UNL d   1       1.681  -0.042  -0.818  0.00  0.00     0.053 C 
ATOM      9  C   UNL d   1       2.124  -1.482  -0.617  0.00  0.00     0.018 C 
ENDBRANCH   1   8
TORSDOF 1
ENDMDL
