MODEL 1
REMARK minimizedAffinity 7.64455462
REMARK minimizedRMSD -1
REMARK  1 active torsions:
REMARK  status: ('A' for Active; 'I' for Inactive)
REMARK    1  A    between atoms: C1_2  and  C2_3 
ROOT
ATOM      1  C2  UNL d   1       2.626  -3.067  -0.744  0.00  0.00    -0.076 A 
ATOM      2  C3  UNL d   1       2.715  -1.824  -0.094  0.00  0.00     0.004 A 
ATOM      3  C4  UNL d   1       2.143  -0.681  -0.650  0.00  0.00    -0.003 A 
ATOM      4  C5  UNL d   1       1.472  -0.763  -1.865  0.00  0.00     0.000 A 
ATOM      5  C6  UNL d   1       1.359  -1.991  -2.515  0.00  0.00     0.000 A 
ATOM      6  C7  UNL d   1       1.916  -3.156  -1.961  0.00  0.00    -0.073 A 
ATOM      7  C8  UNL d   1       1.769  -4.453  -2.708  0.00  0.00     0.078 C 
ENDROOT
BRANCH   1   8
ATOM      8  C1  UNL d   1       3.290  -4.267  -0.107  0.00  0.00     0.053 C 
ATOM      9  C   UNL d   1       4.776  -4.347  -0.422  0.00  0.00     0.018 C 
ENDBRANCH   1   8
TORSDOF 1
ENDMDL
