MODEL 1
REMARK minimizedAffinity 11.7226515
REMARK minimizedRMSD -1
REMARK  1 active torsions:
REMARK  status: ('A' for Active; 'I' for Inactive)
REMARK    1  A    between atoms: C1_2  and  C2_3 
ROOT
ATOM      1  C2  UNL d   1       1.998  -0.644  -0.524  0.00  0.00    -0.076 A 
ATOM      2  C3  UNL d   1       2.433  -1.761   0.211  0.00  0.00     0.004 A 
ATOM      3  C4  UNL d   1       2.298  -3.051  -0.298  0.00  0.00    -0.003 A 
ATOM      4  C5  UNL d   1       1.726  -3.246  -1.551  0.00  0.00     0.000 A 
ATOM      5  C6  UNL d   1       1.304  -2.148  -2.300  0.00  0.00     0.000 A 
ATOM      6  C7  UNL d   1       1.448  -0.840  -1.809  0.00  0.00    -0.073 A 
ATOM      7  C8  UNL d   1       0.971   0.307  -2.657  0.00  0.00     0.078 C 
ENDROOT
BRANCH   1   8
ATOM      8  C1  UNL d   1       2.146   0.729   0.091  0.00  0.00     0.053 C 
ATOM      9  C   UNL d   1       3.573   1.249   0.021  0.00  0.00     0.018 C 
ENDBRANCH   1   8
TORSDOF 1
ENDMDL
