MODEL 1
REMARK minimizedAffinity 13.8990288
REMARK minimizedRMSD -1
REMARK  1 active torsions:
REMARK  status: ('A' for Active; 'I' for Inactive)
REMARK    1  A    between atoms: C1_2  and  C2_3 
ROOT
ATOM      1  C2  UNL d   1       2.403   1.171   0.746  0.00  0.00    -0.076 A 
ATOM      2  C3  UNL d   1       3.509   1.908   1.205  0.00  0.00     0.004 A 
ATOM      3  C4  UNL d   1       4.705   1.927   0.490  0.00  0.00    -0.003 A 
ATOM      4  C5  UNL d   1       4.816   1.210  -0.696  0.00  0.00     0.000 A 
ATOM      5  C6  UNL d   1       3.723   0.487  -1.175  0.00  0.00     0.000 A 
ATOM      6  C7  UNL d   1       2.505   0.471  -0.475  0.00  0.00    -0.073 A 
ATOM      7  C8  UNL d   1       1.361  -0.330  -1.035  0.00  0.00     0.078 C 
ENDROOT
BRANCH   1   8
ATOM      8  C1  UNL d   1       1.141   1.166   1.577  0.00  0.00     0.053 C 
ATOM      9  C   UNL d   1       1.424   1.263   3.068  0.00  0.00     0.018 C 
ENDBRANCH   1   8
TORSDOF 1
ENDMDL
