MODEL 1
REMARK minimizedAffinity 13.9924898
REMARK minimizedRMSD -1
REMARK  1 active torsions:
REMARK  status: ('A' for Active; 'I' for Inactive)
REMARK    1  A    between atoms: C1_2  and  C2_3 
ROOT
ATOM      1  C2  UNL d   1      -3.399   0.246   3.892  0.00  0.00    -0.076 A 
ATOM      2  C3  UNL d   1      -2.162  -0.083   3.311  0.00  0.00     0.004 A 
ATOM      3  C4  UNL d   1      -1.388   0.886   2.674  0.00  0.00    -0.003 A 
ATOM      4  C5  UNL d   1      -1.839   2.200   2.608  0.00  0.00     0.000 A 
ATOM      5  C6  UNL d   1      -3.055   2.548   3.194  0.00  0.00     0.000 A 
ATOM      6  C7  UNL d   1      -3.840   1.586   3.855  0.00  0.00    -0.073 A 
ATOM      7  C8  UNL d   1      -5.146   2.016   4.464  0.00  0.00     0.078 C 
ENDROOT
BRANCH   1   8
ATOM      8  C1  UNL d   1      -4.207  -0.852   4.546  0.00  0.00     0.053 C 
ATOM      9  C   UNL d   1      -3.855  -2.231   4.011  0.00  0.00     0.018 C 
ENDBRANCH   1   8
TORSDOF 1
ENDMDL
