MODEL 1
REMARK minimizedAffinity -1.73320484
REMARK minimizedRMSD -1
REMARK  0 active torsions:
REMARK  status: ('A' for Active; 'I' for Inactive)
ROOT
ATOM      1  O1  BZF d   1       5.863  -4.538   2.544  0.00  0.00    -0.204 OA
ATOM      2  C2  BZF d   1       5.982  -3.687   1.463  0.00  0.00     0.174 A 
ATOM      3  C3  BZF d   1       6.000  -2.400   1.866  0.00  0.00    -0.012 A 
ATOM      4  C3A BZF d   1       5.979  -2.454   3.296  0.00  0.00    -0.107 A 
ATOM      5  C4  BZF d   1       5.998  -1.498   4.272  0.00  0.00     0.055 A 
ATOM      6  C5  BZF d   1       5.892  -1.880   5.572  0.00  0.00    -0.016 A 
ATOM      7  C6  BZF d   1       5.762  -3.206   5.931  0.00  0.00     0.022 A 
ATOM      8  C7  BZF d   1       5.743  -4.189   4.999  0.00  0.00     0.029 A 
ATOM      9  C7A BZF d   1       5.883  -3.809   3.686  0.00  0.00     0.058 A 
ENDROOT
TORSDOF 0
ENDMDL
