MODEL 1
REMARK minimizedAffinity -1.39781976
REMARK minimizedRMSD -1
REMARK  0 active torsions:
REMARK  status: ('A' for Active; 'I' for Inactive)
ROOT
ATOM      1  O1  BZF d   1       5.999  -1.551   2.519  0.00  0.00    -0.204 OA
ATOM      2  C2  BZF d   1       5.980  -2.487   1.502  0.00  0.00     0.174 A 
ATOM      3  C3  BZF d   1       6.000  -3.738   2.004  0.00  0.00    -0.012 A 
ATOM      4  C3A BZF d   1       5.940  -3.576   3.424  0.00  0.00    -0.107 A 
ATOM      5  C4  BZF d   1       5.912  -4.454   4.469  0.00  0.00     0.055 A 
ATOM      6  C5  BZF d   1       5.927  -3.970   5.739  0.00  0.00    -0.016 A 
ATOM      7  C6  BZF d   1       5.976  -2.616   6.000  0.00  0.00     0.022 A 
ATOM      8  C7  BZF d   1       6.000  -1.706   4.996  0.00  0.00     0.029 A 
ATOM      9  C7A BZF d   1       5.951  -2.191   3.711  0.00  0.00     0.058 A 
ENDROOT
TORSDOF 0
ENDMDL
