MODEL 1
REMARK minimizedAffinity -1.09944785
REMARK minimizedRMSD -1
REMARK  0 active torsions:
REMARK  status: ('A' for Active; 'I' for Inactive)
ROOT
ATOM      1  O1  BZF d   1       5.474  -4.794   4.576  0.00  0.00    -0.204 OA
ATOM      2  C2  BZF d   1       5.795  -5.897   3.808  0.00  0.00     0.174 A 
ATOM      3  C3  BZF d   1       6.000  -5.541   2.523  0.00  0.00    -0.012 A 
ATOM      4  C3A BZF d   1       5.884  -4.115   2.504  0.00  0.00    -0.107 A 
ATOM      5  C4  BZF d   1       6.000  -3.177   1.518  0.00  0.00     0.055 A 
ATOM      6  C5  BZF d   1       5.755  -1.874   1.815  0.00  0.00    -0.016 A 
ATOM      7  C6  BZF d   1       5.388  -1.475   3.083  0.00  0.00     0.022 A 
ATOM      8  C7  BZF d   1       5.264  -2.368   4.095  0.00  0.00     0.029 A 
ATOM      9  C7A BZF d   1       5.543  -3.682   3.806  0.00  0.00     0.058 A 
ENDROOT
TORSDOF 0
ENDMDL
