MODEL 1
REMARK minimizedAffinity -3.45790648
REMARK minimizedRMSD -1
REMARK  0 active torsions:
REMARK  status: ('A' for Active; 'I' for Inactive)
ROOT
ATOM      1  O1  BZF d   1       5.434  -1.988   4.551  0.00  0.00    -0.204 OA
ATOM      2  C2  BZF d   1       5.868  -1.878   3.244  0.00  0.00     0.174 A 
ATOM      3  C3  BZF d   1       6.000  -3.096   2.680  0.00  0.00    -0.012 A 
ATOM      4  C3A BZF d   1       5.537  -4.021   3.669  0.00  0.00    -0.107 A 
ATOM      5  C4  BZF d   1       5.408  -5.380   3.696  0.00  0.00     0.055 A 
ATOM      6  C5  BZF d   1       4.993  -5.982   4.841  0.00  0.00    -0.016 A 
ATOM      7  C6  BZF d   1       4.704  -5.257   5.979  0.00  0.00     0.022 A 
ATOM      8  C7  BZF d   1       4.813  -3.906   5.999  0.00  0.00     0.029 A 
ATOM      9  C7A BZF d   1       5.200  -3.292   4.832  0.00  0.00     0.058 A 
ENDROOT
TORSDOF 0
ENDMDL
