MODEL 1
REMARK minimizedAffinity -4.17890024
REMARK minimizedRMSD -1
REMARK  0 active torsions:
REMARK  status: ('A' for Active; 'I' for Inactive)
ROOT
ATOM      1  O1  BZF d   1       5.926  -2.258   5.185  0.00  0.00    -0.204 OA
ATOM      2  C2  BZF d   1       5.901  -3.374   6.000  0.00  0.00     0.174 A 
ATOM      3  C3  BZF d   1       5.859  -4.503   5.264  0.00  0.00    -0.012 A 
ATOM      4  C3A BZF d   1       5.950  -4.069   3.903  0.00  0.00    -0.107 A 
ATOM      5  C4  BZF d   1       5.975  -4.729   2.708  0.00  0.00     0.055 A 
ATOM      6  C5  BZF d   1       5.996  -4.007   1.556  0.00  0.00    -0.016 A 
ATOM      7  C6  BZF d   1       5.988  -2.628   1.563  0.00  0.00     0.022 A 
ATOM      8  C7  BZF d   1       5.969  -1.930   2.725  0.00  0.00     0.029 A 
ATOM      9  C7A BZF d   1       5.981  -2.656   3.891  0.00  0.00     0.058 A 
ENDROOT
TORSDOF 0
ENDMDL
