MODEL 1
REMARK minimizedAffinity -3.52317166
REMARK minimizedRMSD -1
REMARK  0 active torsions:
REMARK  status: ('A' for Active; 'I' for Inactive)
ROOT
ATOM      1  O1  BZF d   1       5.953  -5.556   2.563  0.00  0.00    -0.204 OA
ATOM      2  C2  BZF d   1       5.999  -4.663   1.510  0.00  0.00     0.174 A 
ATOM      3  C3  BZF d   1       5.969  -3.392   1.960  0.00  0.00    -0.012 A 
ATOM      4  C3A BZF d   1       5.994  -3.496   3.387  0.00  0.00    -0.107 A 
ATOM      5  C4  BZF d   1       5.997  -2.576   4.395  0.00  0.00     0.055 A 
ATOM      6  C5  BZF d   1       5.949  -3.007   5.683  0.00  0.00    -0.016 A 
ATOM      7  C6  BZF d   1       5.892  -4.349   5.998  0.00  0.00     0.022 A 
ATOM      8  C7  BZF d   1       5.891  -5.300   5.031  0.00  0.00     0.029 A 
ATOM      9  C7A BZF d   1       5.973  -4.868   3.730  0.00  0.00     0.058 A 
ENDROOT
TORSDOF 0
ENDMDL
