MODEL 1
REMARK minimizedAffinity -1.97265792
REMARK minimizedRMSD -1
REMARK  0 active torsions:
REMARK  status: ('A' for Active; 'I' for Inactive)
ROOT
ATOM      1  O1  BZF d   1       5.955  -3.511   5.687  0.00  0.00    -0.204 OA
ATOM      2  C2  BZF d   1       5.946  -2.140   5.852  0.00  0.00     0.174 A 
ATOM      3  C3  BZF d   1       5.998  -1.514   4.658  0.00  0.00    -0.012 A 
ATOM      4  C3A BZF d   1       5.950  -2.559   3.683  0.00  0.00    -0.107 A 
ATOM      5  C4  BZF d   1       5.953  -2.570   2.317  0.00  0.00     0.055 A 
ATOM      6  C5  BZF d   1       5.971  -3.762   1.666  0.00  0.00    -0.016 A 
ATOM      7  C6  BZF d   1       5.993  -4.962   2.348  0.00  0.00     0.022 A 
ATOM      8  C7  BZF d   1       5.986  -5.002   3.702  0.00  0.00     0.029 A 
ATOM      9  C7A BZF d   1       5.934  -3.799   4.363  0.00  0.00     0.058 A 
ENDROOT
TORSDOF 0
ENDMDL
