MODEL 1
REMARK minimizedAffinity -1.74582624
REMARK minimizedRMSD -1
REMARK  0 active torsions:
REMARK  status: ('A' for Active; 'I' for Inactive)
ROOT
ATOM      1  O1  BZF d   1       5.968  -4.674   2.200  0.00  0.00    -0.204 OA
ATOM      2  C2  BZF d   1       5.976  -3.656   1.266  0.00  0.00     0.174 A 
ATOM      3  C3  BZF d   1       5.933  -2.452   1.871  0.00  0.00    -0.012 A 
ATOM      4  C3A BZF d   1       5.989  -2.732   3.273  0.00  0.00    -0.107 A 
ATOM      5  C4  BZF d   1       5.998  -1.945   4.388  0.00  0.00     0.055 A 
ATOM      6  C5  BZF d   1       5.984  -2.534   5.613  0.00  0.00    -0.016 A 
ATOM      7  C6  BZF d   1       5.957  -3.906   5.758  0.00  0.00     0.022 A 
ATOM      8  C7  BZF d   1       5.953  -4.728   4.681  0.00  0.00     0.029 A 
ATOM      9  C7A BZF d   1       6.000  -4.136   3.443  0.00  0.00     0.058 A 
ENDROOT
TORSDOF 0
ENDMDL
