MODEL 1
REMARK minimizedAffinity -2.84449005
REMARK minimizedRMSD -1
REMARK  0 active torsions:
REMARK  status: ('A' for Active; 'I' for Inactive)
ROOT
ATOM      1  O1  BZF d   1       4.733  -4.246   5.999  0.00  0.00    -0.204 OA
ATOM      2  C2  BZF d   1       5.901  -3.509   5.999  0.00  0.00     0.174 A 
ATOM      3  C3  BZF d   1       6.000  -2.769   4.876  0.00  0.00    -0.012 A 
ATOM      4  C3A BZF d   1       4.776  -2.992   4.170  0.00  0.00    -0.107 A 
ATOM      5  C4  BZF d   1       4.273  -2.521   2.991  0.00  0.00     0.055 A 
ATOM      6  C5  BZF d   1       3.078  -2.991   2.547  0.00  0.00    -0.016 A 
ATOM      7  C6  BZF d   1       2.363  -3.936   3.253  0.00  0.00     0.022 A 
ATOM      8  C7  BZF d   1       2.818  -4.429   4.430  0.00  0.00     0.029 A 
ATOM      9  C7A BZF d   1       4.010  -3.931   4.898  0.00  0.00     0.058 A 
ENDROOT
TORSDOF 0
ENDMDL
