MODEL 1
REMARK minimizedAffinity -3.99389935
REMARK minimizedRMSD -1
REMARK  0 active torsions:
REMARK  status: ('A' for Active; 'I' for Inactive)
ROOT
ATOM      1  O1  BZF d   1       5.962  -1.886   4.660  0.00  0.00    -0.204 OA
ATOM      2  C2  BZF d   1       5.999  -2.410   5.938  0.00  0.00     0.174 A 
ATOM      3  C3  BZF d   1       5.964  -3.758   5.903  0.00  0.00    -0.012 A 
ATOM      4  C3A BZF d   1       5.995  -4.100   4.514  0.00  0.00    -0.107 A 
ATOM      5  C4  BZF d   1       5.997  -5.287   3.839  0.00  0.00     0.055 A 
ATOM      6  C5  BZF d   1       5.956  -5.275   2.481  0.00  0.00    -0.016 A 
ATOM      7  C6  BZF d   1       5.907  -4.096   1.767  0.00  0.00     0.022 A 
ATOM      8  C7  BZF d   1       5.908  -2.893   2.392  0.00  0.00     0.029 A 
ATOM      9  C7A BZF d   1       5.982  -2.902   3.763  0.00  0.00     0.058 A 
ENDROOT
TORSDOF 0
ENDMDL
