MODEL 1
REMARK minimizedAffinity -3.3575201
REMARK minimizedRMSD -1
REMARK  0 active torsions:
REMARK  status: ('A' for Active; 'I' for Inactive)
ROOT
ATOM      1  O1  BZF d   1       5.948  -5.767   4.023  0.00  0.00    -0.204 OA
ATOM      2  C2  BZF d   1       5.936  -5.826   5.403  0.00  0.00     0.174 A 
ATOM      3  C3  BZF d   1       5.989  -4.588   5.936  0.00  0.00    -0.012 A 
ATOM      4  C3A BZF d   1       5.946  -3.695   4.819  0.00  0.00    -0.107 A 
ATOM      5  C4  BZF d   1       5.952  -2.335   4.703  0.00  0.00     0.055 A 
ATOM      6  C5  BZF d   1       5.974  -1.777   3.464  0.00  0.00    -0.016 A 
ATOM      7  C6  BZF d   1       5.997  -2.549   2.321  0.00  0.00     0.022 A 
ATOM      8  C7  BZF d   1       5.987  -3.902   2.385  0.00  0.00     0.029 A 
ATOM      9  C7A BZF d   1       5.931  -4.469   3.635  0.00  0.00     0.058 A 
ENDROOT
TORSDOF 0
ENDMDL
