MODEL 1
REMARK minimizedAffinity -1.58792818
REMARK minimizedRMSD -1
REMARK  0 active torsions:
REMARK  status: ('A' for Active; 'I' for Inactive)
ROOT
ATOM      1  O1  BZF d   1       5.913  -3.102   5.634  0.00  0.00    -0.204 OA
ATOM      2  C2  BZF d   1       5.874  -4.434   6.000  0.00  0.00     0.174 A 
ATOM      3  C3  BZF d   1       5.829  -5.229   4.911  0.00  0.00    -0.012 A 
ATOM      4  C3A BZF d   1       5.933  -4.342   3.793  0.00  0.00    -0.107 A 
ATOM      5  C4  BZF d   1       5.962  -4.534   2.442  0.00  0.00     0.055 A 
ATOM      6  C5  BZF d   1       5.997  -3.452   1.621  0.00  0.00    -0.016 A 
ATOM      7  C6  BZF d   1       5.999  -2.164   2.117  0.00  0.00     0.022 A 
ATOM      8  C7  BZF d   1       5.977  -1.923   3.450  0.00  0.00     0.029 A 
ATOM      9  C7A BZF d   1       5.974  -3.016   4.283  0.00  0.00     0.058 A 
ENDROOT
TORSDOF 0
ENDMDL
