MODEL 1
REMARK minimizedAffinity -3.64947844
REMARK minimizedRMSD -1
REMARK  0 active torsions:
REMARK  status: ('A' for Active; 'I' for Inactive)
ROOT
ATOM      1  O1  BZF d   1       5.745  -2.651   2.467  0.00  0.00    -0.204 OA
ATOM      2  C2  BZF d   1       5.997  -3.713   1.620  0.00  0.00     0.174 A 
ATOM      3  C3  BZF d   1       5.997  -4.878   2.300  0.00  0.00    -0.012 A 
ATOM      4  C3A BZF d   1       5.637  -4.531   3.641  0.00  0.00    -0.107 A 
ATOM      5  C4  BZF d   1       5.454  -5.258   4.782  0.00  0.00     0.055 A 
ATOM      6  C5  BZF d   1       5.177  -4.607   5.943  0.00  0.00    -0.016 A 
ATOM      7  C6  BZF d   1       5.081  -3.232   5.999  0.00  0.00     0.022 A 
ATOM      8  C7  BZF d   1       5.249  -2.469   4.892  0.00  0.00     0.029 A 
ATOM      9  C7A BZF d   1       5.497  -3.125   3.712  0.00  0.00     0.058 A 
ENDROOT
TORSDOF 0
ENDMDL
