MODEL 1
REMARK minimizedAffinity -2.45572186
REMARK minimizedRMSD -1
REMARK  0 active torsions:
REMARK  status: ('A' for Active; 'I' for Inactive)
ROOT
ATOM      1  O1  BZF d   1       5.937  -5.980   4.763  0.00  0.00    -0.204 OA
ATOM      2  C2  BZF d   1       5.923  -5.358   5.997  0.00  0.00     0.174 A 
ATOM      3  C3  BZF d   1       5.981  -4.018   5.857  0.00  0.00    -0.012 A 
ATOM      4  C3A BZF d   1       5.942  -3.784   4.446  0.00  0.00    -0.107 A 
ATOM      5  C4  BZF d   1       5.953  -2.653   3.682  0.00  0.00     0.055 A 
ATOM      6  C5  BZF d   1       5.979  -2.771   2.328  0.00  0.00    -0.016 A 
ATOM      7  C6  BZF d   1       5.999  -4.002   1.707  0.00  0.00     0.022 A 
ATOM      8  C7  BZF d   1       5.984  -5.153   2.423  0.00  0.00     0.029 A 
ATOM      9  C7A BZF d   1       5.925  -5.037   3.791  0.00  0.00     0.058 A 
ENDROOT
TORSDOF 0
ENDMDL
