MODEL 1
REMARK minimizedAffinity -3.77505898
REMARK minimizedRMSD -1
REMARK  0 active torsions:
REMARK  status: ('A' for Active; 'I' for Inactive)
ROOT
ATOM      1  O1  BZF d   1       4.679  -3.364   2.474  0.00  0.00    -0.204 OA
ATOM      2  C2  BZF d   1       5.937  -2.993   2.909  0.00  0.00     0.174 A 
ATOM      3  C3  BZF d   1       6.000  -3.003   4.256  0.00  0.00    -0.012 A 
ATOM      4  C3A BZF d   1       4.727  -3.494   4.688  0.00  0.00    -0.107 A 
ATOM      5  C4  BZF d   1       4.185  -3.744   5.916  0.00  0.00     0.055 A 
ATOM      6  C5  BZF d   1       2.891  -4.149   5.997  0.00  0.00    -0.016 A 
ATOM      7  C6  BZF d   1       2.109  -4.309   4.872  0.00  0.00     0.022 A 
ATOM      8  C7  BZF d   1       2.603  -4.078   3.632  0.00  0.00     0.029 A 
ATOM      9  C7A BZF d   1       3.921  -3.700   3.545  0.00  0.00     0.058 A 
ENDROOT
TORSDOF 0
ENDMDL
