MODEL 1
REMARK minimizedAffinity 3.21512365
REMARK minimizedRMSD -1
REMARK  0 active torsions:
REMARK  status: ('A' for Active; 'I' for Inactive)
ROOT
ATOM      1  O1  BZF d   1       5.720  -4.756   4.387  0.00  0.00    -0.204 OA
ATOM      2  C2  BZF d   1       5.912  -6.000   3.816  0.00  0.00     0.174 A 
ATOM      3  C3  BZF d   1       5.998  -5.902   2.474  0.00  0.00    -0.012 A 
ATOM      4  C3A BZF d   1       5.944  -4.499   2.195  0.00  0.00    -0.107 A 
ATOM      5  C4  BZF d   1       6.000  -3.769   1.042  0.00  0.00     0.055 A 
ATOM      6  C5  BZF d   1       5.844  -2.420   1.107  0.00  0.00    -0.016 A 
ATOM      7  C6  BZF d   1       5.627  -1.771   2.305  0.00  0.00     0.022 A 
ATOM      8  C7  BZF d   1       5.569  -2.453   3.475  0.00  0.00     0.029 A 
ATOM      9  C7A BZF d   1       5.759  -3.812   3.416  0.00  0.00     0.058 A 
ENDROOT
TORSDOF 0
ENDMDL
