MODEL 1
REMARK minimizedAffinity -3.71360445
REMARK minimizedRMSD -1
REMARK  0 active torsions:
REMARK  status: ('A' for Active; 'I' for Inactive)
ROOT
ATOM      1  O1  BZF d   1       5.083  -2.339   4.691  0.00  0.00    -0.204 OA
ATOM      2  C2  BZF d   1       4.847  -2.979   5.893  0.00  0.00     0.174 A 
ATOM      3  C3  BZF d   1       4.961  -4.315   5.754  0.00  0.00    -0.012 A 
ATOM      4  C3A BZF d   1       5.381  -4.518   4.401  0.00  0.00    -0.107 A 
ATOM      5  C4  BZF d   1       5.679  -5.631   3.668  0.00  0.00     0.055 A 
ATOM      6  C5  BZF d   1       5.986  -5.492   2.351  0.00  0.00    -0.016 A 
ATOM      7  C6  BZF d   1       5.999  -4.257   1.736  0.00  0.00     0.022 A 
ATOM      8  C7  BZF d   1       5.716  -3.124   2.423  0.00  0.00     0.029 A 
ATOM      9  C7A BZF d   1       5.438  -3.258   3.761  0.00  0.00     0.058 A 
ENDROOT
TORSDOF 0
ENDMDL
