MODEL 1
REMARK minimizedAffinity 9.3664608
REMARK minimizedRMSD -1
REMARK  0 active torsions:
REMARK  status: ('A' for Active; 'I' for Inactive)
ROOT
ATOM      1  C1  DEN d   1       0.760   4.009  -0.564  0.00  0.00     0.130 A 
ATOM      2  C2  DEN d   1      -0.408   3.345  -1.136  0.00  0.00    -0.031 A 
ATOM      3  C3  DEN d   1      -0.979   2.457  -0.103  0.00  0.00     0.027 A 
ATOM      4  C4  DEN d   1      -0.174   2.052   2.314  0.00  0.00     0.027 A 
ATOM      5  C5  DEN d   1       0.783   2.382   3.249  0.00  0.00    -0.003 A 
ATOM      6  C6  DEN d   1       1.810   3.243   2.969  0.00  0.00     0.001 A 
ATOM      7  C7  DEN d   1       1.879   3.841   1.738  0.00  0.00     0.017 A 
ATOM      8  C8  DEN d   1       0.923   3.508   0.788  0.00  0.00    -0.094 A 
ATOM      9  C9  DEN d   1      -0.115   2.644   1.094  0.00  0.00    -0.072 A 
ENDROOT
TORSDOF 0
ENDMDL
