MODEL 1
REMARK minimizedAffinity 10.9044323
REMARK minimizedRMSD -1
REMARK  0 active torsions:
REMARK  status: ('A' for Active; 'I' for Inactive)
ROOT
ATOM      1  C1  DEN d   1       4.268  -5.999  -3.624  0.00  0.00     0.130 A 
ATOM      2  C2  DEN d   1       3.884  -4.915  -4.524  0.00  0.00    -0.031 A 
ATOM      3  C3  DEN d   1       4.181  -3.635  -3.849  0.00  0.00     0.027 A 
ATOM      4  C4  DEN d   1       5.197  -3.229  -1.514  0.00  0.00     0.027 A 
ATOM      5  C5  DEN d   1       5.674  -3.840  -0.376  0.00  0.00    -0.003 A 
ATOM      6  C6  DEN d   1       5.685  -5.202  -0.228  0.00  0.00     0.001 A 
ATOM      7  C7  DEN d   1       5.251  -5.999  -1.253  0.00  0.00     0.017 A 
ATOM      8  C8  DEN d   1       4.761  -5.390  -2.401  0.00  0.00    -0.094 A 
ATOM      9  C9  DEN d   1       4.770  -4.012  -2.536  0.00  0.00    -0.072 A 
ENDROOT
TORSDOF 0
ENDMDL
