MODEL 1
REMARK minimizedAffinity 1.13122785
REMARK minimizedRMSD -1
REMARK  0 active torsions:
REMARK  status: ('A' for Active; 'I' for Inactive)
ROOT
ATOM      1  C1  DEN d   1      -3.888   3.253  -2.131  0.00  0.00     0.130 A 
ATOM      2  C2  DEN d   1      -4.971   2.471  -1.540  0.00  0.00    -0.031 A 
ATOM      3  C3  DEN d   1      -5.992   2.246  -2.582  0.00  0.00     0.027 A 
ATOM      4  C4  DEN d   1      -6.000   3.024  -5.042  0.00  0.00     0.027 A 
ATOM      5  C5  DEN d   1      -5.301   3.725  -5.999  0.00  0.00    -0.003 A 
ATOM      6  C6  DEN d   1      -4.109   4.342  -5.728  0.00  0.00     0.001 A 
ATOM      7  C7  DEN d   1      -3.556   4.231  -4.479  0.00  0.00     0.017 A 
ATOM      8  C8  DEN d   1      -4.258   3.532  -3.506  0.00  0.00    -0.094 A 
ATOM      9  C9  DEN d   1      -5.456   2.905  -3.804  0.00  0.00    -0.072 A 
ENDROOT
TORSDOF 0
ENDMDL
