MODEL 1
REMARK minimizedAffinity 0.858984053
REMARK minimizedRMSD -1
REMARK  0 active torsions:
REMARK  status: ('A' for Active; 'I' for Inactive)
ROOT
ATOM      1  C1  DEN d   1       0.335   2.343  -0.941  0.00  0.00     0.130 A 
ATOM      2  C2  DEN d   1      -1.033   2.748  -0.629  0.00  0.00    -0.031 A 
ATOM      3  C3  DEN d   1      -1.865   1.530  -0.561  0.00  0.00     0.027 A 
ATOM      4  C4  DEN d   1      -1.171  -0.931  -0.901  0.00  0.00     0.027 A 
ATOM      5  C5  DEN d   1      -0.120  -1.770  -1.195  0.00  0.00    -0.003 A 
ATOM      6  C6  DEN d   1       1.140  -1.299  -1.457  0.00  0.00     0.001 A 
ATOM      7  C7  DEN d   1       1.389   0.046  -1.384  0.00  0.00     0.017 A 
ATOM      8  C8  DEN d   1       0.333   0.899  -1.096  0.00  0.00    -0.094 A 
ATOM      9  C9  DEN d   1      -0.931   0.403  -0.822  0.00  0.00    -0.072 A 
ENDROOT
TORSDOF 0
ENDMDL
