MODEL 1
REMARK minimizedAffinity 8.41709518
REMARK minimizedRMSD -1
REMARK  0 active torsions:
REMARK  status: ('A' for Active; 'I' for Inactive)
ROOT
ATOM      1  C1  DEN d   1      -2.598   3.694  -3.770  0.00  0.00     0.130 A 
ATOM      2  C2  DEN d   1      -2.325   4.207  -2.430  0.00  0.00    -0.031 A 
ATOM      3  C3  DEN d   1      -3.359   3.678  -1.519  0.00  0.00     0.027 A 
ATOM      4  C4  DEN d   1      -5.345   2.120  -2.048  0.00  0.00     0.027 A 
ATOM      5  C5  DEN d   1      -5.995   1.430  -3.048  0.00  0.00    -0.003 A 
ATOM      6  C6  DEN d   1      -5.582   1.474  -4.353  0.00  0.00     0.001 A 
ATOM      7  C7  DEN d   1      -4.461   2.187  -4.687  0.00  0.00     0.017 A 
ATOM      8  C8  DEN d   1      -3.805   2.891  -3.686  0.00  0.00    -0.094 A 
ATOM      9  C9  DEN d   1      -4.231   2.824  -2.370  0.00  0.00    -0.072 A 
ENDROOT
TORSDOF 0
ENDMDL
