MODEL 1
REMARK minimizedAffinity 0.666725695
REMARK minimizedRMSD -1
REMARK  0 active torsions:
REMARK  status: ('A' for Active; 'I' for Inactive)
ROOT
ATOM      1  C1  DEN d   1      -6.000   2.983  -2.373  0.00  0.00     0.130 A 
ATOM      2  C2  DEN d   1      -5.048   2.112  -1.689  0.00  0.00    -0.031 A 
ATOM      3  C3  DEN d   1      -3.910   1.874  -2.600  0.00  0.00     0.027 A 
ATOM      4  C4  DEN d   1      -3.530   2.771  -4.989  0.00  0.00     0.027 A 
ATOM      5  C5  DEN d   1      -4.067   3.539  -5.998  0.00  0.00    -0.003 A 
ATOM      6  C6  DEN d   1      -5.291   4.142  -5.884  0.00  0.00     0.001 A 
ATOM      7  C7  DEN d   1      -6.000   4.025  -4.717  0.00  0.00     0.017 A 
ATOM      8  C8  DEN d   1      -5.468   3.247  -3.698  0.00  0.00    -0.094 A 
ATOM      9  C9  DEN d   1      -4.223   2.654  -3.828  0.00  0.00    -0.072 A 
ENDROOT
TORSDOF 0
ENDMDL
