MODEL 1
REMARK minimizedAffinity 7.82870436
REMARK minimizedRMSD -1
REMARK  0 active torsions:
REMARK  status: ('A' for Active; 'I' for Inactive)
ROOT
ATOM      1  C1  DEN d   1      -5.263   0.972  -2.892  0.00  0.00     0.130 A 
ATOM      2  C2  DEN d   1      -5.998   1.138  -1.642  0.00  0.00    -0.031 A 
ATOM      3  C3  DEN d   1      -6.000   2.575  -1.300  0.00  0.00     0.027 A 
ATOM      4  C4  DEN d   1      -4.944   4.548  -2.582  0.00  0.00     0.027 A 
ATOM      5  C5  DEN d   1      -4.208   4.901  -3.691  0.00  0.00    -0.003 A 
ATOM      6  C6  DEN d   1      -3.746   3.973  -4.586  0.00  0.00     0.001 A 
ATOM      7  C7  DEN d   1      -4.054   2.650  -4.412  0.00  0.00     0.017 A 
ATOM      8  C8  DEN d   1      -4.790   2.285  -3.292  0.00  0.00    -0.094 A 
ATOM      9  C9  DEN d   1      -5.259   3.240  -2.405  0.00  0.00    -0.072 A 
ENDROOT
TORSDOF 0
ENDMDL
