MODEL 1
REMARK minimizedAffinity 7.29792023
REMARK minimizedRMSD -1
REMARK  0 active torsions:
REMARK  status: ('A' for Active; 'I' for Inactive)
ROOT
ATOM      1  C1  DEN d   1      -1.362  -2.774  -1.526  0.00  0.00     0.130 A 
ATOM      2  C2  DEN d   1      -0.361  -3.641  -2.141  0.00  0.00    -0.031 A 
ATOM      3  C3  DEN d   1       0.862  -2.844  -2.359  0.00  0.00     0.027 A 
ATOM      4  C4  DEN d   1       1.303  -0.364  -1.803  0.00  0.00     0.027 A 
ATOM      5  C5  DEN d   1       0.750   0.785  -1.283  0.00  0.00    -0.003 A 
ATOM      6  C6  DEN d   1      -0.546   0.838  -0.843  0.00  0.00     0.001 A 
ATOM      7  C7  DEN d   1      -1.319  -0.293  -0.873  0.00  0.00     0.017 A 
ATOM      8  C8  DEN d   1      -0.771  -1.454  -1.402  0.00  0.00    -0.094 A 
ATOM      9  C9  DEN d   1       0.545  -1.489  -1.831  0.00  0.00    -0.072 A 
ENDROOT
TORSDOF 0
ENDMDL
