MODEL 1
REMARK minimizedAffinity 7.91403103
REMARK minimizedRMSD -1
REMARK  0 active torsions:
REMARK  status: ('A' for Active; 'I' for Inactive)
ROOT
ATOM      1  C1  DEN d   1       0.868   1.694  -0.512  0.00  0.00     0.130 A 
ATOM      2  C2  DEN d   1      -0.379   1.700  -1.273  0.00  0.00    -0.031 A 
ATOM      3  C3  DEN d   1      -1.471   2.083  -0.355  0.00  0.00     0.027 A 
ATOM      4  C4  DEN d   1      -1.352   2.671   2.153  0.00  0.00     0.027 A 
ATOM      5  C5  DEN d   1      -0.513   2.792   3.239  0.00  0.00    -0.003 A 
ATOM      6  C6  DEN d   1       0.828   2.526   3.159  0.00  0.00     0.001 A 
ATOM      7  C7  DEN d   1       1.379   2.167   1.957  0.00  0.00     0.017 A 
ATOM      8  C8  DEN d   1       0.538   2.035   0.860  0.00  0.00    -0.094 A 
ATOM      9  C9  DEN d   1      -0.813   2.321   0.958  0.00  0.00    -0.072 A 
ENDROOT
TORSDOF 0
ENDMDL
