MODEL 1
REMARK minimizedAffinity 0.878053725
REMARK minimizedRMSD -1
REMARK  0 active torsions:
REMARK  status: ('A' for Active; 'I' for Inactive)
ROOT
ATOM      1  C1  DEN d   1      -0.009   2.855   2.297  0.00  0.00     0.130 A 
ATOM      2  C2  DEN d   1       0.375   1.648   1.570  0.00  0.00    -0.031 A 
ATOM      3  C3  DEN d   1       0.369   1.962   0.127  0.00  0.00     0.027 A 
ATOM      4  C4  DEN d   1      -0.187   4.191  -1.046  0.00  0.00     0.027 A 
ATOM      5  C5  DEN d   1      -0.579   5.496  -0.848  0.00  0.00    -0.003 A 
ATOM      6  C6  DEN d   1      -0.839   5.999   0.399  0.00  0.00     0.001 A 
ATOM      7  C7  DEN d   1      -0.667   5.204   1.501  0.00  0.00     0.017 A 
ATOM      8  C8  DEN d   1      -0.279   3.885   1.309  0.00  0.00    -0.094 A 
ATOM      9  C9  DEN d   1      -0.009   3.398   0.041  0.00  0.00    -0.072 A 
ENDROOT
TORSDOF 0
ENDMDL
