MODEL 1
REMARK minimizedAffinity 6.25074673
REMARK minimizedRMSD -1
REMARK  1 active torsions:
REMARK  status: ('A' for Active; 'I' for Inactive)
REMARK    1  A    between atoms: C3_4  and  O_7 
ROOT
ATOM      1  C   UNL d   1       0.343   0.303   2.061  0.00  0.00    -0.033 A 
ATOM      2  C1  UNL d   1       1.692   0.157   2.393  0.00  0.00     0.039 A 
ATOM      3  C2  UNL d   1       2.139  -1.017   3.003  0.00  0.00    -0.080 A 
ATOM      4  C3  UNL d   1       1.230  -2.035   3.274  0.00  0.00     0.150 A 
ATOM      5  C4  UNL d   1      -0.114  -1.898   2.943  0.00  0.00    -0.007 A 
ATOM      6  C5  UNL d   1      -0.559  -0.725   2.335  0.00  0.00     0.039 A 
ENDROOT
BRANCH   4   7
ATOM      7  O   UNL d   1       1.619  -3.197   3.873  0.00  0.00    -0.526 OA
ATOM      8  H5  UNL d   1       2.569  -3.138   4.070  0.00  0.00     0.418 HD
ENDBRANCH   4   7
TORSDOF 1
ENDMDL
