MODEL 1
REMARK minimizedAffinity 2.6026113
REMARK minimizedRMSD -1
REMARK  1 active torsions:
REMARK  status: ('A' for Active; 'I' for Inactive)
REMARK    1  A    between atoms: C3_4  and  O_7 
ROOT
ATOM      1  C   UNL d   1       0.019   0.648   2.365  0.00  0.00    -0.033 A 
ATOM      2  C1  UNL d   1       0.652   0.539   3.604  0.00  0.00     0.039 A 
ATOM      3  C2  UNL d   1       1.050  -0.713   4.080  0.00  0.00    -0.080 A 
ATOM      4  C3  UNL d   1       0.808  -1.845   3.307  0.00  0.00     0.150 A 
ATOM      5  C4  UNL d   1       0.181  -1.743   2.070  0.00  0.00    -0.007 A 
ATOM      6  C5  UNL d   1      -0.216  -0.493   1.597  0.00  0.00     0.039 A 
ENDROOT
BRANCH   4   7
ATOM      7  O   UNL d   1       1.173  -3.088   3.731  0.00  0.00    -0.526 OA
ATOM      8  H5  UNL d   1       1.570  -3.008   4.615  0.00  0.00     0.418 HD
ENDBRANCH   4   7
TORSDOF 1
ENDMDL
