MODEL 1
REMARK minimizedAffinity 6.19847822
REMARK minimizedRMSD -1
REMARK  1 active torsions:
REMARK  status: ('A' for Active; 'I' for Inactive)
REMARK    1  A    between atoms: C3_4  and  O_7 
ROOT
ATOM      1  C   UNL d   1      -1.886  -5.625  -5.250  0.00  0.00    -0.033 A 
ATOM      2  C1  UNL d   1      -2.076  -6.000  -3.919  0.00  0.00     0.039 A 
ATOM      3  C2  UNL d   1      -1.877  -5.072  -2.895  0.00  0.00    -0.080 A 
ATOM      4  C3  UNL d   1      -1.489  -3.774  -3.215  0.00  0.00     0.150 A 
ATOM      5  C4  UNL d   1      -1.301  -3.392  -4.539  0.00  0.00    -0.007 A 
ATOM      6  C5  UNL d   1      -1.500  -4.320  -5.560  0.00  0.00     0.039 A 
ENDROOT
BRANCH   4   7
ATOM      7  O   UNL d   1      -1.278  -2.834  -2.250  0.00  0.00    -0.526 OA
ATOM      8  H5  UNL d   1      -1.417  -3.248  -1.382  0.00  0.00     0.418 HD
ENDBRANCH   4   7
TORSDOF 1
ENDMDL
