MODEL 1
REMARK minimizedAffinity -0.00450270018
REMARK minimizedRMSD -1
REMARK  1 active torsions:
REMARK  status: ('A' for Active; 'I' for Inactive)
REMARK    1  A    between atoms: C3_4  and  O_7 
ROOT
ATOM      1  C   UNL d   1      -1.229  -3.195  -4.331  0.00  0.00    -0.033 A 
ATOM      2  C1  UNL d   1      -0.350  -2.715  -5.303  0.00  0.00     0.039 A 
ATOM      3  C2  UNL d   1       0.299  -1.493  -5.119  0.00  0.00    -0.080 A 
ATOM      4  C3  UNL d   1       0.060  -0.761  -3.958  0.00  0.00     0.150 A 
ATOM      5  C4  UNL d   1      -0.812  -1.235  -2.984  0.00  0.00    -0.007 A 
ATOM      6  C5  UNL d   1      -1.459  -2.455  -3.171  0.00  0.00     0.039 A 
ENDROOT
BRANCH   4   7
ATOM      7  O   UNL d   1       0.667   0.440  -3.736  0.00  0.00    -0.526 OA
ATOM      8  H5  UNL d   1       1.219   0.653  -4.506  0.00  0.00     0.418 HD
ENDBRANCH   4   7
TORSDOF 1
ENDMDL
