MODEL 1
REMARK minimizedAffinity 8.46966267
REMARK minimizedRMSD -1
REMARK  1 active torsions:
REMARK  status: ('A' for Active; 'I' for Inactive)
REMARK    1  A    between atoms: C3_4  and  O_7 
ROOT
ATOM      1  C   UNL d   1       2.613  -2.627  -4.851  0.00  0.00    -0.033 A 
ATOM      2  C1  UNL d   1       1.494  -1.887  -4.463  0.00  0.00     0.039 A 
ATOM      3  C2  UNL d   1       0.216  -2.302  -4.840  0.00  0.00    -0.080 A 
ATOM      4  C3  UNL d   1       0.069  -3.458  -5.602  0.00  0.00     0.150 A 
ATOM      5  C4  UNL d   1       1.179  -4.202  -5.988  0.00  0.00    -0.007 A 
ATOM      6  C5  UNL d   1       2.455  -3.786  -5.612  0.00  0.00     0.039 A 
ENDROOT
BRANCH   4   7
ATOM      7  O   UNL d   1      -1.158  -3.900  -5.998  0.00  0.00    -0.526 OA
ATOM      8  H5  UNL d   1      -1.828  -3.271  -5.682  0.00  0.00     0.418 HD
ENDBRANCH   4   7
TORSDOF 1
ENDMDL
