MODEL 1
REMARK minimizedAffinity 7.13687229
REMARK minimizedRMSD -1
REMARK  1 active torsions:
REMARK  status: ('A' for Active; 'I' for Inactive)
REMARK    1  A    between atoms: C3_4  and  O_7 
ROOT
ATOM      1  C   UNL d   1      -0.010  -1.718  -4.381  0.00  0.00    -0.033 A 
ATOM      2  C1  UNL d   1       1.151  -2.466  -4.588  0.00  0.00     0.039 A 
ATOM      3  C2  UNL d   1       2.320  -1.838  -5.022  0.00  0.00    -0.080 A 
ATOM      4  C3  UNL d   1       2.316  -0.464  -5.243  0.00  0.00     0.150 A 
ATOM      5  C4  UNL d   1       1.165   0.288  -5.035  0.00  0.00    -0.007 A 
ATOM      6  C5  UNL d   1      -0.002  -0.341  -4.603  0.00  0.00     0.039 A 
ENDROOT
BRANCH   4   7
ATOM      7  O   UNL d   1       3.432   0.193  -5.670  0.00  0.00    -0.526 OA
ATOM      8  H5  UNL d   1       4.142  -0.458  -5.799  0.00  0.00     0.418 HD
ENDBRANCH   4   7
TORSDOF 1
ENDMDL
