MODEL 1
REMARK minimizedAffinity -6.04482985
REMARK minimizedRMSD -1
REMARK  0 active torsions:
REMARK  status: ('A' for Active; 'I' for Inactive)
ROOT
ATOM      1  C4' PXY d   1       0.864  -0.511  -1.443  0.00  0.00     0.077 C 
ATOM      2  C1' PXY d   1      -0.135   0.984   4.050  0.00  0.00     0.077 C 
ATOM      3  C1  PXY d   1       0.140   0.594   2.611  0.00  0.00    -0.082 A 
ATOM      4  C2  PXY d   1      -0.825   0.694   1.711  0.00  0.00     0.003 A 
ATOM      5  C3  PXY d   1      -0.603   0.315   0.412  0.00  0.00     0.003 A 
ATOM      6  C4  PXY d   1       0.635  -0.120   0.019  0.00  0.00    -0.082 A 
ATOM      7  C5  PXY d   1       1.627  -0.214   0.929  0.00  0.00     0.003 A 
ATOM      8  C6  PXY d   1       1.370   0.136   2.252  0.00  0.00     0.003 A 
ENDROOT
TORSDOF 0
ENDMDL
