MODEL 1
REMARK minimizedAffinity -5.33710814
REMARK minimizedRMSD -1
REMARK  0 active torsions:
REMARK  status: ('A' for Active; 'I' for Inactive)
ROOT
ATOM      1  C4' PXY d   1       0.765  -0.917  -1.307  0.00  0.00     0.077 C 
ATOM      2  C1' PXY d   1      -1.149   1.415   3.623  0.00  0.00     0.077 C 
ATOM      3  C1  PXY d   1      -0.659   0.798   2.328  0.00  0.00    -0.082 A 
ATOM      4  C2  PXY d   1       0.635   0.584   2.155  0.00  0.00     0.003 A 
ATOM      5  C3  PXY d   1       1.099   0.056   0.977  0.00  0.00     0.003 A 
ATOM      6  C4  PXY d   1       0.224  -0.305  -0.012  0.00  0.00    -0.082 A 
ATOM      7  C5  PXY d   1      -1.099  -0.099   0.161  0.00  0.00     0.003 A 
ATOM      8  C6  PXY d   1      -1.545   0.476   1.347  0.00  0.00     0.003 A 
ENDROOT
TORSDOF 0
ENDMDL
