MODEL 1
REMARK minimizedAffinity -6.15351152
REMARK minimizedRMSD -1
REMARK  0 active torsions:
REMARK  status: ('A' for Active; 'I' for Inactive)
ROOT
ATOM      1  C4' PXY d   1      -2.971  -0.164   0.061  0.00  0.00     0.077 C 
ATOM      2  C1' PXY d   1       1.903   0.646   3.061  0.00  0.00     0.077 C 
ATOM      3  C1  PXY d   1       0.632   0.435   2.263  0.00  0.00    -0.082 A 
ATOM      4  C2  PXY d   1      -0.539   0.717   2.811  0.00  0.00     0.003 A 
ATOM      5  C3  PXY d   1      -1.701   0.502   2.115  0.00  0.00     0.003 A 
ATOM      6  C4  PXY d   1      -1.661   0.043   0.826  0.00  0.00    -0.082 A 
ATOM      7  C5  PXY d   1      -0.470  -0.237   0.256  0.00  0.00     0.003 A 
ATOM      8  C6  PXY d   1       0.695  -0.051   0.994  0.00  0.00     0.003 A 
ENDROOT
TORSDOF 0
ENDMDL
