MODEL 1
REMARK minimizedAffinity -5.08210421
REMARK minimizedRMSD -1
REMARK  0 active torsions:
REMARK  status: ('A' for Active; 'I' for Inactive)
ROOT
ATOM      1  C4' PXY d   1       0.031   0.876   3.319  0.00  0.00     0.077 C 
ATOM      2  C1' PXY d   1       0.492  -0.528  -2.269  0.00  0.00     0.077 C 
ATOM      3  C1  PXY d   1       0.373  -0.172  -0.800  0.00  0.00    -0.082 A 
ATOM      4  C2  PXY d   1      -0.242   0.944  -0.446  0.00  0.00     0.003 A 
ATOM      5  C3  PXY d   1      -0.332   1.297   0.876  0.00  0.00     0.003 A 
ATOM      6  C4  PXY d   1       0.167   0.472   1.849  0.00  0.00    -0.082 A 
ATOM      7  C5  PXY d   1       0.787  -0.674   1.495  0.00  0.00     0.003 A 
ATOM      8  C6  PXY d   1       0.903  -0.994   0.146  0.00  0.00     0.003 A 
ENDROOT
TORSDOF 0
ENDMDL
