MODEL 1
REMARK minimizedAffinity -5.86687326
REMARK minimizedRMSD -1
REMARK  0 active torsions:
REMARK  status: ('A' for Active; 'I' for Inactive)
ROOT
ATOM      1  C4' PXY d   1      -2.655   0.403  -0.604  0.00  0.00     0.077 C 
ATOM      2  C1' PXY d   1       2.080   0.020   2.691  0.00  0.00     0.077 C 
ATOM      3  C1  PXY d   1       0.831   0.122   1.837  0.00  0.00    -0.082 A 
ATOM      4  C2  PXY d   1       0.829  -0.390   0.617  0.00  0.00     0.003 A 
ATOM      5  C3  PXY d   1      -0.282  -0.279  -0.180  0.00  0.00     0.003 A 
ATOM      6  C4  PXY d   1      -1.419   0.315   0.297  0.00  0.00    -0.082 A 
ATOM      7  C5  PXY d   1      -1.429   0.831   1.544  0.00  0.00     0.003 A 
ATOM      8  C6  PXY d   1      -0.278   0.744   2.322  0.00  0.00     0.003 A 
ENDROOT
TORSDOF 0
ENDMDL
