MODEL 1
REMARK minimizedAffinity -3.47463942
REMARK minimizedRMSD -1
REMARK  0 active torsions:
REMARK  status: ('A' for Active; 'I' for Inactive)
ROOT
ATOM      1  C4' PXY d   1       0.254  -0.517  -1.433  0.00  0.00     0.077 C 
ATOM      2  C1' PXY d   1      -0.509   1.486   3.935  0.00  0.00     0.077 C 
ATOM      3  C1  PXY d   1      -0.319   0.953   2.529  0.00  0.00    -0.082 A 
ATOM      4  C2  PXY d   1       0.881   0.987   1.972  0.00  0.00     0.003 A 
ATOM      5  C3  PXY d   1       1.064   0.539   0.690  0.00  0.00     0.003 A 
ATOM      6  C4  PXY d   1       0.018   0.001  -0.012  0.00  0.00    -0.082 A 
ATOM      7  C5  PXY d   1      -1.207  -0.047   0.553  0.00  0.00     0.003 A 
ATOM      8  C6  PXY d   1      -1.380   0.451   1.841  0.00  0.00     0.003 A 
ENDROOT
TORSDOF 0
ENDMDL
