MODEL 1
REMARK minimizedAffinity -4.22106934
REMARK minimizedRMSD -1
REMARK  0 active torsions:
REMARK  status: ('A' for Active; 'I' for Inactive)
ROOT
ATOM      1  C4' PXY d   1      -1.491   0.643   3.383  0.00  0.00     0.077 C 
ATOM      2  C1' PXY d   1       1.123  -0.325  -1.681  0.00  0.00     0.077 C 
ATOM      3  C1  PXY d   1       0.449  -0.074  -0.346  0.00  0.00    -0.082 A 
ATOM      4  C2  PXY d   1      -0.863  -0.213  -0.240  0.00  0.00     0.003 A 
ATOM      5  C3  PXY d   1      -1.492   0.041   0.951  0.00  0.00     0.003 A 
ATOM      6  C4  PXY d   1      -0.766   0.390   2.058  0.00  0.00    -0.082 A 
ATOM      7  C5  PXY d   1       0.573   0.524   1.960  0.00  0.00     0.003 A 
ATOM      8  C6  PXY d   1       1.189   0.301   0.732  0.00  0.00     0.003 A 
ENDROOT
TORSDOF 0
ENDMDL
