MODEL 1
REMARK minimizedAffinity -0.766300857
REMARK minimizedRMSD -1
REMARK  0 active torsions:
REMARK  status: ('A' for Active; 'I' for Inactive)
ROOT
ATOM      1  C4' PXY d   1       2.324  -0.775   0.817  0.00  0.00     0.077 C 
ATOM      2  C1' PXY d   1      -3.235  -0.112  -0.623  0.00  0.00     0.077 C 
ATOM      3  C1  PXY d   1      -1.777  -0.297  -0.253  0.00  0.00    -0.082 A 
ATOM      4  C2  PXY d   1      -1.312   0.243   0.863  0.00  0.00     0.003 A 
ATOM      5  C3  PXY d   1       0.012   0.112   1.197  0.00  0.00     0.003 A 
ATOM      6  C4  PXY d   1       0.856  -0.622   0.408  0.00  0.00    -0.082 A 
ATOM      7  C5  PXY d   1       0.387  -1.185  -0.726  0.00  0.00     0.003 A 
ATOM      8  C6  PXY d   1      -0.951  -1.006  -1.068  0.00  0.00     0.003 A 
ENDROOT
TORSDOF 0
ENDMDL
