MODEL 1
REMARK minimizedAffinity -3.81305981
REMARK minimizedRMSD -1
REMARK  0 active torsions:
REMARK  status: ('A' for Active; 'I' for Inactive)
ROOT
ATOM      1  C4' PXY d   1       0.377  -0.573  -1.698  0.00  0.00     0.077 C 
ATOM      2  C1' PXY d   1      -0.221   0.734   3.901  0.00  0.00     0.077 C 
ATOM      3  C1  PXY d   1      -0.051   0.392   2.434  0.00  0.00    -0.082 A 
ATOM      4  C2  PXY d   1      -1.052   0.602   1.594  0.00  0.00     0.003 A 
ATOM      5  C3  PXY d   1      -0.926   0.269   0.270  0.00  0.00     0.003 A 
ATOM      6  C4  PXY d   1       0.253  -0.234  -0.209  0.00  0.00    -0.082 A 
ATOM      7  C5  PXY d   1       1.282  -0.442   0.640  0.00  0.00     0.003 A 
ATOM      8  C6  PXY d   1       1.121  -0.135   1.988  0.00  0.00     0.003 A 
ENDROOT
TORSDOF 0
ENDMDL
