MODEL 1
REMARK minimizedAffinity -5.27627134
REMARK minimizedRMSD -1
REMARK  0 active torsions:
REMARK  status: ('A' for Active; 'I' for Inactive)
ROOT
ATOM      1  C4' PXY d   1       2.612  -0.279   2.948  0.00  0.00     0.077 C 
ATOM      2  C1' PXY d   1      -2.566   0.597   0.534  0.00  0.00     0.077 C 
ATOM      3  C1  PXY d   1      -1.211   0.377   1.176  0.00  0.00    -0.082 A 
ATOM      4  C2  PXY d   1      -0.226  -0.144   0.462  0.00  0.00     0.003 A 
ATOM      5  C3  PXY d   1       0.997  -0.380   1.036  0.00  0.00     0.003 A 
ATOM      6  C4  PXY d   1       1.230  -0.030   2.339  0.00  0.00    -0.082 A 
ATOM      7  C5  PXY d   1       0.233   0.511   3.071  0.00  0.00     0.003 A 
ATOM      8  C6  PXY d   1      -1.013   0.704   2.481  0.00  0.00     0.003 A 
ENDROOT
TORSDOF 0
ENDMDL
