MODEL 1
REMARK minimizedAffinity -3.98235369
REMARK minimizedRMSD -1
REMARK  0 active torsions:
REMARK  status: ('A' for Active; 'I' for Inactive)
ROOT
ATOM      1  C1  BNZ d   1      -0.139   1.716  -0.990  0.00  0.00     0.000 A 
ATOM      2  C2  BNZ d   1       0.405   0.479  -1.215  0.00  0.00     0.000 A 
ATOM      3  C3  BNZ d   1       0.729  -0.343  -0.172  0.00  0.00     0.000 A 
ATOM      4  C4  BNZ d   1       0.547   0.088   1.093  0.00  0.00     0.000 A 
ATOM      5  C5  BNZ d   1       0.008   1.336   1.336  0.00  0.00     0.000 A 
ATOM      6  C6  BNZ d   1      -0.353   2.145   0.284  0.00  0.00     0.000 A 
ENDROOT
TORSDOF 0
ENDMDL
