MODEL 1
REMARK minimizedAffinity -2.90734649
REMARK minimizedRMSD -1
REMARK  0 active torsions:
REMARK  status: ('A' for Active; 'I' for Inactive)
ROOT
ATOM      1  C1  BNZ d   1       0.600  -0.077   0.608  0.00  0.00     0.000 A 
ATOM      2  C2  BNZ d   1       0.522   0.992  -0.245  0.00  0.00     0.000 A 
ATOM      3  C3  BNZ d   1       0.139   2.223   0.209  0.00  0.00     0.000 A 
ATOM      4  C4  BNZ d   1      -0.202   2.376   1.505  0.00  0.00     0.000 A 
ATOM      5  C5  BNZ d   1      -0.137   1.306   2.375  0.00  0.00     0.000 A 
ATOM      6  C6  BNZ d   1       0.286   0.077   1.923  0.00  0.00     0.000 A 
ENDROOT
TORSDOF 0
ENDMDL
