MODEL 1
REMARK minimizedAffinity -4.0616703
REMARK minimizedRMSD -1
REMARK  0 active torsions:
REMARK  status: ('A' for Active; 'I' for Inactive)
ROOT
ATOM      1  C1  BNZ d   1      -0.715   1.683   0.999  0.00  0.00     0.000 A 
ATOM      2  C2  BNZ d   1      -0.651   1.189  -0.277  0.00  0.00     0.000 A 
ATOM      3  C3  BNZ d   1      -0.089  -0.031  -0.528  0.00  0.00     0.000 A 
ATOM      4  C4  BNZ d   1       0.444  -0.738   0.490  0.00  0.00     0.000 A 
ATOM      5  C5  BNZ d   1       0.395  -0.250   1.780  0.00  0.00     0.000 A 
ATOM      6  C6  BNZ d   1      -0.206   0.961   2.035  0.00  0.00     0.000 A 
ENDROOT
TORSDOF 0
ENDMDL
