MODEL 1
REMARK minimizedAffinity -3.51726151
REMARK minimizedRMSD -1
REMARK  0 active torsions:
REMARK  status: ('A' for Active; 'I' for Inactive)
ROOT
ATOM      1  C1  BNZ d   1       0.020   3.005  -0.824  0.00  0.00     0.000 A 
ATOM      2  C2  BNZ d   1       0.304   1.724  -1.216  0.00  0.00     0.000 A 
ATOM      3  C3  BNZ d   1       0.388   0.713  -0.299  0.00  0.00     0.000 A 
ATOM      4  C4  BNZ d   1       0.226   0.991   1.010  0.00  0.00     0.000 A 
ATOM      5  C5  BNZ d   1      -0.052   2.279   1.423  0.00  0.00     0.000 A 
ATOM      6  C6  BNZ d   1      -0.174   3.287   0.493  0.00  0.00     0.000 A 
ENDROOT
TORSDOF 0
ENDMDL
