MODEL 1
REMARK minimizedAffinity -2.74112344
REMARK minimizedRMSD -1
REMARK  0 active torsions:
REMARK  status: ('A' for Active; 'I' for Inactive)
ROOT
ATOM      1  C1  BNZ d   1      -1.188  -4.178  -0.332  0.00  0.00     0.000 A 
ATOM      2  C2  BNZ d   1       0.112  -3.996   0.061  0.00  0.00     0.000 A 
ATOM      3  C3  BNZ d   1       0.981  -3.274  -0.708  0.00  0.00     0.000 A 
ATOM      4  C4  BNZ d   1       0.561  -2.769  -1.886  0.00  0.00     0.000 A 
ATOM      5  C5  BNZ d   1      -0.743  -2.951  -2.300  0.00  0.00     0.000 A 
ATOM      6  C6  BNZ d   1      -1.625  -3.646  -1.505  0.00  0.00     0.000 A 
ENDROOT
TORSDOF 0
ENDMDL
