MODEL 1
REMARK minimizedAffinity -0.422910035
REMARK minimizedRMSD -1
REMARK  0 active torsions:
REMARK  status: ('A' for Active; 'I' for Inactive)
ROOT
ATOM      1  C1  BNZ d   1       1.449   2.853   3.150  0.00  0.00     0.000 A 
ATOM      2  C2  BNZ d   1       0.383   2.598   2.328  0.00  0.00     0.000 A 
ATOM      3  C3  BNZ d   1       0.237   3.266   1.144  0.00  0.00     0.000 A 
ATOM      4  C4  BNZ d   1       1.133   4.215   0.804  0.00  0.00     0.000 A 
ATOM      5  C5  BNZ d   1       2.207   4.491   1.626  0.00  0.00     0.000 A 
ATOM      6  C6  BNZ d   1       2.372   3.789   2.798  0.00  0.00     0.000 A 
ENDROOT
TORSDOF 0
ENDMDL
