MODEL 1
REMARK minimizedAffinity -1.17791235
REMARK minimizedRMSD -1
REMARK  0 active torsions:
REMARK  status: ('A' for Active; 'I' for Inactive)
ROOT
ATOM      1  C2' OXE d   1       3.385   2.849  -1.413  0.00  0.00     0.078 C 
ATOM      2  C1' OXE d   1       1.261   1.175  -0.660  0.00  0.00     0.078 C 
ATOM      3  C1  OXE d   1       2.220   1.621   0.415  0.00  0.00    -0.078 A 
ATOM      4  C2  OXE d   1       3.283   2.402   0.030  0.00  0.00    -0.078 A 
ATOM      5  C3  OXE d   1       4.167   2.886   0.990  0.00  0.00     0.003 A 
ATOM      6  C4  OXE d   1       4.071   2.459   2.320  0.00  0.00    -0.002 A 
ATOM      7  C5  OXE d   1       3.019   1.631   2.726  0.00  0.00    -0.002 A 
ATOM      8  C6  OXE d   1       2.063   1.239   1.796  0.00  0.00     0.003 A 
ENDROOT
TORSDOF 0
ENDMDL
