MODEL 1
REMARK minimizedAffinity -1.88661158
REMARK minimizedRMSD -1
REMARK  0 active torsions:
REMARK  status: ('A' for Active; 'I' for Inactive)
ROOT
ATOM      1  C2' OXE d   1      -2.595  -1.358  -1.038  0.00  0.00     0.078 C 
ATOM      2  C1' OXE d   1      -1.232  -2.704   1.014  0.00  0.00     0.078 C 
ATOM      3  C1  OXE d   1      -0.601  -1.455   0.451  0.00  0.00    -0.078 A 
ATOM      4  C2  OXE d   1      -1.252  -0.829  -0.584  0.00  0.00    -0.078 A 
ATOM      5  C3  OXE d   1      -0.741   0.357  -1.103  0.00  0.00     0.003 A 
ATOM      6  C4  OXE d   1       0.507   0.834  -0.685  0.00  0.00    -0.002 A 
ATOM      7  C5  OXE d   1       1.206   0.190   0.341  0.00  0.00    -0.002 A 
ATOM      8  C6  OXE d   1       0.647  -0.930   0.948  0.00  0.00     0.003 A 
ENDROOT
TORSDOF 0
ENDMDL
