MODEL 1
REMARK minimizedAffinity -2.22921705
REMARK minimizedRMSD -1
REMARK  0 active torsions:
REMARK  status: ('A' for Active; 'I' for Inactive)
ROOT
ATOM      1  C2' OXE d   1      -1.088  -1.642   0.809  0.00  0.00     0.078 C 
ATOM      2  C1' OXE d   1      -2.036  -0.449  -1.549  0.00  0.00     0.078 C 
ATOM      3  C1  OXE d   1      -0.638  -0.104  -1.098  0.00  0.00    -0.078 A 
ATOM      4  C2  OXE d   1      -0.200  -0.656   0.081  0.00  0.00    -0.078 A 
ATOM      5  C3  OXE d   1       1.101  -0.414   0.515  0.00  0.00     0.003 A 
ATOM      6  C4  OXE d   1       1.912   0.508  -0.159  0.00  0.00    -0.002 A 
ATOM      7  C5  OXE d   1       1.470   1.112  -1.341  0.00  0.00    -0.002 A 
ATOM      8  C6  OXE d   1       0.217   0.785  -1.846  0.00  0.00     0.003 A 
ENDROOT
TORSDOF 0
ENDMDL
