MODEL 1
REMARK minimizedAffinity 0.604862511
REMARK minimizedRMSD -1
REMARK  0 active torsions:
REMARK  status: ('A' for Active; 'I' for Inactive)
ROOT
ATOM      1  C2' OXE d   1      -2.387  -0.542  -1.445  0.00  0.00     0.078 C 
ATOM      2  C1' OXE d   1      -0.500   0.821  -3.015  0.00  0.00     0.078 C 
ATOM      3  C1  OXE d   1      -0.061   0.326  -1.659  0.00  0.00    -0.078 A 
ATOM      4  C2  OXE d   1      -1.004  -0.299  -0.879  0.00  0.00    -0.078 A 
ATOM      5  C3  OXE d   1      -0.638  -0.822   0.358  0.00  0.00     0.003 A 
ATOM      6  C4  OXE d   1       0.639  -0.584   0.878  0.00  0.00    -0.002 A 
ATOM      7  C5  OXE d   1       1.603   0.085   0.116  0.00  0.00    -0.002 A 
ATOM      8  C6  OXE d   1       1.282   0.508  -1.169  0.00  0.00     0.003 A 
ENDROOT
TORSDOF 0
ENDMDL
