MODEL 1
REMARK minimizedAffinity -4.25203085
REMARK minimizedRMSD -1
REMARK  0 active torsions:
REMARK  status: ('A' for Active; 'I' for Inactive)
ROOT
ATOM      1  C2' OXE d   1      -0.749  -2.016   1.652  0.00  0.00     0.078 C 
ATOM      2  C1' OXE d   1      -2.973  -1.418   0.047  0.00  0.00     0.078 C 
ATOM      3  C1  OXE d   1      -1.643  -0.824  -0.344  0.00  0.00    -0.078 A 
ATOM      4  C2  OXE d   1      -0.569  -1.084   0.473  0.00  0.00    -0.078 A 
ATOM      5  C3  OXE d   1       0.691  -0.606   0.128  0.00  0.00     0.003 A 
ATOM      6  C4  OXE d   1       0.847   0.264  -0.958  0.00  0.00    -0.002 A 
ATOM      7  C5  OXE d   1      -0.242   0.574  -1.781  0.00  0.00    -0.002 A 
ATOM      8  C6  OXE d   1      -1.482   0.005  -1.513  0.00  0.00     0.003 A 
ENDROOT
TORSDOF 0
ENDMDL
