MODEL 1
REMARK minimizedAffinity -3.01118422
REMARK minimizedRMSD -1
REMARK  0 active torsions:
REMARK  status: ('A' for Active; 'I' for Inactive)
ROOT
ATOM      1  C2' OXE d   1       0.243   0.682  -0.593  0.00  0.00     0.078 C 
ATOM      2  C1' OXE d   1       2.389  -0.577   0.708  0.00  0.00     0.078 C 
ATOM      3  C1  OXE d   1       2.357   0.931   0.701  0.00  0.00    -0.078 A 
ATOM      4  C2  OXE d   1       1.328   1.539   0.022  0.00  0.00    -0.078 A 
ATOM      5  C3  OXE d   1       1.221   2.926   0.031  0.00  0.00     0.003 A 
ATOM      6  C4  OXE d   1       2.234   3.712   0.594  0.00  0.00    -0.002 A 
ATOM      7  C5  OXE d   1       3.312   3.113   1.256  0.00  0.00    -0.002 A 
ATOM      8  C6  OXE d   1       3.365   1.728   1.355  0.00  0.00     0.003 A 
ENDROOT
TORSDOF 0
ENDMDL
