MODEL 1
REMARK minimizedAffinity -1.48583591
REMARK minimizedRMSD -1
REMARK  0 active torsions:
REMARK  status: ('A' for Active; 'I' for Inactive)
ROOT
ATOM      1  C2' OXE d   1       1.171   0.887  -0.001  0.00  0.00     0.078 C 
ATOM      2  C1' OXE d   1      -0.637   1.378  -2.091  0.00  0.00     0.078 C 
ATOM      3  C1  OXE d   1      -0.892   0.183  -1.206  0.00  0.00    -0.078 A 
ATOM      4  C2  OXE d   1       0.023  -0.076  -0.215  0.00  0.00    -0.078 A 
ATOM      5  C3  OXE d   1      -0.193  -1.134   0.664  0.00  0.00     0.003 A 
ATOM      6  C4  OXE d   1      -1.252  -2.025   0.453  0.00  0.00    -0.002 A 
ATOM      7  C5  OXE d   1      -2.174  -1.802  -0.575  0.00  0.00    -0.002 A 
ATOM      8  C6  OXE d   1      -2.033  -0.681  -1.386  0.00  0.00     0.003 A 
ENDROOT
TORSDOF 0
ENDMDL
