MODEL 1
REMARK minimizedAffinity -2.59491825
REMARK minimizedRMSD -1
REMARK  0 active torsions:
REMARK  status: ('A' for Active; 'I' for Inactive)
ROOT
ATOM      1  C2' OXE d   1       1.710  -0.664   0.663  0.00  0.00     0.078 C 
ATOM      2  C1' OXE d   1      -0.657  -1.946   1.458  0.00  0.00     0.078 C 
ATOM      3  C1  OXE d   1      -0.703  -1.091   0.217  0.00  0.00    -0.078 A 
ATOM      4  C2  OXE d   1       0.448  -0.430  -0.139  0.00  0.00    -0.078 A 
ATOM      5  C3  OXE d   1       0.476   0.328  -1.306  0.00  0.00     0.003 A 
ATOM      6  C4  OXE d   1      -0.699   0.547  -2.036  0.00  0.00    -0.002 A 
ATOM      7  C5  OXE d   1      -1.892  -0.085  -1.669  0.00  0.00    -0.002 A 
ATOM      8  C6  OXE d   1      -1.901  -0.939  -0.572  0.00  0.00     0.003 A 
ENDROOT
TORSDOF 0
ENDMDL
