MODEL 1
REMARK minimizedAffinity 4.31355286
REMARK minimizedRMSD -1
REMARK  0 active torsions:
REMARK  status: ('A' for Active; 'I' for Inactive)
ROOT
ATOM      1  C2' OXE d   1      -1.654   1.376  -3.207  0.00  0.00     0.078 C 
ATOM      2  C1' OXE d   1      -2.984   1.264  -0.737  0.00  0.00     0.078 C 
ATOM      3  C1  OXE d   1      -2.466  -0.029  -1.316  0.00  0.00    -0.078 A 
ATOM      4  C2  OXE d   1      -1.858   0.029  -2.547  0.00  0.00    -0.078 A 
ATOM      5  C3  OXE d   1      -1.313  -1.125  -3.102  0.00  0.00     0.003 A 
ATOM      6  C4  OXE d   1      -1.515  -2.369  -2.491  0.00  0.00    -0.002 A 
ATOM      7  C5  OXE d   1      -2.166  -2.455  -1.256  0.00  0.00    -0.002 A 
ATOM      8  C6  OXE d   1      -2.609  -1.292  -0.636  0.00  0.00     0.003 A 
ENDROOT
TORSDOF 0
ENDMDL
