MODEL 1
REMARK minimizedAffinity -2.78119421
REMARK minimizedRMSD -1
REMARK  0 active torsions:
REMARK  status: ('A' for Active; 'I' for Inactive)
ROOT
ATOM      1  C2' OXE d   1       0.252   0.038  -0.767  0.00  0.00     0.078 C 
ATOM      2  C1' OXE d   1       1.536  -1.236   1.379  0.00  0.00     0.078 C 
ATOM      3  C1  OXE d   1       1.874   0.210   1.115  0.00  0.00    -0.078 A 
ATOM      4  C2  OXE d   1       1.276   0.812   0.034  0.00  0.00    -0.078 A 
ATOM      5  C3  OXE d   1       1.511   2.159  -0.222  0.00  0.00     0.003 A 
ATOM      6  C4  OXE d   1       2.468   2.865   0.518  0.00  0.00    -0.002 A 
ATOM      7  C5  OXE d   1       3.118   2.259   1.598  0.00  0.00    -0.002 A 
ATOM      8  C6  OXE d   1       2.802   0.948   1.936  0.00  0.00     0.003 A 
ENDROOT
TORSDOF 0
ENDMDL
