MODEL 1
REMARK minimizedAffinity 0.98276943
REMARK minimizedRMSD -1
REMARK  0 active torsions:
REMARK  status: ('A' for Active; 'I' for Inactive)
ROOT
ATOM      1  C2' OXE d   1      -2.292  -0.525  -1.169  0.00  0.00     0.078 C 
ATOM      2  C1' OXE d   1      -0.852   1.333  -2.705  0.00  0.00     0.078 C 
ATOM      3  C1  OXE d   1      -0.162   0.719  -1.513  0.00  0.00    -0.078 A 
ATOM      4  C2  OXE d   1      -0.889  -0.153  -0.740  0.00  0.00    -0.078 A 
ATOM      5  C3  OXE d   1      -0.283  -0.789   0.340  0.00  0.00     0.003 A 
ATOM      6  C4  OXE d   1       1.012  -0.432   0.736  0.00  0.00    -0.002 A 
ATOM      7  C5  OXE d   1       1.757   0.484  -0.014  0.00  0.00    -0.002 A 
ATOM      8  C6  OXE d   1       1.201   1.036  -1.163  0.00  0.00     0.003 A 
ENDROOT
TORSDOF 0
ENDMDL
