MODEL 1
REMARK minimizedAffinity -1.2133925
REMARK minimizedRMSD -1
REMARK  0 active torsions:
REMARK  status: ('A' for Active; 'I' for Inactive)
ROOT
ATOM      1  C2' OXE d   1      -1.080   1.036  -2.886  0.00  0.00     0.078 C 
ATOM      2  C1' OXE d   1      -2.411  -0.937  -1.397  0.00  0.00     0.078 C 
ATOM      3  C1  OXE d   1      -1.090  -0.431  -0.873  0.00  0.00    -0.078 A 
ATOM      4  C2  OXE d   1      -0.424   0.501  -1.631  0.00  0.00    -0.078 A 
ATOM      5  C3  OXE d   1       0.772   1.041  -1.166  0.00  0.00     0.003 A 
ATOM      6  C4  OXE d   1       1.377   0.533  -0.011  0.00  0.00    -0.002 A 
ATOM      7  C5  OXE d   1       0.734  -0.445   0.756  0.00  0.00    -0.002 A 
ATOM      8  C6  OXE d   1      -0.517  -0.906   0.363  0.00  0.00     0.003 A 
ENDROOT
TORSDOF 0
ENDMDL
