MODEL 1
REMARK minimizedAffinity -3.84303713
REMARK minimizedRMSD -1
REMARK  0 active torsions:
REMARK  status: ('A' for Active; 'I' for Inactive)
ROOT
ATOM      1  C2' OXE d   1       0.955  -0.217   0.439  0.00  0.00     0.078 C 
ATOM      2  C1' OXE d   1      -0.738   1.163  -1.324  0.00  0.00     0.078 C 
ATOM      3  C1  OXE d   1      -1.246  -0.124  -0.724  0.00  0.00    -0.078 A 
ATOM      4  C2  OXE d   1      -0.393  -0.817   0.101  0.00  0.00    -0.078 A 
ATOM      5  C3  OXE d   1      -0.831  -1.982   0.725  0.00  0.00     0.003 A 
ATOM      6  C4  OXE d   1      -2.075  -2.535   0.399  0.00  0.00    -0.002 A 
ATOM      7  C5  OXE d   1      -2.944  -1.866  -0.470  0.00  0.00    -0.002 A 
ATOM      8  C6  OXE d   1      -2.562  -0.641  -1.005  0.00  0.00     0.003 A 
ENDROOT
TORSDOF 0
ENDMDL
