MODEL 1
REMARK minimizedAffinity -4.47556639
REMARK minimizedRMSD -1
REMARK  0 active torsions:
REMARK  status: ('A' for Active; 'I' for Inactive)
ROOT
ATOM      1  C2' OXE d   1      -0.536   1.135  -2.777  0.00  0.00     0.078 C 
ATOM      2  C1' OXE d   1      -2.130  -0.530  -1.175  0.00  0.00     0.078 C 
ATOM      3  C1  OXE d   1      -0.748  -0.188  -0.677  0.00  0.00    -0.078 A 
ATOM      4  C2  OXE d   1       0.042   0.590  -1.490  0.00  0.00    -0.078 A 
ATOM      5  C3  OXE d   1       1.305   0.980  -1.054  0.00  0.00     0.003 A 
ATOM      6  C4  OXE d   1       1.837   0.463   0.134  0.00  0.00    -0.002 A 
ATOM      7  C5  OXE d   1       1.063  -0.363   0.957  0.00  0.00    -0.002 A 
ATOM      8  C6  OXE d   1      -0.243  -0.662   0.588  0.00  0.00     0.003 A 
ENDROOT
TORSDOF 0
ENDMDL
