MODEL 1
REMARK minimizedAffinity -2.99799371
REMARK minimizedRMSD -1
REMARK  0 active torsions:
REMARK  status: ('A' for Active; 'I' for Inactive)
ROOT
ATOM      1  C2' OXE d   1       3.051   4.130   1.861  0.00  0.00     0.078 C 
ATOM      2  C1' OXE d   1       3.714   3.048  -0.643  0.00  0.00     0.078 C 
ATOM      3  C1  OXE d   1       3.015   2.151   0.348  0.00  0.00    -0.078 A 
ATOM      4  C2  OXE d   1       2.736   2.675   1.588  0.00  0.00    -0.078 A 
ATOM      5  C3  OXE d   1       2.044   1.908   2.520  0.00  0.00     0.003 A 
ATOM      6  C4  OXE d   1       1.766   0.561   2.264  0.00  0.00    -0.002 A 
ATOM      7  C5  OXE d   1       2.077  -0.004   1.022  0.00  0.00    -0.002 A 
ATOM      8  C6  OXE d   1       2.662   0.788   0.040  0.00  0.00     0.003 A 
ENDROOT
TORSDOF 0
ENDMDL
