MODEL 1
REMARK minimizedAffinity -1.39805233
REMARK minimizedRMSD -1
REMARK  0 active torsions:
REMARK  status: ('A' for Active; 'I' for Inactive)
ROOT
ATOM      1  C2' OXE d   1       2.245   0.760   0.055  0.00  0.00     0.078 C 
ATOM      2  C1' OXE d   1       2.256   2.681   2.102  0.00  0.00     0.078 C 
ATOM      3  C1  OXE d   1       2.853   3.067   0.771  0.00  0.00    -0.078 A 
ATOM      4  C2  OXE d   1       2.885   2.106  -0.210  0.00  0.00    -0.078 A 
ATOM      5  C3  OXE d   1       3.376   2.426  -1.472  0.00  0.00     0.003 A 
ATOM      6  C4  OXE d   1       3.976   3.669  -1.706  0.00  0.00    -0.002 A 
ATOM      7  C5  OXE d   1       3.989   4.650  -0.708  0.00  0.00    -0.002 A 
ATOM      8  C6  OXE d   1       3.395   4.380   0.520  0.00  0.00     0.003 A 
ENDROOT
TORSDOF 0
ENDMDL
