MODEL 1
REMARK minimizedAffinity -1.08006334
REMARK minimizedRMSD -1
REMARK  0 active torsions:
REMARK  status: ('A' for Active; 'I' for Inactive)
ROOT
ATOM      1  C2' OXE d   1      -2.857  -2.036  -0.385  0.00  0.00     0.078 C 
ATOM      2  C1' OXE d   1      -0.957  -2.654   1.587  0.00  0.00     0.078 C 
ATOM      3  C1  OXE d   1      -0.683  -1.471   0.693  0.00  0.00    -0.078 A 
ATOM      4  C2  OXE d   1      -1.595  -1.204  -0.299  0.00  0.00    -0.078 A 
ATOM      5  C3  OXE d   1      -1.419  -0.091  -1.116  0.00  0.00     0.003 A 
ATOM      6  C4  OXE d   1      -0.244   0.667  -1.037  0.00  0.00    -0.002 A 
ATOM      7  C5  OXE d   1       0.716   0.388  -0.059  0.00  0.00    -0.002 A 
ATOM      8  C6  OXE d   1       0.492  -0.649   0.839  0.00  0.00     0.003 A 
ENDROOT
TORSDOF 0
ENDMDL
