MODEL 1
REMARK minimizedAffinity 10.8581505
REMARK minimizedRMSD -1
REMARK  0 active torsions:
REMARK  status: ('A' for Active; 'I' for Inactive)
ROOT
ATOM      1  C2' OXE d   1      -0.371   1.436  -0.959  0.00  0.00     0.078 C 
ATOM      2  C1' OXE d   1       1.332   0.755   1.167  0.00  0.00     0.078 C 
ATOM      3  C1  OXE d   1       0.039   1.457   1.498  0.00  0.00    -0.078 A 
ATOM      4  C2  OXE d   1      -0.766   1.829   0.448  0.00  0.00    -0.078 A 
ATOM      5  C3  OXE d   1      -1.995   2.431   0.702  0.00  0.00     0.003 A 
ATOM      6  C4  OXE d   1      -2.349   2.799   2.005  0.00  0.00    -0.002 A 
ATOM      7  C5  OXE d   1      -1.525   2.466   3.085  0.00  0.00    -0.002 A 
ATOM      8  C6  OXE d   1      -0.350   1.759   2.854  0.00  0.00     0.003 A 
ENDROOT
TORSDOF 0
ENDMDL
