MODEL 1
REMARK minimizedAffinity 13.9249382
REMARK minimizedRMSD -1
REMARK  0 active torsions:
REMARK  status: ('A' for Active; 'I' for Inactive)
ROOT
ATOM      1  C2' OXE d   1      -0.504   2.167  -1.987  0.00  0.00     0.078 C 
ATOM      2  C1' OXE d   1      -2.458   3.045  -3.802  0.00  0.00     0.078 C 
ATOM      3  C1  OXE d   1      -2.869   2.036  -2.758  0.00  0.00    -0.078 A 
ATOM      4  C2  OXE d   1      -1.896   1.577  -1.904  0.00  0.00    -0.078 A 
ATOM      5  C3  OXE d   1      -2.233   0.688  -0.888  0.00  0.00     0.003 A 
ATOM      6  C4  OXE d   1      -3.520   0.140  -0.824  0.00  0.00    -0.002 A 
ATOM      7  C5  OXE d   1      -4.517   0.564  -1.710  0.00  0.00    -0.002 A 
ATOM      8  C6  OXE d   1      -4.219   1.541  -2.653  0.00  0.00     0.003 A 
ENDROOT
TORSDOF 0
ENDMDL
