MODEL 1
REMARK minimizedAffinity 7.61810875
REMARK minimizedRMSD -1
REMARK  0 active torsions:
REMARK  status: ('A' for Active; 'I' for Inactive)
ROOT
ATOM      1  C2' OXE d   1       1.627   3.359   3.225  0.00  0.00     0.078 C 
ATOM      2  C1' OXE d   1      -0.045   1.110   3.056  0.00  0.00     0.078 C 
ATOM      3  C1  OXE d   1       0.051   2.008   1.848  0.00  0.00    -0.078 A 
ATOM      4  C2  OXE d   1       0.835   3.131   1.955  0.00  0.00    -0.078 A 
ATOM      5  C3  OXE d   1       1.001   3.963   0.852  0.00  0.00     0.003 A 
ATOM      6  C4  OXE d   1       0.257   3.751  -0.315  0.00  0.00    -0.002 A 
ATOM      7  C5  OXE d   1      -0.578   2.634  -0.431  0.00  0.00    -0.002 A 
ATOM      8  C6  OXE d   1      -0.659   1.732   0.623  0.00  0.00     0.003 A 
ENDROOT
TORSDOF 0
ENDMDL
