MODEL 1
REMARK minimizedAffinity 14.3205557
REMARK minimizedRMSD -1
REMARK  0 active torsions:
REMARK  status: ('A' for Active; 'I' for Inactive)
ROOT
ATOM      1  C2' OXE d   1       2.997  -0.749  -0.064  0.00  0.00     0.078 C 
ATOM      2  C1' OXE d   1       1.952  -3.332   0.276  0.00  0.00     0.078 C 
ATOM      3  C1  OXE d   1       3.383  -3.207  -0.185  0.00  0.00    -0.078 A 
ATOM      4  C2  OXE d   1       3.871  -1.939  -0.394  0.00  0.00    -0.078 A 
ATOM      5  C3  OXE d   1       5.201  -1.766  -0.766  0.00  0.00     0.003 A 
ATOM      6  C4  OXE d   1       6.000  -2.873  -1.079  0.00  0.00    -0.002 A 
ATOM      7  C5  OXE d   1       5.510  -4.172  -0.911  0.00  0.00    -0.002 A 
ATOM      8  C6  OXE d   1       4.220  -4.356  -0.426  0.00  0.00     0.003 A 
ENDROOT
TORSDOF 0
ENDMDL
