MODEL 1
REMARK minimizedAffinity 3.1931901
REMARK minimizedRMSD -1
REMARK  0 active torsions:
REMARK  status: ('A' for Active; 'I' for Inactive)
ROOT
ATOM      1  C2' OXE d   1      -1.858   2.088   1.534  0.00  0.00     0.078 C 
ATOM      2  C1' OXE d   1      -0.538   3.217  -0.672  0.00  0.00     0.078 C 
ATOM      3  C1  OXE d   1       0.085   3.399   0.689  0.00  0.00    -0.078 A 
ATOM      4  C2  OXE d   1      -0.592   2.884   1.769  0.00  0.00    -0.078 A 
ATOM      5  C3  OXE d   1      -0.034   2.976   3.040  0.00  0.00     0.003 A 
ATOM      6  C4  OXE d   1       1.132   3.722   3.250  0.00  0.00    -0.002 A 
ATOM      7  C5  OXE d   1       1.816   4.289   2.170  0.00  0.00    -0.002 A 
ATOM      8  C6  OXE d   1       1.330   4.101   0.881  0.00  0.00     0.003 A 
ENDROOT
TORSDOF 0
ENDMDL
