MODEL 1
REMARK minimizedAffinity -2.89348722
REMARK minimizedRMSD -1
REMARK  0 active torsions:
REMARK  status: ('A' for Active; 'I' for Inactive)
ROOT
ATOM      1  C2' OXE d   1       4.767  -1.496   0.468  0.00  0.00     0.078 C 
ATOM      2  C1' OXE d   1       2.881  -1.563  -1.610  0.00  0.00     0.078 C 
ATOM      3  C1  OXE d   1       3.753  -2.778  -1.413  0.00  0.00    -0.078 A 
ATOM      4  C2  OXE d   1       4.705  -2.718  -0.423  0.00  0.00    -0.078 A 
ATOM      5  C3  OXE d   1       5.499  -3.831  -0.163  0.00  0.00     0.003 A 
ATOM      6  C4  OXE d   1       5.443  -4.953  -0.999  0.00  0.00    -0.002 A 
ATOM      7  C5  OXE d   1       4.508  -5.019  -2.037  0.00  0.00    -0.002 A 
ATOM      8  C6  OXE d   1       3.629  -3.959  -2.230  0.00  0.00     0.003 A 
ENDROOT
TORSDOF 0
ENDMDL
