MODEL 1
REMARK minimizedAffinity 0.110572964
REMARK minimizedRMSD -1
REMARK  0 active torsions:
REMARK  status: ('A' for Active; 'I' for Inactive)
ROOT
ATOM      1  C2' OXE d   1      -5.819   0.051   4.867  0.00  0.00     0.078 C 
ATOM      2  C1' OXE d   1      -5.825  -1.239   2.373  0.00  0.00     0.078 C 
ATOM      3  C1  OXE d   1      -5.900  -2.099   3.610  0.00  0.00    -0.078 A 
ATOM      4  C2  OXE d   1      -5.849  -1.462   4.827  0.00  0.00    -0.078 A 
ATOM      5  C3  OXE d   1      -5.970  -2.204   5.998  0.00  0.00     0.003 A 
ATOM      6  C4  OXE d   1      -5.987  -3.603   5.953  0.00  0.00    -0.002 A 
ATOM      7  C5  OXE d   1      -5.999  -4.273   4.725  0.00  0.00    -0.002 A 
ATOM      8  C6  OXE d   1      -5.999  -3.536   3.546  0.00  0.00     0.003 A 
ENDROOT
TORSDOF 0
ENDMDL
