MODEL 1
REMARK minimizedAffinity 11.521656
REMARK minimizedRMSD -1
REMARK  0 active torsions:
REMARK  status: ('A' for Active; 'I' for Inactive)
ROOT
ATOM      1  C2' OXE d   1       4.990  -3.233  -0.809  0.00  0.00     0.078 C 
ATOM      2  C1' OXE d   1       4.874  -5.246  -2.762  0.00  0.00     0.078 C 
ATOM      3  C1  OXE d   1       3.719  -5.134  -1.798  0.00  0.00    -0.078 A 
ATOM      4  C2  OXE d   1       3.806  -4.177  -0.817  0.00  0.00    -0.078 A 
ATOM      5  C3  OXE d   1       2.744  -3.995   0.064  0.00  0.00     0.003 A 
ATOM      6  C4  OXE d   1       1.657  -4.877   0.057  0.00  0.00    -0.002 A 
ATOM      7  C5  OXE d   1       1.568  -5.885  -0.910  0.00  0.00    -0.002 A 
ATOM      8  C6  OXE d   1       2.568  -5.999  -1.869  0.00  0.00     0.003 A 
ENDROOT
TORSDOF 0
ENDMDL
