MODEL 1
REMARK minimizedAffinity 0.644692659
REMARK minimizedRMSD -1
REMARK  0 active torsions:
REMARK  status: ('A' for Active; 'I' for Inactive)
ROOT
ATOM      1  C1  BNZ d   1      -3.164   3.660  -4.620  0.00  0.00     0.000 A 
ATOM      2  C2  BNZ d   1      -3.164   2.741  -3.605  0.00  0.00     0.000 A 
ATOM      3  C3  BNZ d   1      -2.569   1.521  -3.766  0.00  0.00     0.000 A 
ATOM      4  C4  BNZ d   1      -2.010   1.207  -4.953  0.00  0.00     0.000 A 
ATOM      5  C5  BNZ d   1      -2.010   2.120  -5.989  0.00  0.00     0.000 A 
ATOM      6  C6  BNZ d   1      -2.576   3.361  -5.810  0.00  0.00     0.000 A 
ENDROOT
TORSDOF 0
ENDMDL
