MODEL 1
REMARK minimizedAffinity 5.2845273
REMARK minimizedRMSD -1
REMARK  0 active torsions:
REMARK  status: ('A' for Active; 'I' for Inactive)
ROOT
ATOM      1  C1  BNZ d   1      -3.885   2.587  -4.127  0.00  0.00     0.000 A 
ATOM      2  C2  BNZ d   1      -3.119   1.452  -4.142  0.00  0.00     0.000 A 
ATOM      3  C3  BNZ d   1      -2.123   1.291  -5.064  0.00  0.00     0.000 A 
ATOM      4  C4  BNZ d   1      -1.921   2.246  -5.995  0.00  0.00     0.000 A 
ATOM      5  C5  BNZ d   1      -2.692   3.392  -6.000  0.00  0.00     0.000 A 
ATOM      6  C6  BNZ d   1      -3.667   3.567  -5.045  0.00  0.00     0.000 A 
ENDROOT
TORSDOF 0
ENDMDL
