MODEL 1
REMARK minimizedAffinity 6.77116251
REMARK minimizedRMSD -1
REMARK  0 active torsions:
REMARK  status: ('A' for Active; 'I' for Inactive)
ROOT
ATOM      1  C1  BNZ d   1       0.864  -3.899  -0.702  0.00  0.00     0.000 A 
ATOM      2  C2  BNZ d   1       2.178  -3.932  -0.318  0.00  0.00     0.000 A 
ATOM      3  C3  BNZ d   1       2.674  -4.990   0.392  0.00  0.00     0.000 A 
ATOM      4  C4  BNZ d   1       1.848  -5.994   0.750  0.00  0.00     0.000 A 
ATOM      5  C5  BNZ d   1       0.518  -5.971   0.378  0.00  0.00     0.000 A 
ATOM      6  C6  BNZ d   1       0.032  -4.923  -0.369  0.00  0.00     0.000 A 
ENDROOT
TORSDOF 0
ENDMDL
