MODEL 1
REMARK minimizedAffinity 5.84409666
REMARK minimizedRMSD -1
REMARK  0 active torsions:
REMARK  status: ('A' for Active; 'I' for Inactive)
ROOT
ATOM      1  C1  BNZ d   1      -4.343   4.375  -4.878  0.00  0.00     0.000 A 
ATOM      2  C2  BNZ d   1      -4.332   3.006  -4.925  0.00  0.00     0.000 A 
ATOM      3  C3  BNZ d   1      -3.273   2.334  -5.468  0.00  0.00     0.000 A 
ATOM      4  C4  BNZ d   1      -2.246   3.030  -5.998  0.00  0.00     0.000 A 
ATOM      5  C5  BNZ d   1      -2.248   4.410  -5.967  0.00  0.00     0.000 A 
ATOM      6  C6  BNZ d   1      -3.298   5.083  -5.385  0.00  0.00     0.000 A 
ENDROOT
TORSDOF 0
ENDMDL
