MODEL 1
REMARK minimizedAffinity 3.00209522
REMARK minimizedRMSD -1
REMARK  0 active torsions:
REMARK  status: ('A' for Active; 'I' for Inactive)
ROOT
ATOM      1  C1  BNZ d   1       1.203   4.034  -0.518  0.00  0.00     0.000 A 
ATOM      2  C2  BNZ d   1       0.841   2.847   0.060  0.00  0.00     0.000 A 
ATOM      3  C3  BNZ d   1      -0.462   2.432   0.050  0.00  0.00     0.000 A 
ATOM      4  C4  BNZ d   1      -1.405   3.222  -0.504  0.00  0.00     0.000 A 
ATOM      5  C5  BNZ d   1      -1.057   4.426  -1.083  0.00  0.00     0.000 A 
ATOM      6  C6  BNZ d   1       0.261   4.822  -1.105  0.00  0.00     0.000 A 
ENDROOT
TORSDOF 0
ENDMDL
