MODEL 1
REMARK minimizedAffinity 5.72345924
REMARK minimizedRMSD -1
REMARK  0 active torsions:
REMARK  status: ('A' for Active; 'I' for Inactive)
ROOT
ATOM      1  C1  BNZ d   1       0.470   3.566   0.393  0.00  0.00     0.000 A 
ATOM      2  C2  BNZ d   1       1.633   4.222   0.089  0.00  0.00     0.000 A 
ATOM      3  C3  BNZ d   1       1.624   5.324  -0.719  0.00  0.00     0.000 A 
ATOM      4  C4  BNZ d   1       0.460   5.745  -1.255  0.00  0.00     0.000 A 
ATOM      5  C5  BNZ d   1      -0.720   5.088  -0.965  0.00  0.00     0.000 A 
ATOM      6  C6  BNZ d   1      -0.713   4.003  -0.120  0.00  0.00     0.000 A 
ENDROOT
TORSDOF 0
ENDMDL
