MODEL 1
REMARK minimizedAffinity 7.01197052
REMARK minimizedRMSD -1
REMARK  0 active torsions:
REMARK  status: ('A' for Active; 'I' for Inactive)
ROOT
ATOM      1  C1  BNZ d   1       5.343  -2.996   1.513  0.00  0.00     0.000 A 
ATOM      2  C2  BNZ d   1       5.515  -3.485   2.781  0.00  0.00     0.000 A 
ATOM      3  C3  BNZ d   1       4.808  -2.970   3.831  0.00  0.00     0.000 A 
ATOM      4  C4  BNZ d   1       3.960  -1.943   3.620  0.00  0.00     0.000 A 
ATOM      5  C5  BNZ d   1       3.782  -1.433   2.349  0.00  0.00     0.000 A 
ATOM      6  C6  BNZ d   1       4.467  -1.979   1.288  0.00  0.00     0.000 A 
ENDROOT
TORSDOF 0
ENDMDL
