MODEL 1
REMARK minimizedAffinity 4.84553337
REMARK minimizedRMSD -1
REMARK  0 active torsions:
REMARK  status: ('A' for Active; 'I' for Inactive)
ROOT
ATOM      1  C1  BNZ d   1       0.390  -3.668  -1.430  0.00  0.00     0.000 A 
ATOM      2  C2  BNZ d   1       1.301  -3.637  -0.409  0.00  0.00     0.000 A 
ATOM      3  C3  BNZ d   1       1.616  -4.773   0.283  0.00  0.00     0.000 A 
ATOM      4  C4  BNZ d   1       0.991  -5.929  -0.021  0.00  0.00     0.000 A 
ATOM      5  C5  BNZ d   1       0.062  -5.974  -1.042  0.00  0.00     0.000 A 
ATOM      6  C6  BNZ d   1      -0.223  -4.836  -1.761  0.00  0.00     0.000 A 
ENDROOT
TORSDOF 0
ENDMDL
