MODEL 1
REMARK minimizedAffinity -3.06482029
REMARK minimizedRMSD -1
REMARK  0 active torsions:
REMARK  status: ('A' for Active; 'I' for Inactive)
ROOT
ATOM      1  C1  BNZ d   1       3.602  -1.354   3.413  0.00  0.00     0.000 A 
ATOM      2  C2  BNZ d   1       3.503  -1.330   2.047  0.00  0.00     0.000 A 
ATOM      3  C3  BNZ d   1       4.314  -2.110   1.272  0.00  0.00     0.000 A 
ATOM      4  C4  BNZ d   1       5.250  -2.883   1.861  0.00  0.00     0.000 A 
ATOM      5  C5  BNZ d   1       5.369  -2.912   3.236  0.00  0.00     0.000 A 
ATOM      6  C6  BNZ d   1       4.524  -2.154   4.014  0.00  0.00     0.000 A 
ENDROOT
TORSDOF 0
ENDMDL
