MODEL 1
REMARK minimizedAffinity -4.52018547
REMARK minimizedRMSD -1
REMARK  0 active torsions:
REMARK  status: ('A' for Active; 'I' for Inactive)
ROOT
ATOM      1  C1  DEN d   1       0.919  -1.596   2.192  0.00  0.00     0.130 A 
ATOM      2  C2  DEN d   1      -0.126  -0.858   2.898  0.00  0.00    -0.031 A 
ATOM      3  C3  DEN d   1      -0.809   0.014   1.921  0.00  0.00     0.027 A 
ATOM      4  C4  DEN d   1      -0.356   0.288  -0.603  0.00  0.00     0.027 A 
ATOM      5  C5  DEN d   1       0.438  -0.119  -1.652  0.00  0.00    -0.003 A 
ATOM      6  C6  DEN d   1       1.462  -1.014  -1.488  0.00  0.00     0.001 A 
ATOM      7  C7  DEN d   1       1.690  -1.566  -0.255  0.00  0.00     0.017 A 
ATOM      8  C8  DEN d   1       0.898  -1.155   0.809  0.00  0.00    -0.094 A 
ATOM      9  C9  DEN d   1      -0.140  -0.258   0.620  0.00  0.00    -0.072 A 
ENDROOT
TORSDOF 0
ENDMDL
