MODEL 1
REMARK minimizedAffinity -6.07884169
REMARK minimizedRMSD -1
REMARK  0 active torsions:
REMARK  status: ('A' for Active; 'I' for Inactive)
ROOT
ATOM      1  C1  DEN d   1      -0.730   0.128   0.564  0.00  0.00     0.130 A 
ATOM      2  C2  DEN d   1      -0.502   0.222  -0.875  0.00  0.00    -0.031 A 
ATOM      3  C3  DEN d   1       0.715  -0.551  -1.196  0.00  0.00     0.027 A 
ATOM      4  C4  DEN d   1       2.255  -1.882   0.388  0.00  0.00     0.027 A 
ATOM      5  C5  DEN d   1       2.474  -2.245   1.699  0.00  0.00    -0.003 A 
ATOM      6  C6  DEN d   1       1.666  -1.818   2.719  0.00  0.00     0.001 A 
ATOM      7  C7  DEN d   1       0.574  -1.039   2.440  0.00  0.00     0.017 A 
ATOM      8  C8  DEN d   1       0.351  -0.663   1.122  0.00  0.00    -0.094 A 
ATOM      9  C9  DEN d   1       1.173  -1.115   0.103  0.00  0.00    -0.072 A 
ENDROOT
TORSDOF 0
ENDMDL
