MODEL 1
REMARK minimizedAffinity -2.37835002
REMARK minimizedRMSD -1
REMARK  0 active torsions:
REMARK  status: ('A' for Active; 'I' for Inactive)
ROOT
ATOM      1  C1  DEN d   1       0.913   0.826  -0.376  0.00  0.00     0.130 A 
ATOM      2  C2  DEN d   1       0.134  -0.370  -0.066  0.00  0.00    -0.031 A 
ATOM      3  C3  DEN d   1      -1.139  -0.290  -0.809  0.00  0.00     0.027 A 
ATOM      4  C4  DEN d   1      -1.975   1.558  -2.403  0.00  0.00     0.027 A 
ATOM      5  C5  DEN d   1      -1.668   2.776  -2.968  0.00  0.00    -0.003 A 
ATOM      6  C6  DEN d   1      -0.504   3.440  -2.685  0.00  0.00     0.001 A 
ATOM      7  C7  DEN d   1       0.417   2.868  -1.848  0.00  0.00     0.017 A 
ATOM      8  C8  DEN d   1       0.112   1.644  -1.268  0.00  0.00    -0.094 A 
ATOM      9  C9  DEN d   1      -1.065   0.983  -1.576  0.00  0.00    -0.072 A 
ENDROOT
TORSDOF 0
ENDMDL
