MODEL 1
REMARK minimizedAffinity -1.97499251
REMARK minimizedRMSD -1
REMARK  0 active torsions:
REMARK  status: ('A' for Active; 'I' for Inactive)
ROOT
ATOM      1  C1  DEN d   1      -0.936   2.020   1.426  0.00  0.00     0.130 A 
ATOM      2  C2  DEN d   1      -0.687   0.607   1.695  0.00  0.00    -0.031 A 
ATOM      3  C3  DEN d   1      -0.324  -0.044   0.419  0.00  0.00     0.027 A 
ATOM      4  C4  DEN d   1      -0.121   0.996  -1.932  0.00  0.00     0.027 A 
ATOM      5  C5  DEN d   1      -0.247   2.158  -2.660  0.00  0.00    -0.003 A 
ATOM      6  C6  DEN d   1      -0.642   3.339  -2.089  0.00  0.00     0.001 A 
ATOM      7  C7  DEN d   1      -0.880   3.394  -0.741  0.00  0.00     0.017 A 
ATOM      8  C8  DEN d   1      -0.762   2.225  -0.001  0.00  0.00    -0.094 A 
ATOM      9  C9  DEN d   1      -0.350   1.044  -0.595  0.00  0.00    -0.072 A 
ENDROOT
TORSDOF 0
ENDMDL
