MODEL 1
REMARK minimizedAffinity -0.933074176
REMARK minimizedRMSD -1
REMARK  0 active torsions:
REMARK  status: ('A' for Active; 'I' for Inactive)
ROOT
ATOM      1  C1  DEN d   1       0.415  -1.008   2.395  0.00  0.00     0.130 A 
ATOM      2  C2  DEN d   1      -0.827  -0.426   2.896  0.00  0.00    -0.031 A 
ATOM      3  C3  DEN d   1      -1.583   0.100   1.741  0.00  0.00     0.027 A 
ATOM      4  C4  DEN d   1      -0.955   0.065  -0.760  0.00  0.00     0.027 A 
ATOM      5  C5  DEN d   1       0.007  -0.312  -1.671  0.00  0.00    -0.003 A 
ATOM      6  C6  DEN d   1       1.178  -0.911  -1.290  0.00  0.00     0.001 A 
ATOM      7  C7  DEN d   1       1.397  -1.193   0.032  0.00  0.00     0.017 A 
ATOM      8  C8  DEN d   1       0.435  -0.809   0.957  0.00  0.00    -0.094 A 
ATOM      9  C9  DEN d   1      -0.748  -0.216   0.551  0.00  0.00    -0.072 A 
ENDROOT
TORSDOF 0
ENDMDL
