MODEL 1
REMARK minimizedAffinity -1.74906254
REMARK minimizedRMSD -1
REMARK  0 active torsions:
REMARK  status: ('A' for Active; 'I' for Inactive)
ROOT
ATOM      1  C1  DEN d   1      -2.097   1.825  -1.010  0.00  0.00     0.130 A 
ATOM      2  C2  DEN d   1      -1.356   1.807  -2.268  0.00  0.00    -0.031 A 
ATOM      3  C3  DEN d   1      -0.273   0.810  -2.145  0.00  0.00     0.027 A 
ATOM      4  C4  DEN d   1       0.321  -0.702  -0.142  0.00  0.00     0.027 A 
ATOM      5  C5  DEN d   1      -0.016  -1.036   1.152  0.00  0.00    -0.003 A 
ATOM      6  C6  DEN d   1      -1.040  -0.421   1.821  0.00  0.00     0.001 A 
ATOM      7  C7  DEN d   1      -1.793   0.530   1.184  0.00  0.00     0.017 A 
ATOM      8  C8  DEN d   1      -1.455   0.877  -0.117  0.00  0.00    -0.094 A 
ATOM      9  C9  DEN d   1      -0.424   0.235  -0.781  0.00  0.00    -0.072 A 
ENDROOT
TORSDOF 0
ENDMDL
