MODEL 1
REMARK minimizedAffinity -3.78707361
REMARK minimizedRMSD -1
REMARK  0 active torsions:
REMARK  status: ('A' for Active; 'I' for Inactive)
ROOT
ATOM      1  C1  DEN d   1       1.931  -2.192  -0.677  0.00  0.00     0.130 A 
ATOM      2  C2  DEN d   1       2.664  -2.825   0.416  0.00  0.00    -0.031 A 
ATOM      3  C3  DEN d   1       2.022  -2.429   1.685  0.00  0.00     0.027 A 
ATOM      4  C4  DEN d   1      -0.029  -0.911   2.062  0.00  0.00     0.027 A 
ATOM      5  C5  DEN d   1      -0.980  -0.134   1.438  0.00  0.00    -0.003 A 
ATOM      6  C6  DEN d   1      -1.007   0.038   0.079  0.00  0.00     0.001 A 
ATOM      7  C7  DEN d   1      -0.091  -0.613  -0.705  0.00  0.00     0.017 A 
ATOM      8  C8  DEN d   1       0.875  -1.393  -0.083  0.00  0.00    -0.094 A 
ATOM      9  C9  DEN d   1       0.878  -1.563   1.291  0.00  0.00    -0.072 A 
ENDROOT
TORSDOF 0
ENDMDL
