MODEL 1
REMARK minimizedAffinity -0.761143088
REMARK minimizedRMSD -1
REMARK  0 active torsions:
REMARK  status: ('A' for Active; 'I' for Inactive)
ROOT
ATOM      1  C1  DEN d   1       2.338  -2.144  -0.043  0.00  0.00     0.130 A 
ATOM      2  C2  DEN d   1       2.306  -1.760  -1.451  0.00  0.00    -0.031 A 
ATOM      3  C3  DEN d   1       1.141  -0.876  -1.657  0.00  0.00     0.027 A 
ATOM      4  C4  DEN d   1      -0.603  -0.064   0.061  0.00  0.00     0.027 A 
ATOM      5  C5  DEN d   1      -0.997  -0.134   1.379  0.00  0.00    -0.003 A 
ATOM      6  C6  DEN d   1      -0.333  -0.900   2.301  0.00  0.00     0.001 A 
ATOM      7  C7  DEN d   1       0.789  -1.591   1.926  0.00  0.00     0.017 A 
ATOM      8  C8  DEN d   1       1.188  -1.531   0.598  0.00  0.00    -0.094 A 
ATOM      9  C9  DEN d   1       0.511  -0.742  -0.316  0.00  0.00    -0.072 A 
ENDROOT
TORSDOF 0
ENDMDL
