MODEL 1
REMARK minimizedAffinity 3.90497279
REMARK minimizedRMSD -1
REMARK  0 active torsions:
REMARK  status: ('A' for Active; 'I' for Inactive)
ROOT
ATOM      1  C1  BNZ d   1      -3.294   4.205  -2.992  0.00  0.00     0.000 A 
ATOM      2  C2  BNZ d   1      -2.385   5.225  -3.089  0.00  0.00     0.000 A 
ATOM      3  C3  BNZ d   1      -1.066   5.016  -2.798  0.00  0.00     0.000 A 
ATOM      4  C4  BNZ d   1      -0.665   3.801  -2.372  0.00  0.00     0.000 A 
ATOM      5  C5  BNZ d   1      -1.571   2.765  -2.261  0.00  0.00     0.000 A 
ATOM      6  C6  BNZ d   1      -2.891   2.968  -2.592  0.00  0.00     0.000 A 
ENDROOT
TORSDOF 0
ENDMDL
