MODEL 1
REMARK minimizedAffinity 0.424539089
REMARK minimizedRMSD -1
REMARK  0 active torsions:
REMARK  status: ('A' for Active; 'I' for Inactive)
ROOT
ATOM      1  C1  BNZ d   1      -5.061  -1.469   3.754  0.00  0.00     0.000 A 
ATOM      2  C2  BNZ d   1      -4.107  -1.514   2.773  0.00  0.00     0.000 A 
ATOM      3  C3  BNZ d   1      -4.075  -0.571   1.784  0.00  0.00     0.000 A 
ATOM      4  C4  BNZ d   1      -5.019   0.391   1.755  0.00  0.00     0.000 A 
ATOM      5  C5  BNZ d   1      -5.993   0.444   2.732  0.00  0.00     0.000 A 
ATOM      6  C6  BNZ d   1      -5.999  -0.484   3.748  0.00  0.00     0.000 A 
ENDROOT
TORSDOF 0
ENDMDL
