MODEL 1
REMARK minimizedAffinity 4.85184336
REMARK minimizedRMSD -1
REMARK  0 active torsions:
REMARK  status: ('A' for Active; 'I' for Inactive)
ROOT
ATOM      1  C1  BNZ d   1       0.047  -5.337  -5.299  0.00  0.00     0.000 A 
ATOM      2  C2  BNZ d   1      -1.167  -5.969  -5.342  0.00  0.00     0.000 A 
ATOM      3  C3  BNZ d   1      -2.296  -5.292  -5.711  0.00  0.00     0.000 A 
ATOM      4  C4  BNZ d   1      -2.215  -3.976  -5.998  0.00  0.00     0.000 A 
ATOM      5  C5  BNZ d   1      -1.000  -3.323  -5.950  0.00  0.00     0.000 A 
ATOM      6  C6  BNZ d   1       0.140  -4.017  -5.615  0.00  0.00     0.000 A 
ENDROOT
TORSDOF 0
ENDMDL
