MODEL 1
REMARK minimizedAffinity 0.766946197
REMARK minimizedRMSD -1
REMARK  0 active torsions:
REMARK  status: ('A' for Active; 'I' for Inactive)
ROOT
ATOM      1  C1  BNZ d   1      -5.999  -0.362   3.760  0.00  0.00     0.000 A 
ATOM      2  C2  BNZ d   1      -5.996  -1.365   4.693  0.00  0.00     0.000 A 
ATOM      3  C3  BNZ d   1      -5.215  -2.474   4.526  0.00  0.00     0.000 A 
ATOM      4  C4  BNZ d   1      -4.469  -2.598   3.409  0.00  0.00     0.000 A 
ATOM      5  C5  BNZ d   1      -4.468  -1.600   2.455  0.00  0.00     0.000 A 
ATOM      6  C6  BNZ d   1      -5.226  -0.467   2.645  0.00  0.00     0.000 A 
ENDROOT
TORSDOF 0
ENDMDL
