MODEL 1
REMARK minimizedAffinity 1.76437998
REMARK minimizedRMSD -1
REMARK  0 active torsions:
REMARK  status: ('A' for Active; 'I' for Inactive)
ROOT
ATOM      1  C1  BNZ d   1       1.843  -3.317   4.554  0.00  0.00     0.000 A 
ATOM      2  C2  BNZ d   1       1.402  -2.555   3.505  0.00  0.00     0.000 A 
ATOM      3  C3  BNZ d   1       1.052  -1.246   3.688  0.00  0.00     0.000 A 
ATOM      4  C4  BNZ d   1       1.107  -0.713   4.926  0.00  0.00     0.000 A 
ATOM      5  C5  BNZ d   1       1.541  -1.470   5.995  0.00  0.00     0.000 A 
ATOM      6  C6  BNZ d   1       1.928  -2.776   5.800  0.00  0.00     0.000 A 
ENDROOT
TORSDOF 0
ENDMDL
