MODEL 1
REMARK minimizedAffinity -1.77453697
REMARK minimizedRMSD -1
REMARK  0 active torsions:
REMARK  status: ('A' for Active; 'I' for Inactive)
ROOT
ATOM      1  C1  BNZ d   1      -5.999  -1.809   4.803  0.00  0.00     0.000 A 
ATOM      2  C2  BNZ d   1      -5.998  -2.615   5.910  0.00  0.00     0.000 A 
ATOM      3  C3  BNZ d   1      -5.228  -3.743   5.954  0.00  0.00     0.000 A 
ATOM      4  C4  BNZ d   1      -4.491  -4.085   4.877  0.00  0.00     0.000 A 
ATOM      5  C5  BNZ d   1      -4.488  -3.287   3.750  0.00  0.00     0.000 A 
ATOM      6  C6  BNZ d   1      -5.235  -2.132   3.724  0.00  0.00     0.000 A 
ENDROOT
TORSDOF 0
ENDMDL
