MODEL 1
REMARK minimizedAffinity 1.83117115
REMARK minimizedRMSD -1
REMARK  0 active torsions:
REMARK  status: ('A' for Active; 'I' for Inactive)
ROOT
ATOM      1  C1  BNZ d   1       3.830  -4.121  -0.497  0.00  0.00     0.000 A 
ATOM      2  C2  BNZ d   1       2.855  -3.516   0.251  0.00  0.00     0.000 A 
ATOM      3  C3  BNZ d   1       1.534  -3.790   0.033  0.00  0.00     0.000 A 
ATOM      4  C4  BNZ d   1       1.187  -4.637  -0.957  0.00  0.00     0.000 A 
ATOM      5  C5  BNZ d   1       2.157  -5.247  -1.727  0.00  0.00     0.000 A 
ATOM      6  C6  BNZ d   1       3.488  -4.999  -1.479  0.00  0.00     0.000 A 
ENDROOT
TORSDOF 0
ENDMDL
