MODEL 1
REMARK minimizedAffinity 0.671044767
REMARK minimizedRMSD -1
REMARK  0 active torsions:
REMARK  status: ('A' for Active; 'I' for Inactive)
ROOT
ATOM      1  C1  BNZ d   1      -4.460   4.392  -5.057  0.00  0.00     0.000 A 
ATOM      2  C2  BNZ d   1      -4.419   5.045  -3.854  0.00  0.00     0.000 A 
ATOM      3  C3  BNZ d   1      -3.302   5.731  -3.468  0.00  0.00     0.000 A 
ATOM      4  C4  BNZ d   1      -2.215   5.731  -4.266  0.00  0.00     0.000 A 
ATOM      5  C5  BNZ d   1      -2.237   5.070  -5.478  0.00  0.00     0.000 A 
ATOM      6  C6  BNZ d   1      -3.377   4.412  -5.881  0.00  0.00     0.000 A 
ENDROOT
TORSDOF 0
ENDMDL
