MODEL 1
REMARK minimizedAffinity -4.18218231
REMARK minimizedRMSD -1
REMARK  1 active torsions:
REMARK  status: ('A' for Active; 'I' for Inactive)
REMARK    1  A    between atoms: N_2  and  C1_3 
ROOT
ATOM      1  C1  UNL d   1      -0.128   0.156  -0.227  0.00  0.00     0.143 A 
ATOM      2  C2  UNL d   1       0.695   1.213   0.178  0.00  0.00    -0.057 A 
ATOM      3  C3  UNL d   1       2.038   1.001   0.512  0.00  0.00     0.033 A 
ATOM      4  C4  UNL d   1       2.576  -0.281   0.473  0.00  0.00    -0.042 A 
ATOM      5  C5  UNL d   1       1.771  -1.350   0.098  0.00  0.00     0.033 A 
ATOM      6  C6  UNL d   1       0.432  -1.131  -0.240  0.00  0.00    -0.057 A 
ENDROOT
BRANCH   1   7
ATOM      7  N   UNL d   1      -1.496   0.287  -0.476  0.00  0.00    -0.732 N 
ATOM      8  C   UNL d   1      -2.050  -0.079  -1.762  0.00  0.00     0.284 C 
ATOM      9  H3  UNL d   1      -2.065   0.001   0.318  0.00  0.00     0.395 HD
ENDBRANCH   1   7
TORSDOF 1
ENDMDL
