MODEL 1
REMARK minimizedAffinity -2.29369187
REMARK minimizedRMSD -1
REMARK  1 active torsions:
REMARK  status: ('A' for Active; 'I' for Inactive)
REMARK    1  A    between atoms: N_2  and  C1_3 
ROOT
ATOM      1  C1  UNL d   1       1.361   0.577   0.355  0.00  0.00     0.143 A 
ATOM      2  C2  UNL d   1       0.606   1.652  -0.126  0.00  0.00    -0.057 A 
ATOM      3  C3  UNL d   1      -0.721   1.481  -0.538  0.00  0.00     0.033 A 
ATOM      4  C4  UNL d   1      -1.309   0.221  -0.503  0.00  0.00    -0.042 A 
ATOM      5  C5  UNL d   1      -0.569  -0.867  -0.052  0.00  0.00     0.033 A 
ATOM      6  C6  UNL d   1       0.753  -0.688   0.365  0.00  0.00    -0.057 A 
ENDROOT
BRANCH   1   7
ATOM      7  N   UNL d   1       2.716   0.665   0.686  0.00  0.00    -0.732 N 
ATOM      8  C   UNL d   1       3.429  -0.492   1.184  0.00  0.00     0.284 C 
ATOM      9  H3  UNL d   1       3.244   1.223   0.020  0.00  0.00     0.395 HD
ENDBRANCH   1   7
TORSDOF 1
ENDMDL
