MODEL 1
REMARK minimizedAffinity -3.10722971
REMARK minimizedRMSD -1
REMARK  1 active torsions:
REMARK  status: ('A' for Active; 'I' for Inactive)
REMARK    1  A    between atoms: N_2  and  C1_3 
ROOT
ATOM      1  C1  UNL d   1      -0.059   0.054  -0.135  0.00  0.00     0.143 A 
ATOM      2  C2  UNL d   1       0.548   1.314  -0.154  0.00  0.00    -0.057 A 
ATOM      3  C3  UNL d   1       1.845   1.503   0.338  0.00  0.00     0.033 A 
ATOM      4  C4  UNL d   1       2.549   0.437   0.888  0.00  0.00    -0.042 A 
ATOM      5  C5  UNL d   1       1.956  -0.819   0.940  0.00  0.00     0.033 A 
ATOM      6  C6  UNL d   1       0.663  -1.003   0.441  0.00  0.00    -0.057 A 
ENDROOT
BRANCH   1   7
ATOM      7  N   UNL d   1      -1.382  -0.178  -0.519  0.00  0.00    -0.732 N 
ATOM      8  C   UNL d   1      -1.703  -0.518  -1.889  0.00  0.00     0.284 C 
ATOM      9  H3  UNL d   1      -1.899  -0.713   0.174  0.00  0.00     0.395 HD
ENDBRANCH   1   7
TORSDOF 1
ENDMDL
