MODEL 1
REMARK minimizedAffinity -4.51620436
REMARK minimizedRMSD -1
REMARK  1 active torsions:
REMARK  status: ('A' for Active; 'I' for Inactive)
REMARK    1  A    between atoms: N_2  and  C1_3 
ROOT
ATOM      1  C1  UNL d   1       1.108   0.547   0.410  0.00  0.00     0.143 A 
ATOM      2  C2  UNL d   1       0.262  -0.565   0.348  0.00  0.00    -0.057 A 
ATOM      3  C3  UNL d   1      -1.116  -0.418   0.148  0.00  0.00     0.033 A 
ATOM      4  C4  UNL d   1      -1.678   0.850   0.036  0.00  0.00    -0.042 A 
ATOM      5  C5  UNL d   1      -0.859   1.970   0.120  0.00  0.00     0.033 A 
ATOM      6  C6  UNL d   1       0.518   1.817   0.313  0.00  0.00    -0.057 A 
ENDROOT
BRANCH   1   7
ATOM      7  N   UNL d   1       2.472   0.471   0.705  0.00  0.00    -0.732 N 
ATOM      8  C   UNL d   1       3.263  -0.652   0.249  0.00  0.00     0.284 C 
ATOM      9  H3  UNL d   1       2.939   1.371   0.619  0.00  0.00     0.395 HD
ENDBRANCH   1   7
TORSDOF 1
ENDMDL
