MODEL 1
REMARK minimizedAffinity -4.24486256
REMARK minimizedRMSD -1
REMARK  1 active torsions:
REMARK  status: ('A' for Active; 'I' for Inactive)
REMARK    1  A    between atoms: N_2  and  C1_3 
ROOT
ATOM      1  C1  UNL d   1      -0.087  -0.229   0.458  0.00  0.00     0.143 A 
ATOM      2  C2  UNL d   1       1.053   0.582   0.481  0.00  0.00    -0.057 A 
ATOM      3  C3  UNL d   1       2.185   0.222   1.223  0.00  0.00     0.033 A 
ATOM      4  C4  UNL d   1       2.186  -0.945   1.980  0.00  0.00    -0.042 A 
ATOM      5  C5  UNL d   1       1.055  -1.753   1.992  0.00  0.00     0.033 A 
ATOM      6  C6  UNL d   1      -0.070  -1.392   1.244  0.00  0.00    -0.057 A 
ENDROOT
BRANCH   1   7
ATOM      7  N   UNL d   1      -1.278   0.123  -0.180  0.00  0.00    -0.732 N 
ATOM      8  C   UNL d   1      -1.551  -0.323  -1.530  0.00  0.00     0.284 C 
ATOM      9  H3  UNL d   1      -2.081   0.077   0.443  0.00  0.00     0.395 HD
ENDBRANCH   1   7
TORSDOF 1
ENDMDL
