MODEL 1
REMARK minimizedAffinity -0.759515107
REMARK minimizedRMSD -1
REMARK  0 active torsions:
REMARK  status: ('A' for Active; 'I' for Inactive)
ROOT
ATOM      1  C   UNL d   1       1.398   0.784  -3.202  0.00  0.00     0.172 C 
ATOM      2  N   UNL d   1       0.981   0.276  -1.916  0.00  0.00    -0.070 N 
ATOM      3  C1  UNL d   1       0.954   0.989  -0.747  0.00  0.00    -0.004 A 
ATOM      4  C2  UNL d   1       0.497   0.151   0.247  0.00  0.00    -0.047 A 
ATOM      5  C3  UNL d   1       0.241  -1.109  -0.344  0.00  0.00    -0.047 A 
ATOM      6  C4  UNL d   1       0.550  -1.003  -1.684  0.00  0.00    -0.004 A 
ENDROOT
TORSDOF 0
ENDMDL
