MODEL 1
REMARK minimizedAffinity -3.38675332
REMARK minimizedRMSD -1
REMARK  0 active torsions:
REMARK  status: ('A' for Active; 'I' for Inactive)
ROOT
ATOM      1  C   UNL d   1       0.024  -0.496  -0.839  0.00  0.00     0.172 C 
ATOM      2  N   UNL d   1      -0.554  -0.026   0.398  0.00  0.00    -0.070 N 
ATOM      3  C1  UNL d   1       0.145   0.452   1.474  0.00  0.00    -0.004 A 
ATOM      4  C2  UNL d   1      -0.765   0.797   2.449  0.00  0.00    -0.047 A 
ATOM      5  C3  UNL d   1      -2.056   0.516   1.942  0.00  0.00    -0.047 A 
ATOM      6  C4  UNL d   1      -1.896   0.007   0.670  0.00  0.00    -0.004 A 
ENDROOT
TORSDOF 0
ENDMDL
