MODEL 1
REMARK minimizedAffinity -3.44776416
REMARK minimizedRMSD -1
REMARK  0 active torsions:
REMARK  status: ('A' for Active; 'I' for Inactive)
ROOT
ATOM      1  C   UNL d   1       0.123  -0.487  -0.873  0.00  0.00     0.172 C 
ATOM      2  N   UNL d   1      -0.368   0.126   0.339  0.00  0.00    -0.070 N 
ATOM      3  C1  UNL d   1       0.397   0.496   1.412  0.00  0.00    -0.004 A 
ATOM      4  C2  UNL d   1      -0.442   1.041   2.360  0.00  0.00    -0.047 A 
ATOM      5  C3  UNL d   1      -1.756   0.997   1.838  0.00  0.00    -0.047 A 
ATOM      6  C4  UNL d   1      -1.682   0.425   0.586  0.00  0.00    -0.004 A 
ENDROOT
TORSDOF 0
ENDMDL
