MODEL 1
REMARK minimizedAffinity -2.92999649
REMARK minimizedRMSD -1
REMARK  0 active torsions:
REMARK  status: ('A' for Active; 'I' for Inactive)
ROOT
ATOM      1  C   UNL d   1       0.472  -0.338  -0.940  0.00  0.00     0.172 C 
ATOM      2  N   UNL d   1      -0.070   0.281   0.247  0.00  0.00    -0.070 N 
ATOM      3  C1  UNL d   1      -1.376   0.220   0.654  0.00  0.00    -0.004 A 
ATOM      4  C2  UNL d   1      -1.486   0.936   1.827  0.00  0.00    -0.047 A 
ATOM      5  C3  UNL d   1      -0.202   1.445   2.134  0.00  0.00    -0.047 A 
ATOM      6  C4  UNL d   1       0.656   1.025   1.140  0.00  0.00    -0.004 A 
ENDROOT
TORSDOF 0
ENDMDL
