MODEL 1
REMARK minimizedAffinity -3.79378963
REMARK minimizedRMSD -1
REMARK  0 active torsions:
REMARK  status: ('A' for Active; 'I' for Inactive)
ROOT
ATOM      1  C   UNL d   1      -1.115   1.584   2.459  0.00  0.00     0.172 C 
ATOM      2  N   UNL d   1      -0.681   0.779   1.342  0.00  0.00    -0.070 N 
ATOM      3  C1  UNL d   1       0.614   0.433   1.062  0.00  0.00    -0.004 A 
ATOM      4  C2  UNL d   1       0.607  -0.337  -0.081  0.00  0.00    -0.047 A 
ATOM      5  C3  UNL d   1      -0.738  -0.458  -0.503  0.00  0.00    -0.047 A 
ATOM      6  C4  UNL d   1      -1.514   0.242   0.396  0.00  0.00    -0.004 A 
ENDROOT
TORSDOF 0
ENDMDL
