MODEL 1
REMARK minimizedAffinity -3.73846483
REMARK minimizedRMSD -1
REMARK  0 active torsions:
REMARK  status: ('A' for Active; 'I' for Inactive)
ROOT
ATOM      1  C   UNL d   1       2.044  -0.228   1.967  0.00  0.00     0.172 C 
ATOM      2  N   UNL d   1       0.727   0.309   1.718  0.00  0.00    -0.070 N 
ATOM      3  C1  UNL d   1      -0.082   0.903   2.650  0.00  0.00    -0.004 A 
ATOM      4  C2  UNL d   1      -1.248   1.279   2.019  0.00  0.00    -0.047 A 
ATOM      5  C3  UNL d   1      -1.136   0.897   0.661  0.00  0.00    -0.047 A 
ATOM      6  C4  UNL d   1       0.096   0.299   0.503  0.00  0.00    -0.004 A 
ENDROOT
TORSDOF 0
ENDMDL
