MODEL 1
REMARK minimizedAffinity -2.84768867
REMARK minimizedRMSD -1
REMARK  0 active torsions:
REMARK  status: ('A' for Active; 'I' for Inactive)
ROOT
ATOM      1  C   UNL d   1       0.087  -0.734  -1.570  0.00  0.00     0.172 C 
ATOM      2  N   UNL d   1       0.602  -0.400  -2.878  0.00  0.00    -0.070 N 
ATOM      3  C1  UNL d   1       0.162  -0.920  -4.066  0.00  0.00    -0.004 A 
ATOM      4  C2  UNL d   1       0.904  -0.348  -5.077  0.00  0.00    -0.047 A 
ATOM      5  C3  UNL d   1       1.822   0.545  -4.475  0.00  0.00    -0.047 A 
ATOM      6  C4  UNL d   1       1.613   0.494  -3.113  0.00  0.00    -0.004 A 
ENDROOT
TORSDOF 0
ENDMDL
