MODEL 1
REMARK minimizedAffinity -3.23353815
REMARK minimizedRMSD -1
REMARK  0 active torsions:
REMARK  status: ('A' for Active; 'I' for Inactive)
ROOT
ATOM      1  C   UNL d   1      -0.370  -0.009  -0.579  0.00  0.00     0.172 C 
ATOM      2  N   UNL d   1       0.342  -0.036  -1.835  0.00  0.00    -0.070 N 
ATOM      3  C1  UNL d   1       0.015   0.681  -2.954  0.00  0.00    -0.004 A 
ATOM      4  C2  UNL d   1       0.936   0.379  -3.933  0.00  0.00    -0.047 A 
ATOM      5  C3  UNL d   1       1.848  -0.554  -3.384  0.00  0.00    -0.047 A 
ATOM      6  C4  UNL d   1       1.456  -0.793  -2.084  0.00  0.00    -0.004 A 
ENDROOT
TORSDOF 0
ENDMDL
