MODEL 1
REMARK minimizedAffinity -3.72522283
REMARK minimizedRMSD -1
REMARK  0 active torsions:
REMARK  status: ('A' for Active; 'I' for Inactive)
ROOT
ATOM      1  C   UNL d   1      -1.731  -0.738   0.009  0.00  0.00     0.172 C 
ATOM      2  N   UNL d   1      -1.044   0.084   0.977  0.00  0.00    -0.070 N 
ATOM      3  C1  UNL d   1      -1.427   0.274   2.278  0.00  0.00    -0.004 A 
ATOM      4  C2  UNL d   1      -0.513   1.121   2.868  0.00  0.00    -0.047 A 
ATOM      5  C3  UNL d   1       0.452   1.452   1.887  0.00  0.00    -0.047 A 
ATOM      6  C4  UNL d   1       0.099   0.797   0.726  0.00  0.00    -0.004 A 
ENDROOT
TORSDOF 0
ENDMDL
