MODEL 1
REMARK minimizedAffinity 7.33892918
REMARK minimizedRMSD -1
REMARK  0 active torsions:
REMARK  status: ('A' for Active; 'I' for Inactive)
ROOT
ATOM      1  C   UNL d   1       1.848   0.722  -0.057  0.00  0.00     0.020 A 
ATOM      2  C1  UNL d   1       2.790   0.064   0.733  0.00  0.00     0.020 A 
ATOM      3  C2  UNL d   1       2.374  -0.877   1.677  0.00  0.00     0.034 A 
ATOM      4  C3  UNL d   1       1.013  -1.164   1.834  0.00  0.00     0.017 A 
ATOM      5  C4  UNL d   1       0.068  -0.503   1.040  0.00  0.00     0.017 A 
ATOM      6  C5  UNL d   1       0.490   0.439   0.096  0.00  0.00     0.034 A 
ATOM      7 Cl   UNL d   1      -1.628  -0.803   1.175  0.00  0.00    -0.070 Cl
ATOM      8 Cl1  UNL d   1       0.571  -2.339   3.020  0.00  0.00    -0.070 Cl
ENDROOT
TORSDOF 0
ENDMDL
