MODEL 1
REMARK minimizedAffinity 4.06449032
REMARK minimizedRMSD -1
REMARK  0 active torsions:
REMARK  status: ('A' for Active; 'I' for Inactive)
ROOT
ATOM      1  C   UNL d   1       0.776  -1.941   1.710  0.00  0.00     0.020 A 
ATOM      2  C1  UNL d   1       1.281  -1.916   3.010  0.00  0.00     0.020 A 
ATOM      3  C2  UNL d   1       2.397  -1.132   3.310  0.00  0.00     0.034 A 
ATOM      4  C3  UNL d   1       3.012  -0.370   2.310  0.00  0.00     0.017 A 
ATOM      5  C4  UNL d   1       2.505  -0.397   1.006  0.00  0.00     0.017 A 
ATOM      6  C5  UNL d   1       1.387  -1.183   0.710  0.00  0.00     0.034 A 
ATOM      7 Cl   UNL d   1       3.210   0.516  -0.281  0.00  0.00    -0.070 Cl
ATOM      8 Cl1  UNL d   1       4.388   0.576   2.753  0.00  0.00    -0.070 Cl
ENDROOT
TORSDOF 0
ENDMDL
