MODEL 1
REMARK minimizedAffinity 4.1625495
REMARK minimizedRMSD -1
REMARK  0 active torsions:
REMARK  status: ('A' for Active; 'I' for Inactive)
ROOT
ATOM      1  C   UNL d   1       1.849  -1.106   3.009  0.00  0.00     0.020 A 
ATOM      2  C1  UNL d   1       0.561  -1.197   2.481  0.00  0.00     0.020 A 
ATOM      3  C2  UNL d   1       0.311  -0.774   1.174  0.00  0.00     0.034 A 
ATOM      4  C3  UNL d   1       1.349  -0.258   0.391  0.00  0.00     0.017 A 
ATOM      5  C4  UNL d   1       2.641  -0.166   0.921  0.00  0.00     0.017 A 
ATOM      6  C5  UNL d   1       2.886  -0.592   2.231  0.00  0.00     0.034 A 
ATOM      7 Cl   UNL d   1       3.973   0.460   0.015  0.00  0.00    -0.070 Cl
ATOM      8 Cl1  UNL d   1       0.968   0.246  -1.218  0.00  0.00    -0.070 Cl
ENDROOT
TORSDOF 0
ENDMDL
