MODEL 1
REMARK minimizedAffinity 3.97827816
REMARK minimizedRMSD -1
REMARK  0 active torsions:
REMARK  status: ('A' for Active; 'I' for Inactive)
ROOT
ATOM      1  C   UNL d   1       0.380  -1.075   0.039  0.00  0.00     0.020 A 
ATOM      2  C1  UNL d   1       1.024   0.097   0.432  0.00  0.00     0.020 A 
ATOM      3  C2  UNL d   1       1.707   0.145   1.649  0.00  0.00     0.034 A 
ATOM      4  C3  UNL d   1       1.748  -0.983   2.478  0.00  0.00     0.017 A 
ATOM      5  C4  UNL d   1       1.101  -2.159   2.082  0.00  0.00     0.017 A 
ATOM      6  C5  UNL d   1       0.419  -2.201   0.862  0.00  0.00     0.034 A 
ATOM      7 Cl   UNL d   1       1.107  -3.591   3.051  0.00  0.00    -0.070 Cl
ATOM      8 Cl1  UNL d   1       2.611  -0.853   3.969  0.00  0.00    -0.070 Cl
ENDROOT
TORSDOF 0
ENDMDL
