MODEL 1
REMARK minimizedAffinity 2.07576895
REMARK minimizedRMSD -1
REMARK  0 active torsions:
REMARK  status: ('A' for Active; 'I' for Inactive)
ROOT
ATOM      1  C   UNL d   1      -5.256   1.263  -0.164  0.00  0.00     0.020 A 
ATOM      2  C1  UNL d   1      -5.914   1.080  -1.379  0.00  0.00     0.020 A 
ATOM      3  C2  UNL d   1      -5.746  -0.108  -2.092  0.00  0.00     0.034 A 
ATOM      4  C3  UNL d   1      -4.918  -1.119  -1.590  0.00  0.00     0.017 A 
ATOM      5  C4  UNL d   1      -4.258  -0.935  -0.370  0.00  0.00     0.017 A 
ATOM      6  C5  UNL d   1      -4.430   0.257   0.340  0.00  0.00     0.034 A 
ATOM      7 Cl   UNL d   1      -3.221  -2.137   0.313  0.00  0.00    -0.070 Cl
ATOM      8 Cl1  UNL d   1      -4.757  -2.564  -2.525  0.00  0.00    -0.070 Cl
ENDROOT
TORSDOF 0
ENDMDL
