MODEL 1
REMARK minimizedAffinity 0.700419784
REMARK minimizedRMSD -1
REMARK  0 active torsions:
REMARK  status: ('A' for Active; 'I' for Inactive)
ROOT
ATOM      1  C   UNL d   1      -2.783  -5.944  -2.201  0.00  0.00     0.020 A 
ATOM      2  C1  UNL d   1      -1.593  -5.963  -1.475  0.00  0.00     0.020 A 
ATOM      3  C2  UNL d   1      -0.367  -5.980  -2.145  0.00  0.00     0.034 A 
ATOM      4  C3  UNL d   1      -0.330  -5.978  -3.544  0.00  0.00     0.017 A 
ATOM      5  C4  UNL d   1      -1.525  -5.959  -4.271  0.00  0.00     0.017 A 
ATOM      6  C5  UNL d   1      -2.749  -5.942  -3.596  0.00  0.00     0.034 A 
ATOM      7 Cl   UNL d   1      -1.559  -5.956  -5.999  0.00  0.00    -0.070 Cl
ATOM      8 Cl1  UNL d   1       1.221  -5.999  -4.306  0.00  0.00    -0.070 Cl
ENDROOT
TORSDOF 0
ENDMDL
