MODEL 1
REMARK minimizedAffinity 4.49148321
REMARK minimizedRMSD -1
REMARK  0 active torsions:
REMARK  status: ('A' for Active; 'I' for Inactive)
ROOT
ATOM      1  C   UNL d   1       1.275  -0.050   0.511  0.00  0.00     0.020 A 
ATOM      2  C1  UNL d   1       0.518  -1.175   0.184  0.00  0.00     0.020 A 
ATOM      3  C2  UNL d   1       0.456  -2.255   1.067  0.00  0.00     0.034 A 
ATOM      4  C3  UNL d   1       1.151  -2.212   2.281  0.00  0.00     0.017 A 
ATOM      5  C4  UNL d   1       1.910  -1.083   2.608  0.00  0.00     0.017 A 
ATOM      6  C5  UNL d   1       1.969  -0.004   1.720  0.00  0.00     0.034 A 
ATOM      7 Cl   UNL d   1       2.795  -0.957   4.088  0.00  0.00    -0.070 Cl
ATOM      8 Cl1  UNL d   1       1.028  -3.584   3.325  0.00  0.00    -0.070 Cl
ENDROOT
TORSDOF 0
ENDMDL
