MODEL 1
REMARK minimizedAffinity -0.373049885
REMARK minimizedRMSD -1
REMARK  0 active torsions:
REMARK  status: ('A' for Active; 'I' for Inactive)
ROOT
ATOM      1  C   UNL d   1       0.673  -5.982  -5.578  0.00  0.00     0.020 A 
ATOM      2  C1  UNL d   1      -0.657  -5.998  -5.995  0.00  0.00     0.020 A 
ATOM      3  C2  UNL d   1      -1.685  -6.000  -5.051  0.00  0.00     0.034 A 
ATOM      4  C3  UNL d   1      -1.385  -5.986  -3.683  0.00  0.00     0.017 A 
ATOM      5  C4  UNL d   1      -0.050  -5.970  -3.265  0.00  0.00     0.017 A 
ATOM      6  C5  UNL d   1       0.976  -5.968  -4.215  0.00  0.00     0.034 A 
ATOM      7 Cl   UNL d   1       0.398  -5.953  -1.596  0.00  0.00    -0.070 Cl
ATOM      8 Cl1  UNL d   1      -2.707  -5.989  -2.571  0.00  0.00    -0.070 Cl
ENDROOT
TORSDOF 0
ENDMDL
