MODEL 1
REMARK minimizedAffinity 0.449028671
REMARK minimizedRMSD -1
REMARK  0 active torsions:
REMARK  status: ('A' for Active; 'I' for Inactive)
ROOT
ATOM      1  C   UNL d   1      -0.477  -5.999  -5.967  0.00  0.00     0.020 A 
ATOM      2  C1  UNL d   1       0.821  -5.997  -5.459  0.00  0.00     0.020 A 
ATOM      3  C2  UNL d   1       1.031  -5.996  -4.079  0.00  0.00     0.034 A 
ATOM      4  C3  UNL d   1      -0.059  -5.996  -3.201  0.00  0.00     0.017 A 
ATOM      5  C4  UNL d   1      -1.362  -5.998  -3.712  0.00  0.00     0.017 A 
ATOM      6  C5  UNL d   1      -1.567  -6.000  -5.095  0.00  0.00     0.034 A 
ATOM      7 Cl   UNL d   1      -2.758  -5.999  -2.692  0.00  0.00    -0.070 Cl
ATOM      8 Cl1  UNL d   1       0.274  -5.995  -1.506  0.00  0.00    -0.070 Cl
ENDROOT
TORSDOF 0
ENDMDL
