MODEL 1
REMARK minimizedAffinity 1.91376483
REMARK minimizedRMSD -1
REMARK  0 active torsions:
REMARK  status: ('A' for Active; 'I' for Inactive)
ROOT
ATOM      1  C   UNL d   1      -2.963  -5.940  -2.530  0.00  0.00     0.020 A 
ATOM      2  C1  UNL d   1      -1.945  -5.948  -1.577  0.00  0.00     0.020 A 
ATOM      3  C2  UNL d   1      -0.609  -5.967  -1.983  0.00  0.00     0.034 A 
ATOM      4  C3  UNL d   1      -0.287  -5.977  -3.345  0.00  0.00     0.017 A 
ATOM      5  C4  UNL d   1      -1.309  -5.969  -4.301  0.00  0.00     0.017 A 
ATOM      6  C5  UNL d   1      -2.645  -5.950  -3.889  0.00  0.00     0.034 A 
ATOM      7 Cl   UNL d   1      -0.990  -5.981  -5.999  0.00  0.00    -0.070 Cl
ATOM      8 Cl1  UNL d   1       1.387  -6.000  -3.775  0.00  0.00    -0.070 Cl
ENDROOT
TORSDOF 0
ENDMDL
