MODEL 1
REMARK minimizedAffinity 5.73025036
REMARK minimizedRMSD -1
REMARK  0 active torsions:
REMARK  status: ('A' for Active; 'I' for Inactive)
ROOT
ATOM      1  C   UNL d   1      -0.091  -5.683  -5.938  0.00  0.00     0.020 A 
ATOM      2  C1  UNL d   1      -0.999  -5.740  -4.882  0.00  0.00     0.020 A 
ATOM      3  C2  UNL d   1      -0.537  -5.823  -3.567  0.00  0.00     0.034 A 
ATOM      4  C3  UNL d   1       0.838  -5.850  -3.304  0.00  0.00     0.017 A 
ATOM      5  C4  UNL d   1       1.749  -5.793  -4.365  0.00  0.00     0.017 A 
ATOM      6  C5  UNL d   1       1.281  -5.709  -5.680  0.00  0.00     0.034 A 
ATOM      7 Cl   UNL d   1       3.460  -5.821  -4.120  0.00  0.00    -0.070 Cl
ATOM      8 Cl1  UNL d   1       1.339  -5.954  -1.654  0.00  0.00    -0.070 Cl
ENDROOT
TORSDOF 0
ENDMDL
