MODEL 1
REMARK minimizedAffinity 4.27103043
REMARK minimizedRMSD -1
REMARK  0 active torsions:
REMARK  status: ('A' for Active; 'I' for Inactive)
ROOT
ATOM      1  C   UNL d   1       0.024  -5.999  -5.016  0.00  0.00     0.020 A 
ATOM      2  C1  UNL d   1      -1.133  -5.998  -5.793  0.00  0.00     0.020 A 
ATOM      3  C2  UNL d   1      -2.387  -5.998  -5.179  0.00  0.00     0.034 A 
ATOM      4  C3  UNL d   1      -2.487  -5.998  -3.783  0.00  0.00     0.017 A 
ATOM      5  C4  UNL d   1      -1.324  -5.999  -3.003  0.00  0.00     0.017 A 
ATOM      6  C5  UNL d   1      -0.071  -5.999  -3.624  0.00  0.00     0.034 A 
ATOM      7 Cl   UNL d   1      -1.367  -5.999  -1.275  0.00  0.00    -0.070 Cl
ATOM      8 Cl1  UNL d   1      -4.070  -5.997  -3.090  0.00  0.00    -0.070 Cl
ENDROOT
TORSDOF 0
ENDMDL
