MODEL 1
REMARK minimizedAffinity 0.053130392
REMARK minimizedRMSD -1
REMARK  0 active torsions:
REMARK  status: ('A' for Active; 'I' for Inactive)
ROOT
ATOM      1  C   UNL d   1      -3.014  -5.999  -4.504  0.00  0.00     0.020 A 
ATOM      2  C1  UNL d   1      -3.277  -5.999  -3.135  0.00  0.00     0.020 A 
ATOM      3  C2  UNL d   1      -2.221  -5.999  -2.221  0.00  0.00     0.034 A 
ATOM      4  C3  UNL d   1      -0.897  -5.999  -2.676  0.00  0.00     0.017 A 
ATOM      5  C4  UNL d   1      -0.634  -5.999  -4.051  0.00  0.00     0.017 A 
ATOM      6  C5  UNL d   1      -1.695  -5.999  -4.961  0.00  0.00     0.034 A 
ATOM      7 Cl   UNL d   1       0.973  -5.999  -4.687  0.00  0.00    -0.070 Cl
ATOM      8 Cl1  UNL d   1       0.360  -5.999  -1.490  0.00  0.00    -0.070 Cl
ENDROOT
TORSDOF 0
ENDMDL
