MODEL 1
REMARK minimizedAffinity 3.28917742
REMARK minimizedRMSD -1
REMARK  0 active torsions:
REMARK  status: ('A' for Active; 'I' for Inactive)
ROOT
ATOM      1  C   UNL d   1       1.245   0.221   0.698  0.00  0.00     0.020 A 
ATOM      2  C1  UNL d   1       1.583  -1.115   0.908  0.00  0.00     0.020 A 
ATOM      3  C2  UNL d   1       0.591  -2.097   0.889  0.00  0.00     0.034 A 
ATOM      4  C3  UNL d   1      -0.744  -1.745   0.659  0.00  0.00     0.017 A 
ATOM      5  C4  UNL d   1      -1.082  -0.404   0.448  0.00  0.00     0.017 A 
ATOM      6  C5  UNL d   1      -0.085   0.576   0.468  0.00  0.00     0.034 A 
ATOM      7 Cl   UNL d   1      -2.707   0.108   0.159  0.00  0.00    -0.070 Cl
ATOM      8 Cl1  UNL d   1      -1.919  -3.012   0.649  0.00  0.00    -0.070 Cl
ENDROOT
TORSDOF 0
ENDMDL
