MODEL 1
REMARK minimizedAffinity 6.66211653
REMARK minimizedRMSD -1
REMARK  0 active torsions:
REMARK  status: ('A' for Active; 'I' for Inactive)
ROOT
ATOM      1  C   UNL d   1       1.128  -5.622  -2.558  0.00  0.00     0.020 A 
ATOM      2  C1  UNL d   1       1.553  -5.624  -3.886  0.00  0.00     0.020 A 
ATOM      3  C2  UNL d   1       0.619  -5.741  -4.918  0.00  0.00     0.034 A 
ATOM      4  C3  UNL d   1      -0.744  -5.858  -4.623  0.00  0.00     0.017 A 
ATOM      5  C4  UNL d   1      -1.169  -5.857  -3.290  0.00  0.00     0.017 A 
ATOM      6  C5  UNL d   1      -0.230  -5.739  -2.261  0.00  0.00     0.034 A 
ATOM      7 Cl   UNL d   1      -2.834  -5.997  -2.848  0.00  0.00    -0.070 Cl
ATOM      8 Cl1  UNL d   1      -1.843  -5.999  -5.949  0.00  0.00    -0.070 Cl
ENDROOT
TORSDOF 0
ENDMDL
