MODEL 1
REMARK minimizedAffinity -0.803347826
REMARK minimizedRMSD -1
REMARK  0 active torsions:
REMARK  status: ('A' for Active; 'I' for Inactive)
ROOT
ATOM      1  C   UNL d   1      -2.632  -5.992  -2.252  0.00  0.00     0.020 A 
ATOM      2  C1  UNL d   1      -1.471  -5.997  -1.481  0.00  0.00     0.020 A 
ATOM      3  C2  UNL d   1      -0.220  -5.984  -2.102  0.00  0.00     0.034 A 
ATOM      4  C3  UNL d   1      -0.128  -5.965  -3.499  0.00  0.00     0.017 A 
ATOM      5  C4  UNL d   1      -1.295  -5.960  -4.272  0.00  0.00     0.017 A 
ATOM      6  C5  UNL d   1      -2.544  -5.973  -3.645  0.00  0.00     0.034 A 
ATOM      7 Cl   UNL d   1      -1.261  -5.936  -6.000  0.00  0.00    -0.070 Cl
ATOM      8 Cl1  UNL d   1       1.451  -5.948  -4.199  0.00  0.00    -0.070 Cl
ENDROOT
TORSDOF 0
ENDMDL
