MODEL 1
REMARK minimizedAffinity 6.23358059
REMARK minimizedRMSD -1
REMARK  0 active torsions:
REMARK  status: ('A' for Active; 'I' for Inactive)
ROOT
ATOM      1  C   UNL d   1       0.711   0.877   0.430  0.00  0.00     0.020 A 
ATOM      2  C1  UNL d   1       1.810   0.526   1.212  0.00  0.00     0.020 A 
ATOM      3  C2  UNL d   1       1.830  -0.701   1.879  0.00  0.00     0.034 A 
ATOM      4  C3  UNL d   1       0.748  -1.581   1.765  0.00  0.00     0.017 A 
ATOM      5  C4  UNL d   1      -0.356  -1.228   0.980  0.00  0.00     0.017 A 
ATOM      6  C5  UNL d   1      -0.370   0.002   0.314  0.00  0.00     0.034 A 
ATOM      7 Cl   UNL d   1      -1.728  -2.262   0.791  0.00  0.00    -0.070 Cl
ATOM      8 Cl1  UNL d   1       0.839  -3.082   2.617  0.00  0.00    -0.070 Cl
ENDROOT
TORSDOF 0
ENDMDL
