MODEL 1
REMARK minimizedAffinity 3.30135179
REMARK minimizedRMSD -1
REMARK  0 active torsions:
REMARK  status: ('A' for Active; 'I' for Inactive)
ROOT
ATOM      1  C   UNL d   1      -0.259  -5.991  -3.067  0.00  0.00     0.020 A 
ATOM      2  C1  UNL d   1      -0.963  -5.991  -4.271  0.00  0.00     0.020 A 
ATOM      3  C2  UNL d   1      -2.360  -5.994  -4.263  0.00  0.00     0.034 A 
ATOM      4  C3  UNL d   1      -3.057  -5.997  -3.049  0.00  0.00     0.017 A 
ATOM      5  C4  UNL d   1      -2.349  -5.997  -1.841  0.00  0.00     0.017 A 
ATOM      6  C5  UNL d   1      -0.951  -5.994  -1.855  0.00  0.00     0.034 A 
ATOM      7 Cl   UNL d   1      -3.139  -6.000  -0.304  0.00  0.00    -0.070 Cl
ATOM      8 Cl1  UNL d   1      -4.783  -6.000  -3.114  0.00  0.00    -0.070 Cl
ENDROOT
TORSDOF 0
ENDMDL
