MODEL 1
REMARK minimizedAffinity 1.08710337
REMARK minimizedRMSD -1
REMARK  0 active torsions:
REMARK  status: ('A' for Active; 'I' for Inactive)
ROOT
ATOM      1  C   UNL d   1       0.008  -5.841  -5.739  0.00  0.00     0.020 A 
ATOM      2  C1  UNL d   1      -1.362  -5.840  -6.000  0.00  0.00     0.020 A 
ATOM      3  C2  UNL d   1      -2.274  -5.883  -4.943  0.00  0.00     0.034 A 
ATOM      4  C3  UNL d   1      -1.817  -5.928  -3.621  0.00  0.00     0.017 A 
ATOM      5  C4  UNL d   1      -0.442  -5.929  -3.360  0.00  0.00     0.017 A 
ATOM      6  C5  UNL d   1       0.467  -5.885  -4.422  0.00  0.00     0.034 A 
ATOM      7 Cl   UNL d   1       0.197  -5.982  -1.755  0.00  0.00    -0.070 Cl
ATOM      8 Cl1  UNL d   1      -3.001  -5.980  -2.363  0.00  0.00    -0.070 Cl
ENDROOT
TORSDOF 0
ENDMDL
