MODEL 1
REMARK minimizedAffinity 4.46334696
REMARK minimizedRMSD -1
REMARK  0 active torsions:
REMARK  status: ('A' for Active; 'I' for Inactive)
ROOT
ATOM      1  C   UNL d   1      -5.267   1.487  -0.281  0.00  0.00     0.020 A 
ATOM      2  C1  UNL d   1      -5.977   1.264  -1.461  0.00  0.00     0.020 A 
ATOM      3  C2  UNL d   1      -5.688   0.148  -2.249  0.00  0.00     0.034 A 
ATOM      4  C3  UNL d   1      -4.686  -0.748  -1.859  0.00  0.00     0.017 A 
ATOM      5  C4  UNL d   1      -3.974  -0.523  -0.675  0.00  0.00     0.017 A 
ATOM      6  C5  UNL d   1      -4.268   0.595   0.110  0.00  0.00     0.034 A 
ATOM      7 Cl   UNL d   1      -2.725  -1.585  -0.129  0.00  0.00    -0.070 Cl
ATOM      8 Cl1  UNL d   1      -4.381  -2.107  -2.882  0.00  0.00    -0.070 Cl
ENDROOT
TORSDOF 0
ENDMDL
