MODEL 1
REMARK minimizedAffinity -2.59266448
REMARK minimizedRMSD -1
REMARK  0 active torsions:
REMARK  status: ('A' for Active; 'I' for Inactive)
ROOT
ATOM      1  C4' PXY d   1      -1.495  -0.748   3.328  0.00  0.00     0.077 C 
ATOM      2  C1' PXY d   1      -0.874   2.418  -1.468  0.00  0.00     0.077 C 
ATOM      3  C1  PXY d   1      -1.041   1.598  -0.204  0.00  0.00    -0.082 A 
ATOM      4  C2  PXY d   1      -0.319   0.502  -0.035  0.00  0.00     0.003 A 
ATOM      5  C3  PXY d   1      -0.481  -0.268   1.088  0.00  0.00     0.003 A 
ATOM      6  C4  PXY d   1      -1.352   0.115   2.072  0.00  0.00    -0.082 A 
ATOM      7  C5  PXY d   1      -2.085   1.238   1.911  0.00  0.00     0.003 A 
ATOM      8  C6  PXY d   1      -1.936   1.984   0.746  0.00  0.00     0.003 A 
ENDROOT
TORSDOF 0
ENDMDL
