MODEL 1
REMARK minimizedAffinity -2.63611674
REMARK minimizedRMSD -1
REMARK  0 active torsions:
REMARK  status: ('A' for Active; 'I' for Inactive)
ROOT
ATOM      1  C4' PXY d   1      -1.058   2.047   2.733  0.00  0.00     0.077 C 
ATOM      2  C1' PXY d   1       0.767  -1.847  -1.130  0.00  0.00     0.077 C 
ATOM      3  C1  PXY d   1       0.286  -0.836  -0.109  0.00  0.00    -0.082 A 
ATOM      4  C2  PXY d   1      -0.137   0.351  -0.512  0.00  0.00     0.003 A 
ATOM      5  C3  PXY d   1      -0.546   1.289   0.400  0.00  0.00     0.003 A 
ATOM      6  C4  PXY d   1      -0.572   0.991   1.736  0.00  0.00    -0.082 A 
ATOM      7  C5  PXY d   1      -0.152  -0.222   2.155  0.00  0.00     0.003 A 
ATOM      8  C6  PXY d   1       0.298  -1.145   1.216  0.00  0.00     0.003 A 
ENDROOT
TORSDOF 0
ENDMDL
