MODEL 1
REMARK minimizedAffinity 0.217522457
REMARK minimizedRMSD -1
REMARK  0 active torsions:
REMARK  status: ('A' for Active; 'I' for Inactive)
ROOT
ATOM      1  C4' PXY d   1       0.105  -1.983  -1.924  0.00  0.00     0.077 C 
ATOM      2  C1' PXY d   1      -0.813   1.527   2.577  0.00  0.00     0.077 C 
ATOM      3  C1  PXY d   1      -0.570   0.617   1.389  0.00  0.00    -0.082 A 
ATOM      4  C2  PXY d   1      -1.086  -0.602   1.382  0.00  0.00     0.003 A 
ATOM      5  C3  PXY d   1      -0.850  -1.449   0.331  0.00  0.00     0.003 A 
ATOM      6  C4  PXY d   1      -0.122  -1.027  -0.750  0.00  0.00    -0.082 A 
ATOM      7  C5  PXY d   1       0.398   0.219  -0.755  0.00  0.00     0.003 A 
ATOM      8  C6  PXY d   1       0.181   1.049   0.340  0.00  0.00     0.003 A 
ENDROOT
TORSDOF 0
ENDMDL
