MODEL 1
REMARK minimizedAffinity -3.62880588
REMARK minimizedRMSD -1
REMARK  0 active torsions:
REMARK  status: ('A' for Active; 'I' for Inactive)
ROOT
ATOM      1  C4' PXY d   1       1.486  -1.548  -1.148  0.00  0.00     0.077 C 
ATOM      2  C1' PXY d   1      -1.955   2.266   1.503  0.00  0.00     0.077 C 
ATOM      3  C1  PXY d   1      -1.060   1.267   0.797  0.00  0.00    -0.082 A 
ATOM      4  C2  PXY d   1      -0.372   0.388   1.508  0.00  0.00     0.003 A 
ATOM      5  C3  PXY d   1       0.467  -0.501   0.887  0.00  0.00     0.003 A 
ATOM      6  C4  PXY d   1       0.562  -0.527  -0.478  0.00  0.00    -0.082 A 
ATOM      7  C5  PXY d   1      -0.145   0.359  -1.211  0.00  0.00     0.003 A 
ATOM      8  C6  PXY d   1      -0.959   1.281  -0.560  0.00  0.00     0.003 A 
ENDROOT
TORSDOF 0
ENDMDL
