MODEL 1
REMARK minimizedAffinity -4.70094204
REMARK minimizedRMSD -1
REMARK  0 active torsions:
REMARK  status: ('A' for Active; 'I' for Inactive)
ROOT
ATOM      1  C4' PXY d   1       1.957  -0.538  -1.034  0.00  0.00     0.077 C 
ATOM      2  C1' PXY d   1      -2.491   2.045   1.602  0.00  0.00     0.077 C 
ATOM      3  C1  PXY d   1      -1.330   1.371   0.899  0.00  0.00    -0.082 A 
ATOM      4  C2  PXY d   1      -0.679   0.390   1.504  0.00  0.00     0.003 A 
ATOM      5  C3  PXY d   1       0.394  -0.208   0.896  0.00  0.00     0.003 A 
ATOM      6  C4  PXY d   1       0.772   0.164  -0.367  0.00  0.00    -0.082 A 
ATOM      7  C5  PXY d   1       0.107   1.157  -0.995  0.00  0.00     0.003 A 
ATOM      8  C6  PXY d   1      -0.954   1.780  -0.343  0.00  0.00     0.003 A 
ENDROOT
TORSDOF 0
ENDMDL
