MODEL 1
REMARK minimizedAffinity 0.229463667
REMARK minimizedRMSD -1
REMARK  0 active torsions:
REMARK  status: ('A' for Active; 'I' for Inactive)
ROOT
ATOM      1  C4' PXY d   1      -1.959   2.250   2.219  0.00  0.00     0.077 C 
ATOM      2  C1' PXY d   1       1.541  -1.622  -0.264  0.00  0.00     0.077 C 
ATOM      3  C1  PXY d   1       0.621  -0.615   0.397  0.00  0.00    -0.082 A 
ATOM      4  C2  PXY d   1       0.014   0.300  -0.342  0.00  0.00     0.003 A 
ATOM      5  C3  PXY d   1      -0.796   1.238   0.244  0.00  0.00     0.003 A 
ATOM      6  C4  PXY d   1      -1.029   1.207   1.593  0.00  0.00    -0.082 A 
ATOM      7  C5  PXY d   1      -0.422   0.271   2.352  0.00  0.00     0.003 A 
ATOM      8  C6  PXY d   1       0.429  -0.647   1.744  0.00  0.00     0.003 A 
ENDROOT
TORSDOF 0
ENDMDL
