MODEL 1
REMARK minimizedAffinity -3.89614463
REMARK minimizedRMSD -1
REMARK  0 active torsions:
REMARK  status: ('A' for Active; 'I' for Inactive)
ROOT
ATOM      1  C4' PXY d   1      -2.093   2.271   0.702  0.00  0.00     0.077 C 
ATOM      2  C1' PXY d   1       0.975  -2.058  -1.591  0.00  0.00     0.077 C 
ATOM      3  C1  PXY d   1       0.181  -0.915  -0.991  0.00  0.00    -0.082 A 
ATOM      4  C2  PXY d   1      -0.829  -1.176  -0.177  0.00  0.00     0.003 A 
ATOM      5  C3  PXY d   1      -1.578  -0.155   0.349  0.00  0.00     0.003 A 
ATOM      6  C4  PXY d   1      -1.257   1.149   0.080  0.00  0.00    -0.082 A 
ATOM      7  C5  PXY d   1      -0.221   1.424  -0.741  0.00  0.00     0.003 A 
ATOM      8  C6  PXY d   1       0.501   0.372  -1.297  0.00  0.00     0.003 A 
ENDROOT
TORSDOF 0
ENDMDL
