MODEL 1
REMARK minimizedAffinity -2.98466396
REMARK minimizedRMSD -1
REMARK  0 active torsions:
REMARK  status: ('A' for Active; 'I' for Inactive)
ROOT
ATOM      1  C4' PXY d   1       1.129  -2.400  -1.236  0.00  0.00     0.077 C 
ATOM      2  C1' PXY d   1      -0.978   2.963  -0.770  0.00  0.00     0.077 C 
ATOM      3  C1  PXY d   1      -0.418   1.560  -0.902  0.00  0.00    -0.082 A 
ATOM      4  C2  PXY d   1      -1.098   0.536  -0.413  0.00  0.00     0.003 A 
ATOM      5  C3  PXY d   1      -0.592  -0.736  -0.496  0.00  0.00     0.003 A 
ATOM      6  C4  PXY d   1       0.598  -0.968  -1.133  0.00  0.00    -0.082 A 
ATOM      7  C5  PXY d   1       1.292   0.071  -1.645  0.00  0.00     0.003 A 
ATOM      8  C6  PXY d   1       0.780   1.359  -1.514  0.00  0.00     0.003 A 
ENDROOT
TORSDOF 0
ENDMDL
