MODEL 1
REMARK minimizedAffinity 0.0382036343
REMARK minimizedRMSD -1
REMARK  0 active torsions:
REMARK  status: ('A' for Active; 'I' for Inactive)
ROOT
ATOM      1  C4' PXY d   1      -6.000  -1.744   0.997  0.00  0.00     0.077 C 
ATOM      2  C1' PXY d   1      -2.220  -2.406   5.320  0.00  0.00     0.077 C 
ATOM      3  C1  PXY d   1      -3.202  -2.227   4.179  0.00  0.00    -0.082 A 
ATOM      4  C2  PXY d   1      -4.500  -2.186   4.434  0.00  0.00     0.003 A 
ATOM      5  C3  PXY d   1      -5.403  -2.057   3.410  0.00  0.00     0.003 A 
ATOM      6  C4  PXY d   1      -4.972  -1.914   2.119  0.00  0.00    -0.082 A 
ATOM      7  C5  PXY d   1      -3.648  -1.943   1.853  0.00  0.00     0.003 A 
ATOM      8  C6  PXY d   1      -2.749  -2.117   2.901  0.00  0.00     0.003 A 
ENDROOT
TORSDOF 0
ENDMDL
