MODEL 1
REMARK minimizedAffinity 1.36159265
REMARK minimizedRMSD -1
REMARK  0 active torsions:
REMARK  status: ('A' for Active; 'I' for Inactive)
ROOT
ATOM      1  C4' PXY d   1       1.201   1.186  -0.919  0.00  0.00     0.077 C 
ATOM      2  C1' PXY d   1       0.416  -4.486  -1.707  0.00  0.00     0.077 C 
ATOM      3  C1  PXY d   1       0.624  -3.001  -1.488  0.00  0.00    -0.082 A 
ATOM      4  C2  PXY d   1       0.081  -2.133  -2.326  0.00  0.00     0.003 A 
ATOM      5  C3  PXY d   1       0.286  -0.788  -2.161  0.00  0.00     0.003 A 
ATOM      6  C4  PXY d   1       1.009  -0.322  -1.096  0.00  0.00    -0.082 A 
ATOM      7  C5  PXY d   1       1.558  -1.201  -0.230  0.00  0.00     0.003 A 
ATOM      8  C6  PXY d   1       1.373  -2.564  -0.438  0.00  0.00     0.003 A 
ENDROOT
TORSDOF 0
ENDMDL
