MODEL 1
REMARK minimizedAffinity -0.636842608
REMARK minimizedRMSD -1
REMARK  0 active torsions:
REMARK  status: ('A' for Active; 'I' for Inactive)
ROOT
ATOM      1  C4' PXY d   1      -5.999  -2.590   1.764  0.00  0.00     0.077 C 
ATOM      2  C1' PXY d   1      -2.069  -2.420   5.999  0.00  0.00     0.077 C 
ATOM      3  C1  PXY d   1      -3.091  -2.460   4.880  0.00  0.00    -0.082 A 
ATOM      4  C2  PXY d   1      -4.382  -2.457   5.172  0.00  0.00     0.003 A 
ATOM      5  C3  PXY d   1      -5.319  -2.525   4.174  0.00  0.00     0.003 A 
ATOM      6  C4  PXY d   1      -4.932  -2.542   2.861  0.00  0.00    -0.082 A 
ATOM      7  C5  PXY d   1      -3.618  -2.534   2.554  0.00  0.00     0.003 A 
ATOM      8  C6  PXY d   1      -2.682  -2.506   3.583  0.00  0.00     0.003 A 
ENDROOT
TORSDOF 0
ENDMDL
