MODEL 1
REMARK minimizedAffinity -0.662092984
REMARK minimizedRMSD -1
REMARK  0 active torsions:
REMARK  status: ('A' for Active; 'I' for Inactive)
ROOT
ATOM      1  C4' PXY d   1      -0.397   0.609  -0.777  0.00  0.00     0.077 C 
ATOM      2  C1' PXY d   1       0.929  -4.871  -2.054  0.00  0.00     0.077 C 
ATOM      3  C1  PXY d   1       0.586  -3.436  -1.707  0.00  0.00    -0.082 A 
ATOM      4  C2  PXY d   1      -0.376  -2.814  -2.369  0.00  0.00     0.003 A 
ATOM      5  C3  PXY d   1      -0.677  -1.506  -2.091  0.00  0.00     0.003 A 
ATOM      6  C4  PXY d   1      -0.023  -0.843  -1.087  0.00  0.00    -0.082 A 
ATOM      7  C5  PXY d   1       0.953  -1.474  -0.399  0.00  0.00     0.003 A 
ATOM      8  C6  PXY d   1       1.271  -2.789  -0.725  0.00  0.00     0.003 A 
ENDROOT
TORSDOF 0
ENDMDL
