MODEL 1
REMARK minimizedAffinity -1.13990486
REMARK minimizedRMSD -1
REMARK  0 active torsions:
REMARK  status: ('A' for Active; 'I' for Inactive)
ROOT
ATOM      1  C4' PXY d   1       0.342   1.501  -0.401  0.00  0.00     0.077 C 
ATOM      2  C1' PXY d   1       0.569  -4.187  -1.402  0.00  0.00     0.077 C 
ATOM      3  C1  PXY d   1       0.520  -2.696  -1.133  0.00  0.00    -0.082 A 
ATOM      4  C2  PXY d   1      -0.638  -2.059  -1.185  0.00  0.00     0.003 A 
ATOM      5  C3  PXY d   1      -0.696  -0.705  -0.975  0.00  0.00     0.003 A 
ATOM      6  C4  PXY d   1       0.437  -0.005  -0.657  0.00  0.00    -0.082 A 
ATOM      7  C5  PXY d   1       1.621  -0.650  -0.591  0.00  0.00     0.003 A 
ATOM      8  C6  PXY d   1       1.664  -2.017  -0.848  0.00  0.00     0.003 A 
ENDROOT
TORSDOF 0
ENDMDL
