MODEL 1
REMARK minimizedAffinity -4.70714092
REMARK minimizedRMSD -1
REMARK  0 active torsions:
REMARK  status: ('A' for Active; 'I' for Inactive)
ROOT
ATOM      1  C4' PXY d   1       0.389  -2.559  -2.394  0.00  0.00     0.077 C 
ATOM      2  C1' PXY d   1      -0.841   0.906   2.067  0.00  0.00     0.077 C 
ATOM      3  C1  PXY d   1      -0.512   0.007   0.891  0.00  0.00    -0.082 A 
ATOM      4  C2  PXY d   1      -1.245  -1.071   0.667  0.00  0.00     0.003 A 
ATOM      5  C3  PXY d   1      -0.943  -1.912  -0.373  0.00  0.00     0.003 A 
ATOM      6  C4  PXY d   1       0.088  -1.618  -1.224  0.00  0.00    -0.082 A 
ATOM      7  C5  PXY d   1       0.834  -0.513  -1.009  0.00  0.00     0.003 A 
ATOM      8  C6  PXY d   1       0.536   0.305   0.076  0.00  0.00     0.003 A 
ENDROOT
TORSDOF 0
ENDMDL
