MODEL 1
REMARK minimizedAffinity -4.49511909
REMARK minimizedRMSD -1
REMARK  0 active torsions:
REMARK  status: ('A' for Active; 'I' for Inactive)
ROOT
ATOM      1  C4' PXY d   1       0.817  -1.965  -1.471  0.00  0.00     0.077 C 
ATOM      2  C1' PXY d   1      -1.129   1.607   2.636  0.00  0.00     0.077 C 
ATOM      3  C1  PXY d   1      -0.627   0.676   1.550  0.00  0.00    -0.082 A 
ATOM      4  C2  PXY d   1      -0.081  -0.483   1.883  0.00  0.00     0.003 A 
ATOM      5  C3  PXY d   1       0.407  -1.323   0.916  0.00  0.00     0.003 A 
ATOM      6  C4  PXY d   1       0.288  -0.998  -0.409  0.00  0.00    -0.082 A 
ATOM      7  C5  PXY d   1      -0.277   0.178  -0.757  0.00  0.00     0.003 A 
ATOM      8  C6  PXY d   1      -0.730   1.035   0.242  0.00  0.00     0.003 A 
ENDROOT
TORSDOF 0
ENDMDL
