MODEL 1
REMARK minimizedAffinity -4.92311478
REMARK minimizedRMSD -1
REMARK  0 active torsions:
REMARK  status: ('A' for Active; 'I' for Inactive)
ROOT
ATOM      1  C4' PXY d   1       0.486  -1.434  -1.495  0.00  0.00     0.077 C 
ATOM      2  C1' PXY d   1      -1.133   1.803   3.012  0.00  0.00     0.077 C 
ATOM      3  C1  PXY d   1      -0.717   0.961   1.822  0.00  0.00    -0.082 A 
ATOM      4  C2  PXY d   1      -0.222  -0.250   2.019  0.00  0.00     0.003 A 
ATOM      5  C3  PXY d   1       0.189  -1.013   0.956  0.00  0.00     0.003 A 
ATOM      6  C4  PXY d   1       0.044  -0.552  -0.325  0.00  0.00    -0.082 A 
ATOM      7  C5  PXY d   1      -0.470   0.678  -0.535  0.00  0.00     0.003 A 
ATOM      8  C6  PXY d   1      -0.844   1.453   0.560  0.00  0.00     0.003 A 
ENDROOT
TORSDOF 0
ENDMDL
