MODEL 1
REMARK minimizedAffinity -4.82472515
REMARK minimizedRMSD -1
REMARK  0 active torsions:
REMARK  status: ('A' for Active; 'I' for Inactive)
ROOT
ATOM      1  C4' PXY d   1       0.603  -3.146  -2.645  0.00  0.00     0.077 C 
ATOM      2  C1' PXY d   1      -0.251   0.371   1.862  0.00  0.00     0.077 C 
ATOM      3  C1  PXY d   1      -0.036  -0.560   0.685  0.00  0.00    -0.082 A 
ATOM      4  C2  PXY d   1       1.097  -0.502   0.004  0.00  0.00     0.003 A 
ATOM      5  C3  PXY d   1       1.295  -1.314  -1.083  0.00  0.00     0.003 A 
ATOM      6  C4  PXY d   1       0.346  -2.232  -1.444  0.00  0.00    -0.082 A 
ATOM      7  C5  PXY d   1      -0.808  -2.305  -0.748  0.00  0.00     0.003 A 
ATOM      8  C6  PXY d   1      -1.007  -1.443   0.327  0.00  0.00     0.003 A 
ENDROOT
TORSDOF 0
ENDMDL
