MODEL 1
REMARK minimizedAffinity -2.28851295
REMARK minimizedRMSD -1
REMARK  0 active torsions:
REMARK  status: ('A' for Active; 'I' for Inactive)
ROOT
ATOM      1  C4' PXY d   1      -0.050  -2.957  -2.743  0.00  0.00     0.077 C 
ATOM      2  C1' PXY d   1      -0.726   1.142   1.277  0.00  0.00     0.077 C 
ATOM      3  C1  PXY d   1      -0.536   0.068   0.224  0.00  0.00    -0.082 A 
ATOM      4  C2  PXY d   1      -1.484  -0.142  -0.675  0.00  0.00     0.003 A 
ATOM      5  C3  PXY d   1      -1.342  -1.131  -1.615  0.00  0.00     0.003 A 
ATOM      6  C4  PXY d   1      -0.195  -1.877  -1.668  0.00  0.00    -0.082 A 
ATOM      7  C5  PXY d   1       0.781  -1.662  -0.760  0.00  0.00     0.003 A 
ATOM      8  C6  PXY d   1       0.600  -0.681   0.211  0.00  0.00     0.003 A 
ENDROOT
TORSDOF 0
ENDMDL
