MODEL 1
REMARK minimizedAffinity -4.37839937
REMARK minimizedRMSD -1
REMARK  0 active torsions:
REMARK  status: ('A' for Active; 'I' for Inactive)
ROOT
ATOM      1  C4' PXY d   1      -0.103   1.083  -0.459  0.00  0.00     0.077 C 
ATOM      2  C1' PXY d   1       0.676  -4.566  -1.406  0.00  0.00     0.077 C 
ATOM      3  C1  PXY d   1       0.460  -3.085  -1.164  0.00  0.00    -0.082 A 
ATOM      4  C2  PXY d   1       1.503  -2.296  -0.967  0.00  0.00     0.003 A 
ATOM      5  C3  PXY d   1       1.324  -0.960  -0.715  0.00  0.00     0.003 A 
ATOM      6  C4  PXY d   1       0.068  -0.417  -0.717  0.00  0.00    -0.082 A 
ATOM      7  C5  PXY d   1      -1.001  -1.214  -0.928  0.00  0.00     0.003 A 
ATOM      8  C6  PXY d   1      -0.801  -2.574  -1.141  0.00  0.00     0.003 A 
ENDROOT
TORSDOF 0
ENDMDL
