MODEL 1
REMARK minimizedAffinity -0.118229903
REMARK minimizedRMSD -1
REMARK  0 active torsions:
REMARK  status: ('A' for Active; 'I' for Inactive)
ROOT
ATOM      1  C   UNL d   1       0.951   0.502   2.274  0.00  0.00    -0.002 A 
ATOM      2  C1  UNL d   1       0.835  -0.544   1.369  0.00  0.00     0.010 A 
ATOM      3  C2  UNL d   1       0.348  -0.318   0.081  0.00  0.00     0.041 A 
ATOM      4  C3  UNL d   1      -0.022   0.990  -0.288  0.00  0.00    -0.075 A 
ATOM      5  S   UNL d   1      -0.642   1.505  -1.812  0.00  0.00     0.015 SA
ATOM      6  C4  UNL d   1      -0.767   3.125  -1.299  0.00  0.00     0.022 A 
ATOM      7  C5  UNL d   1      -0.350   3.288   0.001  0.00  0.00     0.026 A 
ATOM      8  C6  UNL d   1       0.087   2.060   0.605  0.00  0.00    -0.082 A 
ATOM      9  C7  UNL d   1       0.583   1.798   1.904  0.00  0.00     0.045 A 
ENDROOT
TORSDOF 0
ENDMDL
