MODEL 1
REMARK minimizedAffinity 6.78802395
REMARK minimizedRMSD -1
REMARK  0 active torsions:
REMARK  status: ('A' for Active; 'I' for Inactive)
ROOT
ATOM      1  C   UNL d   1      -0.549   0.666   0.874  0.00  0.00    -0.002 A 
ATOM      2  C1  UNL d   1      -0.121   0.057   2.045  0.00  0.00     0.010 A 
ATOM      3  C2  UNL d   1       0.680   0.750   2.955  0.00  0.00     0.041 A 
ATOM      4  C3  UNL d   1       1.045   2.080   2.667  0.00  0.00    -0.075 A 
ATOM      5  S   UNL d   1       2.018   3.124   3.634  0.00  0.00     0.015 SA
ATOM      6  C4  UNL d   1       1.888   4.404   2.516  0.00  0.00     0.022 A 
ATOM      7  C5  UNL d   1       1.124   4.060   1.426  0.00  0.00     0.026 A 
ATOM      8  C6  UNL d   1       0.626   2.715   1.495  0.00  0.00    -0.082 A 
ATOM      9  C7  UNL d   1      -0.184   1.986   0.592  0.00  0.00     0.045 A 
ENDROOT
TORSDOF 0
ENDMDL
