MODEL 1
REMARK minimizedAffinity 8.56547356
REMARK minimizedRMSD -1
REMARK  0 active torsions:
REMARK  status: ('A' for Active; 'I' for Inactive)
ROOT
ATOM      1  C   UNL d   1       0.300  -0.114  -0.529  0.00  0.00    -0.002 A 
ATOM      2  C1  UNL d   1      -0.723  -0.186   0.406  0.00  0.00     0.010 A 
ATOM      3  C2  UNL d   1      -0.444  -0.486   1.741  0.00  0.00     0.041 A 
ATOM      4  C3  UNL d   1       0.892  -0.713   2.124  0.00  0.00    -0.075 A 
ATOM      5  S   UNL d   1       1.471  -1.095   3.703  0.00  0.00     0.015 SA
ATOM      6  C4  UNL d   1       3.089  -1.171   3.173  0.00  0.00     0.022 A 
ATOM      7  C5  UNL d   1       3.203  -0.914   1.827  0.00  0.00     0.026 A 
ATOM      8  C6  UNL d   1       1.939  -0.645   1.201  0.00  0.00    -0.082 A 
ATOM      9  C7  UNL d   1       1.624  -0.340  -0.145  0.00  0.00     0.045 A 
ENDROOT
TORSDOF 0
ENDMDL
