MODEL 1
REMARK minimizedAffinity -1.85651064
REMARK minimizedRMSD -1
REMARK  0 active torsions:
REMARK  status: ('A' for Active; 'I' for Inactive)
ROOT
ATOM      1  C   UNL d   1      -1.184  -3.647  -1.458  0.00  0.00    -0.002 A 
ATOM      2  C1  UNL d   1      -0.297  -4.041  -0.466  0.00  0.00     0.010 A 
ATOM      3  C2  UNL d   1       0.406  -3.091   0.278  0.00  0.00     0.041 A 
ATOM      4  C3  UNL d   1       0.199  -1.724   0.006  0.00  0.00    -0.075 A 
ATOM      5  S   UNL d   1       0.949  -0.384   0.790  0.00  0.00     0.015 SA
ATOM      6  C4  UNL d   1       0.110   0.744  -0.173  0.00  0.00     0.022 A 
ATOM      7  C5  UNL d   1      -0.726   0.131  -1.076  0.00  0.00     0.026 A 
ATOM      8  C6  UNL d   1      -0.689  -1.302  -0.988  0.00  0.00    -0.082 A 
ATOM      9  C7  UNL d   1      -1.386  -2.290  -1.725  0.00  0.00     0.045 A 
ENDROOT
TORSDOF 0
ENDMDL
