MODEL 1
REMARK minimizedAffinity 9.05612564
REMARK minimizedRMSD -1
REMARK  0 active torsions:
REMARK  status: ('A' for Active; 'I' for Inactive)
ROOT
ATOM      1  C   UNL d   1      -5.795  -0.271   1.114  0.00  0.00    -0.002 A 
ATOM      2  C1  UNL d   1      -5.937  -1.559   0.617  0.00  0.00     0.010 A 
ATOM      3  C2  UNL d   1      -5.998  -2.652   1.483  0.00  0.00     0.041 A 
ATOM      4  C3  UNL d   1      -5.913  -2.427   2.871  0.00  0.00    -0.075 A 
ATOM      5  S   UNL d   1      -5.965  -3.613   4.122  0.00  0.00     0.015 SA
ATOM      6  C4  UNL d   1      -5.800  -2.438   5.345  0.00  0.00     0.022 A 
ATOM      7  C5  UNL d   1      -5.706  -1.166   4.830  0.00  0.00     0.026 A 
ATOM      8  C6  UNL d   1      -5.770  -1.139   3.396  0.00  0.00    -0.082 A 
ATOM      9  C7  UNL d   1      -5.711  -0.052   2.491  0.00  0.00     0.045 A 
ENDROOT
TORSDOF 0
ENDMDL
