MODEL 1
REMARK minimizedAffinity -0.452845633
REMARK minimizedRMSD -1
REMARK  0 active torsions:
REMARK  status: ('A' for Active; 'I' for Inactive)
ROOT
ATOM      1  C   UNL d   1      -3.292  -0.539  -2.398  0.00  0.00    -0.002 A 
ATOM      2  C1  UNL d   1      -2.784  -1.604  -1.668  0.00  0.00     0.010 A 
ATOM      3  C2  UNL d   1      -1.712  -1.418  -0.793  0.00  0.00     0.041 A 
ATOM      4  C3  UNL d   1      -1.155  -0.131  -0.661  0.00  0.00    -0.075 A 
ATOM      5  S   UNL d   1       0.162   0.333   0.350  0.00  0.00     0.015 SA
ATOM      6  C4  UNL d   1       0.081   1.956  -0.162  0.00  0.00     0.022 A 
ATOM      7  C5  UNL d   1      -0.921   2.157  -1.082  0.00  0.00     0.026 A 
ATOM      8  C6  UNL d   1      -1.650   0.958  -1.385  0.00  0.00    -0.082 A 
ATOM      9  C7  UNL d   1      -2.737   0.737  -2.264  0.00  0.00     0.045 A 
ENDROOT
TORSDOF 0
ENDMDL
