MODEL 1
REMARK minimizedAffinity -2.61482739
REMARK minimizedRMSD -1
REMARK  0 active torsions:
REMARK  status: ('A' for Active; 'I' for Inactive)
ROOT
ATOM      1  C   UNL d   1      -0.918  -2.650   0.317  0.00  0.00     0.172 C 
ATOM      2  N   UNL d   1      -0.619  -1.280  -0.028  0.00  0.00    -0.070 N 
ATOM      3  C1  UNL d   1      -1.028  -0.174   0.669  0.00  0.00    -0.004 A 
ATOM      4  C2  UNL d   1      -0.538   0.938   0.019  0.00  0.00    -0.047 A 
ATOM      5  C3  UNL d   1       0.188   0.486  -1.108  0.00  0.00    -0.047 A 
ATOM      6  C4  UNL d   1       0.122  -0.892  -1.113  0.00  0.00    -0.004 A 
ENDROOT
TORSDOF 0
ENDMDL
