MODEL 1
REMARK minimizedAffinity -4.11298084
REMARK minimizedRMSD -1
REMARK  0 active torsions:
REMARK  status: ('A' for Active; 'I' for Inactive)
ROOT
ATOM      1  C   UNL d   1       0.361   0.668  -0.587  0.00  0.00     0.172 C 
ATOM      2  N   UNL d   1       0.026  -0.656  -0.116  0.00  0.00    -0.070 N 
ATOM      3  C1  UNL d   1       0.475  -1.832  -0.655  0.00  0.00    -0.004 A 
ATOM      4  C2  UNL d   1      -0.069  -2.866   0.076  0.00  0.00    -0.047 A 
ATOM      5  C3  UNL d   1      -0.875  -2.291   1.088  0.00  0.00    -0.047 A 
ATOM      6  C4  UNL d   1      -0.798  -0.922   0.945  0.00  0.00    -0.004 A 
ENDROOT
TORSDOF 0
ENDMDL
