MODEL 1
REMARK minimizedAffinity -3.95010448
REMARK minimizedRMSD -1
REMARK  0 active torsions:
REMARK  status: ('A' for Active; 'I' for Inactive)
ROOT
ATOM      1  C   UNL d   1       0.422   0.563  -0.085  0.00  0.00     0.172 C 
ATOM      2  N   UNL d   1       0.251  -0.847   0.177  0.00  0.00    -0.070 N 
ATOM      3  C1  UNL d   1       1.231  -1.799   0.091  0.00  0.00    -0.004 A 
ATOM      4  C2  UNL d   1       0.669  -3.014   0.417  0.00  0.00    -0.047 A 
ATOM      5  C3  UNL d   1      -0.697  -2.784   0.708  0.00  0.00    -0.047 A 
ATOM      6  C4  UNL d   1      -0.928  -1.434   0.552  0.00  0.00    -0.004 A 
ENDROOT
TORSDOF 0
ENDMDL
