MODEL 1
REMARK minimizedAffinity -4.04418182
REMARK minimizedRMSD -1
REMARK  0 active torsions:
REMARK  status: ('A' for Active; 'I' for Inactive)
ROOT
ATOM      1  C   UNL d   1      -1.257  -0.174   0.471  0.00  0.00     0.172 C 
ATOM      2  N   UNL d   1      -0.569  -1.259  -0.189  0.00  0.00    -0.070 N 
ATOM      3  C1  UNL d   1       0.078  -1.178  -1.393  0.00  0.00    -0.004 A 
ATOM      4  C2  UNL d   1       0.602  -2.422  -1.674  0.00  0.00    -0.047 A 
ATOM      5  C3  UNL d   1       0.256  -3.279  -0.603  0.00  0.00    -0.047 A 
ATOM      6  C4  UNL d   1      -0.469  -2.533   0.303  0.00  0.00    -0.004 A 
ENDROOT
TORSDOF 0
ENDMDL
