MODEL 1
REMARK minimizedAffinity -3.75308752
REMARK minimizedRMSD -1
REMARK  0 active torsions:
REMARK  status: ('A' for Active; 'I' for Inactive)
ROOT
ATOM      1  C   UNL d   1       0.019  -3.019   0.383  0.00  0.00     0.172 C 
ATOM      2  N   UNL d   1      -0.342  -1.663   0.041  0.00  0.00    -0.070 N 
ATOM      3  C1  UNL d   1      -0.977  -0.774   0.865  0.00  0.00    -0.004 A 
ATOM      4  C2  UNL d   1      -1.140   0.405   0.170  0.00  0.00    -0.047 A 
ATOM      5  C3  UNL d   1      -0.583   0.217  -1.118  0.00  0.00    -0.047 A 
ATOM      6  C4  UNL d   1      -0.097  -1.072  -1.171  0.00  0.00    -0.004 A 
ENDROOT
TORSDOF 0
ENDMDL
