MODEL 1
REMARK minimizedAffinity -3.53872752
REMARK minimizedRMSD -1
REMARK  0 active torsions:
REMARK  status: ('A' for Active; 'I' for Inactive)
ROOT
ATOM      1  C   UNL d   1       0.023  -3.052   0.606  0.00  0.00     0.172 C 
ATOM      2  N   UNL d   1      -0.328  -1.661   0.436  0.00  0.00    -0.070 N 
ATOM      3  C1  UNL d   1       0.221  -0.805  -0.480  0.00  0.00    -0.004 A 
ATOM      4  C2  UNL d   1      -0.381   0.425  -0.323  0.00  0.00    -0.047 A 
ATOM      5  C3  UNL d   1      -1.324   0.303   0.725  0.00  0.00    -0.047 A 
ATOM      6  C4  UNL d   1      -1.271  -0.998   1.177  0.00  0.00    -0.004 A 
ENDROOT
TORSDOF 0
ENDMDL
