MODEL 1
REMARK minimizedAffinity -1.25962067
REMARK minimizedRMSD -1
REMARK  0 active torsions:
REMARK  status: ('A' for Active; 'I' for Inactive)
ROOT
ATOM      1  C   UNL d   1       0.807   2.901   0.202  0.00  0.00     0.172 C 
ATOM      2  N   UNL d   1       0.291   1.565   0.018  0.00  0.00    -0.070 N 
ATOM      3  C1  UNL d   1      -0.500   0.885   0.906  0.00  0.00    -0.004 A 
ATOM      4  C2  UNL d   1      -0.778  -0.351   0.364  0.00  0.00    -0.047 A 
ATOM      5  C3  UNL d   1      -0.131  -0.417  -0.893  0.00  0.00    -0.047 A 
ATOM      6  C4  UNL d   1       0.523   0.782  -1.082  0.00  0.00    -0.004 A 
ENDROOT
TORSDOF 0
ENDMDL
