MODEL 1
REMARK minimizedAffinity -3.54367352
REMARK minimizedRMSD -1
REMARK  0 active torsions:
REMARK  status: ('A' for Active; 'I' for Inactive)
ROOT
ATOM      1  C   UNL d   1       0.193  -2.863   0.529  0.00  0.00     0.172 C 
ATOM      2  N   UNL d   1      -0.024  -1.486   0.153  0.00  0.00    -0.070 N 
ATOM      3  C1  UNL d   1      -0.556  -0.513   0.957  0.00  0.00    -0.004 A 
ATOM      4  C2  UNL d   1      -0.597   0.658   0.231  0.00  0.00    -0.047 A 
ATOM      5  C3  UNL d   1      -0.072   0.379  -1.053  0.00  0.00    -0.047 A 
ATOM      6  C4  UNL d   1       0.274  -0.956  -1.075  0.00  0.00    -0.004 A 
ENDROOT
TORSDOF 0
ENDMDL
