MODEL 1
REMARK minimizedAffinity -3.54889393
REMARK minimizedRMSD -1
REMARK  0 active torsions:
REMARK  status: ('A' for Active; 'I' for Inactive)
ROOT
ATOM      1  C   UNL d   1      -0.276   0.800   0.391  0.00  0.00     0.172 C 
ATOM      2  N   UNL d   1      -0.112  -0.633   0.452  0.00  0.00    -0.070 N 
ATOM      3  C1  UNL d   1       0.276  -1.437  -0.586  0.00  0.00    -0.004 A 
ATOM      4  C2  UNL d   1       0.314  -2.735  -0.123  0.00  0.00    -0.047 A 
ATOM      5  C3  UNL d   1      -0.065  -2.710   1.240  0.00  0.00    -0.047 A 
ATOM      6  C4  UNL d   1      -0.323  -1.396   1.570  0.00  0.00    -0.004 A 
ENDROOT
TORSDOF 0
ENDMDL
