MODEL 1
REMARK minimizedAffinity -2.17394543
REMARK minimizedRMSD -1
REMARK  0 active torsions:
REMARK  status: ('A' for Active; 'I' for Inactive)
ROOT
ATOM      1  C   UNL d   1       0.276   1.153  -0.356  0.00  0.00     0.172 C 
ATOM      2  N   UNL d   1      -0.252  -0.155  -0.046  0.00  0.00    -0.070 N 
ATOM      3  C1  UNL d   1       0.227  -1.344  -0.528  0.00  0.00    -0.004 A 
ATOM      4  C2  UNL d   1      -0.545  -2.355   0.002  0.00  0.00    -0.047 A 
ATOM      5  C3  UNL d   1      -1.521  -1.753   0.830  0.00  0.00    -0.047 A 
ATOM      6  C4  UNL d   1      -1.317  -0.391   0.783  0.00  0.00    -0.004 A 
ENDROOT
TORSDOF 0
ENDMDL
