MODEL 1
REMARK minimizedAffinity -3.89696574
REMARK minimizedRMSD -1
REMARK  0 active torsions:
REMARK  status: ('A' for Active; 'I' for Inactive)
ROOT
ATOM      1  C   UNL d   1       0.505   1.298   0.097  0.00  0.00     0.172 C 
ATOM      2  N   UNL d   1       0.193  -0.086   0.366  0.00  0.00    -0.070 N 
ATOM      3  C1  UNL d   1       0.584  -1.155  -0.395  0.00  0.00    -0.004 A 
ATOM      4  C2  UNL d   1       0.087  -2.297   0.194  0.00  0.00    -0.047 A 
ATOM      5  C3  UNL d   1      -0.630  -1.900   1.348  0.00  0.00    -0.047 A 
ATOM      6  C4  UNL d   1      -0.548  -0.526   1.431  0.00  0.00    -0.004 A 
ENDROOT
TORSDOF 0
ENDMDL
