MODEL 1
REMARK minimizedAffinity -2.97624159
REMARK minimizedRMSD -1
REMARK  0 active torsions:
REMARK  status: ('A' for Active; 'I' for Inactive)
ROOT
ATOM      1  C   UNL d   1      -0.032   0.906  -0.213  0.00  0.00     0.172 C 
ATOM      2  N   UNL d   1      -0.119  -0.520  -0.004  0.00  0.00    -0.070 N 
ATOM      3  C1  UNL d   1       0.838  -1.437  -0.350  0.00  0.00    -0.004 A 
ATOM      4  C2  UNL d   1       0.379  -2.684   0.015  0.00  0.00    -0.047 A 
ATOM      5  C3  UNL d   1      -0.898  -2.511   0.600  0.00  0.00    -0.047 A 
ATOM      6  C4  UNL d   1      -1.181  -1.161   0.575  0.00  0.00    -0.004 A 
ENDROOT
TORSDOF 0
ENDMDL
