MODEL 1
REMARK minimizedAffinity -3.90177011
REMARK minimizedRMSD -1
REMARK  0 active torsions:
REMARK  status: ('A' for Active; 'I' for Inactive)
ROOT
ATOM      1  C   UNL d   1       0.006   0.945  -0.020  0.00  0.00     0.172 C 
ATOM      2  N   UNL d   1      -0.142  -0.477   0.179  0.00  0.00    -0.070 N 
ATOM      3  C1  UNL d   1      -0.629  -1.079   1.309  0.00  0.00    -0.004 A 
ATOM      4  C2  UNL d   1      -0.610  -2.442   1.103  0.00  0.00    -0.047 A 
ATOM      5  C3  UNL d   1      -0.092  -2.667  -0.195  0.00  0.00    -0.047 A 
ATOM      6  C4  UNL d   1       0.189  -1.434  -0.744  0.00  0.00    -0.004 A 
ENDROOT
TORSDOF 0
ENDMDL
