MODEL 1
REMARK minimizedAffinity -3.99524331
REMARK minimizedRMSD -1
REMARK  0 active torsions:
REMARK  status: ('A' for Active; 'I' for Inactive)
ROOT
ATOM      1  C   UNL d   1       0.259   0.822  -0.167  0.00  0.00     0.172 C 
ATOM      2  N   UNL d   1      -0.062  -0.541   0.183  0.00  0.00    -0.070 N 
ATOM      3  C1  UNL d   1      -1.061  -0.933   1.035  0.00  0.00    -0.004 A 
ATOM      4  C2  UNL d   1      -1.042  -2.309   1.103  0.00  0.00    -0.047 A 
ATOM      5  C3  UNL d   1       0.005  -2.760   0.265  0.00  0.00    -0.047 A 
ATOM      6  C4  UNL d   1       0.595  -1.645  -0.292  0.00  0.00    -0.004 A 
ENDROOT
TORSDOF 0
ENDMDL
