MODEL 1
REMARK minimizedAffinity -2.6036129
REMARK minimizedRMSD -1
REMARK  0 active torsions:
REMARK  status: ('A' for Active; 'I' for Inactive)
ROOT
ATOM      1  C   UNL d   1       0.386  -0.117  -1.475  0.00  0.00     0.172 C 
ATOM      2  N   UNL d   1       0.460  -1.353  -0.732  0.00  0.00    -0.070 N 
ATOM      3  C1  UNL d   1      -0.606  -2.032  -0.204  0.00  0.00    -0.004 A 
ATOM      4  C2  UNL d   1      -0.120  -3.158   0.425  0.00  0.00    -0.047 A 
ATOM      5  C3  UNL d   1       1.287  -3.155   0.271  0.00  0.00    -0.047 A 
ATOM      6  C4  UNL d   1       1.619  -2.027  -0.449  0.00  0.00    -0.004 A 
ENDROOT
TORSDOF 0
ENDMDL
