MODEL 1
REMARK minimizedAffinity -3.29675913
REMARK minimizedRMSD -1
REMARK  0 active torsions:
REMARK  status: ('A' for Active; 'I' for Inactive)
ROOT
ATOM      1  C   UNL d   1       0.014  -1.863  -2.767  0.00  0.00     0.172 C 
ATOM      2  N   UNL d   1      -0.179  -1.859  -1.336  0.00  0.00    -0.070 N 
ATOM      3  C1  UNL d   1      -0.546  -2.939  -0.578  0.00  0.00    -0.004 A 
ATOM      4  C2  UNL d   1      -0.622  -2.526   0.735  0.00  0.00    -0.047 A 
ATOM      5  C3  UNL d   1      -0.289  -1.151   0.766  0.00  0.00    -0.047 A 
ATOM      6  C4  UNL d   1      -0.019  -0.764  -0.529  0.00  0.00    -0.004 A 
ENDROOT
TORSDOF 0
ENDMDL
