MODEL 1
REMARK minimizedAffinity 8.46928406
REMARK minimizedRMSD -1
REMARK  1 active torsions:
REMARK  status: ('A' for Active; 'I' for Inactive)
REMARK    1  A    between atoms: C1_2  and  C2_3 
ROOT
ATOM      1  C2  UNL d   1       1.387  -3.176   0.749  0.00  0.00    -0.076 A 
ATOM      2  C3  UNL d   1       1.349  -1.778   0.888  0.00  0.00     0.004 A 
ATOM      3  C4  UNL d   1       0.251  -1.145   1.469  0.00  0.00    -0.003 A 
ATOM      4  C5  UNL d   1      -0.825  -1.900   1.921  0.00  0.00     0.000 A 
ATOM      5  C6  UNL d   1      -0.796  -3.290   1.807  0.00  0.00     0.000 A 
ATOM      6  C7  UNL d   1       0.310  -3.945   1.238  0.00  0.00    -0.073 A 
ATOM      7  C8  UNL d   1       0.285  -5.445   1.135  0.00  0.00     0.078 C 
ENDROOT
BRANCH   1   8
ATOM      8  C1  UNL d   1       2.592  -3.805   0.086  0.00  0.00     0.053 C 
ATOM      9  C   UNL d   1       3.673  -4.188   1.085  0.00  0.00     0.018 C 
ENDBRANCH   1   8
TORSDOF 1
ENDMDL
