MODEL 1
REMARK minimizedAffinity 4.71127462
REMARK minimizedRMSD -1
REMARK  1 active torsions:
REMARK  status: ('A' for Active; 'I' for Inactive)
REMARK    1  A    between atoms: C1_2  and  C2_3 
ROOT
ATOM      1  C2  UNL d   1       3.261  -4.253   0.414  0.00  0.00    -0.076 A 
ATOM      2  C3  UNL d   1       4.223  -3.511  -0.293  0.00  0.00     0.004 A 
ATOM      3  C4  UNL d   1       5.581  -3.640  -0.005  0.00  0.00    -0.003 A 
ATOM      4  C5  UNL d   1       5.998  -4.513   0.994  0.00  0.00     0.000 A 
ATOM      5  C6  UNL d   1       5.058  -5.269   1.694  0.00  0.00     0.000 A 
ATOM      6  C7  UNL d   1       3.687  -5.163   1.405  0.00  0.00    -0.073 A 
ATOM      7  C8  UNL d   1       2.716  -5.998   2.194  0.00  0.00     0.078 C 
ENDROOT
BRANCH   1   8
ATOM      8  C1  UNL d   1       1.800  -4.051   0.077  0.00  0.00     0.053 C 
ATOM      9  C   UNL d   1       1.383  -2.590   0.143  0.00  0.00     0.018 C 
ENDBRANCH   1   8
TORSDOF 1
ENDMDL
