MODEL 1
REMARK minimizedAffinity -6.64328289
REMARK minimizedRMSD -1
REMARK  1 active torsions:
REMARK  status: ('A' for Active; 'I' for Inactive)
REMARK    1  A    between atoms: C1_2  and  C2_3 
ROOT
ATOM      1  C2  UNL d   1      -3.628   0.696  -3.490  0.00  0.00    -0.076 A 
ATOM      2  C3  UNL d   1      -4.600   0.869  -4.491  0.00  0.00     0.004 A 
ATOM      3  C4  UNL d   1      -4.975  -0.188  -5.318  0.00  0.00    -0.003 A 
ATOM      4  C5  UNL d   1      -4.383  -1.437  -5.158  0.00  0.00     0.000 A 
ATOM      5  C6  UNL d   1      -3.430  -1.631  -4.159  0.00  0.00     0.000 A 
ATOM      6  C7  UNL d   1      -3.053  -0.580  -3.306  0.00  0.00    -0.073 A 
ATOM      7  C8  UNL d   1      -2.016  -0.844  -2.249  0.00  0.00     0.078 C 
ENDROOT
BRANCH   1   8
ATOM      8  C1  UNL d   1      -3.243   1.886  -2.641  0.00  0.00     0.053 C 
ATOM      9  C   UNL d   1      -3.972   3.156  -3.052  0.00  0.00     0.018 C 
ENDBRANCH   1   8
TORSDOF 1
ENDMDL
