MODEL 1
REMARK minimizedAffinity 3.55295372
REMARK minimizedRMSD -1
REMARK  1 active torsions:
REMARK  status: ('A' for Active; 'I' for Inactive)
REMARK    1  A    between atoms: C1_2  and  C2_3 
ROOT
ATOM      1  C2  UNL d   1       2.032  -1.168   0.966  0.00  0.00    -0.076 A 
ATOM      2  C3  UNL d   1       2.946  -0.648   0.033  0.00  0.00     0.004 A 
ATOM      3  C4  UNL d   1       3.185   0.723  -0.049  0.00  0.00    -0.003 A 
ATOM      4  C5  UNL d   1       2.514   1.596   0.800  0.00  0.00     0.000 A 
ATOM      5  C6  UNL d   1       1.617   1.096   1.743  0.00  0.00     0.000 A 
ATOM      6  C7  UNL d   1       1.377  -0.285   1.850  0.00  0.00    -0.073 A 
ATOM      7  C8  UNL d   1       0.394  -0.769   2.882  0.00  0.00     0.078 C 
ENDROOT
BRANCH   1   8
ATOM      8  C1  UNL d   1       1.794  -2.661   0.992  0.00  0.00     0.053 C 
ATOM      9  C   UNL d   1       3.056  -3.447   1.310  0.00  0.00     0.018 C 
ENDBRANCH   1   8
TORSDOF 1
ENDMDL
