MODEL 1
REMARK minimizedAffinity 0.356042594
REMARK minimizedRMSD -1
REMARK  1 active torsions:
REMARK  status: ('A' for Active; 'I' for Inactive)
REMARK    1  A    between atoms: C1_2  and  C2_3 
ROOT
ATOM      1  C2  UNL d   1       2.451   5.959   4.607  0.00  0.00    -0.076 A 
ATOM      2  C3  UNL d   1       3.112   5.972   5.847  0.00  0.00     0.004 A 
ATOM      3  C4  UNL d   1       4.504   5.988   5.919  0.00  0.00    -0.003 A 
ATOM      4  C5  UNL d   1       5.258   5.993   4.751  0.00  0.00     0.000 A 
ATOM      5  C6  UNL d   1       4.619   5.999   3.511  0.00  0.00     0.000 A 
ATOM      6  C7  UNL d   1       3.217   5.998   3.421  0.00  0.00    -0.073 A 
ATOM      7  C8  UNL d   1       2.581   5.998   2.058  0.00  0.00     0.078 C 
ENDROOT
BRANCH   1   8
ATOM      8  C1  UNL d   1       0.940   5.914   4.591  0.00  0.00     0.053 C 
ATOM      9  C   UNL d   1       0.356   5.493   5.931  0.00  0.00     0.018 C 
ENDBRANCH   1   8
TORSDOF 1
ENDMDL
