MODEL 1
REMARK minimizedAffinity 15.6874733
REMARK minimizedRMSD -1
REMARK  1 active torsions:
REMARK  status: ('A' for Active; 'I' for Inactive)
REMARK    1  A    between atoms: C1_2  and  C2_3 
ROOT
ATOM      1  C2  UNL d   1       3.897   0.916  -0.683  0.00  0.00    -0.077 A 
ATOM      2  C3  UNL d   1       2.821   1.614  -0.116  0.00  0.00     0.002 A 
ATOM      3  C4  UNL d   1       2.302   1.228   1.121  0.00  0.00     0.002 A 
ATOM      4  C5  UNL d   1       2.855   0.147   1.804  0.00  0.00    -0.004 A 
ATOM      5  C6  UNL d   1       3.924  -0.555   1.248  0.00  0.00     0.002 A 
ATOM      6  C7  UNL d   1       4.443  -0.172   0.011  0.00  0.00     0.002 A 
ENDROOT
BRANCH   1   7
ATOM      7  C1  UNL d   1       4.490   1.361  -1.994  0.00  0.00     0.055 C 
ATOM      8  C   UNL d   1       3.688   2.501  -2.606  0.00  0.00     0.019 C 
ENDBRANCH   1   7
TORSDOF 1
ENDMDL
