MODEL 1
REMARK minimizedAffinity 11.8466129
REMARK minimizedRMSD -1
REMARK  1 active torsions:
REMARK  status: ('A' for Active; 'I' for Inactive)
REMARK    1  A    between atoms: C1_2  and  C2_3 
ROOT
ATOM      1  C2  UNL d   1      -2.270  -3.529   0.846  0.00  0.00    -0.077 A 
ATOM      2  C3  UNL d   1      -1.139  -3.644   1.667  0.00  0.00     0.002 A 
ATOM      3  C4  UNL d   1      -0.800  -4.874   2.234  0.00  0.00     0.002 A 
ATOM      4  C5  UNL d   1      -1.583  -5.998   1.983  0.00  0.00    -0.004 A 
ATOM      5  C6  UNL d   1      -2.710  -5.894   1.169  0.00  0.00     0.002 A 
ATOM      6  C7  UNL d   1      -3.052  -4.665   0.602  0.00  0.00     0.002 A 
ENDROOT
BRANCH   1   7
ATOM      7  C1  UNL d   1      -2.609  -2.214   0.194  0.00  0.00     0.055 C 
ATOM      8  C   UNL d   1      -1.857  -2.036  -1.117  0.00  0.00     0.019 C 
ENDBRANCH   1   7
TORSDOF 1
ENDMDL
