MODEL 1
REMARK minimizedAffinity 15.5518951
REMARK minimizedRMSD -1
REMARK  1 active torsions:
REMARK  status: ('A' for Active; 'I' for Inactive)
REMARK    1  A    between atoms: C1_2  and  C2_3 
ROOT
ATOM      1  C2  UNL d   1      -1.052  -1.616   2.931  0.00  0.00    -0.077 A 
ATOM      2  C3  UNL d   1      -0.267  -0.501   2.607  0.00  0.00     0.002 A 
ATOM      3  C4  UNL d   1       0.300   0.281   3.615  0.00  0.00     0.002 A 
ATOM      4  C5  UNL d   1       0.091  -0.047   4.953  0.00  0.00    -0.004 A 
ATOM      5  C6  UNL d   1      -0.690  -1.153   5.286  0.00  0.00     0.002 A 
ATOM      6  C7  UNL d   1      -1.258  -1.935   4.279  0.00  0.00     0.002 A 
ENDROOT
BRANCH   1   7
ATOM      7  C1  UNL d   1      -1.624  -2.489   1.844  0.00  0.00     0.055 C 
ATOM      8  C   UNL d   1      -1.411  -1.873   0.469  0.00  0.00     0.019 C 
ENDBRANCH   1   7
TORSDOF 1
ENDMDL
