MODEL 1
REMARK minimizedAffinity 9.98201084
REMARK minimizedRMSD -1
REMARK  1 active torsions:
REMARK  status: ('A' for Active; 'I' for Inactive)
REMARK    1  A    between atoms: C1_2  and  C2_3 
ROOT
ATOM      1  C2  UNL d   1       3.092   3.704  -3.844  0.00  0.00    -0.077 A 
ATOM      2  C3  UNL d   1       1.969   3.713  -4.683  0.00  0.00     0.002 A 
ATOM      3  C4  UNL d   1       1.642   4.856  -5.414  0.00  0.00     0.002 A 
ATOM      4  C5  UNL d   1       2.436   5.998  -5.317  0.00  0.00    -0.004 A 
ATOM      5  C6  UNL d   1       3.554   6.000  -4.484  0.00  0.00     0.002 A 
ATOM      6  C7  UNL d   1       3.881   4.858  -3.752  0.00  0.00     0.002 A 
ENDROOT
BRANCH   1   7
ATOM      7  C1  UNL d   1       3.475   2.455  -3.093  0.00  0.00     0.055 C 
ATOM      8  C   UNL d   1       3.820   2.765  -1.644  0.00  0.00     0.019 C 
ENDBRANCH   1   7
TORSDOF 1
ENDMDL
