MODEL 1
REMARK minimizedAffinity 8.37810326
REMARK minimizedRMSD -1
REMARK  1 active torsions:
REMARK  status: ('A' for Active; 'I' for Inactive)
REMARK    1  A    between atoms: C1_2  and  C2_3 
ROOT
ATOM      1  C2  UNL d   1       3.354  -1.167   2.318  0.00  0.00    -0.077 A 
ATOM      2  C3  UNL d   1       2.628  -0.572   1.277  0.00  0.00     0.002 A 
ATOM      3  C4  UNL d   1       1.255  -0.354   1.409  0.00  0.00     0.002 A 
ATOM      4  C5  UNL d   1       0.598  -0.724   2.581  0.00  0.00    -0.004 A 
ATOM      5  C6  UNL d   1       1.311  -1.318   3.621  0.00  0.00     0.002 A 
ATOM      6  C7  UNL d   1       2.683  -1.538   3.490  0.00  0.00     0.002 A 
ENDROOT
BRANCH   1   7
ATOM      7  C1  UNL d   1       4.844  -1.358   2.198  0.00  0.00     0.055 C 
ATOM      8  C   UNL d   1       5.515  -1.347   3.563  0.00  0.00     0.019 C 
ENDBRANCH   1   7
TORSDOF 1
ENDMDL
