MODEL 1
REMARK minimizedAffinity 7.79941463
REMARK minimizedRMSD -1
REMARK  1 active torsions:
REMARK  status: ('A' for Active; 'I' for Inactive)
REMARK    1  A    between atoms: C1_2  and  C2_3 
ROOT
ATOM      1  C2  UNL d   1      -3.407  -3.900  -1.075  0.00  0.00    -0.077 A 
ATOM      2  C3  UNL d   1      -2.801  -3.534   0.134  0.00  0.00     0.002 A 
ATOM      3  C4  UNL d   1      -2.842  -4.394   1.233  0.00  0.00     0.002 A 
ATOM      4  C5  UNL d   1      -3.484  -5.626   1.132  0.00  0.00    -0.004 A 
ATOM      5  C6  UNL d   1      -4.091  -5.999  -0.066  0.00  0.00     0.002 A 
ATOM      6  C7  UNL d   1      -4.053  -5.140  -1.165  0.00  0.00     0.002 A 
ENDROOT
BRANCH   1   7
ATOM      7  C1  UNL d   1      -3.322  -2.995  -2.277  0.00  0.00     0.055 C 
ATOM      8  C   UNL d   1      -2.030  -2.191  -2.273  0.00  0.00     0.019 C 
ENDBRANCH   1   7
TORSDOF 1
ENDMDL
