MODEL 1
REMARK minimizedAffinity 8.15609074
REMARK minimizedRMSD -1
REMARK  1 active torsions:
REMARK  status: ('A' for Active; 'I' for Inactive)
REMARK    1  A    between atoms: C1_2  and  C2_3 
ROOT
ATOM      1  C2  UNL d   1      -1.970  -2.245  -1.426  0.00  0.00    -0.077 A 
ATOM      2  C3  UNL d   1      -0.782  -2.450  -0.712  0.00  0.00     0.002 A 
ATOM      3  C4  UNL d   1      -0.796  -2.498   0.684  0.00  0.00     0.002 A 
ATOM      4  C5  UNL d   1      -1.996  -2.347   1.375  0.00  0.00    -0.004 A 
ATOM      5  C6  UNL d   1      -3.183  -2.141   0.674  0.00  0.00     0.002 A 
ATOM      6  C7  UNL d   1      -3.170  -2.091  -0.721  0.00  0.00     0.002 A 
ENDROOT
BRANCH   1   7
ATOM      7  C1  UNL d   1      -1.964  -2.242  -2.933  0.00  0.00     0.055 C 
ATOM      8  C   UNL d   1      -0.838  -3.103  -3.484  0.00  0.00     0.019 C 
ENDBRANCH   1   7
TORSDOF 1
ENDMDL
