MODEL 1
REMARK minimizedAffinity 2.26294684
REMARK minimizedRMSD -1
REMARK  1 active torsions:
REMARK  status: ('A' for Active; 'I' for Inactive)
REMARK    1  A    between atoms: C1_2  and  C2_3 
ROOT
ATOM      1  C2  UNL d   1       4.207   2.041   0.724  0.00  0.00    -0.077 A 
ATOM      2  C3  UNL d   1       5.116   2.120  -0.340  0.00  0.00     0.002 A 
ATOM      3  C4  UNL d   1       5.983   1.059  -0.608  0.00  0.00     0.002 A 
ATOM      4  C5  UNL d   1       5.946  -0.090   0.179  0.00  0.00    -0.004 A 
ATOM      5  C6  UNL d   1       5.046  -0.177   1.241  0.00  0.00     0.002 A 
ATOM      6  C7  UNL d   1       4.180   0.883   1.512  0.00  0.00     0.002 A 
ENDROOT
BRANCH   1   7
ATOM      7  C1  UNL d   1       3.237   3.164   0.985  0.00  0.00     0.055 C 
ATOM      8  C   UNL d   1       1.797   2.675   0.938  0.00  0.00     0.019 C 
ENDBRANCH   1   7
TORSDOF 1
ENDMDL
