MODEL 1
REMARK minimizedAffinity 4.15738678
REMARK minimizedRMSD -1
REMARK  1 active torsions:
REMARK  status: ('A' for Active; 'I' for Inactive)
REMARK    1  A    between atoms: C1_2  and  C2_3 
ROOT
ATOM      1  C2  UNL d   1       2.754   0.844   1.885  0.00  0.00    -0.077 A 
ATOM      2  C3  UNL d   1       3.706   1.271   0.949  0.00  0.00     0.002 A 
ATOM      3  C4  UNL d   1       4.947   0.636   0.864  0.00  0.00     0.002 A 
ATOM      4  C5  UNL d   1       5.245  -0.431   1.709  0.00  0.00    -0.004 A 
ATOM      5  C6  UNL d   1       4.305  -0.861   2.645  0.00  0.00     0.002 A 
ATOM      6  C7  UNL d   1       3.065  -0.228   2.732  0.00  0.00     0.002 A 
ENDROOT
BRANCH   1   7
ATOM      7  C1  UNL d   1       1.396   1.495   1.944  0.00  0.00     0.055 C 
ATOM      8  C   UNL d   1       0.616   1.038   3.168  0.00  0.00     0.019 C 
ENDBRANCH   1   7
TORSDOF 1
ENDMDL
