MODEL 1
REMARK minimizedAffinity 12.7394695
REMARK minimizedRMSD -1
REMARK  1 active torsions:
REMARK  status: ('A' for Active; 'I' for Inactive)
REMARK    1  A    between atoms: C1_2  and  C2_3 
ROOT
ATOM      1  C2  UNL d   1      -3.376  -4.883  -1.886  0.00  0.00    -0.077 A 
ATOM      2  C3  UNL d   1      -3.773  -3.549  -1.721  0.00  0.00     0.002 A 
ATOM      3  C4  UNL d   1      -3.055  -2.518  -2.332  0.00  0.00     0.002 A 
ATOM      4  C5  UNL d   1      -1.940  -2.812  -3.113  0.00  0.00    -0.004 A 
ATOM      5  C6  UNL d   1      -1.536  -4.136  -3.281  0.00  0.00     0.002 A 
ATOM      6  C7  UNL d   1      -2.252  -5.167  -2.671  0.00  0.00     0.002 A 
ENDROOT
BRANCH   1   7
ATOM      7  C1  UNL d   1      -4.178  -6.000  -1.269  0.00  0.00     0.055 C 
ATOM      8  C   UNL d   1      -4.065  -5.989   0.249  0.00  0.00     0.019 C 
ENDBRANCH   1   7
TORSDOF 1
ENDMDL
