MODEL 1
REMARK minimizedAffinity 14.0361347
REMARK minimizedRMSD -1
REMARK  1 active torsions:
REMARK  status: ('A' for Active; 'I' for Inactive)
REMARK    1  A    between atoms: C1_2  and  C2_3 
ROOT
ATOM      1  C2  UNL d   1      -1.496  -2.291  -3.566  0.00  0.00    -0.077 A 
ATOM      2  C3  UNL d   1      -1.717  -1.551  -4.736  0.00  0.00     0.002 A 
ATOM      3  C4  UNL d   1      -1.153  -1.959  -5.946  0.00  0.00     0.002 A 
ATOM      4  C5  UNL d   1      -0.369  -3.110  -5.999  0.00  0.00    -0.004 A 
ATOM      5  C6  UNL d   1      -0.142  -3.851  -4.841  0.00  0.00     0.002 A 
ATOM      6  C7  UNL d   1      -0.703  -3.445  -3.629  0.00  0.00     0.002 A 
ENDROOT
BRANCH   1   7
ATOM      7  C1  UNL d   1      -2.143  -1.881  -2.269  0.00  0.00     0.055 C 
ATOM      8  C   UNL d   1      -3.235  -2.859  -1.861  0.00  0.00     0.019 C 
ENDBRANCH   1   7
TORSDOF 1
ENDMDL
