MODEL 1
REMARK minimizedAffinity 12.7615547
REMARK minimizedRMSD -1
REMARK  1 active torsions:
REMARK  status: ('A' for Active; 'I' for Inactive)
REMARK    1  A    between atoms: C1_2  and  C2_3 
ROOT
ATOM      1  C2  UNL d   1      -3.605  -3.667  -2.313  0.00  0.00    -0.077 A 
ATOM      2  C3  UNL d   1      -4.852  -3.322  -2.852  0.00  0.00     0.002 A 
ATOM      3  C4  UNL d   1      -5.917  -4.224  -2.803  0.00  0.00     0.002 A 
ATOM      4  C5  UNL d   1      -5.747  -5.474  -2.211  0.00  0.00    -0.004 A 
ATOM      5  C6  UNL d   1      -4.510  -5.827  -1.673  0.00  0.00     0.002 A 
ATOM      6  C7  UNL d   1      -3.444  -4.928  -1.723  0.00  0.00     0.002 A 
ENDROOT
BRANCH   1   7
ATOM      7  C1  UNL d   1      -2.469  -2.678  -2.322  0.00  0.00     0.055 C 
ATOM      8  C   UNL d   1      -2.075  -2.275  -0.908  0.00  0.00     0.019 C 
ENDBRANCH   1   7
TORSDOF 1
ENDMDL
