MODEL 1
REMARK minimizedAffinity 11.4514751
REMARK minimizedRMSD -1
REMARK  1 active torsions:
REMARK  status: ('A' for Active; 'I' for Inactive)
REMARK    1  A    between atoms: C1_2  and  C2_3 
ROOT
ATOM      1  C2  UNL d   1       3.410   1.530  -0.219  0.00  0.00    -0.077 A 
ATOM      2  C3  UNL d   1       3.724   0.327   0.428  0.00  0.00     0.002 A 
ATOM      3  C4  UNL d   1       2.835  -0.235   1.346  0.00  0.00     0.002 A 
ATOM      4  C5  UNL d   1       1.625   0.397   1.623  0.00  0.00    -0.004 A 
ATOM      5  C6  UNL d   1       1.304   1.595   0.986  0.00  0.00     0.002 A 
ATOM      6  C7  UNL d   1       2.192   2.159   0.069  0.00  0.00     0.002 A 
ENDROOT
BRANCH   1   7
ATOM      7  C1  UNL d   1       4.345   2.112  -1.246  0.00  0.00     0.055 C 
ATOM      8  C   UNL d   1       3.598   2.519  -2.508  0.00  0.00     0.019 C 
ENDBRANCH   1   7
TORSDOF 1
ENDMDL
