MODEL 1
REMARK minimizedAffinity 11.8378315
REMARK minimizedRMSD -1
REMARK  1 active torsions:
REMARK  status: ('A' for Active; 'I' for Inactive)
REMARK    1  A    between atoms: C1_2  and  C2_3 
ROOT
ATOM      1  C2  UNL d   1       3.609   1.574  -2.821  0.00  0.00    -0.077 A 
ATOM      2  C3  UNL d   1       4.802   1.540  -2.086  0.00  0.00     0.002 A 
ATOM      3  C4  UNL d   1       5.992   1.127  -2.689  0.00  0.00     0.002 A 
ATOM      4  C5  UNL d   1       6.000   0.749  -4.030  0.00  0.00    -0.004 A 
ATOM      5  C6  UNL d   1       4.818   0.778  -4.769  0.00  0.00     0.002 A 
ATOM      6  C7  UNL d   1       3.628   1.189  -4.167  0.00  0.00     0.002 A 
ENDROOT
BRANCH   1   7
ATOM      7  C1  UNL d   1       2.335   2.066  -2.185  0.00  0.00     0.055 C 
ATOM      8  C   UNL d   1       2.619   3.098  -1.103  0.00  0.00     0.019 C 
ENDBRANCH   1   7
TORSDOF 1
ENDMDL
