MODEL 1
REMARK minimizedAffinity -1.36749768
REMARK minimizedRMSD -1
REMARK  1 active torsions:
REMARK  status: ('A' for Active; 'I' for Inactive)
REMARK    1  A    between atoms: C1_2  and  C2_3 
ROOT
ATOM      1  C2  UNL d   1       4.329   3.394  -4.206  0.00  0.00    -0.077 A 
ATOM      2  C3  UNL d   1       3.112   3.669  -3.568  0.00  0.00     0.002 A 
ATOM      3  C4  UNL d   1       2.201   4.560  -4.139  0.00  0.00     0.002 A 
ATOM      4  C5  UNL d   1       2.495   5.179  -5.351  0.00  0.00    -0.004 A 
ATOM      5  C6  UNL d   1       3.704   4.914  -5.993  0.00  0.00     0.002 A 
ATOM      6  C7  UNL d   1       4.617   4.024  -5.424  0.00  0.00     0.002 A 
ENDROOT
BRANCH   1   7
ATOM      7  C1  UNL d   1       5.292   2.396  -3.617  0.00  0.00     0.055 C 
ATOM      8  C   UNL d   1       5.234   2.403  -2.096  0.00  0.00     0.019 C 
ENDBRANCH   1   7
TORSDOF 1
ENDMDL
