MODEL 1
REMARK minimizedAffinity -5.35474205
REMARK minimizedRMSD -1
REMARK  0 active torsions:
REMARK  status: ('A' for Active; 'I' for Inactive)
ROOT
ATOM      1  C   UNL d   1      -0.278   1.223  -0.336  0.00  0.00     0.078 C 
ATOM      2  C1  UNL d   1      -1.055   0.193   0.429  0.00  0.00    -0.077 A 
ATOM      3  C2  UNL d   1      -2.214   0.540   1.133  0.00  0.00    -0.001 A 
ATOM      4  C3  UNL d   1      -2.922  -0.427   1.849  0.00  0.00     0.003 A 
ATOM      5  C4  UNL d   1      -2.477  -1.748   1.868  0.00  0.00    -0.005 A 
ATOM      6  C5  UNL d   1      -1.323  -2.102   1.173  0.00  0.00     0.003 A 
ATOM      7  C6  UNL d   1      -0.614  -1.136   0.457  0.00  0.00    -0.001 A 
ENDROOT
TORSDOF 0
ENDMDL
