MODEL 1
REMARK minimizedAffinity -5.98209333
REMARK minimizedRMSD -1
REMARK  0 active torsions:
REMARK  status: ('A' for Active; 'I' for Inactive)
ROOT
ATOM      1  C   UNL d   1       0.401   0.408   0.491  0.00  0.00     0.078 C 
ATOM      2  C1  UNL d   1      -0.716  -0.468   0.976  0.00  0.00    -0.077 A 
ATOM      3  C2  UNL d   1      -0.742  -1.835   0.676  0.00  0.00    -0.001 A 
ATOM      4  C3  UNL d   1      -1.793  -2.636   1.126  0.00  0.00     0.003 A 
ATOM      5  C4  UNL d   1      -2.826  -2.078   1.877  0.00  0.00    -0.005 A 
ATOM      6  C5  UNL d   1      -2.810  -0.718   2.178  0.00  0.00     0.003 A 
ATOM      7  C6  UNL d   1      -1.759   0.084   1.729  0.00  0.00    -0.001 A 
ENDROOT
TORSDOF 0
ENDMDL
