MODEL 1
REMARK minimizedAffinity -4.6489377
REMARK minimizedRMSD -1
REMARK  0 active torsions:
REMARK  status: ('A' for Active; 'I' for Inactive)
ROOT
ATOM      1  C   UNL d   1       0.165   0.629  -0.269  0.00  0.00     0.078 C 
ATOM      2  C1  UNL d   1      -0.594  -0.359   0.566  0.00  0.00    -0.077 A 
ATOM      3  C2  UNL d   1      -0.099  -1.651   0.781  0.00  0.00    -0.001 A 
ATOM      4  C3  UNL d   1      -0.821  -2.563   1.553  0.00  0.00     0.003 A 
ATOM      5  C4  UNL d   1      -2.042  -2.194   2.113  0.00  0.00    -0.005 A 
ATOM      6  C5  UNL d   1      -2.543  -0.911   1.902  0.00  0.00     0.003 A 
ATOM      7  C6  UNL d   1      -1.823   0.003   1.131  0.00  0.00    -0.001 A 
ENDROOT
TORSDOF 0
ENDMDL
