MODEL 1
REMARK minimizedAffinity -4.65874481
REMARK minimizedRMSD -1
REMARK  0 active torsions:
REMARK  status: ('A' for Active; 'I' for Inactive)
ROOT
ATOM      1  C   UNL d   1      -2.888  -0.557   2.635  0.00  0.00     0.078 C 
ATOM      2  C1  UNL d   1      -1.698  -0.798   1.755  0.00  0.00    -0.077 A 
ATOM      3  C2  UNL d   1      -1.063  -2.046   1.726  0.00  0.00    -0.001 A 
ATOM      4  C3  UNL d   1       0.050  -2.253   0.910  0.00  0.00     0.003 A 
ATOM      5  C4  UNL d   1       0.539  -1.216   0.118  0.00  0.00    -0.005 A 
ATOM      6  C5  UNL d   1      -0.084   0.030   0.142  0.00  0.00     0.003 A 
ATOM      7  C6  UNL d   1      -1.197   0.239   0.958  0.00  0.00    -0.001 A 
ENDROOT
TORSDOF 0
ENDMDL
