MODEL 1
REMARK minimizedAffinity -3.64765501
REMARK minimizedRMSD -1
REMARK  0 active torsions:
REMARK  status: ('A' for Active; 'I' for Inactive)
ROOT
ATOM      1  C   UNL d   1       0.278   1.149  -0.220  0.00  0.00     0.078 C 
ATOM      2  C1  UNL d   1      -0.352   0.007   0.519  0.00  0.00    -0.077 A 
ATOM      3  C2  UNL d   1      -1.550   0.179   1.225  0.00  0.00    -0.001 A 
ATOM      4  C3  UNL d   1      -2.121  -0.890   1.917  0.00  0.00     0.003 A 
ATOM      5  C4  UNL d   1      -1.501  -2.138   1.912  0.00  0.00    -0.005 A 
ATOM      6  C5  UNL d   1      -0.308  -2.318   1.215  0.00  0.00     0.003 A 
ATOM      7  C6  UNL d   1       0.265  -1.250   0.522  0.00  0.00    -0.001 A 
ENDROOT
TORSDOF 0
ENDMDL
