MODEL 1
REMARK minimizedAffinity -5.88580227
REMARK minimizedRMSD -1
REMARK  0 active torsions:
REMARK  status: ('A' for Active; 'I' for Inactive)
ROOT
ATOM      1  C   UNL d   1       0.372   1.247  -0.248  0.00  0.00     0.078 C 
ATOM      2  C1  UNL d   1      -0.440   0.143   0.361  0.00  0.00    -0.077 A 
ATOM      3  C2  UNL d   1      -0.030  -1.192   0.263  0.00  0.00    -0.001 A 
ATOM      4  C3  UNL d   1      -0.801  -2.211   0.826  0.00  0.00     0.003 A 
ATOM      5  C4  UNL d   1      -1.987  -1.904   1.490  0.00  0.00    -0.005 A 
ATOM      6  C5  UNL d   1      -2.405  -0.579   1.590  0.00  0.00     0.003 A 
ATOM      7  C6  UNL d   1      -1.635   0.441   1.028  0.00  0.00    -0.001 A 
ENDROOT
TORSDOF 0
ENDMDL
