MODEL 1
REMARK minimizedAffinity -0.508946419
REMARK minimizedRMSD -1
REMARK  0 active torsions:
REMARK  status: ('A' for Active; 'I' for Inactive)
ROOT
ATOM      1  C   UNL d   1      -0.064  -2.606   1.673  0.00  0.00     0.078 C 
ATOM      2  C1  UNL d   1       0.117  -1.317   0.928  0.00  0.00    -0.077 A 
ATOM      3  C2  UNL d   1      -0.830  -0.290   1.024  0.00  0.00    -0.001 A 
ATOM      4  C3  UNL d   1      -0.653   0.901   0.317  0.00  0.00     0.003 A 
ATOM      5  C4  UNL d   1       0.469   1.075  -0.490  0.00  0.00    -0.005 A 
ATOM      6  C5  UNL d   1       1.415   0.058  -0.593  0.00  0.00     0.003 A 
ATOM      7  C6  UNL d   1       1.240  -1.134   0.112  0.00  0.00    -0.001 A 
ENDROOT
TORSDOF 0
ENDMDL
