MODEL 1
REMARK minimizedAffinity -5.6900444
REMARK minimizedRMSD -1
REMARK  0 active torsions:
REMARK  status: ('A' for Active; 'I' for Inactive)
ROOT
ATOM      1  C   UNL d   1      -3.110  -1.610   2.361  0.00  0.00     0.078 C 
ATOM      2  C1  UNL d   1      -1.991  -1.144   1.477  0.00  0.00    -0.077 A 
ATOM      3  C2  UNL d   1      -0.913  -1.985   1.176  0.00  0.00    -0.001 A 
ATOM      4  C3  UNL d   1       0.126  -1.535   0.360  0.00  0.00     0.003 A 
ATOM      5  C4  UNL d   1       0.098  -0.242  -0.160  0.00  0.00    -0.005 A 
ATOM      6  C5  UNL d   1      -0.969   0.602   0.136  0.00  0.00     0.003 A 
ATOM      7  C6  UNL d   1      -2.010   0.154   0.952  0.00  0.00    -0.001 A 
ENDROOT
TORSDOF 0
ENDMDL
