MODEL 1
REMARK minimizedAffinity -5.63240433
REMARK minimizedRMSD -1
REMARK  0 active torsions:
REMARK  status: ('A' for Active; 'I' for Inactive)
ROOT
ATOM      1  C   UNL d   1       0.314   0.748  -0.225  0.00  0.00     0.078 C 
ATOM      2  C1  UNL d   1      -0.440  -0.345   0.471  0.00  0.00    -0.077 A 
ATOM      3  C2  UNL d   1       0.171  -1.571   0.762  0.00  0.00    -0.001 A 
ATOM      4  C3  UNL d   1      -0.547  -2.583   1.402  0.00  0.00     0.003 A 
ATOM      5  C4  UNL d   1      -1.879  -2.380   1.755  0.00  0.00    -0.005 A 
ATOM      6  C5  UNL d   1      -2.496  -1.164   1.468  0.00  0.00     0.003 A 
ATOM      7  C6  UNL d   1      -1.781  -0.151   0.828  0.00  0.00    -0.001 A 
ENDROOT
TORSDOF 0
ENDMDL
