MODEL 1
REMARK minimizedAffinity 3.668082
REMARK minimizedRMSD -1
REMARK  0 active torsions:
REMARK  status: ('A' for Active; 'I' for Inactive)
ROOT
ATOM      1  C   UNL d   1       0.677  -0.376   0.333  0.00  0.00     0.078 C 
ATOM      2  C1  UNL d   1       0.671   0.526  -0.864  0.00  0.00    -0.077 A 
ATOM      3  C2  UNL d   1       1.869   0.954  -1.450  0.00  0.00    -0.001 A 
ATOM      4  C3  UNL d   1       1.848   1.802  -2.559  0.00  0.00     0.003 A 
ATOM      5  C4  UNL d   1       0.633   2.230  -3.091  0.00  0.00    -0.005 A 
ATOM      6  C5  UNL d   1      -0.563   1.810  -2.513  0.00  0.00     0.003 A 
ATOM      7  C6  UNL d   1      -0.545   0.963  -1.405  0.00  0.00    -0.001 A 
ENDROOT
TORSDOF 0
ENDMDL
