MODEL 1
REMARK minimizedAffinity -5.32191515
REMARK minimizedRMSD -1
REMARK  0 active torsions:
REMARK  status: ('A' for Active; 'I' for Inactive)
ROOT
ATOM      1  C   UNL d   1       0.356   0.780  -0.155  0.00  0.00     0.078 C 
ATOM      2  C1  UNL d   1      -0.427  -0.336   0.471  0.00  0.00    -0.077 A 
ATOM      3  C2  UNL d   1      -1.787  -0.511   0.187  0.00  0.00    -0.001 A 
ATOM      4  C3  UNL d   1      -2.505  -1.548   0.785  0.00  0.00     0.003 A 
ATOM      5  C4  UNL d   1      -1.872  -2.417   1.671  0.00  0.00    -0.005 A 
ATOM      6  C5  UNL d   1      -0.519  -2.250   1.961  0.00  0.00     0.003 A 
ATOM      7  C6  UNL d   1       0.201  -1.214   1.364  0.00  0.00    -0.001 A 
ENDROOT
TORSDOF 0
ENDMDL
