MODEL 1
REMARK minimizedAffinity -2.40991187
REMARK minimizedRMSD -1
REMARK  0 active torsions:
REMARK  status: ('A' for Active; 'I' for Inactive)
ROOT
ATOM      1  C   UNL d   1      -1.106   1.605   0.985  0.00  0.00     0.078 C 
ATOM      2  C1  UNL d   1      -0.416   0.277   1.075  0.00  0.00    -0.077 A 
ATOM      3  C2  UNL d   1       0.837   0.074   0.484  0.00  0.00    -0.001 A 
ATOM      4  C3  UNL d   1       1.464  -1.171   0.568  0.00  0.00     0.003 A 
ATOM      5  C4  UNL d   1       0.844  -2.222   1.240  0.00  0.00    -0.005 A 
ATOM      6  C5  UNL d   1      -0.404  -2.030   1.828  0.00  0.00     0.003 A 
ATOM      7  C6  UNL d   1      -1.032  -0.787   1.746  0.00  0.00    -0.001 A 
ENDROOT
TORSDOF 0
ENDMDL
