MODEL 1
REMARK minimizedAffinity -6.26342249
REMARK minimizedRMSD -1
REMARK  0 active torsions:
REMARK  status: ('A' for Active; 'I' for Inactive)
ROOT
ATOM      1  C   UNL d   1      -0.030   0.372   0.098  0.00  0.00     0.078 C 
ATOM      2  C1  UNL d   1      -1.024  -0.532   0.764  0.00  0.00    -0.077 A 
ATOM      3  C2  UNL d   1      -2.165  -0.014   1.389  0.00  0.00    -0.001 A 
ATOM      4  C3  UNL d   1      -3.077  -0.866   2.013  0.00  0.00     0.003 A 
ATOM      5  C4  UNL d   1      -2.857  -2.242   2.019  0.00  0.00    -0.005 A 
ATOM      6  C5  UNL d   1      -1.724  -2.767   1.402  0.00  0.00     0.003 A 
ATOM      7  C6  UNL d   1      -0.811  -1.916   0.777  0.00  0.00    -0.001 A 
ENDROOT
TORSDOF 0
ENDMDL
