MODEL 1
REMARK minimizedAffinity -6.00099087
REMARK minimizedRMSD -1
REMARK  0 active torsions:
REMARK  status: ('A' for Active; 'I' for Inactive)
ROOT
ATOM      1  C   UNL d   1      -2.987  -1.768   2.482  0.00  0.00     0.078 C 
ATOM      2  C1  UNL d   1      -1.853  -1.268   1.637  0.00  0.00    -0.077 A 
ATOM      3  C2  UNL d   1      -0.840  -2.132   1.206  0.00  0.00    -0.001 A 
ATOM      4  C3  UNL d   1       0.215  -1.651   0.428  0.00  0.00     0.003 A 
ATOM      5  C4  UNL d   1       0.266  -0.304   0.075  0.00  0.00    -0.005 A 
ATOM      6  C5  UNL d   1      -0.737   0.564   0.501  0.00  0.00     0.003 A 
ATOM      7  C6  UNL d   1      -1.792   0.085   1.279  0.00  0.00    -0.001 A 
ENDROOT
TORSDOF 0
ENDMDL
