MODEL 1
REMARK minimizedAffinity 5.57665777
REMARK minimizedRMSD -1
REMARK  2 active torsions:
REMARK  status: ('A' for Active; 'I' for Inactive)
REMARK    1  A    between atoms: C1_2  and  C2_3 
REMARK    2  A    between atoms: C2_3  and  C3_4 
ROOT
ATOM      1  C3  UNL d   1       1.311   0.947  -1.521  0.00  0.00    -0.075 A 
ATOM      2  C4  UNL d   1       0.595  -0.149  -2.026  0.00  0.00     0.002 A 
ATOM      3  C5  UNL d   1       1.178  -1.416  -2.069  0.00  0.00     0.002 A 
ATOM      4  C6  UNL d   1       2.483  -1.602  -1.618  0.00  0.00    -0.004 A 
ATOM      5  C7  UNL d   1       3.208  -0.517  -1.130  0.00  0.00     0.002 A 
ATOM      6  C8  UNL d   1       2.627   0.751  -1.081  0.00  0.00     0.002 A 
ENDROOT
BRANCH   1   7
ATOM      7  C2  UNL d   1       0.676   2.315  -1.444  0.00  0.00     0.056 C 
BRANCH   7   8
ATOM      8  C1  UNL d   1      -0.582   2.371  -0.571  0.00  0.00     0.007 C 
ATOM      9  C   UNL d   1      -0.367   3.106   0.746  0.00  0.00     0.009 C 
ENDBRANCH   7   8
ENDBRANCH   1   7
TORSDOF 2
ENDMDL
