MODEL 1
REMARK minimizedAffinity 5.93550348
REMARK minimizedRMSD -1
REMARK  2 active torsions:
REMARK  status: ('A' for Active; 'I' for Inactive)
REMARK    1  A    between atoms: C1_2  and  C2_3 
REMARK    2  A    between atoms: C2_3  and  C3_4 
ROOT
ATOM      1  C3  UNL d   1       1.459  -0.107  -2.103  0.00  0.00    -0.075 A 
ATOM      2  C4  UNL d   1       0.683   0.780  -1.343  0.00  0.00     0.002 A 
ATOM      3  C5  UNL d   1       0.612   2.131  -1.685  0.00  0.00     0.002 A 
ATOM      4  C6  UNL d   1       1.322   2.613  -2.782  0.00  0.00    -0.004 A 
ATOM      5  C7  UNL d   1       2.109   1.743  -3.534  0.00  0.00     0.002 A 
ATOM      6  C8  UNL d   1       2.179   0.391  -3.197  0.00  0.00     0.002 A 
ENDROOT
BRANCH   1   7
ATOM      7  C2  UNL d   1       1.517  -1.576  -1.756  0.00  0.00     0.056 C 
BRANCH   7   8
ATOM      8  C1  UNL d   1       0.480  -2.432  -2.491  0.00  0.00     0.007 C 
ATOM      9  C   UNL d   1       1.099  -3.386  -3.504  0.00  0.00     0.009 C 
ENDBRANCH   7   8
ENDBRANCH   1   7
TORSDOF 2
ENDMDL
