MODEL 1
REMARK minimizedAffinity 0.281620741
REMARK minimizedRMSD -1
REMARK  2 active torsions:
REMARK  status: ('A' for Active; 'I' for Inactive)
REMARK    1  A    between atoms: C1_2  and  C2_3 
REMARK    2  A    between atoms: C2_3  and  C3_4 
ROOT
ATOM      1  C3  UNL d   1       0.430   0.015  -0.843  0.00  0.00    -0.075 A 
ATOM      2  C4  UNL d   1       0.718  -1.283  -0.400  0.00  0.00     0.002 A 
ATOM      3  C5  UNL d   1       1.941  -1.881  -0.704  0.00  0.00     0.002 A 
ATOM      4  C6  UNL d   1       2.886  -1.194  -1.463  0.00  0.00    -0.004 A 
ATOM      5  C7  UNL d   1       2.604   0.090  -1.923  0.00  0.00     0.002 A 
ATOM      6  C8  UNL d   1       1.383   0.693  -1.616  0.00  0.00     0.002 A 
ENDROOT
BRANCH   1   7
ATOM      7  C2  UNL d   1      -0.880   0.679  -0.492  0.00  0.00     0.056 C 
BRANCH   7   8
ATOM      8  C1  UNL d   1      -1.939  -0.283   0.055  0.00  0.00     0.007 C 
ATOM      9  C   UNL d   1      -2.987  -0.673  -0.979  0.00  0.00     0.009 C 
ENDBRANCH   7   8
ENDBRANCH   1   7
TORSDOF 2
ENDMDL
