MODEL 1
REMARK minimizedAffinity -3.36759186
REMARK minimizedRMSD -1
REMARK  2 active torsions:
REMARK  status: ('A' for Active; 'I' for Inactive)
REMARK    1  A    between atoms: C1_2  and  C2_3 
REMARK    2  A    between atoms: C2_3  and  C3_4 
ROOT
ATOM      1  C3  UNL d   1       1.233   0.306  -1.383  0.00  0.00    -0.075 A 
ATOM      2  C4  UNL d   1       0.831  -0.694  -0.484  0.00  0.00     0.002 A 
ATOM      3  C5  UNL d   1       1.524  -1.902  -0.414  0.00  0.00     0.002 A 
ATOM      4  C6  UNL d   1       2.619  -2.131  -1.245  0.00  0.00    -0.004 A 
ATOM      5  C7  UNL d   1       3.016  -1.151  -2.152  0.00  0.00     0.002 A 
ATOM      6  C8  UNL d   1       2.327   0.061  -2.222  0.00  0.00     0.002 A 
ENDROOT
BRANCH   1   7
ATOM      7  C2  UNL d   1       0.505   1.628  -1.443  0.00  0.00     0.056 C 
BRANCH   7   8
ATOM      8  C1  UNL d   1      -0.889   1.602  -0.807  0.00  0.00     0.007 C 
ATOM      9  C   UNL d   1      -1.088   2.685   0.246  0.00  0.00     0.009 C 
ENDBRANCH   7   8
ENDBRANCH   1   7
TORSDOF 2
ENDMDL
