MODEL 1
REMARK minimizedAffinity 5.98441744
REMARK minimizedRMSD -1
REMARK  2 active torsions:
REMARK  status: ('A' for Active; 'I' for Inactive)
REMARK    1  A    between atoms: C1_2  and  C2_3 
REMARK    2  A    between atoms: C2_3  and  C3_4 
ROOT
ATOM      1  C3  UNL d   1       0.733   1.541  -1.089  0.00  0.00    -0.075 A 
ATOM      2  C4  UNL d   1       1.584   0.426  -1.075  0.00  0.00     0.002 A 
ATOM      3  C5  UNL d   1       2.643   0.332  -1.979  0.00  0.00     0.002 A 
ATOM      4  C6  UNL d   1       2.858   1.344  -2.912  0.00  0.00    -0.004 A 
ATOM      5  C7  UNL d   1       2.008   2.448  -2.946  0.00  0.00     0.002 A 
ATOM      6  C8  UNL d   1       0.951   2.546  -2.040  0.00  0.00     0.002 A 
ENDROOT
BRANCH   1   7
ATOM      7  C2  UNL d   1      -0.397   1.662  -0.094  0.00  0.00     0.056 C 
BRANCH   7   8
ATOM      8  C1  UNL d   1      -0.006   2.362   1.211  0.00  0.00     0.007 C 
ATOM      9  C   UNL d   1       1.420   2.057   1.652  0.00  0.00     0.009 C 
ENDBRANCH   7   8
ENDBRANCH   1   7
TORSDOF 2
ENDMDL
