MODEL 1
REMARK minimizedAffinity 4.51170492
REMARK minimizedRMSD -1
REMARK  2 active torsions:
REMARK  status: ('A' for Active; 'I' for Inactive)
REMARK    1  A    between atoms: C1_2  and  C2_3 
REMARK    2  A    between atoms: C2_3  and  C3_4 
ROOT
ATOM      1  C3  UNL d   1       0.844   0.569  -1.586  0.00  0.00    -0.075 A 
ATOM      2  C4  UNL d   1       1.912  -0.338  -1.655  0.00  0.00     0.002 A 
ATOM      3  C5  UNL d   1       1.787  -1.621  -1.123  0.00  0.00     0.002 A 
ATOM      4  C6  UNL d   1       0.599  -2.011  -0.508  0.00  0.00    -0.004 A 
ATOM      5  C7  UNL d   1      -0.462  -1.113  -0.419  0.00  0.00     0.002 A 
ATOM      6  C8  UNL d   1      -0.341   0.171  -0.954  0.00  0.00     0.002 A 
ENDROOT
BRANCH   1   7
ATOM      7  C2  UNL d   1       0.963   1.950  -2.186  0.00  0.00     0.056 C 
BRANCH   7   8
ATOM      8  C1  UNL d   1       1.946   2.038  -3.358  0.00  0.00     0.007 C 
ATOM      9  C   UNL d   1       1.356   1.547  -4.674  0.00  0.00     0.009 C 
ENDBRANCH   7   8
ENDBRANCH   1   7
TORSDOF 2
ENDMDL
