MODEL 1
REMARK minimizedAffinity 4.74488068
REMARK minimizedRMSD -1
REMARK  2 active torsions:
REMARK  status: ('A' for Active; 'I' for Inactive)
REMARK    1  A    between atoms: C1_2  and  C2_3 
REMARK    2  A    between atoms: C2_3  and  C3_4 
ROOT
ATOM      1  C3  UNL d   1       2.493   0.141  -2.376  0.00  0.00    -0.075 A 
ATOM      2  C4  UNL d   1       2.033  -0.562  -3.498  0.00  0.00     0.002 A 
ATOM      3  C5  UNL d   1       1.760  -1.928  -3.415  0.00  0.00     0.002 A 
ATOM      4  C6  UNL d   1       1.952  -2.608  -2.215  0.00  0.00    -0.004 A 
ATOM      5  C7  UNL d   1       2.424  -1.922  -1.097  0.00  0.00     0.002 A 
ATOM      6  C8  UNL d   1       2.694  -0.555  -1.177  0.00  0.00     0.002 A 
ENDROOT
BRANCH   1   7
ATOM      7  C2  UNL d   1       2.762   1.625  -2.451  0.00  0.00     0.056 C 
BRANCH   7   8
ATOM      8  C1  UNL d   1       1.503   2.479  -2.634  0.00  0.00     0.007 C 
ATOM      9  C   UNL d   1       0.310   1.968  -1.838  0.00  0.00     0.009 C 
ENDBRANCH   7   8
ENDBRANCH   1   7
TORSDOF 2
ENDMDL
