MODEL 1
REMARK minimizedAffinity 2.71819448
REMARK minimizedRMSD -1
REMARK  2 active torsions:
REMARK  status: ('A' for Active; 'I' for Inactive)
REMARK    1  A    between atoms: C1_2  and  C2_3 
REMARK    2  A    between atoms: C2_3  and  C3_4 
ROOT
ATOM      1  C3  UNL d   1       0.912   1.571  -0.588  0.00  0.00    -0.075 A 
ATOM      2  C4  UNL d   1       1.887   1.943   0.349  0.00  0.00     0.002 A 
ATOM      3  C5  UNL d   1       1.515   2.429   1.603  0.00  0.00     0.002 A 
ATOM      4  C6  UNL d   1       0.168   2.560   1.931  0.00  0.00    -0.004 A 
ATOM      5  C7  UNL d   1      -0.809   2.210   1.001  0.00  0.00     0.002 A 
ATOM      6  C8  UNL d   1      -0.440   1.718  -0.252  0.00  0.00     0.002 A 
ENDROOT
BRANCH   1   7
ATOM      7  C2  UNL d   1       1.308   1.016  -1.936  0.00  0.00     0.056 C 
BRANCH   7   8
ATOM      8  C1  UNL d   1       2.346  -0.109  -1.866  0.00  0.00     0.007 C 
ATOM      9  C   UNL d   1       1.722  -1.495  -1.758  0.00  0.00     0.009 C 
ENDBRANCH   7   8
ENDBRANCH   1   7
TORSDOF 2
ENDMDL
