MODEL 1
REMARK minimizedAffinity 0.345256925
REMARK minimizedRMSD -1
REMARK  2 active torsions:
REMARK  status: ('A' for Active; 'I' for Inactive)
REMARK    1  A    between atoms: C1_2  and  C2_3 
REMARK    2  A    between atoms: C2_3  and  C3_4 
ROOT
ATOM      1  C3  UNL d   1       1.988  -2.334  -0.397  0.00  0.00    -0.075 A 
ATOM      2  C4  UNL d   1       3.006  -1.372  -0.326  0.00  0.00     0.002 A 
ATOM      3  C5  UNL d   1       2.875  -0.152  -0.991  0.00  0.00     0.002 A 
ATOM      4  C6  UNL d   1       1.733   0.116  -1.742  0.00  0.00    -0.004 A 
ATOM      5  C7  UNL d   1       0.723  -0.839  -1.833  0.00  0.00     0.002 A 
ATOM      6  C8  UNL d   1       0.849  -2.059  -1.165  0.00  0.00     0.002 A 
ENDROOT
BRANCH   1   7
ATOM      7  C2  UNL d   1       2.111  -3.644   0.344  0.00  0.00     0.056 C 
BRANCH   7   8
ATOM      8  C1  UNL d   1       0.845  -4.051   1.106  0.00  0.00     0.007 C 
ATOM      9  C   UNL d   1       0.885  -5.485   1.616  0.00  0.00     0.009 C 
ENDBRANCH   7   8
ENDBRANCH   1   7
TORSDOF 2
ENDMDL
