MODEL 1
REMARK minimizedAffinity -1.99529219
REMARK minimizedRMSD -1
REMARK  0 active torsions:
REMARK  status: ('A' for Active; 'I' for Inactive)
ROOT
ATOM      1  C   UNL d   1      -4.317   1.007  -5.570  0.00  0.00     0.172 C 
ATOM      2  N   UNL d   1      -4.247   2.445  -5.676  0.00  0.00    -0.070 N 
ATOM      3  C1  UNL d   1      -5.289   3.273  -5.998  0.00  0.00    -0.004 A 
ATOM      4  C2  UNL d   1      -4.816   4.568  -5.993  0.00  0.00    -0.047 A 
ATOM      5  C3  UNL d   1      -3.442   4.516  -5.658  0.00  0.00    -0.047 A 
ATOM      6  C4  UNL d   1      -3.116   3.190  -5.467  0.00  0.00    -0.004 A 
ENDROOT
TORSDOF 0
ENDMDL
