MODEL 1
REMARK minimizedAffinity -1.75962055
REMARK minimizedRMSD -1
REMARK  0 active torsions:
REMARK  status: ('A' for Active; 'I' for Inactive)
ROOT
ATOM      1  C   UNL d   1      -4.117   1.079  -5.021  0.00  0.00     0.172 C 
ATOM      2  N   UNL d   1      -3.443   2.332  -5.270  0.00  0.00    -0.070 N 
ATOM      3  C1  UNL d   1      -3.946   3.378  -5.997  0.00  0.00    -0.004 A 
ATOM      4  C2  UNL d   1      -3.002   4.382  -6.000  0.00  0.00    -0.047 A 
ATOM      5  C3  UNL d   1      -1.893   3.923  -5.250  0.00  0.00    -0.047 A 
ATOM      6  C4  UNL d   1      -2.193   2.651  -4.810  0.00  0.00    -0.004 A 
ENDROOT
TORSDOF 0
ENDMDL
