MODEL 1
REMARK minimizedAffinity -2.7741015
REMARK minimizedRMSD -1
REMARK  0 active torsions:
REMARK  status: ('A' for Active; 'I' for Inactive)
ROOT
ATOM      1  C   UNL d   1      -1.921   3.664  -5.247  0.00  0.00     0.172 C 
ATOM      2  N   UNL d   1      -3.282   3.269  -5.529  0.00  0.00    -0.070 N 
ATOM      3  C1  UNL d   1      -4.331   4.121  -5.750  0.00  0.00    -0.004 A 
ATOM      4  C2  UNL d   1      -5.453   3.357  -5.982  0.00  0.00    -0.047 A 
ATOM      5  C3  UNL d   1      -5.066   1.998  -5.896  0.00  0.00    -0.047 A 
ATOM      6  C4  UNL d   1      -3.717   1.973  -5.615  0.00  0.00    -0.004 A 
ENDROOT
TORSDOF 0
ENDMDL
