MODEL 1
REMARK minimizedAffinity 0.554934025
REMARK minimizedRMSD -1
REMARK  0 active torsions:
REMARK  status: ('A' for Active; 'I' for Inactive)
ROOT
ATOM      1  C   UNL d   1       1.948   1.164  -1.412  0.00  0.00     0.172 C 
ATOM      2  N   UNL d   1       0.889   0.329  -1.929  0.00  0.00    -0.070 N 
ATOM      3  C1  UNL d   1       0.033   0.664  -2.945  0.00  0.00    -0.004 A 
ATOM      4  C2  UNL d   1      -0.826  -0.397  -3.138  0.00  0.00    -0.047 A 
ATOM      5  C3  UNL d   1      -0.475  -1.402  -2.207  0.00  0.00    -0.047 A 
ATOM      6  C4  UNL d   1       0.590  -0.927  -1.471  0.00  0.00    -0.004 A 
ENDROOT
TORSDOF 0
ENDMDL
