MODEL 1
REMARK minimizedAffinity -2.16349077
REMARK minimizedRMSD -1
REMARK  0 active torsions:
REMARK  status: ('A' for Active; 'I' for Inactive)
ROOT
ATOM      1  C   UNL d   1      -1.876   3.702  -5.609  0.00  0.00     0.172 C 
ATOM      2  N   UNL d   1      -3.295   3.952  -5.704  0.00  0.00    -0.070 N 
ATOM      3  C1  UNL d   1      -3.907   5.163  -5.516  0.00  0.00    -0.004 A 
ATOM      4  C2  UNL d   1      -5.262   4.984  -5.695  0.00  0.00    -0.047 A 
ATOM      5  C3  UNL d   1      -5.471   3.618  -6.000  0.00  0.00    -0.047 A 
ATOM      6  C4  UNL d   1      -4.237   3.003  -6.000  0.00  0.00    -0.004 A 
ENDROOT
TORSDOF 0
ENDMDL
