MODEL 1
REMARK minimizedAffinity -2.3676517
REMARK minimizedRMSD -1
REMARK  0 active torsions:
REMARK  status: ('A' for Active; 'I' for Inactive)
ROOT
ATOM      1  C   UNL d   1      -5.965   4.429  -6.000  0.00  0.00     0.172 C 
ATOM      2  N   UNL d   1      -4.533   4.248  -5.967  0.00  0.00    -0.070 N 
ATOM      3  C1  UNL d   1      -3.601   5.251  -5.996  0.00  0.00    -0.004 A 
ATOM      4  C2  UNL d   1      -2.353   4.669  -5.947  0.00  0.00    -0.047 A 
ATOM      5  C3  UNL d   1      -2.541   3.268  -5.887  0.00  0.00    -0.047 A 
ATOM      6  C4  UNL d   1      -3.900   3.035  -5.901  0.00  0.00    -0.004 A 
ENDROOT
TORSDOF 0
ENDMDL
