MODEL 1
REMARK minimizedAffinity -2.24239278
REMARK minimizedRMSD -1
REMARK  0 active torsions:
REMARK  status: ('A' for Active; 'I' for Inactive)
ROOT
ATOM      1  C   UNL d   1      -2.364   4.506  -5.991  0.00  0.00     0.172 C 
ATOM      2  N   UNL d   1      -3.799   4.353  -5.992  0.00  0.00    -0.070 N 
ATOM      3  C1  UNL d   1      -4.712   5.374  -6.000  0.00  0.00    -0.004 A 
ATOM      4  C2  UNL d   1      -5.971   4.815  -5.999  0.00  0.00    -0.047 A 
ATOM      5  C3  UNL d   1      -5.811   3.409  -5.989  0.00  0.00    -0.047 A 
ATOM      6  C4  UNL d   1      -4.456   3.150  -5.986  0.00  0.00    -0.004 A 
ENDROOT
TORSDOF 0
ENDMDL
