MODEL 1
REMARK minimizedAffinity -2.46171236
REMARK minimizedRMSD -1
REMARK  0 active torsions:
REMARK  status: ('A' for Active; 'I' for Inactive)
ROOT
ATOM      1  C   UNL d   1      -0.829  -1.432  -2.643  0.00  0.00     0.172 C 
ATOM      2  N   UNL d   1      -0.228  -0.738  -1.528  0.00  0.00    -0.070 N 
ATOM      3  C1  UNL d   1      -0.304  -1.121  -0.215  0.00  0.00    -0.004 A 
ATOM      4  C2  UNL d   1       0.397  -0.200   0.534  0.00  0.00    -0.047 A 
ATOM      5  C3  UNL d   1       0.911   0.770  -0.359  0.00  0.00    -0.047 A 
ATOM      6  C4  UNL d   1       0.509   0.412  -1.629  0.00  0.00    -0.004 A 
ENDROOT
TORSDOF 0
ENDMDL
