MODEL 1
REMARK minimizedAffinity 0.653754771
REMARK minimizedRMSD -1
REMARK  0 active torsions:
REMARK  status: ('A' for Active; 'I' for Inactive)
ROOT
ATOM      1  C   UNL d   1      -2.003   5.525  -5.995  0.00  0.00     0.172 C 
ATOM      2  N   UNL d   1      -3.134   4.627  -5.957  0.00  0.00    -0.070 N 
ATOM      3  C1  UNL d   1      -3.067   3.262  -5.883  0.00  0.00    -0.004 A 
ATOM      4  C2  UNL d   1      -4.357   2.776  -5.868  0.00  0.00    -0.047 A 
ATOM      5  C3  UNL d   1      -5.229   3.889  -5.936  0.00  0.00    -0.047 A 
ATOM      6  C4  UNL d   1      -4.445   5.022  -5.991  0.00  0.00    -0.004 A 
ENDROOT
TORSDOF 0
ENDMDL
