MODEL 1
REMARK minimizedAffinity -2.79266429
REMARK minimizedRMSD -1
REMARK  0 active torsions:
REMARK  status: ('A' for Active; 'I' for Inactive)
ROOT
ATOM      1  C   UNL d   1      -2.320   3.655  -5.999  0.00  0.00     0.172 C 
ATOM      2  N   UNL d   1      -3.763   3.604  -5.982  0.00  0.00    -0.070 N 
ATOM      3  C1  UNL d   1      -4.600   4.688  -5.946  0.00  0.00    -0.004 A 
ATOM      4  C2  UNL d   1      -5.896   4.221  -5.942  0.00  0.00    -0.047 A 
ATOM      5  C3  UNL d   1      -5.837   2.808  -5.975  0.00  0.00    -0.047 A 
ATOM      6  C4  UNL d   1      -4.505   2.453  -6.000  0.00  0.00    -0.004 A 
ENDROOT
TORSDOF 0
ENDMDL
