MODEL 1
REMARK minimizedAffinity -2.32288122
REMARK minimizedRMSD -1
REMARK  0 active torsions:
REMARK  status: ('A' for Active; 'I' for Inactive)
ROOT
ATOM      1  C   UNL d   1      -3.633   3.601  -5.968  0.00  0.00     0.172 C 
ATOM      2  N   UNL d   1      -3.704   2.158  -5.981  0.00  0.00    -0.070 N 
ATOM      3  C1  UNL d   1      -4.855   1.416  -5.987  0.00  0.00    -0.004 A 
ATOM      4  C2  UNL d   1      -4.497   0.084  -5.999  0.00  0.00    -0.047 A 
ATOM      5  C3  UNL d   1      -3.084   0.025  -5.999  0.00  0.00    -0.047 A 
ATOM      6  C4  UNL d   1      -2.618   1.323  -5.988  0.00  0.00    -0.004 A 
ENDROOT
TORSDOF 0
ENDMDL
