MODEL 1
REMARK minimizedAffinity -2.24501562
REMARK minimizedRMSD -1
REMARK  0 active torsions:
REMARK  status: ('A' for Active; 'I' for Inactive)
ROOT
ATOM      1  C   UNL d   1      -5.973   4.824  -5.973  0.00  0.00     0.172 C 
ATOM      2  N   UNL d   1      -4.724   4.099  -5.981  0.00  0.00    -0.070 N 
ATOM      3  C1  UNL d   1      -3.475   4.660  -5.973  0.00  0.00    -0.004 A 
ATOM      4  C2  UNL d   1      -2.552   3.637  -5.984  0.00  0.00    -0.047 A 
ATOM      5  C3  UNL d   1      -3.272   2.418  -6.000  0.00  0.00    -0.047 A 
ATOM      6  C4  UNL d   1      -4.614   2.733  -5.998  0.00  0.00    -0.004 A 
ENDROOT
TORSDOF 0
ENDMDL
