MODEL 1
REMARK minimizedAffinity -3.52088928
REMARK minimizedRMSD -1
REMARK  0 active torsions:
REMARK  status: ('A' for Active; 'I' for Inactive)
ROOT
ATOM      1  C   UNL d   1       4.688  -2.553  -5.393  0.00  0.00     0.172 C 
ATOM      2  N   UNL d   1       3.974  -2.061  -4.238  0.00  0.00    -0.070 N 
ATOM      3  C1  UNL d   1       3.837  -2.717  -3.044  0.00  0.00    -0.004 A 
ATOM      4  C2  UNL d   1       3.091  -1.917  -2.206  0.00  0.00    -0.047 A 
ATOM      5  C3  UNL d   1       2.767  -0.740  -2.921  0.00  0.00    -0.047 A 
ATOM      6  C4  UNL d   1       3.326  -0.855  -4.177  0.00  0.00    -0.004 A 
ENDROOT
TORSDOF 0
ENDMDL
