MODEL 1
REMARK minimizedAffinity -1.52784204
REMARK minimizedRMSD -1
REMARK  0 active torsions:
REMARK  status: ('A' for Active; 'I' for Inactive)
ROOT
ATOM      1  C   UNL d   1      -4.524   0.873  -5.998  0.00  0.00     0.172 C 
ATOM      2  N   UNL d   1      -4.433  -0.568  -5.990  0.00  0.00    -0.070 N 
ATOM      3  C1  UNL d   1      -5.494  -1.435  -5.995  0.00  0.00    -0.004 A 
ATOM      4  C2  UNL d   1      -4.990  -2.718  -5.984  0.00  0.00    -0.047 A 
ATOM      5  C3  UNL d   1      -3.579  -2.619  -5.970  0.00  0.00    -0.047 A 
ATOM      6  C4  UNL d   1      -3.261  -1.277  -5.974  0.00  0.00    -0.004 A 
ENDROOT
TORSDOF 0
ENDMDL
