MODEL 1
REMARK minimizedAffinity -0.935049713
REMARK minimizedRMSD -1
REMARK  0 active torsions:
REMARK  status: ('A' for Active; 'I' for Inactive)
ROOT
ATOM      1  C   UNL d   1      -2.231   4.118  -5.629  0.00  0.00     0.172 C 
ATOM      2  N   UNL d   1      -3.647   3.852  -5.718  0.00  0.00    -0.070 N 
ATOM      3  C1  UNL d   1      -4.617   4.777  -6.000  0.00  0.00    -0.004 A 
ATOM      4  C2  UNL d   1      -5.833   4.128  -5.993  0.00  0.00    -0.047 A 
ATOM      5  C3  UNL d   1      -5.586   2.767  -5.696  0.00  0.00    -0.047 A 
ATOM      6  C4  UNL d   1      -4.224   2.624  -5.531  0.00  0.00    -0.004 A 
ENDROOT
TORSDOF 0
ENDMDL
