MODEL 1
REMARK minimizedAffinity -2.50470066
REMARK minimizedRMSD -1
REMARK  0 active torsions:
REMARK  status: ('A' for Active; 'I' for Inactive)
ROOT
ATOM      1  C   UNL d   1       3.352  -2.241  -2.741  0.00  0.00     0.172 C 
ATOM      2  N   UNL d   1       4.187  -2.289  -3.918  0.00  0.00    -0.070 N 
ATOM      3  C1  UNL d   1       3.883  -1.738  -5.135  0.00  0.00    -0.004 A 
ATOM      4  C2  UNL d   1       4.931  -2.000  -5.990  0.00  0.00    -0.047 A 
ATOM      5  C3  UNL d   1       5.898  -2.735  -5.263  0.00  0.00    -0.047 A 
ATOM      6  C4  UNL d   1       5.411  -2.899  -3.983  0.00  0.00    -0.004 A 
ENDROOT
TORSDOF 0
ENDMDL
