MODEL 1
REMARK minimizedAffinity 2.84540367
REMARK minimizedRMSD -1
REMARK  0 active torsions:
REMARK  status: ('A' for Active; 'I' for Inactive)
ROOT
ATOM      1  C   UNL d   1       2.247   0.751  -1.135  0.00  0.00     0.172 C 
ATOM      2  N   UNL d   1       3.648   1.100  -1.136  0.00  0.00    -0.070 N 
ATOM      3  C1  UNL d   1       4.688   0.229  -1.319  0.00  0.00    -0.004 A 
ATOM      4  C2  UNL d   1       5.860   0.950  -1.251  0.00  0.00    -0.047 A 
ATOM      5  C3  UNL d   1       5.513   2.302  -1.017  0.00  0.00    -0.047 A 
ATOM      6  C4  UNL d   1       4.137   2.366  -0.950  0.00  0.00    -0.004 A 
ENDROOT
TORSDOF 0
ENDMDL
