MODEL 1
REMARK minimizedAffinity -1.42738891
REMARK minimizedRMSD -1
REMARK  0 active torsions:
REMARK  status: ('A' for Active; 'I' for Inactive)
ROOT
ATOM      1  C   UNL d   1      -3.808   0.418  -4.322  0.00  0.00     0.172 C 
ATOM      2  N   UNL d   1      -2.625  -0.159  -3.728  0.00  0.00    -0.070 N 
ATOM      3  C1  UNL d   1      -1.649   0.531  -3.060  0.00  0.00    -0.004 A 
ATOM      4  C2  UNL d   1      -0.697  -0.376  -2.649  0.00  0.00    -0.047 A 
ATOM      5  C3  UNL d   1      -1.114  -1.656  -3.087  0.00  0.00    -0.047 A 
ATOM      6  C4  UNL d   1      -2.311  -1.493  -3.752  0.00  0.00    -0.004 A 
ENDROOT
TORSDOF 0
ENDMDL
