MODEL 1
REMARK minimizedAffinity -1.79381776
REMARK minimizedRMSD -1
REMARK  3 active torsions:
REMARK  status: ('A' for Active; 'I' for Inactive)
REMARK    1  A    between atoms: C3'_2  and  C2'_3 
REMARK    2  A    between atoms: C2'_3  and  C1'_4 
REMARK    3  A    between atoms: C1'_4  and  C1_5 
ROOT
ATOM      1  C1  N4B d   1      -3.797   2.297  -2.165  0.00  0.00    -0.075 A 
ATOM      2  C2  N4B d   1      -5.165   2.504  -1.884  0.00  0.00     0.002 A 
ATOM      3  C3  N4B d   1      -5.999   2.996  -2.857  0.00  0.00     0.002 A 
ATOM      4  C4  N4B d   1      -5.486   3.306  -4.108  0.00  0.00    -0.004 A 
ATOM      5  C5  N4B d   1      -4.169   3.079  -4.379  0.00  0.00     0.002 A 
ATOM      6  C6  N4B d   1      -3.319   2.580  -3.412  0.00  0.00     0.002 A 
ENDROOT
BRANCH   1   7
ATOM      7  C1' N4B d   1      -2.829   1.841  -1.108  0.00  0.00     0.057 C 
BRANCH   7   8
ATOM      8  C2' N4B d   1      -1.430   2.335  -1.463  0.00  0.00     0.009 C 
BRANCH   8   9
ATOM      9  C3' N4B d   1      -0.452   2.148  -0.315  0.00  0.00     0.004 C 
ATOM     10  C4' N4B d   1      -0.058   3.443   0.329  0.00  0.00     0.003 C 
ENDBRANCH   8   9
ENDBRANCH   7   8
ENDBRANCH   1   7
TORSDOF 3
ENDMDL
