MODEL 1
REMARK minimizedAffinity 2.74011779
REMARK minimizedRMSD -1
REMARK  3 active torsions:
REMARK  status: ('A' for Active; 'I' for Inactive)
REMARK    1  A    between atoms: C3'_2  and  C2'_3 
REMARK    2  A    between atoms: C2'_3  and  C1'_4 
REMARK    3  A    between atoms: C1'_4  and  C1_5 
ROOT
ATOM      1  C1  N4B d   1      -0.113  -2.728  -2.396  0.00  0.00    -0.075 A 
ATOM      2  C2  N4B d   1      -1.432  -3.231  -2.398  0.00  0.00     0.002 A 
ATOM      3  C3  N4B d   1      -2.069  -3.484  -3.588  0.00  0.00     0.002 A 
ATOM      4  C4  N4B d   1      -1.415  -3.226  -4.784  0.00  0.00    -0.004 A 
ATOM      5  C5  N4B d   1      -0.131  -2.764  -4.773  0.00  0.00     0.002 A 
ATOM      6  C6  N4B d   1       0.522  -2.509  -3.584  0.00  0.00     0.002 A 
ENDROOT
BRANCH   1   7
ATOM      7  C1' N4B d   1       0.593  -2.355  -1.121  0.00  0.00     0.057 C 
BRANCH   7   8
ATOM      8  C2' N4B d   1       0.756  -3.601  -0.255  0.00  0.00     0.009 C 
BRANCH   8   9
ATOM      9  C3' N4B d   1       0.974  -4.850  -1.092  0.00  0.00     0.004 C 
ATOM     10  C4' N4B d   1       0.104  -5.995  -0.666  0.00  0.00     0.003 C 
ENDBRANCH   8   9
ENDBRANCH   7   8
ENDBRANCH   1   7
TORSDOF 3
ENDMDL
