MODEL 1
REMARK minimizedAffinity -5.17911625
REMARK minimizedRMSD -1
REMARK  3 active torsions:
REMARK  status: ('A' for Active; 'I' for Inactive)
REMARK    1  A    between atoms: C3'_2  and  C2'_3 
REMARK    2  A    between atoms: C2'_3  and  C1'_4 
REMARK    3  A    between atoms: C1'_4  and  C1_5 
ROOT
ATOM      1  C1  N4B d   1      -5.077   2.410  -4.921  0.00  0.00    -0.075 A 
ATOM      2  C2  N4B d   1      -5.955   1.321  -5.116  0.00  0.00     0.002 A 
ATOM      3  C3  N4B d   1      -5.475   0.131  -5.605  0.00  0.00     0.002 A 
ATOM      4  C4  N4B d   1      -4.130   0.012  -5.922  0.00  0.00    -0.004 A 
ATOM      5  C5  N4B d   1      -3.284   1.061  -5.706  0.00  0.00     0.002 A 
ATOM      6  C6  N4B d   1      -3.752   2.261  -5.212  0.00  0.00     0.002 A 
ENDROOT
BRANCH   1   7
ATOM      7  C1' N4B d   1      -5.571   3.757  -4.470  0.00  0.00     0.057 C 
BRANCH   7   8
ATOM      8  C2' N4B d   1      -5.967   3.679  -2.998  0.00  0.00     0.009 C 
BRANCH   8   9
ATOM      9  C3' N4B d   1      -5.154   2.639  -2.246  0.00  0.00     0.004 C 
ATOM     10  C4' N4B d   1      -6.000   1.762  -1.372  0.00  0.00     0.003 C 
ENDBRANCH   8   9
ENDBRANCH   7   8
ENDBRANCH   1   7
TORSDOF 3
ENDMDL
