MODEL 1
REMARK minimizedAffinity 4.41078663
REMARK minimizedRMSD -1
REMARK  0 active torsions:
REMARK  status: ('A' for Active; 'I' for Inactive)
ROOT
ATOM      1  C2' OXE d   1      -0.317   2.799   0.455  0.00  0.00     0.078 C 
ATOM      2  C1' OXE d   1      -1.621   2.243   2.877  0.00  0.00     0.078 C 
ATOM      3  C1  OXE d   1      -0.541   1.292   2.425  0.00  0.00    -0.078 A 
ATOM      4  C2  OXE d   1       0.059   1.546   1.216  0.00  0.00    -0.078 A 
ATOM      5  C3  OXE d   1       1.099   0.731   0.778  0.00  0.00     0.003 A 
ATOM      6  C4  OXE d   1       1.434  -0.431   1.483  0.00  0.00    -0.002 A 
ATOM      7  C5  OXE d   1       0.808  -0.730   2.697  0.00  0.00    -0.002 A 
ATOM      8  C6  OXE d   1      -0.150   0.142   3.202  0.00  0.00     0.003 A 
ENDROOT
TORSDOF 0
ENDMDL
