MODEL 1
REMARK minimizedAffinity 6.87253428
REMARK minimizedRMSD -1
REMARK  0 active torsions:
REMARK  status: ('A' for Active; 'I' for Inactive)
ROOT
ATOM      1  C2' OXE d   1      -2.783   3.359   1.144  0.00  0.00     0.078 C 
ATOM      2  C1' OXE d   1      -3.040   1.476  -0.923  0.00  0.00     0.078 C 
ATOM      3  C1  OXE d   1      -1.853   2.406  -0.961  0.00  0.00    -0.078 A 
ATOM      4  C2  OXE d   1      -1.760   3.354   0.028  0.00  0.00    -0.078 A 
ATOM      5  C3  OXE d   1      -0.656   4.201   0.071  0.00  0.00     0.003 A 
ATOM      6  C4  OXE d   1       0.281   4.197  -0.970  0.00  0.00    -0.002 A 
ATOM      7  C5  OXE d   1       0.184   3.265  -2.009  0.00  0.00    -0.002 A 
ATOM      8  C6  OXE d   1      -0.851   2.336  -1.997  0.00  0.00     0.003 A 
ENDROOT
TORSDOF 0
ENDMDL
