MODEL 1
REMARK minimizedAffinity 4.76330757
REMARK minimizedRMSD -1
REMARK  0 active torsions:
REMARK  status: ('A' for Active; 'I' for Inactive)
ROOT
ATOM      1  C2' OXE d   1       0.762   4.844  -1.846  0.00  0.00     0.078 C 
ATOM      2  C1' OXE d   1       2.104   4.176   0.527  0.00  0.00     0.078 C 
ATOM      3  C1  OXE d   1       0.810   3.462   0.226  0.00  0.00    -0.078 A 
ATOM      4  C2  OXE d   1       0.136   3.829  -0.914  0.00  0.00    -0.078 A 
ATOM      5  C3  OXE d   1      -1.034   3.163  -1.267  0.00  0.00     0.003 A 
ATOM      6  C4  OXE d   1      -1.611   2.233  -0.395  0.00  0.00    -0.002 A 
ATOM      7  C5  OXE d   1      -0.961   1.874   0.791  0.00  0.00    -0.002 A 
ATOM      8  C6  OXE d   1       0.269   2.447   1.095  0.00  0.00     0.003 A 
ENDROOT
TORSDOF 0
ENDMDL
