MODEL 1
REMARK minimizedAffinity 14.5475197
REMARK minimizedRMSD -1
REMARK  0 active torsions:
REMARK  status: ('A' for Active; 'I' for Inactive)
ROOT
ATOM      1  C2' OXE d   1       0.911  -4.456  -0.830  0.00  0.00     0.078 C 
ATOM      2  C1' OXE d   1       2.476  -2.352   0.172  0.00  0.00     0.078 C 
ATOM      3  C1  OXE d   1       3.191  -3.542  -0.418  0.00  0.00    -0.078 A 
ATOM      4  C2  OXE d   1       2.418  -4.587  -0.864  0.00  0.00    -0.078 A 
ATOM      5  C3  OXE d   1       3.025  -5.685  -1.467  0.00  0.00     0.003 A 
ATOM      6  C4  OXE d   1       4.420  -5.803  -1.485  0.00  0.00    -0.002 A 
ATOM      7  C5  OXE d   1       5.226  -4.767  -1.001  0.00  0.00    -0.002 A 
ATOM      8  C6  OXE d   1       4.629  -3.614  -0.504  0.00  0.00     0.003 A 
ENDROOT
TORSDOF 0
ENDMDL
