MODEL 1
REMARK minimizedAffinity 0.644417167
REMARK minimizedRMSD -1
REMARK  0 active torsions:
REMARK  status: ('A' for Active; 'I' for Inactive)
ROOT
ATOM      1  C2' OXE d   1       0.137   0.407  -4.233  0.00  0.00     0.078 C 
ATOM      2  C1' OXE d   1      -0.294  -0.798  -1.735  0.00  0.00     0.078 C 
ATOM      3  C1  OXE d   1      -0.312   0.709  -1.802  0.00  0.00    -0.078 A 
ATOM      4  C2  OXE d   1      -0.054   1.291  -3.019  0.00  0.00    -0.078 A 
ATOM      5  C3  OXE d   1      -0.112   2.675  -3.148  0.00  0.00     0.003 A 
ATOM      6  C4  OXE d   1      -0.279   3.486  -2.019  0.00  0.00    -0.002 A 
ATOM      7  C5  OXE d   1      -0.505   2.914  -0.762  0.00  0.00    -0.002 A 
ATOM      8  C6  OXE d   1      -0.566   1.530  -0.644  0.00  0.00     0.003 A 
ENDROOT
TORSDOF 0
ENDMDL
