MODEL 1
REMARK minimizedAffinity 8.40390015
REMARK minimizedRMSD -1
REMARK  0 active torsions:
REMARK  status: ('A' for Active; 'I' for Inactive)
ROOT
ATOM      1  C2' OXE d   1      -1.654   0.971  -0.469  0.00  0.00     0.078 C 
ATOM      2  C1' OXE d   1      -0.479   2.124   1.805  0.00  0.00     0.078 C 
ATOM      3  C1  OXE d   1      -0.340   2.856   0.493  0.00  0.00    -0.078 A 
ATOM      4  C2  OXE d   1      -0.878   2.261  -0.623  0.00  0.00    -0.078 A 
ATOM      5  C3  OXE d   1      -0.825   2.920  -1.848  0.00  0.00     0.003 A 
ATOM      6  C4  OXE d   1      -0.097   4.108  -1.983  0.00  0.00    -0.002 A 
ATOM      7  C5  OXE d   1       0.492   4.711  -0.867  0.00  0.00    -0.002 A 
ATOM      8  C6  OXE d   1       0.344   4.121   0.383  0.00  0.00     0.003 A 
ENDROOT
TORSDOF 0
ENDMDL
