MODEL 1
REMARK minimizedAffinity -2.36752677
REMARK minimizedRMSD -1
REMARK  0 active torsions:
REMARK  status: ('A' for Active; 'I' for Inactive)
ROOT
ATOM      1  C2' OXE d   1       2.655   3.413   2.570  0.00  0.00     0.078 C 
ATOM      2  C1' OXE d   1       0.437   1.876   1.796  0.00  0.00     0.078 C 
ATOM      3  C1  OXE d   1       0.820   3.046   0.925  0.00  0.00    -0.078 A 
ATOM      4  C2  OXE d   1       1.878   3.820   1.336  0.00  0.00    -0.078 A 
ATOM      5  C3  OXE d   1       2.307   4.879   0.541  0.00  0.00     0.003 A 
ATOM      6  C4  OXE d   1       1.577   5.256  -0.593  0.00  0.00    -0.002 A 
ATOM      7  C5  OXE d   1       0.473   4.504  -1.008  0.00  0.00    -0.002 A 
ATOM      8  C6  OXE d   1       0.107   3.374  -0.285  0.00  0.00     0.003 A 
ENDROOT
TORSDOF 0
ENDMDL
