MODEL 1
REMARK minimizedAffinity 7.33691835
REMARK minimizedRMSD -1
REMARK  0 active torsions:
REMARK  status: ('A' for Active; 'I' for Inactive)
ROOT
ATOM      1  C2' OXE d   1      -0.816   5.860  -1.727  0.00  0.00     0.078 C 
ATOM      2  C1' OXE d   1      -1.988   5.743   0.822  0.00  0.00     0.078 C 
ATOM      3  C1  OXE d   1      -1.166   4.562   0.370  0.00  0.00    -0.078 A 
ATOM      4  C2  OXE d   1      -0.635   4.608  -0.896  0.00  0.00    -0.078 A 
ATOM      5  C3  OXE d   1       0.177   3.569  -1.342  0.00  0.00     0.003 A 
ATOM      6  C4  OXE d   1       0.332   2.410  -0.572  0.00  0.00    -0.002 A 
ATOM      7  C5  OXE d   1      -0.233   2.326   0.705  0.00  0.00    -0.002 A 
ATOM      8  C6  OXE d   1      -0.948   3.408   1.207  0.00  0.00     0.003 A 
ENDROOT
TORSDOF 0
ENDMDL
