MODEL 1
REMARK minimizedAffinity 9.25035286
REMARK minimizedRMSD -1
REMARK  0 active torsions:
REMARK  status: ('A' for Active; 'I' for Inactive)
ROOT
ATOM      1  C2' OXE d   1       1.468   4.064   0.675  0.00  0.00     0.078 C 
ATOM      2  C1' OXE d   1       0.178   2.088   2.196  0.00  0.00     0.078 C 
ATOM      3  C1  OXE d   1      -0.249   2.261   0.760  0.00  0.00    -0.078 A 
ATOM      4  C2  OXE d   1       0.355   3.262   0.037  0.00  0.00    -0.078 A 
ATOM      5  C3  OXE d   1       0.037   3.429  -1.308  0.00  0.00     0.003 A 
ATOM      6  C4  OXE d   1      -1.001   2.690  -1.888  0.00  0.00    -0.002 A 
ATOM      7  C5  OXE d   1      -1.657   1.692  -1.158  0.00  0.00    -0.002 A 
ATOM      8  C6  OXE d   1      -1.264   1.437   0.151  0.00  0.00     0.003 A 
ENDROOT
TORSDOF 0
ENDMDL
