MODEL 1
REMARK minimizedAffinity 2.73565364
REMARK minimizedRMSD -1
REMARK  0 active torsions:
REMARK  status: ('A' for Active; 'I' for Inactive)
ROOT
ATOM      1  C2' OXE d   1      -4.989  -0.375   2.233  0.00  0.00     0.078 C 
ATOM      2  C1' OXE d   1      -5.746   1.109   4.492  0.00  0.00     0.078 C 
ATOM      3  C1  OXE d   1      -5.698  -0.393   4.621  0.00  0.00    -0.078 A 
ATOM      4  C2  OXE d   1      -5.372  -1.113   3.497  0.00  0.00    -0.078 A 
ATOM      5  C3  OXE d   1      -5.261  -2.499   3.575  0.00  0.00     0.003 A 
ATOM      6  C4  OXE d   1      -5.627  -3.175   4.745  0.00  0.00    -0.002 A 
ATOM      7  C5  OXE d   1      -6.000  -2.462   5.890  0.00  0.00    -0.002 A 
ATOM      8  C6  OXE d   1      -6.000  -1.072   5.857  0.00  0.00     0.003 A 
ENDROOT
TORSDOF 0
ENDMDL
