MODEL 1
REMARK minimizedAffinity 6.17587614
REMARK minimizedRMSD -1
REMARK  1 active torsions:
REMARK  status: ('A' for Active; 'I' for Inactive)
REMARK    1  A    between atoms: C1_2  and  C2_3 
ROOT
ATOM      1  C2  UNL d   1       0.097  -2.305   1.209  0.00  0.00    -0.081 A 
ATOM      2  C3  UNL d   1       0.660  -3.389   0.524  0.00  0.00     0.006 A 
ATOM      3  C4  UNL d   1       2.046  -3.549   0.468  0.00  0.00     0.002 A 
ATOM      4  C5  UNL d   1       2.892  -2.632   1.101  0.00  0.00    -0.080 A 
ATOM      5  C6  UNL d   1       4.382  -2.808   1.074  0.00  0.00     0.076 C 
ATOM      6  C7  UNL d   1       2.331  -1.540   1.771  0.00  0.00     0.002 A 
ATOM      7  C8  UNL d   1       0.945  -1.379   1.827  0.00  0.00     0.006 A 
ENDROOT
BRANCH   1   8
ATOM      8  C1  UNL d   1      -1.399  -2.166   1.327  0.00  0.00     0.054 C 
ATOM      9  C   UNL d   1      -1.942  -2.992   2.484  0.00  0.00     0.018 C 
ENDBRANCH   1   8
TORSDOF 1
ENDMDL
