MODEL 1
REMARK minimizedAffinity 15.7739954
REMARK minimizedRMSD -1
REMARK  1 active torsions:
REMARK  status: ('A' for Active; 'I' for Inactive)
REMARK    1  A    between atoms: C1_2  and  C2_3 
ROOT
ATOM      1  C2  UNL d   1       3.202  -2.065   2.662  0.00  0.00    -0.081 A 
ATOM      2  C3  UNL d   1       2.225  -1.151   3.075  0.00  0.00     0.006 A 
ATOM      3  C4  UNL d   1       1.046  -0.994   2.342  0.00  0.00     0.002 A 
ATOM      4  C5  UNL d   1       0.821  -1.754   1.189  0.00  0.00    -0.080 A 
ATOM      5  C6  UNL d   1      -0.453  -1.617   0.409  0.00  0.00     0.076 C 
ATOM      6  C7  UNL d   1       1.804  -2.655   0.766  0.00  0.00     0.002 A 
ATOM      7  C8  UNL d   1       2.983  -2.812   1.498  0.00  0.00     0.006 A 
ENDROOT
BRANCH   1   8
ATOM      8  C1  UNL d   1       4.445  -2.283   3.486  0.00  0.00     0.054 C 
ATOM      9  C   UNL d   1       4.130  -2.278   4.975  0.00  0.00     0.018 C 
ENDBRANCH   1   8
TORSDOF 1
ENDMDL
