MODEL 1
REMARK minimizedAffinity 15.1990604
REMARK minimizedRMSD -1
REMARK  1 active torsions:
REMARK  status: ('A' for Active; 'I' for Inactive)
REMARK    1  A    between atoms: C1_2  and  C2_3 
ROOT
ATOM      1  C2  UNL d   1       5.909   1.563  -1.659  0.00  0.00    -0.081 A 
ATOM      2  C3  UNL d   1       5.919   0.699  -0.557  0.00  0.00     0.006 A 
ATOM      3  C4  UNL d   1       5.951   1.209   0.743  0.00  0.00     0.002 A 
ATOM      4  C5  UNL d   1       5.965   2.591   0.963  0.00  0.00    -0.080 A 
ATOM      5  C6  UNL d   1       5.969   3.152   2.354  0.00  0.00     0.076 C 
ATOM      6  C7  UNL d   1       5.973   3.454  -0.138  0.00  0.00     0.002 A 
ATOM      7  C8  UNL d   1       5.941   2.944  -1.438  0.00  0.00     0.006 A 
ENDROOT
BRANCH   1   8
ATOM      8  C1  UNL d   1       5.809   1.017  -3.060  0.00  0.00     0.054 C 
ATOM      9  C   UNL d   1       5.633   2.135  -4.078  0.00  0.00     0.018 C 
ENDBRANCH   1   8
TORSDOF 1
ENDMDL
