MODEL 1
REMARK minimizedAffinity -5.80576229
REMARK minimizedRMSD -1
REMARK  1 active torsions:
REMARK  status: ('A' for Active; 'I' for Inactive)
REMARK    1  A    between atoms: C1_2  and  C2_3 
ROOT
ATOM      1  C2  UNL d   1      -0.127  -0.141  -0.118  0.00  0.00    -0.077 A 
ATOM      2  C3  UNL d   1       0.756   0.380   0.837  0.00  0.00     0.002 A 
ATOM      3  C4  UNL d   1       0.270   0.907   2.036  0.00  0.00     0.002 A 
ATOM      4  C5  UNL d   1      -1.100   0.913   2.291  0.00  0.00    -0.004 A 
ATOM      5  C6  UNL d   1      -1.987   0.399   1.345  0.00  0.00     0.002 A 
ATOM      6  C7  UNL d   1      -1.502  -0.127   0.147  0.00  0.00     0.002 A 
ENDROOT
BRANCH   1   7
ATOM      7  C1  UNL d   1       0.399  -0.755  -1.390  0.00  0.00     0.055 C 
ATOM      8  C   UNL d   1       0.940   0.309  -2.335  0.00  0.00     0.019 C 
ENDBRANCH   1   7
TORSDOF 1
ENDMDL
