MODEL 1
REMARK minimizedAffinity -3.62798333
REMARK minimizedRMSD -1
REMARK  1 active torsions:
REMARK  status: ('A' for Active; 'I' for Inactive)
REMARK    1  A    between atoms: C1_2  and  C2_3 
ROOT
ATOM      1  C2  UNL d   1      -0.410   0.592   1.549  0.00  0.00    -0.077 A 
ATOM      2  C3  UNL d   1      -0.967   0.299   0.297  0.00  0.00     0.002 A 
ATOM      3  C4  UNL d   1      -0.191  -0.298  -0.699  0.00  0.00     0.002 A 
ATOM      4  C5  UNL d   1       1.144  -0.609  -0.451  0.00  0.00    -0.004 A 
ATOM      5  C6  UNL d   1       1.708  -0.319   0.791  0.00  0.00     0.002 A 
ATOM      6  C7  UNL d   1       0.934   0.278   1.787  0.00  0.00     0.002 A 
ENDROOT
BRANCH   1   7
ATOM      7  C1  UNL d   1      -1.259   1.190   2.641  0.00  0.00     0.055 C 
ATOM      8  C   UNL d   1      -2.245   0.172   3.196  0.00  0.00     0.019 C 
ENDBRANCH   1   7
TORSDOF 1
ENDMDL
