MODEL 1
REMARK minimizedAffinity -3.19170237
REMARK minimizedRMSD -1
REMARK  1 active torsions:
REMARK  status: ('A' for Active; 'I' for Inactive)
REMARK    1  A    between atoms: C1_2  and  C2_3 
ROOT
ATOM      1  C2  UNL d   1      -0.891   0.224   0.614  0.00  0.00    -0.077 A 
ATOM      2  C3  UNL d   1      -1.408   0.931   1.709  0.00  0.00     0.002 A 
ATOM      3  C4  UNL d   1      -0.549   1.515   2.642  0.00  0.00     0.002 A 
ATOM      4  C5  UNL d   1       0.831   1.402   2.487  0.00  0.00    -0.004 A 
ATOM      5  C6  UNL d   1       1.355   0.701   1.402  0.00  0.00     0.002 A 
ATOM      6  C7  UNL d   1       0.497   0.115   0.469  0.00  0.00     0.002 A 
ENDROOT
BRANCH   1   7
ATOM      7  C1  UNL d   1      -1.816  -0.364  -0.420  0.00  0.00     0.055 C 
ATOM      8  C   UNL d   1      -3.274  -0.107  -0.069  0.00  0.00     0.019 C 
ENDBRANCH   1   7
TORSDOF 1
ENDMDL
