MODEL 1
REMARK minimizedAffinity -3.78953862
REMARK minimizedRMSD -1
REMARK  1 active torsions:
REMARK  status: ('A' for Active; 'I' for Inactive)
REMARK    1  A    between atoms: C1_2  and  C2_3 
ROOT
ATOM      1  C2  UNL d   1      -1.378   0.470   0.885  0.00  0.00    -0.077 A 
ATOM      2  C3  UNL d   1      -0.147   0.199   0.271  0.00  0.00     0.002 A 
ATOM      3  C4  UNL d   1       1.043   0.316   0.992  0.00  0.00     0.002 A 
ATOM      4  C5  UNL d   1       1.013   0.702   2.331  0.00  0.00    -0.004 A 
ATOM      5  C6  UNL d   1      -0.206   0.976   2.950  0.00  0.00     0.002 A 
ATOM      6  C7  UNL d   1      -1.396   0.860   2.230  0.00  0.00     0.002 A 
ENDROOT
BRANCH   1   7
ATOM      7  C1  UNL d   1      -2.666   0.296   0.123  0.00  0.00     0.055 C 
ATOM      8  C   UNL d   1      -2.785  -1.109  -0.449  0.00  0.00     0.019 C 
ENDBRANCH   1   7
TORSDOF 1
ENDMDL
