MODEL 1
REMARK minimizedAffinity -2.27250075
REMARK minimizedRMSD -1
REMARK  1 active torsions:
REMARK  status: ('A' for Active; 'I' for Inactive)
REMARK    1  A    between atoms: C1_2  and  C2_3 
ROOT
ATOM      1  C2  UNL d   1      -2.257   0.616   0.705  0.00  0.00    -0.077 A 
ATOM      2  C3  UNL d   1      -1.449   1.761   0.692  0.00  0.00     0.002 A 
ATOM      3  C4  UNL d   1      -0.850   2.217   1.867  0.00  0.00     0.002 A 
ATOM      4  C5  UNL d   1      -1.049   1.530   3.064  0.00  0.00    -0.004 A 
ATOM      5  C6  UNL d   1      -1.852   0.391   3.088  0.00  0.00     0.002 A 
ATOM      6  C7  UNL d   1      -2.453  -0.065   1.913  0.00  0.00     0.002 A 
ENDROOT
BRANCH   1   7
ATOM      7  C1  UNL d   1      -2.865   0.095  -0.572  0.00  0.00     0.055 C 
ATOM      8  C   UNL d   1      -2.893  -1.427  -0.591  0.00  0.00     0.019 C 
ENDBRANCH   1   7
TORSDOF 1
ENDMDL
