MODEL 1
REMARK minimizedAffinity -3.44652915
REMARK minimizedRMSD -1
REMARK  0 active torsions:
REMARK  status: ('A' for Active; 'I' for Inactive)
ROOT
ATOM      1  C   UNL d   1       5.999  -4.338   1.146  0.00  0.00     0.077 C 
ATOM      2  C1  UNL d   1       5.937  -3.930   2.588  0.00  0.00    -0.074 A 
ATOM      3  C2  UNL d   1       5.883  -2.580   2.951  0.00  0.00    -0.005 A 
ATOM      4  C3  UNL d   1       5.815  -2.216   4.295  0.00  0.00     0.006 A 
ATOM      5  C4  UNL d   1       5.801  -3.196   5.289  0.00  0.00    -0.005 A 
ATOM      6  C5  UNL d   1       5.853  -4.550   4.945  0.00  0.00    -0.074 A 
ATOM      7  C6  UNL d   1       5.829  -5.616   6.000  0.00  0.00     0.077 C 
ATOM      8  C7  UNL d   1       5.914  -4.908   3.591  0.00  0.00    -0.001 A 
ENDROOT
TORSDOF 0
ENDMDL
