MODEL 1
REMARK minimizedAffinity -2.43805647
REMARK minimizedRMSD -1
REMARK  0 active torsions:
REMARK  status: ('A' for Active; 'I' for Inactive)
ROOT
ATOM      1  C   UNL d   1       6.000  -5.010   5.999  0.00  0.00     0.077 C 
ATOM      2  C1  UNL d   1       5.295  -4.113   5.025  0.00  0.00    -0.074 A 
ATOM      3  C2  UNL d   1       5.999  -3.464   4.006  0.00  0.00    -0.005 A 
ATOM      4  C3  UNL d   1       5.329  -2.640   3.102  0.00  0.00     0.006 A 
ATOM      5  C4  UNL d   1       3.950  -2.457   3.208  0.00  0.00    -0.005 A 
ATOM      6  C5  UNL d   1       3.229  -3.098   4.220  0.00  0.00    -0.074 A 
ATOM      7  C6  UNL d   1       1.744  -2.919   4.342  0.00  0.00     0.077 C 
ATOM      8  C7  UNL d   1       3.908  -3.929   5.121  0.00  0.00    -0.001 A 
ENDROOT
TORSDOF 0
ENDMDL
