MODEL 1
REMARK minimizedAffinity -3.53174233
REMARK minimizedRMSD -1
REMARK  0 active torsions:
REMARK  status: ('A' for Active; 'I' for Inactive)
ROOT
ATOM      1  C   UNL d   1       5.961  -5.947   5.978  0.00  0.00     0.077 C 
ATOM      2  C1  UNL d   1       5.743  -4.869   4.959  0.00  0.00    -0.074 A 
ATOM      3  C2  UNL d   1       5.341  -3.586   5.345  0.00  0.00    -0.005 A 
ATOM      4  C3  UNL d   1       5.151  -2.591   4.386  0.00  0.00     0.006 A 
ATOM      5  C4  UNL d   1       5.360  -2.868   3.034  0.00  0.00    -0.005 A 
ATOM      6  C5  UNL d   1       5.762  -4.145   2.630  0.00  0.00    -0.074 A 
ATOM      7  C6  UNL d   1       6.000  -4.457   1.182  0.00  0.00     0.077 C 
ATOM      8  C7  UNL d   1       5.958  -5.138   3.600  0.00  0.00    -0.001 A 
ENDROOT
TORSDOF 0
ENDMDL
