MODEL 1
REMARK minimizedAffinity -3.08342934
REMARK minimizedRMSD -1
REMARK  0 active torsions:
REMARK  status: ('A' for Active; 'I' for Inactive)
ROOT
ATOM      1  C   UNL d   1       1.702  -4.038   4.882  0.00  0.00     0.077 C 
ATOM      2  C1  UNL d   1       3.200  -3.968   4.899  0.00  0.00    -0.074 A 
ATOM      3  C2  UNL d   1       3.931  -4.490   5.971  0.00  0.00    -0.005 A 
ATOM      4  C3  UNL d   1       5.325  -4.426   5.970  0.00  0.00     0.006 A 
ATOM      5  C4  UNL d   1       6.000  -3.841   4.898  0.00  0.00    -0.005 A 
ATOM      6  C5  UNL d   1       5.286  -3.314   3.817  0.00  0.00    -0.074 A 
ATOM      7  C6  UNL d   1       5.996  -2.691   2.652  0.00  0.00     0.077 C 
ATOM      8  C7  UNL d   1       3.886  -3.389   3.823  0.00  0.00    -0.001 A 
ENDROOT
TORSDOF 0
ENDMDL
