MODEL 1
REMARK minimizedAffinity -1.89541399
REMARK minimizedRMSD -1
REMARK  0 active torsions:
REMARK  status: ('A' for Active; 'I' for Inactive)
ROOT
ATOM      1  C   UNL d   1       6.000  -3.780   0.968  0.00  0.00     0.077 C 
ATOM      2  C1  UNL d   1       5.238  -3.808   2.260  0.00  0.00    -0.074 A 
ATOM      3  C2  UNL d   1       3.840  -3.775   2.271  0.00  0.00    -0.005 A 
ATOM      4  C3  UNL d   1       3.145  -3.811   3.479  0.00  0.00     0.006 A 
ATOM      5  C4  UNL d   1       3.840  -3.880   4.688  0.00  0.00    -0.005 A 
ATOM      6  C5  UNL d   1       5.238  -3.915   4.696  0.00  0.00    -0.074 A 
ATOM      7  C6  UNL d   1       6.000  -3.999   5.986  0.00  0.00     0.077 C 
ATOM      8  C7  UNL d   1       5.929  -3.885   3.477  0.00  0.00    -0.001 A 
ENDROOT
TORSDOF 0
ENDMDL
