MODEL 1
REMARK minimizedAffinity -3.53356433
REMARK minimizedRMSD -1
REMARK  0 active torsions:
REMARK  status: ('A' for Active; 'I' for Inactive)
ROOT
ATOM      1  C   UNL d   1       6.000  -5.914   6.000  0.00  0.00     0.077 C 
ATOM      2  C1  UNL d   1       5.674  -4.630   5.298  0.00  0.00    -0.074 A 
ATOM      3  C2  UNL d   1       5.097  -3.559   5.989  0.00  0.00    -0.005 A 
ATOM      4  C3  UNL d   1       4.808  -2.367   5.324  0.00  0.00     0.006 A 
ATOM      5  C4  UNL d   1       5.093  -2.234   3.965  0.00  0.00    -0.005 A 
ATOM      6  C5  UNL d   1       5.671  -3.293   3.258  0.00  0.00    -0.074 A 
ATOM      7  C6  UNL d   1       5.992  -3.163   1.798  0.00  0.00     0.077 C 
ATOM      8  C7  UNL d   1       5.964  -4.485   3.934  0.00  0.00    -0.001 A 
ENDROOT
TORSDOF 0
ENDMDL
