MODEL 1
REMARK minimizedAffinity -3.61475492
REMARK minimizedRMSD -1
REMARK  0 active torsions:
REMARK  status: ('A' for Active; 'I' for Inactive)
ROOT
ATOM      1  C   UNL d   1       5.999  -1.983   1.142  0.00  0.00     0.077 C 
ATOM      2  C1  UNL d   1       5.879  -3.003   2.234  0.00  0.00    -0.074 A 
ATOM      3  C2  UNL d   1       6.000  -4.369   1.959  0.00  0.00    -0.005 A 
ATOM      4  C3  UNL d   1       5.896  -5.306   2.987  0.00  0.00     0.006 A 
ATOM      5  C4  UNL d   1       5.670  -4.887   4.299  0.00  0.00    -0.005 A 
ATOM      6  C5  UNL d   1       5.548  -3.525   4.594  0.00  0.00    -0.074 A 
ATOM      7  C6  UNL d   1       5.315  -3.058   6.000  0.00  0.00     0.077 C 
ATOM      8  C7  UNL d   1       5.661  -2.590   3.556  0.00  0.00    -0.001 A 
ENDROOT
TORSDOF 0
ENDMDL
