MODEL 1
REMARK minimizedAffinity -3.3777833
REMARK minimizedRMSD -1
REMARK  0 active torsions:
REMARK  status: ('A' for Active; 'I' for Inactive)
ROOT
ATOM      1  C   UNL d   1       4.906  -5.924   5.994  0.00  0.00     0.077 C 
ATOM      2  C1  UNL d   1       5.281  -4.752   5.136  0.00  0.00    -0.074 A 
ATOM      3  C2  UNL d   1       5.474  -3.484   5.695  0.00  0.00    -0.005 A 
ATOM      4  C3  UNL d   1       5.832  -2.406   4.886  0.00  0.00     0.006 A 
ATOM      5  C4  UNL d   1       6.000  -2.584   3.512  0.00  0.00    -0.005 A 
ATOM      6  C5  UNL d   1       5.812  -3.844   2.936  0.00  0.00    -0.074 A 
ATOM      7  C6  UNL d   1       5.998  -4.055   1.462  0.00  0.00     0.077 C 
ATOM      8  C7  UNL d   1       5.459  -4.924   3.756  0.00  0.00    -0.001 A 
ENDROOT
TORSDOF 0
ENDMDL
