MODEL 1
REMARK minimizedAffinity -3.61791635
REMARK minimizedRMSD -1
REMARK  0 active torsions:
REMARK  status: ('A' for Active; 'I' for Inactive)
ROOT
ATOM      1  C   UNL d   1       3.033  -5.085   5.995  0.00  0.00     0.077 C 
ATOM      2  C1  UNL d   1       4.008  -4.271   5.197  0.00  0.00    -0.074 A 
ATOM      3  C2  UNL d   1       4.416  -3.007   5.635  0.00  0.00    -0.005 A 
ATOM      4  C3  UNL d   1       5.331  -2.266   4.888  0.00  0.00     0.006 A 
ATOM      5  C4  UNL d   1       5.845  -2.779   3.697  0.00  0.00    -0.005 A 
ATOM      6  C5  UNL d   1       5.449  -4.042   3.243  0.00  0.00    -0.074 A 
ATOM      7  C6  UNL d   1       6.000  -4.613   1.971  0.00  0.00     0.077 C 
ATOM      8  C7  UNL d   1       4.535  -4.784   4.004  0.00  0.00    -0.001 A 
ENDROOT
TORSDOF 0
ENDMDL
