MODEL 1
REMARK minimizedAffinity -3.09695578
REMARK minimizedRMSD -1
REMARK  0 active torsions:
REMARK  status: ('A' for Active; 'I' for Inactive)
ROOT
ATOM      1  C   UNL d   1       5.983  -4.310   1.143  0.00  0.00     0.077 C 
ATOM      2  C1  UNL d   1       5.992  -3.903   2.587  0.00  0.00    -0.074 A 
ATOM      3  C2  UNL d   1       6.000  -2.553   2.953  0.00  0.00    -0.005 A 
ATOM      4  C3  UNL d   1       5.998  -2.190   4.300  0.00  0.00     0.006 A 
ATOM      5  C4  UNL d   1       5.988  -3.171   5.292  0.00  0.00    -0.005 A 
ATOM      6  C5  UNL d   1       5.979  -4.526   4.945  0.00  0.00    -0.074 A 
ATOM      7  C6  UNL d   1       5.958  -5.593   5.998  0.00  0.00     0.077 C 
ATOM      8  C7  UNL d   1       5.974  -4.883   3.589  0.00  0.00    -0.001 A 
ENDROOT
TORSDOF 0
ENDMDL
