MODEL 1
REMARK minimizedAffinity -3.46820593
REMARK minimizedRMSD -1
REMARK  0 active torsions:
REMARK  status: ('A' for Active; 'I' for Inactive)
ROOT
ATOM      1  C   UNL d   1       5.681  -3.387   1.699  0.00  0.00     0.077 C 
ATOM      2  C1  UNL d   1       5.655  -3.399   3.199  0.00  0.00    -0.074 A 
ATOM      3  C2  UNL d   1       6.000  -2.259   3.933  0.00  0.00    -0.005 A 
ATOM      4  C3  UNL d   1       5.961  -2.282   5.327  0.00  0.00     0.006 A 
ATOM      5  C4  UNL d   1       5.577  -3.443   6.000  0.00  0.00    -0.005 A 
ATOM      6  C5  UNL d   1       5.228  -4.591   5.283  0.00  0.00    -0.074 A 
ATOM      7  C6  UNL d   1       4.804  -5.844   5.991  0.00  0.00     0.077 C 
ATOM      8  C7  UNL d   1       5.263  -4.558   3.882  0.00  0.00    -0.001 A 
ENDROOT
TORSDOF 0
ENDMDL
