MODEL 1
REMARK minimizedAffinity -1.92303491
REMARK minimizedRMSD -1
REMARK  0 active torsions:
REMARK  status: ('A' for Active; 'I' for Inactive)
ROOT
ATOM      1  C   UNL d   1       5.896  -1.661   4.795  0.00  0.00     0.077 C 
ATOM      2  C1  UNL d   1       5.697  -3.147   4.771  0.00  0.00    -0.074 A 
ATOM      3  C2  UNL d   1       5.265  -3.834   5.910  0.00  0.00    -0.005 A 
ATOM      4  C3  UNL d   1       5.076  -5.215   5.869  0.00  0.00     0.006 A 
ATOM      5  C4  UNL d   1       5.316  -5.923   4.691  0.00  0.00    -0.005 A 
ATOM      6  C5  UNL d   1       5.747  -5.253   3.541  0.00  0.00    -0.074 A 
ATOM      7  C6  UNL d   1       6.000  -5.997   2.264  0.00  0.00     0.077 C 
ATOM      8  C7  UNL d   1       5.929  -3.864   3.588  0.00  0.00    -0.001 A 
ENDROOT
TORSDOF 0
ENDMDL
