MODEL 1
REMARK minimizedAffinity -3.30828214
REMARK minimizedRMSD -1
REMARK  0 active torsions:
REMARK  status: ('A' for Active; 'I' for Inactive)
ROOT
ATOM      1  C   UNL d   1       5.970  -2.457   1.641  0.00  0.00     0.077 C 
ATOM      2  C1  UNL d   1       5.976  -2.828   3.095  0.00  0.00    -0.074 A 
ATOM      3  C2  UNL d   1       6.000  -1.844   4.088  0.00  0.00    -0.005 A 
ATOM      4  C3  UNL d   1       5.996  -2.204   5.435  0.00  0.00     0.006 A 
ATOM      5  C4  UNL d   1       5.968  -3.550   5.803  0.00  0.00    -0.005 A 
ATOM      6  C5  UNL d   1       5.943  -4.548   4.823  0.00  0.00    -0.074 A 
ATOM      7  C6  UNL d   1       5.903  -5.999   5.201  0.00  0.00     0.077 C 
ATOM      8  C7  UNL d   1       5.940  -4.178   3.472  0.00  0.00    -0.001 A 
ENDROOT
TORSDOF 0
ENDMDL
