MODEL 1
REMARK minimizedAffinity -2.15797305
REMARK minimizedRMSD -1
REMARK  0 active torsions:
REMARK  status: ('A' for Active; 'I' for Inactive)
ROOT
ATOM      1  C   UNL d   1       5.646  -5.414   6.000  0.00  0.00     0.077 C 
ATOM      2  C1  UNL d   1       5.763  -4.125   5.241  0.00  0.00    -0.074 A 
ATOM      3  C2  UNL d   1       5.830  -2.900   5.911  0.00  0.00    -0.005 A 
ATOM      4  C3  UNL d   1       5.948  -1.710   5.192  0.00  0.00     0.006 A 
ATOM      5  C4  UNL d   1       6.000  -1.734   3.798  0.00  0.00    -0.005 A 
ATOM      6  C5  UNL d   1       5.935  -2.950   3.111  0.00  0.00    -0.074 A 
ATOM      7  C6  UNL d   1       5.998  -2.995   1.613  0.00  0.00     0.077 C 
ATOM      8  C7  UNL d   1       5.823  -4.142   3.840  0.00  0.00    -0.001 A 
ENDROOT
TORSDOF 0
ENDMDL
