MODEL 1
REMARK minimizedAffinity -3.51556993
REMARK minimizedRMSD -1
REMARK  0 active torsions:
REMARK  status: ('A' for Active; 'I' for Inactive)
ROOT
ATOM      1  C   UNL d   1       6.000  -4.014   1.445  0.00  0.00     0.077 C 
ATOM      2  C1  UNL d   1       5.645  -4.100   2.900  0.00  0.00    -0.074 A 
ATOM      3  C2  UNL d   1       5.069  -5.258   3.432  0.00  0.00    -0.005 A 
ATOM      4  C3  UNL d   1       4.754  -5.327   4.789  0.00  0.00     0.006 A 
ATOM      5  C4  UNL d   1       5.010  -4.241   5.626  0.00  0.00    -0.005 A 
ATOM      6  C5  UNL d   1       5.586  -3.075   5.112  0.00  0.00    -0.074 A 
ATOM      7  C6  UNL d   1       5.877  -1.902   6.000  0.00  0.00     0.077 C 
ATOM      8  C7  UNL d   1       5.907  -3.016   3.749  0.00  0.00    -0.001 A 
ENDROOT
TORSDOF 0
ENDMDL
