MODEL 1
REMARK minimizedAffinity 5.54457664
REMARK minimizedRMSD -1
REMARK  0 active torsions:
REMARK  status: ('A' for Active; 'I' for Inactive)
ROOT
ATOM      1  C   UNL d   1       5.986  -6.000   2.852  0.00  0.00     0.077 C 
ATOM      2  C1  UNL d   1       5.527  -4.575   2.937  0.00  0.00    -0.074 A 
ATOM      3  C2  UNL d   1       6.000  -3.612   2.039  0.00  0.00    -0.005 A 
ATOM      4  C3  UNL d   1       5.556  -2.293   2.125  0.00  0.00     0.006 A 
ATOM      5  C4  UNL d   1       4.636  -1.923   3.107  0.00  0.00    -0.005 A 
ATOM      6  C5  UNL d   1       4.151  -2.872   4.012  0.00  0.00    -0.074 A 
ATOM      7  C6  UNL d   1       3.154  -2.494   5.067  0.00  0.00     0.077 C 
ATOM      8  C7  UNL d   1       4.596  -4.198   3.915  0.00  0.00    -0.001 A 
ENDROOT
TORSDOF 0
ENDMDL
