MODEL 1
REMARK minimizedAffinity -1.59247303
REMARK minimizedRMSD -1
REMARK  0 active torsions:
REMARK  status: ('A' for Active; 'I' for Inactive)
ROOT
ATOM      1  C   UNL d   1       5.999  -5.409   5.997  0.00  0.00     0.077 C 
ATOM      2  C1  UNL d   1       5.899  -4.150   5.188  0.00  0.00    -0.074 A 
ATOM      3  C2  UNL d   1       5.734  -2.908   5.808  0.00  0.00    -0.005 A 
ATOM      4  C3  UNL d   1       5.652  -1.745   5.042  0.00  0.00     0.006 A 
ATOM      5  C4  UNL d   1       5.734  -1.812   3.651  0.00  0.00    -0.005 A 
ATOM      6  C5  UNL d   1       5.900  -3.046   3.013  0.00  0.00    -0.074 A 
ATOM      7  C6  UNL d   1       6.000  -3.135   1.519  0.00  0.00     0.077 C 
ATOM      8  C7  UNL d   1       5.988  -4.209   3.790  0.00  0.00    -0.001 A 
ENDROOT
TORSDOF 0
ENDMDL
