MODEL 1
REMARK minimizedAffinity -0.838822782
REMARK minimizedRMSD -1
REMARK  0 active torsions:
REMARK  status: ('A' for Active; 'I' for Inactive)
ROOT
ATOM      1  C   UNL d   1       5.964  -5.990   3.997  0.00  0.00     0.077 C 
ATOM      2  C1  UNL d   1       5.589  -4.550   3.810  0.00  0.00    -0.074 A 
ATOM      3  C2  UNL d   1       4.906  -3.850   4.810  0.00  0.00    -0.005 A 
ATOM      4  C3  UNL d   1       4.571  -2.508   4.625  0.00  0.00     0.006 A 
ATOM      5  C4  UNL d   1       4.916  -1.854   3.442  0.00  0.00    -0.005 A 
ATOM      6  C5  UNL d   1       5.599  -2.538   2.431  0.00  0.00    -0.074 A 
ATOM      7  C6  UNL d   1       5.986  -1.847   1.157  0.00  0.00     0.077 C 
ATOM      8  C7  UNL d   1       5.938  -3.884   2.627  0.00  0.00    -0.001 A 
ENDROOT
TORSDOF 0
ENDMDL
