MODEL 1
REMARK minimizedAffinity -4.6415925
REMARK minimizedRMSD -1
REMARK  0 active torsions:
REMARK  status: ('A' for Active; 'I' for Inactive)
ROOT
ATOM      1  C2' OXE d   1      -1.182  -0.394   1.133  0.00  0.00     0.078 C 
ATOM      2  C1' OXE d   1       1.400  -0.752   0.093  0.00  0.00     0.078 C 
ATOM      3  C1  OXE d   1       0.769   0.611  -0.045  0.00  0.00    -0.078 A 
ATOM      4  C2  OXE d   1      -0.513   0.764   0.425  0.00  0.00    -0.078 A 
ATOM      5  C3  OXE d   1      -1.122   2.015   0.372  0.00  0.00     0.003 A 
ATOM      6  C4  OXE d   1      -0.501   3.078  -0.294  0.00  0.00    -0.002 A 
ATOM      7  C5  OXE d   1       0.789   2.932  -0.815  0.00  0.00    -0.002 A 
ATOM      8  C6  OXE d   1       1.453   1.720  -0.662  0.00  0.00     0.003 A 
ENDROOT
TORSDOF 0
ENDMDL
