MODEL 1
REMARK minimizedAffinity -5.19314671
REMARK minimizedRMSD -1
REMARK  0 active torsions:
REMARK  status: ('A' for Active; 'I' for Inactive)
ROOT
ATOM      1  C2' OXE d   1      -1.886   0.238   1.004  0.00  0.00     0.078 C 
ATOM      2  C1' OXE d   1       0.315  -1.061  -0.155  0.00  0.00     0.078 C 
ATOM      3  C1  OXE d   1       0.307   0.447  -0.158  0.00  0.00    -0.078 A 
ATOM      4  C2  OXE d   1      -0.796   1.074   0.369  0.00  0.00    -0.078 A 
ATOM      5  C3  OXE d   1      -0.831   2.464   0.441  0.00  0.00     0.003 A 
ATOM      6  C4  OXE d   1       0.177   3.229  -0.158  0.00  0.00    -0.002 A 
ATOM      7  C5  OXE d   1       1.290   2.610  -0.736  0.00  0.00    -0.002 A 
ATOM      8  C6  OXE d   1       1.391   1.224  -0.707  0.00  0.00     0.003 A 
ENDROOT
TORSDOF 0
ENDMDL
