MODEL 1
REMARK minimizedAffinity -6.05392694
REMARK minimizedRMSD -1
REMARK  0 active torsions:
REMARK  status: ('A' for Active; 'I' for Inactive)
ROOT
ATOM      1  C2' OXE d   1      -1.334   1.917  -0.062  0.00  0.00     0.078 C 
ATOM      2  C1' OXE d   1      -0.001  -0.406   0.777  0.00  0.00     0.078 C 
ATOM      3  C1  OXE d   1       0.823   0.838   0.558  0.00  0.00    -0.078 A 
ATOM      4  C2  OXE d   1       0.170   1.958   0.103  0.00  0.00    -0.078 A 
ATOM      5  C3  OXE d   1       0.873   3.147  -0.063  0.00  0.00     0.003 A 
ATOM      6  C4  OXE d   1       2.266   3.173   0.083  0.00  0.00    -0.002 A 
ATOM      7  C5  OXE d   1       2.956   2.033   0.507  0.00  0.00    -0.002 A 
ATOM      8  C6  OXE d   1       2.246   0.872   0.790  0.00  0.00     0.003 A 
ENDROOT
TORSDOF 0
ENDMDL
