MODEL 1
REMARK minimizedAffinity -5.6032176
REMARK minimizedRMSD -1
REMARK  0 active torsions:
REMARK  status: ('A' for Active; 'I' for Inactive)
ROOT
ATOM      1  C2' OXE d   1      -1.724   0.750  -0.181  0.00  0.00     0.078 C 
ATOM      2  C1' OXE d   1       0.641  -0.755  -0.338  0.00  0.00     0.078 C 
ATOM      3  C1  OXE d   1       0.765   0.723  -0.066  0.00  0.00    -0.078 A 
ATOM      4  C2  OXE d   1      -0.395   1.460  -0.038  0.00  0.00    -0.078 A 
ATOM      5  C3  OXE d   1      -0.342   2.818   0.263  0.00  0.00     0.003 A 
ATOM      6  C4  OXE d   1       0.892   3.469   0.384  0.00  0.00    -0.002 A 
ATOM      7  C5  OXE d   1       2.087   2.745   0.319  0.00  0.00    -0.002 A 
ATOM      8  C6  OXE d   1       2.039   1.367   0.137  0.00  0.00     0.003 A 
ENDROOT
TORSDOF 0
ENDMDL
