MODEL 1
REMARK minimizedAffinity -6.0196743
REMARK minimizedRMSD -1
REMARK  0 active torsions:
REMARK  status: ('A' for Active; 'I' for Inactive)
ROOT
ATOM      1  C2' OXE d   1      -2.195   0.633   1.084  0.00  0.00     0.078 C 
ATOM      2  C1' OXE d   1      -0.181  -1.172   0.336  0.00  0.00     0.078 C 
ATOM      3  C1  OXE d   1       0.096   0.300   0.164  0.00  0.00    -0.078 A 
ATOM      4  C2  OXE d   1      -0.913   1.175   0.488  0.00  0.00    -0.078 A 
ATOM      5  C3  OXE d   1      -0.692   2.546   0.400  0.00  0.00     0.003 A 
ATOM      6  C4  OXE d   1       0.493   3.038  -0.161  0.00  0.00    -0.002 A 
ATOM      7  C5  OXE d   1       1.518   2.163  -0.535  0.00  0.00    -0.002 A 
ATOM      8  C6  OXE d   1       1.352   0.797  -0.340  0.00  0.00     0.003 A 
ENDROOT
TORSDOF 0
ENDMDL
