MODEL 1
REMARK minimizedAffinity -6.26005077
REMARK minimizedRMSD -1
REMARK  0 active torsions:
REMARK  status: ('A' for Active; 'I' for Inactive)
ROOT
ATOM      1  C2' OXE d   1      -1.380   1.754   0.051  0.00  0.00     0.078 C 
ATOM      2  C1' OXE d   1      -0.279  -0.828   0.080  0.00  0.00     0.078 C 
ATOM      3  C1  OXE d   1       0.667   0.342   0.194  0.00  0.00    -0.078 A 
ATOM      4  C2  OXE d   1       0.123   1.602   0.132  0.00  0.00    -0.078 A 
ATOM      5  C3  OXE d   1       0.944   2.716   0.288  0.00  0.00     0.003 A 
ATOM      6  C4  OXE d   1       2.335   2.567   0.352  0.00  0.00    -0.002 A 
ATOM      7  C5  OXE d   1       2.913   1.293   0.377  0.00  0.00    -0.002 A 
ATOM      8  C6  OXE d   1       2.091   0.172   0.342  0.00  0.00     0.003 A 
ENDROOT
TORSDOF 0
ENDMDL
