MODEL 1
REMARK minimizedAffinity -2.15927076
REMARK minimizedRMSD -1
REMARK  0 active torsions:
REMARK  status: ('A' for Active; 'I' for Inactive)
ROOT
ATOM      1  C2' OXE d   1      -1.311   1.812   0.014  0.00  0.00     0.078 C 
ATOM      2  C1' OXE d   1       0.286  -0.453  -0.430  0.00  0.00     0.078 C 
ATOM      3  C1  OXE d   1       0.967   0.806   0.045  0.00  0.00    -0.078 A 
ATOM      4  C2  OXE d   1       0.185   1.923   0.215  0.00  0.00    -0.078 A 
ATOM      5  C3  OXE d   1       0.754   3.095   0.704  0.00  0.00     0.003 A 
ATOM      6  C4  OXE d   1       2.139   3.192   0.877  0.00  0.00    -0.002 A 
ATOM      7  C5  OXE d   1       2.960   2.078   0.672  0.00  0.00    -0.002 A 
ATOM      8  C6  OXE d   1       2.386   0.868   0.297  0.00  0.00     0.003 A 
ENDROOT
TORSDOF 0
ENDMDL
