MODEL 1
REMARK minimizedAffinity -2.23796725
REMARK minimizedRMSD -1
REMARK  0 active torsions:
REMARK  status: ('A' for Active; 'I' for Inactive)
ROOT
ATOM      1  C2' OXE d   1       1.944   1.135  -0.844  0.00  0.00     0.078 C 
ATOM      2  C1' OXE d   1       0.371   3.443  -0.563  0.00  0.00     0.078 C 
ATOM      3  C1  OXE d   1      -0.182   2.145  -0.029  0.00  0.00    -0.078 A 
ATOM      4  C2  OXE d   1       0.574   1.013  -0.213  0.00  0.00    -0.078 A 
ATOM      5  C3  OXE d   1       0.136  -0.201   0.309  0.00  0.00     0.003 A 
ATOM      6  C4  OXE d   1      -1.137  -0.308   0.883  0.00  0.00    -0.002 A 
ATOM      7  C5  OXE d   1      -1.940   0.826   1.044  0.00  0.00    -0.002 A 
ATOM      8  C6  OXE d   1      -1.461   2.065   0.633  0.00  0.00     0.003 A 
ENDROOT
TORSDOF 0
ENDMDL
