MODEL 1
REMARK minimizedAffinity -4.30780029
REMARK minimizedRMSD -1
REMARK  0 active torsions:
REMARK  status: ('A' for Active; 'I' for Inactive)
ROOT
ATOM      1  C2' OXE d   1       0.414  -0.595  -0.176  0.00  0.00     0.078 C 
ATOM      2  C1' OXE d   1       2.947   0.405   0.506  0.00  0.00     0.078 C 
ATOM      3  C1  OXE d   1       1.791   1.374   0.479  0.00  0.00    -0.078 A 
ATOM      4  C2  OXE d   1       0.565   0.886   0.099  0.00  0.00    -0.078 A 
ATOM      5  C3  OXE d   1      -0.545   1.725   0.110  0.00  0.00     0.003 A 
ATOM      6  C4  OXE d   1      -0.395   3.096   0.356  0.00  0.00    -0.002 A 
ATOM      7  C5  OXE d   1       0.853   3.621   0.706  0.00  0.00    -0.002 A 
ATOM      8  C6  OXE d   1       1.946   2.768   0.814  0.00  0.00     0.003 A 
ENDROOT
TORSDOF 0
ENDMDL
