MODEL 1
REMARK minimizedAffinity -4.40474892
REMARK minimizedRMSD -1
REMARK  0 active torsions:
REMARK  status: ('A' for Active; 'I' for Inactive)
ROOT
ATOM      1  C2' OXE d   1       2.888   1.063   0.623  0.00  0.00     0.078 C 
ATOM      2  C1' OXE d   1       0.631  -0.606   0.650  0.00  0.00     0.078 C 
ATOM      3  C1  OXE d   1       0.449   0.815   0.180  0.00  0.00    -0.078 A 
ATOM      4  C2  OXE d   1       1.549   1.638   0.214  0.00  0.00    -0.078 A 
ATOM      5  C3  OXE d   1       1.449   2.943  -0.260  0.00  0.00     0.003 A 
ATOM      6  C4  OXE d   1       0.204   3.471  -0.627  0.00  0.00    -0.002 A 
ATOM      7  C5  OXE d   1      -0.936   2.661  -0.631  0.00  0.00    -0.002 A 
ATOM      8  C6  OXE d   1      -0.823   1.322  -0.272  0.00  0.00     0.003 A 
ENDROOT
TORSDOF 0
ENDMDL
