MODEL 1
REMARK minimizedAffinity -4.15514517
REMARK minimizedRMSD -1
REMARK  0 active torsions:
REMARK  status: ('A' for Active; 'I' for Inactive)
ROOT
ATOM      1  C2' OXE d   1      -0.008  -0.846   0.105  0.00  0.00     0.078 C 
ATOM      2  C1' OXE d   1      -2.286   0.714   0.613  0.00  0.00     0.078 C 
ATOM      3  C1  OXE d   1      -0.987   1.432   0.348  0.00  0.00    -0.078 A 
ATOM      4  C2  OXE d   1       0.132   0.660   0.146  0.00  0.00    -0.078 A 
ATOM      5  C3  OXE d   1       1.346   1.271  -0.157  0.00  0.00     0.003 A 
ATOM      6  C4  OXE d   1       1.470   2.665  -0.106  0.00  0.00    -0.002 A 
ATOM      7  C5  OXE d   1       0.351   3.469   0.136  0.00  0.00    -0.002 A 
ATOM      8  C6  OXE d   1      -0.891   2.871   0.323  0.00  0.00     0.003 A 
ENDROOT
TORSDOF 0
ENDMDL
