MODEL 1
REMARK minimizedAffinity -1.28816736
REMARK minimizedRMSD -1
REMARK  0 active torsions:
REMARK  status: ('A' for Active; 'I' for Inactive)
ROOT
ATOM      1  C2' OXE d   1       0.663   2.755   0.986  0.00  0.00     0.078 C 
ATOM      2  C1' OXE d   1       2.441   0.590   0.812  0.00  0.00     0.078 C 
ATOM      3  C1  OXE d   1       0.997   0.346   0.450  0.00  0.00    -0.078 A 
ATOM      4  C2  OXE d   1       0.125   1.399   0.582  0.00  0.00    -0.078 A 
ATOM      5  C3  OXE d   1      -1.207   1.243   0.209  0.00  0.00     0.003 A 
ATOM      6  C4  OXE d   1      -1.698  -0.017  -0.153  0.00  0.00    -0.002 A 
ATOM      7  C5  OXE d   1      -0.835  -1.113  -0.256  0.00  0.00    -0.002 A 
ATOM      8  C6  OXE d   1       0.521  -0.939  -0.000  0.00  0.00     0.003 A 
ENDROOT
TORSDOF 0
ENDMDL
