MODEL 1
REMARK minimizedAffinity -6.56341648
REMARK minimizedRMSD -1
REMARK  0 active torsions:
REMARK  status: ('A' for Active; 'I' for Inactive)
ROOT
ATOM      1  C2' OXE d   1      -1.279   1.814   0.452  0.00  0.00     0.078 C 
ATOM      2  C1' OXE d   1       0.169  -0.583   0.640  0.00  0.00     0.078 C 
ATOM      3  C1  OXE d   1       0.947   0.710   0.630  0.00  0.00    -0.078 A 
ATOM      4  C2  OXE d   1       0.233   1.875   0.490  0.00  0.00    -0.078 A 
ATOM      5  C3  OXE d   1       0.895   3.099   0.529  0.00  0.00     0.003 A 
ATOM      6  C4  OXE d   1       2.295   3.146   0.555  0.00  0.00    -0.002 A 
ATOM      7  C5  OXE d   1       3.043   1.969   0.657  0.00  0.00    -0.002 A 
ATOM      8  C6  OXE d   1       2.384   0.747   0.738  0.00  0.00     0.003 A 
ENDROOT
TORSDOF 0
ENDMDL
