MODEL 1
REMARK minimizedAffinity -0.666427195
REMARK minimizedRMSD -1
REMARK  0 active torsions:
REMARK  status: ('A' for Active; 'I' for Inactive)
ROOT
ATOM      1  C2' OXE d   1      -0.052  -1.260   0.040  0.00  0.00     0.078 C 
ATOM      2  C1' OXE d   1       1.756   0.763   0.757  0.00  0.00     0.078 C 
ATOM      3  C1  OXE d   1       0.316   1.152   0.540  0.00  0.00    -0.078 A 
ATOM      4  C2  OXE d   1      -0.553   0.164   0.143  0.00  0.00    -0.078 A 
ATOM      5  C3  OXE d   1      -1.904   0.458  -0.018  0.00  0.00     0.003 A 
ATOM      6  C4  OXE d   1      -2.358   1.780   0.070  0.00  0.00    -0.002 A 
ATOM      7  C5  OXE d   1      -1.481   2.808   0.434  0.00  0.00    -0.002 A 
ATOM      8  C6  OXE d   1      -0.153   2.505   0.713  0.00  0.00     0.003 A 
ENDROOT
TORSDOF 0
ENDMDL
