MODEL 1
REMARK minimizedAffinity -4.91615295
REMARK minimizedRMSD -1
REMARK  0 active torsions:
REMARK  status: ('A' for Active; 'I' for Inactive)
ROOT
ATOM      1  C2' OXE d   1      -1.935   2.162   0.409  0.00  0.00     0.078 C 
ATOM      2  C1' OXE d   1       0.454   3.601   0.090  0.00  0.00     0.078 C 
ATOM      3  C1  OXE d   1       0.552   2.108   0.274  0.00  0.00    -0.078 A 
ATOM      4  C2  OXE d   1      -0.619   1.417   0.476  0.00  0.00    -0.078 A 
ATOM      5  C3  OXE d   1      -0.590   0.031   0.597  0.00  0.00     0.003 A 
ATOM      6  C4  OXE d   1       0.632  -0.649   0.668  0.00  0.00    -0.002 A 
ATOM      7  C5  OXE d   1       1.839   0.040   0.504  0.00  0.00    -0.002 A 
ATOM      8  C6  OXE d   1       1.814   1.410   0.265  0.00  0.00     0.003 A 
ENDROOT
TORSDOF 0
ENDMDL
