MODEL 1
REMARK minimizedAffinity -1.81275797
REMARK minimizedRMSD -1
REMARK  0 active torsions:
REMARK  status: ('A' for Active; 'I' for Inactive)
ROOT
ATOM      1  C2' OXE d   1       0.343  -0.764  -1.499  0.00  0.00     0.078 C 
ATOM      2  C1' OXE d   1      -0.793  -0.838   1.067  0.00  0.00     0.078 C 
ATOM      3  C1  OXE d   1      -0.484   0.513   0.474  0.00  0.00    -0.078 A 
ATOM      4  C2  OXE d   1       0.115   0.539  -0.763  0.00  0.00    -0.078 A 
ATOM      5  C3  OXE d   1       0.372   1.760  -1.380  0.00  0.00     0.003 A 
ATOM      6  C4  OXE d   1       0.167   2.960  -0.688  0.00  0.00    -0.002 A 
ATOM      7  C5  OXE d   1      -0.405   2.955   0.589  0.00  0.00    -0.002 A 
ATOM      8  C6  OXE d   1      -0.775   1.745   1.165  0.00  0.00     0.003 A 
ENDROOT
TORSDOF 0
ENDMDL
