MODEL 1
REMARK minimizedAffinity -1.93324423
REMARK minimizedRMSD -1
REMARK  0 active torsions:
REMARK  status: ('A' for Active; 'I' for Inactive)
ROOT
ATOM      1  C2' OXE d   1      -0.205  -1.441  -0.136  0.00  0.00     0.078 C 
ATOM      2  C1' OXE d   1      -2.385   0.235   0.430  0.00  0.00     0.078 C 
ATOM      3  C1  OXE d   1      -0.999   0.818   0.551  0.00  0.00    -0.078 A 
ATOM      4  C2  OXE d   1       0.063  -0.022   0.318  0.00  0.00    -0.078 A 
ATOM      5  C3  OXE d   1       1.361   0.479   0.363  0.00  0.00     0.003 A 
ATOM      6  C4  OXE d   1       1.600   1.790   0.793  0.00  0.00    -0.002 A 
ATOM      7  C5  OXE d   1       0.534   2.651   1.074  0.00  0.00    -0.002 A 
ATOM      8  C6  OXE d   1      -0.770   2.194   0.917  0.00  0.00     0.003 A 
ENDROOT
TORSDOF 0
ENDMDL
