MODEL 1
REMARK minimizedAffinity -4.24464369
REMARK minimizedRMSD -1
REMARK  0 active torsions:
REMARK  status: ('A' for Active; 'I' for Inactive)
ROOT
ATOM      1  C2' OXE d   1       2.181   0.735  -0.415  0.00  0.00     0.078 C 
ATOM      2  C1' OXE d   1       0.159  -1.208  -0.297  0.00  0.00     0.078 C 
ATOM      3  C1  OXE d   1      -0.224   0.224  -0.017  0.00  0.00    -0.078 A 
ATOM      4  C2  OXE d   1       0.781   1.161  -0.031  0.00  0.00    -0.078 A 
ATOM      5  C3  OXE d   1       0.473   2.505   0.167  0.00  0.00     0.003 A 
ATOM      6  C4  OXE d   1      -0.823   2.889   0.531  0.00  0.00    -0.002 A 
ATOM      7  C5  OXE d   1      -1.853   1.944   0.590  0.00  0.00    -0.002 A 
ATOM      8  C6  OXE d   1      -1.580   0.617   0.278  0.00  0.00     0.003 A 
ENDROOT
TORSDOF 0
ENDMDL
