MODEL 1
REMARK minimizedAffinity -1.78969681
REMARK minimizedRMSD -1
REMARK  0 active torsions:
REMARK  status: ('A' for Active; 'I' for Inactive)
ROOT
ATOM      1  C2' OXE d   1       2.505   0.936   0.149  0.00  0.00     0.078 C 
ATOM      2  C1' OXE d   1       0.394   2.783   0.234  0.00  0.00     0.078 C 
ATOM      3  C1  OXE d   1       0.047   1.316   0.288  0.00  0.00    -0.078 A 
ATOM      4  C2  OXE d   1       1.084   0.419   0.199  0.00  0.00    -0.078 A 
ATOM      5  C3  OXE d   1       0.825  -0.945   0.299  0.00  0.00     0.003 A 
ATOM      6  C4  OXE d   1      -0.493  -1.416   0.335  0.00  0.00    -0.002 A 
ATOM      7  C5  OXE d   1      -1.566  -0.519   0.386  0.00  0.00    -0.002 A 
ATOM      8  C6  OXE d   1      -1.311   0.847   0.407  0.00  0.00     0.003 A 
ENDROOT
TORSDOF 0
ENDMDL
