MODEL 1
REMARK minimizedAffinity 0.388887852
REMARK minimizedRMSD -1
REMARK  1 active torsions:
REMARK  status: ('A' for Active; 'I' for Inactive)
REMARK    1  A    between atoms: C1_2  and  C2_3 
ROOT
ATOM      1  C2  UNL d   1      -0.026  -0.351  -0.835  0.00  0.00    -0.073 A 
ATOM      2  C3  UNL d   1       0.867   0.468  -1.536  0.00  0.00    -0.002 A 
ATOM      3  C4  UNL d   1       0.690   1.852  -1.551  0.00  0.00     0.004 A 
ATOM      4  C5  UNL d   1      -0.374   2.432  -0.860  0.00  0.00    -0.004 A 
ATOM      5  C6  UNL d   1      -1.270   1.631  -0.144  0.00  0.00    -0.075 A 
ATOM      6  C7  UNL d   1      -2.422   2.239   0.602  0.00  0.00     0.076 C 
ATOM      7  C8  UNL d   1      -1.088   0.242  -0.136  0.00  0.00     0.001 A 
ENDROOT
BRANCH   1   8
ATOM      8  C1  UNL d   1       0.164  -1.846  -0.810  0.00  0.00     0.053 C 
ATOM      9  C   UNL d   1      -0.173  -2.485  -2.148  0.00  0.00     0.018 C 
ENDBRANCH   1   8
TORSDOF 1
ENDMDL
