MODEL 1
REMARK minimizedAffinity -3.71436238
REMARK minimizedRMSD -1
REMARK  1 active torsions:
REMARK  status: ('A' for Active; 'I' for Inactive)
REMARK    1  A    between atoms: C1_2  and  C2_3 
ROOT
ATOM      1  C2  UNL d   1       0.235  -0.356  -0.180  0.00  0.00    -0.073 A 
ATOM      2  C3  UNL d   1       0.679  -0.919   1.022  0.00  0.00    -0.002 A 
ATOM      3  C4  UNL d   1       0.178  -0.462   2.242  0.00  0.00     0.004 A 
ATOM      4  C5  UNL d   1      -0.775   0.556   2.272  0.00  0.00    -0.004 A 
ATOM      5  C6  UNL d   1      -1.239   1.124   1.081  0.00  0.00    -0.075 A 
ATOM      6  C7  UNL d   1      -2.262   2.221   1.097  0.00  0.00     0.076 C 
ATOM      7  C8  UNL d   1      -0.730   0.661  -0.140  0.00  0.00     0.001 A 
ENDROOT
BRANCH   1   8
ATOM      8  C1  UNL d   1       0.768  -0.851  -1.500  0.00  0.00     0.053 C 
ATOM      9  C   UNL d   1       0.781  -2.369  -1.576  0.00  0.00     0.018 C 
ENDBRANCH   1   8
TORSDOF 1
ENDMDL
