MODEL 1
REMARK minimizedAffinity -3.8298409
REMARK minimizedRMSD -1
REMARK  1 active torsions:
REMARK  status: ('A' for Active; 'I' for Inactive)
REMARK    1  A    between atoms: C1_2  and  C2_3 
ROOT
ATOM      1  C2  UNL d   1      -1.318   1.332   0.981  0.00  0.00    -0.073 A 
ATOM      2  C3  UNL d   1      -0.760   1.450  -0.297  0.00  0.00    -0.002 A 
ATOM      3  C4  UNL d   1       0.354   0.689  -0.653  0.00  0.00     0.004 A 
ATOM      4  C5  UNL d   1       0.916  -0.203   0.260  0.00  0.00    -0.004 A 
ATOM      5  C6  UNL d   1       0.365  -0.344   1.538  0.00  0.00    -0.075 A 
ATOM      6  C7  UNL d   1       0.960  -1.297   2.533  0.00  0.00     0.076 C 
ATOM      7  C8  UNL d   1      -0.751   0.427   1.889  0.00  0.00     0.001 A 
ENDROOT
BRANCH   1   8
ATOM      8  C1  UNL d   1      -2.524   2.148   1.368  0.00  0.00     0.053 C 
ATOM      9  C   UNL d   1      -2.154   3.578   1.727  0.00  0.00     0.018 C 
ENDBRANCH   1   8
TORSDOF 1
ENDMDL
