MODEL 1
REMARK minimizedAffinity -2.18900728
REMARK minimizedRMSD -1
REMARK  1 active torsions:
REMARK  status: ('A' for Active; 'I' for Inactive)
REMARK    1  A    between atoms: C1_2  and  C2_3 
ROOT
ATOM      1  C2  UNL d   1       0.094  -1.662  -0.927  0.00  0.00    -0.073 A 
ATOM      2  C3  UNL d   1       0.327  -1.732   0.452  0.00  0.00    -0.002 A 
ATOM      3  C4  UNL d   1       0.412  -0.565   1.212  0.00  0.00     0.004 A 
ATOM      4  C5  UNL d   1       0.259   0.681   0.605  0.00  0.00    -0.004 A 
ATOM      5  C6  UNL d   1       0.014   0.771  -0.769  0.00  0.00    -0.075 A 
ATOM      6  C7  UNL d   1      -0.151   2.104  -1.438  0.00  0.00     0.076 C 
ATOM      7  C8  UNL d   1      -0.068  -0.405  -1.526  0.00  0.00     0.001 A 
ENDROOT
BRANCH   1   8
ATOM      8  C1  UNL d   1      -0.006  -2.920  -1.751  0.00  0.00     0.053 C 
ATOM      9  C   UNL d   1      -0.539  -2.645  -3.148  0.00  0.00     0.018 C 
ENDBRANCH   1   8
TORSDOF 1
ENDMDL
