MODEL 1
REMARK minimizedAffinity -5.32225609
REMARK minimizedRMSD -1
REMARK  1 active torsions:
REMARK  status: ('A' for Active; 'I' for Inactive)
REMARK    1  A    between atoms: C1_2  and  C2_3 
ROOT
ATOM      1  C2  UNL d   1       0.104  -0.445  -0.260  0.00  0.00    -0.073 A 
ATOM      2  C3  UNL d   1       0.662  -0.966   0.913  0.00  0.00    -0.002 A 
ATOM      3  C4  UNL d   1       0.334  -0.418   2.154  0.00  0.00     0.004 A 
ATOM      4  C5  UNL d   1      -0.559   0.651   2.235  0.00  0.00    -0.004 A 
ATOM      5  C6  UNL d   1      -1.135   1.178   1.075  0.00  0.00    -0.075 A 
ATOM      6  C7  UNL d   1      -2.095   2.329   1.144  0.00  0.00     0.076 C 
ATOM      7  C8  UNL d   1      -0.799   0.623  -0.168  0.00  0.00     0.001 A 
ENDROOT
BRANCH   1   8
ATOM      8  C1  UNL d   1       0.451  -1.038  -1.601  0.00  0.00     0.053 C 
ATOM      9  C   UNL d   1       0.069  -2.507  -1.691  0.00  0.00     0.018 C 
ENDBRANCH   1   8
TORSDOF 1
ENDMDL
