MODEL 1
REMARK minimizedAffinity -3.25834799
REMARK minimizedRMSD -1
REMARK  1 active torsions:
REMARK  status: ('A' for Active; 'I' for Inactive)
REMARK    1  A    between atoms: C1_2  and  C2_3 
ROOT
ATOM      1  C2  UNL d   1       0.388  -0.369  -0.556  0.00  0.00    -0.073 A 
ATOM      2  C3  UNL d   1      -0.256  -0.451   0.684  0.00  0.00    -0.002 A 
ATOM      3  C4  UNL d   1      -1.053   0.602   1.135  0.00  0.00     0.004 A 
ATOM      4  C5  UNL d   1      -1.219   1.743   0.350  0.00  0.00    -0.004 A 
ATOM      5  C6  UNL d   1      -0.592   1.839  -0.897  0.00  0.00    -0.075 A 
ATOM      6  C7  UNL d   1      -0.759   3.060  -1.752  0.00  0.00     0.076 C 
ATOM      7  C8  UNL d   1       0.208   0.778  -1.342  0.00  0.00     0.001 A 
ENDROOT
BRANCH   1   8
ATOM      8  C1  UNL d   1       1.244  -1.507  -1.050  0.00  0.00     0.053 C 
ATOM      9  C   UNL d   1       0.530  -2.343  -2.100  0.00  0.00     0.018 C 
ENDBRANCH   1   8
TORSDOF 1
ENDMDL
