MODEL 1
REMARK minimizedAffinity -3.55515814
REMARK minimizedRMSD -1
REMARK  1 active torsions:
REMARK  status: ('A' for Active; 'I' for Inactive)
REMARK    1  A    between atoms: C1_2  and  C2_3 
ROOT
ATOM      1  C2  UNL d   1       0.137  -0.345  -0.065  0.00  0.00    -0.073 A 
ATOM      2  C3  UNL d   1       0.014  -1.257   0.989  0.00  0.00    -0.002 A 
ATOM      3  C4  UNL d   1      -0.869  -1.005   2.040  0.00  0.00     0.004 A 
ATOM      4  C5  UNL d   1      -1.642   0.156   2.044  0.00  0.00    -0.004 A 
ATOM      5  C6  UNL d   1      -1.542   1.074   0.993  0.00  0.00    -0.075 A 
ATOM      6  C7  UNL d   1      -2.365   2.329   0.984  0.00  0.00     0.076 C 
ATOM      7  C8  UNL d   1      -0.651   0.815  -0.057  0.00  0.00     0.001 A 
ENDROOT
BRANCH   1   8
ATOM      8  C1  UNL d   1       1.085  -0.616  -1.205  0.00  0.00     0.053 C 
ATOM      9  C   UNL d   1       1.049  -2.072  -1.642  0.00  0.00     0.018 C 
ENDBRANCH   1   8
TORSDOF 1
ENDMDL
