MODEL 1
REMARK minimizedAffinity -4.38467836
REMARK minimizedRMSD -1
REMARK  1 active torsions:
REMARK  status: ('A' for Active; 'I' for Inactive)
REMARK    1  A    between atoms: C1_2  and  C2_3 
ROOT
ATOM      1  C2  UNL d   1      -0.750   0.732   0.758  0.00  0.00    -0.073 A 
ATOM      2  C3  UNL d   1      -1.699   1.222   1.661  0.00  0.00    -0.002 A 
ATOM      3  C4  UNL d   1      -2.038   2.576   1.661  0.00  0.00     0.004 A 
ATOM      4  C5  UNL d   1      -1.437   3.450   0.755  0.00  0.00    -0.004 A 
ATOM      5  C6  UNL d   1      -0.494   2.977  -0.163  0.00  0.00    -0.075 A 
ATOM      6  C7  UNL d   1       0.163   3.905  -1.142  0.00  0.00     0.076 C 
ATOM      7  C8  UNL d   1      -0.157   1.616  -0.155  0.00  0.00     0.001 A 
ENDROOT
BRANCH   1   8
ATOM      8  C1  UNL d   1      -0.385  -0.731   0.749  0.00  0.00     0.053 C 
ATOM      9  C   UNL d   1       0.690  -1.044  -0.278  0.00  0.00     0.018 C 
ENDBRANCH   1   8
TORSDOF 1
ENDMDL
