MODEL 1
REMARK minimizedAffinity -6.05815268
REMARK minimizedRMSD -1
REMARK  1 active torsions:
REMARK  status: ('A' for Active; 'I' for Inactive)
REMARK    1  A    between atoms: C1_2  and  C2_3 
ROOT
ATOM      1  C2  UNL d   1      -0.342   1.603  -0.151  0.00  0.00    -0.073 A 
ATOM      2  C3  UNL d   1       0.043   0.893   0.992  0.00  0.00    -0.002 A 
ATOM      3  C4  UNL d   1       0.564  -0.396   0.878  0.00  0.00     0.004 A 
ATOM      4  C5  UNL d   1       0.711  -0.986  -0.377  0.00  0.00    -0.004 A 
ATOM      5  C6  UNL d   1       0.342  -0.289  -1.532  0.00  0.00    -0.075 A 
ATOM      6  C7  UNL d   1       0.492  -0.910  -2.889  0.00  0.00     0.076 C 
ATOM      7  C8  UNL d   1      -0.182   1.005  -1.410  0.00  0.00     0.001 A 
ENDROOT
BRANCH   1   8
ATOM      8  C1  UNL d   1      -0.899   2.999  -0.034  0.00  0.00     0.053 C 
ATOM      9  C   UNL d   1      -1.769   3.164   1.201  0.00  0.00     0.018 C 
ENDBRANCH   1   8
TORSDOF 1
ENDMDL
