MODEL 1
REMARK minimizedAffinity -2.9404819
REMARK minimizedRMSD -1
REMARK  0 active torsions:
REMARK  status: ('A' for Active; 'I' for Inactive)
ROOT
ATOM      1  C   UNL d   1      -1.690  -0.796  -5.545  0.00  0.00     0.077 C 
ATOM      2  C1  UNL d   1      -0.496  -1.257  -4.763  0.00  0.00    -0.074 A 
ATOM      3  C2  UNL d   1      -0.537  -2.440  -4.017  0.00  0.00    -0.005 A 
ATOM      4  C3  UNL d   1       0.584  -2.860  -3.303  0.00  0.00     0.006 A 
ATOM      5  C4  UNL d   1       1.756  -2.104  -3.326  0.00  0.00    -0.005 A 
ATOM      6  C5  UNL d   1       1.817  -0.919  -4.066  0.00  0.00    -0.074 A 
ATOM      7  C6  UNL d   1       3.072  -0.099  -4.110  0.00  0.00     0.077 C 
ATOM      8  C7  UNL d   1       0.688  -0.506  -4.787  0.00  0.00    -0.001 A 
ENDROOT
TORSDOF 0
ENDMDL
