MODEL 1
REMARK minimizedAffinity -5.66283131
REMARK minimizedRMSD -1
REMARK  0 active torsions:
REMARK  status: ('A' for Active; 'I' for Inactive)
ROOT
ATOM      1  C   UNL d   1      -1.340  -1.133   2.973  0.00  0.00     0.077 C 
ATOM      2  C1  UNL d   1      -0.230  -0.551   2.149  0.00  0.00    -0.074 A 
ATOM      3  C2  UNL d   1       1.066  -0.441   2.664  0.00  0.00    -0.005 A 
ATOM      4  C3  UNL d   1       2.090   0.093   1.882  0.00  0.00     0.006 A 
ATOM      5  C4  UNL d   1       1.830   0.522   0.580  0.00  0.00    -0.005 A 
ATOM      6  C5  UNL d   1       0.541   0.419   0.048  0.00  0.00    -0.074 A 
ATOM      7  C6  UNL d   1       0.246   0.866  -1.353  0.00  0.00     0.077 C 
ATOM      8  C7  UNL d   1      -0.482  -0.125   0.837  0.00  0.00    -0.001 A 
ENDROOT
TORSDOF 0
ENDMDL
