MODEL 1
REMARK minimizedAffinity -1.62137079
REMARK minimizedRMSD -1
REMARK  0 active torsions:
REMARK  status: ('A' for Active; 'I' for Inactive)
ROOT
ATOM      1  C   UNL d   1       4.614   4.177   0.591  0.00  0.00     0.077 C 
ATOM      2  C1  UNL d   1       3.385   3.465   0.110  0.00  0.00    -0.074 A 
ATOM      3  C2  UNL d   1       2.650   3.955  -0.974  0.00  0.00    -0.005 A 
ATOM      4  C3  UNL d   1       1.514   3.277  -1.417  0.00  0.00     0.006 A 
ATOM      5  C4  UNL d   1       1.103   2.105  -0.782  0.00  0.00    -0.005 A 
ATOM      6  C5  UNL d   1       1.827   1.599   0.303  0.00  0.00    -0.074 A 
ATOM      7  C6  UNL d   1       1.404   0.335   0.991  0.00  0.00     0.077 C 
ATOM      8  C7  UNL d   1       2.971   2.283   0.738  0.00  0.00    -0.001 A 
ENDROOT
TORSDOF 0
ENDMDL
