MODEL 1
REMARK minimizedAffinity -1.85587382
REMARK minimizedRMSD -1
REMARK  0 active torsions:
REMARK  status: ('A' for Active; 'I' for Inactive)
ROOT
ATOM      1  C   UNL d   1      -0.775  -1.431   2.450  0.00  0.00     0.077 C 
ATOM      2  C1  UNL d   1      -0.824  -0.744   1.118  0.00  0.00    -0.074 A 
ATOM      3  C2  UNL d   1       0.348  -0.315   0.486  0.00  0.00    -0.005 A 
ATOM      4  C3  UNL d   1       0.287   0.315  -0.757  0.00  0.00     0.006 A 
ATOM      5  C4  UNL d   1      -0.945   0.520  -1.381  0.00  0.00    -0.005 A 
ATOM      6  C5  UNL d   1      -2.127   0.097  -0.765  0.00  0.00    -0.074 A 
ATOM      7  C6  UNL d   1      -3.457   0.302  -1.426  0.00  0.00     0.077 C 
ATOM      8  C7  UNL d   1      -2.057  -0.541   0.481  0.00  0.00    -0.001 A 
ENDROOT
TORSDOF 0
ENDMDL
