MODEL 1
REMARK minimizedAffinity -3.68224835
REMARK minimizedRMSD -1
REMARK  0 active torsions:
REMARK  status: ('A' for Active; 'I' for Inactive)
ROOT
ATOM      1  C   UNL d   1       2.106   1.500  -0.133  0.00  0.00     0.077 C 
ATOM      2  C1  UNL d   1       1.049   0.717   0.587  0.00  0.00    -0.074 A 
ATOM      3  C2  UNL d   1       1.354  -0.014   1.740  0.00  0.00    -0.005 A 
ATOM      4  C3  UNL d   1       0.358  -0.730   2.403  0.00  0.00     0.006 A 
ATOM      5  C4  UNL d   1      -0.951  -0.723   1.922  0.00  0.00    -0.005 A 
ATOM      6  C5  UNL d   1      -1.276   0.002   0.771  0.00  0.00    -0.074 A 
ATOM      7  C6  UNL d   1      -2.681   0.028   0.245  0.00  0.00     0.077 C 
ATOM      8  C7  UNL d   1      -0.271   0.725   0.113  0.00  0.00    -0.001 A 
ENDROOT
TORSDOF 0
ENDMDL
