MODEL 1
REMARK minimizedAffinity -2.26284409
REMARK minimizedRMSD -1
REMARK  0 active torsions:
REMARK  status: ('A' for Active; 'I' for Inactive)
ROOT
ATOM      1  C   UNL d   1       2.348   3.481  -0.879  0.00  0.00     0.077 C 
ATOM      2  C1  UNL d   1       2.118   2.222  -0.096  0.00  0.00    -0.074 A 
ATOM      3  C2  UNL d   1       3.137   1.664   0.683  0.00  0.00    -0.005 A 
ATOM      4  C3  UNL d   1       2.906   0.499   1.414  0.00  0.00     0.006 A 
ATOM      5  C4  UNL d   1       1.656  -0.120   1.373  0.00  0.00    -0.005 A 
ATOM      6  C5  UNL d   1       0.625   0.424   0.600  0.00  0.00    -0.074 A 
ATOM      7  C6  UNL d   1      -0.728  -0.223   0.552  0.00  0.00     0.077 C 
ATOM      8  C7  UNL d   1       0.863   1.599  -0.126  0.00  0.00    -0.001 A 
ENDROOT
TORSDOF 0
ENDMDL
