MODEL 1
REMARK minimizedAffinity -3.79510236
REMARK minimizedRMSD -1
REMARK  0 active torsions:
REMARK  status: ('A' for Active; 'I' for Inactive)
ROOT
ATOM      1  C   UNL d   1      -1.565   0.334  -0.945  0.00  0.00     0.077 C 
ATOM      2  C1  UNL d   1      -1.128  -0.125   0.415  0.00  0.00    -0.074 A 
ATOM      3  C2  UNL d   1      -1.848  -1.103   1.109  0.00  0.00    -0.005 A 
ATOM      4  C3  UNL d   1      -1.424  -1.526   2.369  0.00  0.00     0.006 A 
ATOM      5  C4  UNL d   1      -0.279  -0.976   2.947  0.00  0.00    -0.005 A 
ATOM      6  C5  UNL d   1       0.453   0.003   2.267  0.00  0.00    -0.074 A 
ATOM      7  C6  UNL d   1       1.692   0.597   2.870  0.00  0.00     0.077 C 
ATOM      8  C7  UNL d   1       0.025   0.417   0.999  0.00  0.00    -0.001 A 
ENDROOT
TORSDOF 0
ENDMDL
