MODEL 1
REMARK minimizedAffinity 0.812574208
REMARK minimizedRMSD -1
REMARK  0 active torsions:
REMARK  status: ('A' for Active; 'I' for Inactive)
ROOT
ATOM      1  C   UNL d   1       5.053  -0.977  -3.566  0.00  0.00     0.077 C 
ATOM      2  C1  UNL d   1       3.741  -0.776  -2.868  0.00  0.00    -0.074 A 
ATOM      3  C2  UNL d   1       2.873  -1.849  -2.644  0.00  0.00    -0.005 A 
ATOM      4  C3  UNL d   1       1.660  -1.648  -1.986  0.00  0.00     0.006 A 
ATOM      5  C4  UNL d   1       1.303  -0.373  -1.544  0.00  0.00    -0.005 A 
ATOM      6  C5  UNL d   1       2.159   0.712  -1.758  0.00  0.00    -0.074 A 
ATOM      7  C6  UNL d   1       1.795   2.087  -1.282  0.00  0.00     0.077 C 
ATOM      8  C7  UNL d   1       3.379   0.501  -2.415  0.00  0.00    -0.001 A 
ENDROOT
TORSDOF 0
ENDMDL
