MODEL 1
REMARK minimizedAffinity 1.40635204
REMARK minimizedRMSD -1
REMARK  0 active torsions:
REMARK  status: ('A' for Active; 'I' for Inactive)
ROOT
ATOM      1  C   UNL d   1       4.095  -1.640  -3.141  0.00  0.00     0.077 C 
ATOM      2  C1  UNL d   1       2.682  -2.008  -2.795  0.00  0.00    -0.074 A 
ATOM      3  C2  UNL d   1       2.076  -1.518  -1.634  0.00  0.00    -0.005 A 
ATOM      4  C3  UNL d   1       0.758  -1.861  -1.331  0.00  0.00     0.006 A 
ATOM      5  C4  UNL d   1       0.035  -2.696  -2.183  0.00  0.00    -0.005 A 
ATOM      6  C5  UNL d   1       0.625  -3.195  -3.349  0.00  0.00    -0.074 A 
ATOM      7  C6  UNL d   1      -0.141  -4.085  -4.281  0.00  0.00     0.077 C 
ATOM      8  C7  UNL d   1       1.947  -2.840  -3.651  0.00  0.00    -0.001 A 
ENDROOT
TORSDOF 0
ENDMDL
