MODEL 1
REMARK minimizedAffinity -0.815223515
REMARK minimizedRMSD -1
REMARK  0 active torsions:
REMARK  status: ('A' for Active; 'I' for Inactive)
ROOT
ATOM      1  C   UNL d   1       2.964  -0.747  -3.653  0.00  0.00     0.077 C 
ATOM      2  C1  UNL d   1       1.588  -1.317  -3.830  0.00  0.00    -0.074 A 
ATOM      3  C2  UNL d   1       1.401  -2.586  -4.387  0.00  0.00    -0.005 A 
ATOM      4  C3  UNL d   1       0.116  -3.107  -4.536  0.00  0.00     0.006 A 
ATOM      5  C4  UNL d   1      -0.994  -2.364  -4.131  0.00  0.00    -0.005 A 
ATOM      6  C5  UNL d   1      -0.827  -1.094  -3.571  0.00  0.00    -0.074 A 
ATOM      7  C6  UNL d   1      -2.009  -0.287  -3.122  0.00  0.00     0.077 C 
ATOM      8  C7  UNL d   1       0.468  -0.581  -3.418  0.00  0.00    -0.001 A 
ENDROOT
TORSDOF 0
ENDMDL
