MODEL 1
REMARK minimizedAffinity 8.16382694
REMARK minimizedRMSD -1
REMARK  0 active torsions:
REMARK  status: ('A' for Active; 'I' for Inactive)
ROOT
ATOM      1  C   UNL d   1      -2.956  -1.244  -3.374  0.00  0.00     0.077 C 
ATOM      2  C1  UNL d   1      -1.935  -1.893  -4.260  0.00  0.00    -0.074 A 
ATOM      3  C2  UNL d   1      -2.304  -2.886  -5.174  0.00  0.00    -0.005 A 
ATOM      4  C3  UNL d   1      -1.345  -3.474  -5.998  0.00  0.00     0.006 A 
ATOM      5  C4  UNL d   1      -0.009  -3.077  -5.917  0.00  0.00    -0.005 A 
ATOM      6  C5  UNL d   1       0.378  -2.086  -5.009  0.00  0.00    -0.074 A 
ATOM      7  C6  UNL d   1       1.807  -1.640  -4.916  0.00  0.00     0.077 C 
ATOM      8  C7  UNL d   1      -0.593  -1.494  -4.189  0.00  0.00    -0.001 A 
ENDROOT
TORSDOF 0
ENDMDL
