MODEL 1
REMARK minimizedAffinity -0.484026849
REMARK minimizedRMSD -1
REMARK  0 active torsions:
REMARK  status: ('A' for Active; 'I' for Inactive)
ROOT
ATOM      1  C   UNL d   1      -5.999   3.007   2.601  0.00  0.00     0.077 C 
ATOM      2  C1  UNL d   1      -4.861   2.471   3.418  0.00  0.00    -0.074 A 
ATOM      3  C2  UNL d   1      -5.066   2.013   4.723  0.00  0.00    -0.005 A 
ATOM      4  C3  UNL d   1      -4.000   1.508   5.467  0.00  0.00     0.006 A 
ATOM      5  C4  UNL d   1      -2.720   1.455   4.915  0.00  0.00    -0.005 A 
ATOM      6  C5  UNL d   1      -2.496   1.907   3.610  0.00  0.00    -0.074 A 
ATOM      7  C6  UNL d   1      -1.128   1.848   2.997  0.00  0.00     0.077 C 
ATOM      8  C7  UNL d   1      -3.573   2.407   2.866  0.00  0.00    -0.001 A 
ENDROOT
TORSDOF 0
ENDMDL
