MODEL 1
REMARK minimizedAffinity -0.595198274
REMARK minimizedRMSD -1
REMARK  0 active torsions:
REMARK  status: ('A' for Active; 'I' for Inactive)
ROOT
ATOM      1  C   UNL d   1       2.173   0.746  -1.371  0.00  0.00     0.077 C 
ATOM      2  C1  UNL d   1       2.398  -0.564  -2.065  0.00  0.00    -0.074 A 
ATOM      3  C2  UNL d   1       3.689  -0.990  -2.395  0.00  0.00    -0.005 A 
ATOM      4  C3  UNL d   1       3.884  -2.215  -3.032  0.00  0.00     0.006 A 
ATOM      5  C4  UNL d   1       2.792  -3.026  -3.345  0.00  0.00    -0.005 A 
ATOM      6  C5  UNL d   1       1.494  -2.617  -3.022  0.00  0.00    -0.074 A 
ATOM      7  C6  UNL d   1       0.310  -3.481  -3.342  0.00  0.00     0.077 C 
ATOM      8  C7  UNL d   1       1.307  -1.387  -2.375  0.00  0.00    -0.001 A 
ENDROOT
TORSDOF 0
ENDMDL
