MODEL 1
REMARK minimizedAffinity 11.0547304
REMARK minimizedRMSD -1
REMARK  0 active torsions:
REMARK  status: ('A' for Active; 'I' for Inactive)
ROOT
ATOM      1  C   UNL d   1      -0.159  -2.675  -3.840  0.00  0.00     0.077 C 
ATOM      2  C1  UNL d   1      -0.380  -1.577  -2.842  0.00  0.00    -0.074 A 
ATOM      3  C2  UNL d   1      -1.533  -0.788  -2.885  0.00  0.00    -0.005 A 
ATOM      4  C3  UNL d   1      -1.729   0.223  -1.944  0.00  0.00     0.006 A 
ATOM      5  C4  UNL d   1      -0.776   0.454  -0.952  0.00  0.00    -0.005 A 
ATOM      6  C5  UNL d   1       0.383  -0.326  -0.892  0.00  0.00    -0.074 A 
ATOM      7  C6  UNL d   1       1.413  -0.098   0.174  0.00  0.00     0.077 C 
ATOM      8  C7  UNL d   1       0.570  -1.345  -1.837  0.00  0.00    -0.001 A 
ENDROOT
TORSDOF 0
ENDMDL
