MODEL 1
REMARK minimizedAffinity -2.20444489
REMARK minimizedRMSD -1
REMARK  0 active torsions:
REMARK  status: ('A' for Active; 'I' for Inactive)
ROOT
ATOM      1  C   UNL d   1      -1.101  -5.993   1.896  0.00  0.00     0.077 C 
ATOM      2  C1  UNL d   1      -2.292  -5.240   1.382  0.00  0.00    -0.074 A 
ATOM      3  C2  UNL d   1      -2.220  -3.866   1.130  0.00  0.00    -0.005 A 
ATOM      4  C3  UNL d   1      -3.332  -3.181   0.643  0.00  0.00     0.006 A 
ATOM      5  C4  UNL d   1      -4.527  -3.862   0.402  0.00  0.00    -0.005 A 
ATOM      6  C5  UNL d   1      -4.617  -5.236   0.647  0.00  0.00    -0.074 A 
ATOM      7  C6  UNL d   1      -5.890  -5.984   0.384  0.00  0.00     0.077 C 
ATOM      8  C7  UNL d   1      -3.493  -5.918   1.130  0.00  0.00    -0.001 A 
ENDROOT
TORSDOF 0
ENDMDL
