MODEL 1
REMARK minimizedAffinity 2.18416691
REMARK minimizedRMSD -1
REMARK  0 active torsions:
REMARK  status: ('A' for Active; 'I' for Inactive)
ROOT
ATOM      1  C   UNL d   1      -0.875  -4.548   1.090  0.00  0.00     0.077 C 
ATOM      2  C1  UNL d   1      -2.294  -4.753   0.649  0.00  0.00    -0.074 A 
ATOM      3  C2  UNL d   1      -2.637  -5.809  -0.201  0.00  0.00    -0.005 A 
ATOM      4  C3  UNL d   1      -3.963  -5.992  -0.595  0.00  0.00     0.006 A 
ATOM      5  C4  UNL d   1      -4.957  -5.123  -0.143  0.00  0.00    -0.005 A 
ATOM      6  C5  UNL d   1      -4.632  -4.062   0.708  0.00  0.00    -0.074 A 
ATOM      7  C6  UNL d   1      -5.690  -3.124   1.211  0.00  0.00     0.077 C 
ATOM      8  C7  UNL d   1      -3.299  -3.888   1.105  0.00  0.00    -0.001 A 
ENDROOT
TORSDOF 0
ENDMDL
