MODEL 1
REMARK minimizedAffinity 7.35080957
REMARK minimizedRMSD -1
REMARK  0 active torsions:
REMARK  status: ('A' for Active; 'I' for Inactive)
ROOT
ATOM      1  C   UNL d   1      -0.286   1.907   4.497  0.00  0.00     0.077 C 
ATOM      2  C1  UNL d   1      -1.754   1.628   4.637  0.00  0.00    -0.074 A 
ATOM      3  C2  UNL d   1      -2.315   1.340   5.885  0.00  0.00    -0.005 A 
ATOM      4  C3  UNL d   1      -3.683   1.093   6.000  0.00  0.00     0.006 A 
ATOM      5  C4  UNL d   1      -4.502   1.130   4.870  0.00  0.00    -0.005 A 
ATOM      6  C5  UNL d   1      -3.958   1.417   3.614  0.00  0.00    -0.074 A 
ATOM      7  C6  UNL d   1      -4.825   1.470   2.392  0.00  0.00     0.077 C 
ATOM      8  C7  UNL d   1      -2.584   1.671   3.508  0.00  0.00    -0.001 A 
ENDROOT
TORSDOF 0
ENDMDL
