MODEL 1
REMARK minimizedAffinity -2.11637378
REMARK minimizedRMSD -1
REMARK  2 active torsions:
REMARK  status: ('A' for Active; 'I' for Inactive)
REMARK    1  A    between atoms: C2'_3  and  C1'_4 
REMARK    2  A    between atoms: C1'_4  and  C1_5 
ROOT
ATOM      1  C1  I4B d   1       0.127  -0.229   0.115  0.00  0.00    -0.075 A 
ATOM      2  C2  I4B d   1       0.216  -1.448  -0.509  0.00  0.00     0.003 A 
ATOM      3  C3  I4B d   1       1.419  -1.836  -1.147  0.00  0.00     0.002 A 
ATOM      4  C4  I4B d   1       2.485  -0.960  -1.179  0.00  0.00    -0.004 A 
ATOM      5  C5  I4B d   1       2.400   0.266  -0.525  0.00  0.00     0.002 A 
ATOM      6  C6  I4B d   1       1.219   0.629   0.137  0.00  0.00     0.003 A 
ENDROOT
BRANCH   1   7
ATOM      7  C1' I4B d   1      -1.170   0.162   0.750  0.00  0.00     0.060 C 
BRANCH   7   8
ATOM      8  C2' I4B d   1      -0.920   0.373   2.230  0.00  0.00    -0.013 C 
ATOM      9  C4' I4B d   1      -0.830   1.838   2.565  0.00  0.00     0.013 C 
ATOM     10  C3' I4B d   1      -2.034  -0.288   2.986  0.00  0.00     0.013 C 
ENDBRANCH   7   8
ENDBRANCH   1   7
TORSDOF 2
ENDMDL
