MODEL 1
REMARK minimizedAffinity -0.622404635
REMARK minimizedRMSD -1
REMARK  2 active torsions:
REMARK  status: ('A' for Active; 'I' for Inactive)
REMARK    1  A    between atoms: C2'_3  and  C1'_4 
REMARK    2  A    between atoms: C1'_4  and  C1_5 
ROOT
ATOM      1  C1  I4B d   1       0.280   0.127  -0.167  0.00  0.00    -0.075 A 
ATOM      2  C2  I4B d   1       1.616   0.102   0.147  0.00  0.00     0.003 A 
ATOM      3  C3  I4B d   1       2.476   1.129  -0.312  0.00  0.00     0.002 A 
ATOM      4  C4  I4B d   1       1.971   2.128  -1.119  0.00  0.00    -0.004 A 
ATOM      5  C5  I4B d   1       0.612   2.164  -1.418  0.00  0.00     0.002 A 
ATOM      6  C6  I4B d   1      -0.242   1.165  -0.929  0.00  0.00     0.003 A 
ENDROOT
BRANCH   1   7
ATOM      7  C1' I4B d   1      -0.593  -0.991   0.306  0.00  0.00     0.060 C 
BRANCH   7   8
ATOM      8  C2' I4B d   1      -0.533  -2.099  -0.725  0.00  0.00    -0.013 C 
ATOM      9  C4' I4B d   1       0.821  -2.161  -1.381  0.00  0.00     0.013 C 
ATOM     10  C3' I4B d   1      -0.860  -3.391  -0.037  0.00  0.00     0.013 C 
ENDBRANCH   7   8
ENDBRANCH   1   7
TORSDOF 2
ENDMDL
