MODEL 1
REMARK minimizedAffinity -4.00097847
REMARK minimizedRMSD -1
REMARK  2 active torsions:
REMARK  status: ('A' for Active; 'I' for Inactive)
REMARK    1  A    between atoms: C2'_3  and  C1'_4 
REMARK    2  A    between atoms: C1'_4  and  C1_5 
ROOT
ATOM      1  C1  I4B d   1      -0.029   0.070   0.091  0.00  0.00    -0.075 A 
ATOM      2  C2  I4B d   1       0.786   0.974  -0.543  0.00  0.00     0.003 A 
ATOM      3  C3  I4B d   1       2.042   0.564  -1.054  0.00  0.00     0.002 A 
ATOM      4  C4  I4B d   1       2.461  -0.737  -0.866  0.00  0.00    -0.004 A 
ATOM      5  C5  I4B d   1       1.622  -1.657  -0.243  0.00  0.00     0.002 A 
ATOM      6  C6  I4B d   1       0.364  -1.255   0.227  0.00  0.00     0.003 A 
ENDROOT
BRANCH   1   7
ATOM      7  C1' I4B d   1      -1.334   0.544   0.648  0.00  0.00     0.060 C 
BRANCH   7   8
ATOM      8  C2' I4B d   1      -1.148   0.786   2.132  0.00  0.00    -0.013 C 
ATOM      9  C4' I4B d   1      -1.111   2.259   2.443  0.00  0.00     0.013 C 
ATOM     10  C3' I4B d   1      -2.273   0.108   2.857  0.00  0.00     0.013 C 
ENDBRANCH   7   8
ENDBRANCH   1   7
TORSDOF 2
ENDMDL
