MODEL 1
REMARK minimizedAffinity -2.53575802
REMARK minimizedRMSD -1
REMARK  2 active torsions:
REMARK  status: ('A' for Active; 'I' for Inactive)
REMARK    1  A    between atoms: C2'_3  and  C1'_4 
REMARK    2  A    between atoms: C1'_4  and  C1_5 
ROOT
ATOM      1  C1  I4B d   1      -3.561   4.443   3.813  0.00  0.00    -0.075 A 
ATOM      2  C2  I4B d   1      -3.477   4.343   5.179  0.00  0.00     0.003 A 
ATOM      3  C3  I4B d   1      -4.469   4.934   5.999  0.00  0.00     0.002 A 
ATOM      4  C4  I4B d   1      -5.492   5.655   5.417  0.00  0.00    -0.004 A 
ATOM      5  C5  I4B d   1      -5.587   5.735   4.030  0.00  0.00     0.002 A 
ATOM      6  C6  I4B d   1      -4.623   5.115   3.222  0.00  0.00     0.003 A 
ENDROOT
BRANCH   1   7
ATOM      7  C1' I4B d   1      -2.479   3.834   2.978  0.00  0.00     0.060 C 
BRANCH   7   8
ATOM      8  C2' I4B d   1      -1.761   2.803   3.824  0.00  0.00    -0.013 C 
ATOM      9  C4' I4B d   1      -1.652   1.486   3.102  0.00  0.00     0.013 C 
ATOM     10  C3' I4B d   1      -0.406   3.347   4.166  0.00  0.00     0.013 C 
ENDBRANCH   7   8
ENDBRANCH   1   7
TORSDOF 2
ENDMDL
