MODEL 1
REMARK minimizedAffinity -3.66391373
REMARK minimizedRMSD -1
REMARK  2 active torsions:
REMARK  status: ('A' for Active; 'I' for Inactive)
REMARK    1  A    between atoms: C2'_3  and  C1'_4 
REMARK    2  A    between atoms: C1'_4  and  C1_5 
ROOT
ATOM      1  C1  I4B d   1      -0.245   0.158   0.397  0.00  0.00    -0.075 A 
ATOM      2  C2  I4B d   1      -0.123  -1.186   0.147  0.00  0.00     0.003 A 
ATOM      3  C3  I4B d   1       1.003  -1.681  -0.555  0.00  0.00     0.002 A 
ATOM      4  C4  I4B d   1       1.950  -0.797  -1.030  0.00  0.00    -0.004 A 
ATOM      5  C5  I4B d   1       1.836   0.563  -0.756  0.00  0.00     0.002 A 
ATOM      6  C6  I4B d   1       0.738   1.042  -0.027  0.00  0.00     0.003 A 
ENDROOT
BRANCH   1   7
ATOM      7  C1' I4B d   1      -1.463   0.650   1.112  0.00  0.00     0.060 C 
BRANCH   7   8
ATOM      8  C2' I4B d   1      -1.112   0.808   2.577  0.00  0.00    -0.013 C 
ATOM      9  C4' I4B d   1      -0.950   2.259   2.946  0.00  0.00     0.013 C 
ATOM     10  C3' I4B d   1      -2.198   0.162   3.386  0.00  0.00     0.013 C 
ENDBRANCH   7   8
ENDBRANCH   1   7
TORSDOF 2
ENDMDL
