MODEL 1
REMARK minimizedAffinity -3.06028557
REMARK minimizedRMSD -1
REMARK  2 active torsions:
REMARK  status: ('A' for Active; 'I' for Inactive)
REMARK    1  A    between atoms: C2'_3  and  C1'_4 
REMARK    2  A    between atoms: C1'_4  and  C1_5 
ROOT
ATOM      1  C1  I4B d   1       0.580  -0.860  -0.439  0.00  0.00    -0.075 A 
ATOM      2  C2  I4B d   1       1.263  -1.395  -1.503  0.00  0.00     0.003 A 
ATOM      3  C3  I4B d   1       2.645  -1.134  -1.666  0.00  0.00     0.002 A 
ATOM      4  C4  I4B d   1       3.289  -0.300  -0.776  0.00  0.00    -0.004 A 
ATOM      5  C5  I4B d   1       2.601   0.223   0.315  0.00  0.00     0.002 A 
ATOM      6  C6  I4B d   1       1.240  -0.069   0.492  0.00  0.00     0.003 A 
ENDROOT
BRANCH   1   7
ATOM      7  C1' I4B d   1      -0.886  -1.129  -0.315  0.00  0.00     0.060 C 
BRANCH   7   8
ATOM      8  C2' I4B d   1      -1.592   0.202  -0.155  0.00  0.00    -0.013 C 
ATOM      9  C4' I4B d   1      -1.469   0.718   1.254  0.00  0.00     0.013 C 
ATOM     10  C3' I4B d   1      -0.996   1.164  -1.138  0.00  0.00     0.013 C 
ENDBRANCH   7   8
ENDBRANCH   1   7
TORSDOF 2
ENDMDL
