MODEL 1
REMARK minimizedAffinity -5.25114727
REMARK minimizedRMSD -1
REMARK  2 active torsions:
REMARK  status: ('A' for Active; 'I' for Inactive)
REMARK    1  A    between atoms: C2'_3  and  C1'_4 
REMARK    2  A    between atoms: C1'_4  and  C1_5 
ROOT
ATOM      1  C1  I4B d   1       0.000   0.299  -0.122  0.00  0.00    -0.075 A 
ATOM      2  C2  I4B d   1       0.144  -1.035  -0.415  0.00  0.00     0.003 A 
ATOM      3  C3  I4B d   1       1.347  -1.514  -0.986  0.00  0.00     0.002 A 
ATOM      4  C4  I4B d   1       2.356  -0.623  -1.292  0.00  0.00    -0.004 A 
ATOM      5  C5  I4B d   1       2.218   0.725  -0.973  0.00  0.00     0.002 A 
ATOM      6  C6  I4B d   1       1.038   1.187  -0.373  0.00  0.00     0.003 A 
ENDROOT
BRANCH   1   7
ATOM      7  C1' I4B d   1      -1.297   0.775   0.451  0.00  0.00     0.060 C 
BRANCH   7   8
ATOM      8  C2' I4B d   1      -1.168   0.779   1.960  0.00  0.00    -0.013 C 
ATOM      9  C4' I4B d   1      -1.073   2.183   2.496  0.00  0.00     0.013 C 
ATOM     10  C3' I4B d   1      -2.356   0.062   2.528  0.00  0.00     0.013 C 
ENDBRANCH   7   8
ENDBRANCH   1   7
TORSDOF 2
ENDMDL
