MODEL 1
REMARK minimizedAffinity -4.88414478
REMARK minimizedRMSD -1
REMARK  2 active torsions:
REMARK  status: ('A' for Active; 'I' for Inactive)
REMARK    1  A    between atoms: C2'_3  and  C1'_4 
REMARK    2  A    between atoms: C1'_4  and  C1_5 
ROOT
ATOM      1  C1  I4B d   1      -0.410   0.239  -0.175  0.00  0.00    -0.075 A 
ATOM      2  C2  I4B d   1       0.602   1.034  -0.654  0.00  0.00     0.003 A 
ATOM      3  C3  I4B d   1       1.790   0.450  -1.156  0.00  0.00     0.002 A 
ATOM      4  C4  I4B d   1       1.944  -0.921  -1.114  0.00  0.00    -0.004 A 
ATOM      5  C5  I4B d   1       0.908  -1.726  -0.650  0.00  0.00     0.002 A 
ATOM      6  C6  I4B d   1      -0.282  -1.144  -0.189  0.00  0.00     0.003 A 
ENDROOT
BRANCH   1   7
ATOM      7  C1' I4B d   1      -1.638   0.891   0.378  0.00  0.00     0.060 C 
BRANCH   7   8
ATOM      8  C2' I4B d   1      -1.567   0.813   1.889  0.00  0.00    -0.013 C 
ATOM      9  C4' I4B d   1      -1.484   2.186   2.502  0.00  0.00     0.013 C 
ATOM     10  C3' I4B d   1      -2.780   0.077   2.372  0.00  0.00     0.013 C 
ENDBRANCH   7   8
ENDBRANCH   1   7
TORSDOF 2
ENDMDL
