MODEL 1
REMARK minimizedAffinity -2.39605498
REMARK minimizedRMSD -1
REMARK  2 active torsions:
REMARK  status: ('A' for Active; 'I' for Inactive)
REMARK    1  A    between atoms: C2'_3  and  C1'_4 
REMARK    2  A    between atoms: C1'_4  and  C1_5 
ROOT
ATOM      1  C1  I4B d   1      -1.212   0.400   0.870  0.00  0.00    -0.075 A 
ATOM      2  C2  I4B d   1      -1.447   0.813  -0.418  0.00  0.00     0.003 A 
ATOM      3  C3  I4B d   1      -0.391   0.842  -1.361  0.00  0.00     0.002 A 
ATOM      4  C4  I4B d   1       0.886   0.502  -0.962  0.00  0.00    -0.004 A 
ATOM      5  C5  I4B d   1       1.117   0.062   0.338  0.00  0.00     0.002 A 
ATOM      6  C6  I4B d   1       0.059  -0.001   1.257  0.00  0.00     0.003 A 
ENDROOT
BRANCH   1   7
ATOM      7  C1' I4B d   1      -2.344   0.413   1.848  0.00  0.00     0.060 C 
BRANCH   7   8
ATOM      8  C2' I4B d   1      -1.757   0.526   3.240  0.00  0.00    -0.013 C 
ATOM      9  C4' I4B d   1      -1.846   1.938   3.756  0.00  0.00     0.013 C 
ATOM     10  C3' I4B d   1      -2.496  -0.425   4.133  0.00  0.00     0.013 C 
ENDBRANCH   7   8
ENDBRANCH   1   7
TORSDOF 2
ENDMDL
