MODEL 1
REMARK minimizedAffinity 1.88972366
REMARK minimizedRMSD -1
REMARK  0 active torsions:
REMARK  status: ('A' for Active; 'I' for Inactive)
ROOT
ATOM      1  C1  BNZ d   1       0.550  -2.779   0.671  0.00  0.00     0.000 A 
ATOM      2  C2  BNZ d   1       0.599  -1.718   1.536  0.00  0.00     0.000 A 
ATOM      3  C3  BNZ d   1       1.373  -1.767   2.661  0.00  0.00     0.000 A 
ATOM      4  C4  BNZ d   1       2.065  -2.890   2.941  0.00  0.00     0.000 A 
ATOM      5  C5  BNZ d   1       2.019  -3.972   2.084  0.00  0.00     0.000 A 
ATOM      6  C6  BNZ d   1       1.269  -3.904   0.933  0.00  0.00     0.000 A 
ENDROOT
TORSDOF 0
ENDMDL
