MODEL 1
REMARK minimizedAffinity -2.90095139
REMARK minimizedRMSD -1
REMARK  0 active torsions:
REMARK  status: ('A' for Active; 'I' for Inactive)
ROOT
ATOM      1  C1  BNZ d   1       2.480  -1.392   3.644  0.00  0.00     0.000 A 
ATOM      2  C2  BNZ d   1       2.312  -2.029   4.844  0.00  0.00     0.000 A 
ATOM      3  C3  BNZ d   1       3.390  -2.466   5.562  0.00  0.00     0.000 A 
ATOM      4  C4  BNZ d   1       4.631  -2.302   5.060  0.00  0.00     0.000 A 
ATOM      5  C5  BNZ d   1       4.816  -1.670   3.846  0.00  0.00     0.000 A 
ATOM      6  C6  BNZ d   1       3.731  -1.196   3.145  0.00  0.00     0.000 A 
ENDROOT
TORSDOF 0
ENDMDL
