MODEL 1
REMARK minimizedAffinity 1.93575215
REMARK minimizedRMSD -1
REMARK  0 active torsions:
REMARK  status: ('A' for Active; 'I' for Inactive)
ROOT
ATOM      1  C1  BNZ d   1       2.248  -1.875   3.950  0.00  0.00     0.000 A 
ATOM      2  C2  BNZ d   1       3.575  -1.538   3.971  0.00  0.00     0.000 A 
ATOM      3  C3  BNZ d   1       4.389  -1.961   4.984  0.00  0.00     0.000 A 
ATOM      4  C4  BNZ d   1       3.868  -2.686   5.995  0.00  0.00     0.000 A 
ATOM      5  C5  BNZ d   1       2.530  -3.026   5.993  0.00  0.00     0.000 A 
ATOM      6  C6  BNZ d   1       1.722  -2.631   4.952  0.00  0.00     0.000 A 
ENDROOT
TORSDOF 0
ENDMDL
