MODEL 1
REMARK minimizedAffinity 2.60052037
REMARK minimizedRMSD -1
REMARK  0 active torsions:
REMARK  status: ('A' for Active; 'I' for Inactive)
ROOT
ATOM      1  C1  BNZ d   1       1.937  -1.873   4.238  0.00  0.00     0.000 A 
ATOM      2  C2  BNZ d   1       1.374  -3.120   4.300  0.00  0.00     0.000 A 
ATOM      3  C3  BNZ d   1       2.095  -4.191   4.748  0.00  0.00     0.000 A 
ATOM      4  C4  BNZ d   1       3.387  -4.023   5.096  0.00  0.00     0.000 A 
ATOM      5  C5  BNZ d   1       3.971  -2.773   5.031  0.00  0.00     0.000 A 
ATOM      6  C6  BNZ d   1       3.231  -1.690   4.616  0.00  0.00     0.000 A 
ENDROOT
TORSDOF 0
ENDMDL
