MODEL 1
REMARK minimizedAffinity -0.752953947
REMARK minimizedRMSD -1
REMARK  0 active torsions:
REMARK  status: ('A' for Active; 'I' for Inactive)
ROOT
ATOM      1  C1  BNZ d   1       2.643  -2.998   4.115  0.00  0.00     0.000 A 
ATOM      2  C2  BNZ d   1       1.803  -2.268   3.317  0.00  0.00     0.000 A 
ATOM      3  C3  BNZ d   1       2.225  -1.106   2.734  0.00  0.00     0.000 A 
ATOM      4  C4  BNZ d   1       3.472  -0.654   2.982  0.00  0.00     0.000 A 
ATOM      5  C5  BNZ d   1       4.328  -1.374   3.792  0.00  0.00     0.000 A 
ATOM      6  C6  BNZ d   1       3.912  -2.564   4.345  0.00  0.00     0.000 A 
ENDROOT
TORSDOF 0
ENDMDL
