MODEL 1
REMARK minimizedAffinity 2.63817072
REMARK minimizedRMSD -1
REMARK  0 active torsions:
REMARK  status: ('A' for Active; 'I' for Inactive)
ROOT
ATOM      1  C1  BNZ d   1      -5.932   2.531  -4.393  0.00  0.00     0.000 A 
ATOM      2  C2  BNZ d   1      -5.997   2.253  -3.053  0.00  0.00     0.000 A 
ATOM      3  C3  BNZ d   1      -6.000   0.962  -2.606  0.00  0.00     0.000 A 
ATOM      4  C4  BNZ d   1      -5.979  -0.049  -3.498  0.00  0.00     0.000 A 
ATOM      5  C5  BNZ d   1      -5.923   0.214  -4.852  0.00  0.00     0.000 A 
ATOM      6  C6  BNZ d   1      -5.881   1.516  -5.297  0.00  0.00     0.000 A 
ENDROOT
TORSDOF 0
ENDMDL
