MODEL 1
REMARK minimizedAffinity -1.37061191
REMARK minimizedRMSD -1
REMARK  0 active torsions:
REMARK  status: ('A' for Active; 'I' for Inactive)
ROOT
ATOM      1  C1  BNZ d   1       3.644  -1.956   5.312  0.00  0.00     0.000 A 
ATOM      2  C2  BNZ d   1       3.674  -1.819   3.950  0.00  0.00     0.000 A 
ATOM      3  C3  BNZ d   1       4.851  -1.921   3.263  0.00  0.00     0.000 A 
ATOM      4  C4  BNZ d   1       6.000  -2.120   3.940  0.00  0.00     0.000 A 
ATOM      5  C5  BNZ d   1       5.987  -2.251   5.315  0.00  0.00     0.000 A 
ATOM      6  C6  BNZ d   1       4.795  -2.187   6.000  0.00  0.00     0.000 A 
ENDROOT
TORSDOF 0
ENDMDL
