MODEL 1
REMARK minimizedAffinity -4.45937204
REMARK minimizedRMSD -1
REMARK  0 active torsions:
REMARK  status: ('A' for Active; 'I' for Inactive)
ROOT
ATOM      1  C   UNL d   1       0.375   1.179  -0.229  0.00  0.00     0.078 C 
ATOM      2  C1  UNL d   1      -0.283   0.182   0.676  0.00  0.00    -0.077 A 
ATOM      3  C2  UNL d   1       0.156  -1.147   0.727  0.00  0.00    -0.001 A 
ATOM      4  C3  UNL d   1      -0.473  -2.066   1.567  0.00  0.00     0.003 A 
ATOM      5  C4  UNL d   1      -1.546  -1.668   2.363  0.00  0.00    -0.005 A 
ATOM      6  C5  UNL d   1      -1.991  -0.349   2.318  0.00  0.00     0.003 A 
ATOM      7  C6  UNL d   1      -1.364   0.573   1.478  0.00  0.00    -0.001 A 
ENDROOT
TORSDOF 0
ENDMDL
