MODEL 1
REMARK minimizedAffinity -3.44570923
REMARK minimizedRMSD -1
REMARK  0 active torsions:
REMARK  status: ('A' for Active; 'I' for Inactive)
ROOT
ATOM      1  C   UNL d   1       0.784   1.267  -1.806  0.00  0.00     0.078 C 
ATOM      2  C1  UNL d   1       0.339   0.308  -0.743  0.00  0.00    -0.077 A 
ATOM      3  C2  UNL d   1      -0.236   0.767   0.448  0.00  0.00    -0.001 A 
ATOM      4  C3  UNL d   1      -0.637  -0.137   1.433  0.00  0.00     0.003 A 
ATOM      5  C4  UNL d   1      -0.467  -1.506   1.237  0.00  0.00    -0.005 A 
ATOM      6  C5  UNL d   1       0.106  -1.973   0.055  0.00  0.00     0.003 A 
ATOM      7  C6  UNL d   1       0.508  -1.070  -0.931  0.00  0.00    -0.001 A 
ENDROOT
TORSDOF 0
ENDMDL
