MODEL 1
REMARK minimizedAffinity -5.22606516
REMARK minimizedRMSD -1
REMARK  0 active torsions:
REMARK  status: ('A' for Active; 'I' for Inactive)
ROOT
ATOM      1  C   UNL d   1       0.456   1.025  -0.517  0.00  0.00     0.078 C 
ATOM      2  C1  UNL d   1      -0.198  -0.101   0.226  0.00  0.00    -0.077 A 
ATOM      3  C2  UNL d   1       0.404  -1.363   0.298  0.00  0.00    -0.001 A 
ATOM      4  C3  UNL d   1      -0.221  -2.405   0.985  0.00  0.00     0.003 A 
ATOM      5  C4  UNL d   1      -1.452  -2.196   1.604  0.00  0.00    -0.005 A 
ATOM      6  C5  UNL d   1      -2.060  -0.944   1.536  0.00  0.00     0.003 A 
ATOM      7  C6  UNL d   1      -1.436   0.099   0.849  0.00  0.00    -0.001 A 
ENDROOT
TORSDOF 0
ENDMDL
