MODEL 1
REMARK minimizedAffinity -5.19877958
REMARK minimizedRMSD -1
REMARK  0 active torsions:
REMARK  status: ('A' for Active; 'I' for Inactive)
ROOT
ATOM      1  C   UNL d   1       0.556   1.235  -0.580  0.00  0.00     0.078 C 
ATOM      2  C1  UNL d   1      -0.069   0.010   0.017  0.00  0.00    -0.077 A 
ATOM      3  C2  UNL d   1       0.681  -1.154   0.227  0.00  0.00    -0.001 A 
ATOM      4  C3  UNL d   1       0.083  -2.290   0.775  0.00  0.00     0.003 A 
ATOM      5  C4  UNL d   1      -1.268  -2.274   1.117  0.00  0.00    -0.005 A 
ATOM      6  C5  UNL d   1      -2.023  -1.122   0.910  0.00  0.00     0.003 A 
ATOM      7  C6  UNL d   1      -1.427   0.015   0.362  0.00  0.00    -0.001 A 
ENDROOT
TORSDOF 0
ENDMDL
