MODEL 1
REMARK minimizedAffinity -2.26289392
REMARK minimizedRMSD -1
REMARK  0 active torsions:
REMARK  status: ('A' for Active; 'I' for Inactive)
ROOT
ATOM      1  C   UNL d   1       1.065   1.319  -1.031  0.00  0.00     0.078 C 
ATOM      2  C1  UNL d   1       0.566   0.151  -0.234  0.00  0.00    -0.077 A 
ATOM      3  C2  UNL d   1       1.407  -0.927   0.070  0.00  0.00    -0.001 A 
ATOM      4  C3  UNL d   1       0.927  -2.012   0.804  0.00  0.00     0.003 A 
ATOM      5  C4  UNL d   1      -0.397  -2.031   1.241  0.00  0.00    -0.005 A 
ATOM      6  C5  UNL d   1      -1.241  -0.964   0.942  0.00  0.00     0.003 A 
ATOM      7  C6  UNL d   1      -0.763   0.122   0.207  0.00  0.00    -0.001 A 
ENDROOT
TORSDOF 0
ENDMDL
