MODEL 1
REMARK minimizedAffinity -1.03667641
REMARK minimizedRMSD -1
REMARK  0 active torsions:
REMARK  status: ('A' for Active; 'I' for Inactive)
ROOT
ATOM      1  C   UNL d   1       0.633  -0.715   0.779  0.00  0.00     0.078 C 
ATOM      2  C1  UNL d   1       0.621   0.119  -0.467  0.00  0.00    -0.077 A 
ATOM      3  C2  UNL d   1       0.342  -0.452  -1.714  0.00  0.00    -0.001 A 
ATOM      4  C3  UNL d   1       0.344   0.335  -2.867  0.00  0.00     0.003 A 
ATOM      5  C4  UNL d   1       0.627   1.697  -2.785  0.00  0.00    -0.005 A 
ATOM      6  C5  UNL d   1       0.909   2.274  -1.548  0.00  0.00     0.003 A 
ATOM      7  C6  UNL d   1       0.907   1.489  -0.394  0.00  0.00    -0.001 A 
ENDROOT
TORSDOF 0
ENDMDL
