MODEL 1
REMARK minimizedAffinity -2.39729953
REMARK minimizedRMSD -1
REMARK  0 active torsions:
REMARK  status: ('A' for Active; 'I' for Inactive)
ROOT
ATOM      1  C   UNL d   1      -2.255  -0.113   2.190  0.00  0.00     0.078 C 
ATOM      2  C1  UNL d   1      -1.060  -0.617   1.437  0.00  0.00    -0.077 A 
ATOM      3  C2  UNL d   1      -0.713  -1.973   1.459  0.00  0.00    -0.001 A 
ATOM      4  C3  UNL d   1       0.407  -2.427   0.761  0.00  0.00     0.003 A 
ATOM      5  C4  UNL d   1       1.190  -1.530   0.036  0.00  0.00    -0.005 A 
ATOM      6  C5  UNL d   1       0.854  -0.178   0.010  0.00  0.00     0.003 A 
ATOM      7  C6  UNL d   1      -0.266   0.277   0.708  0.00  0.00    -0.001 A 
ENDROOT
TORSDOF 0
ENDMDL
