MODEL 1
REMARK minimizedAffinity -5.24276066
REMARK minimizedRMSD -1
REMARK  0 active torsions:
REMARK  status: ('A' for Active; 'I' for Inactive)
ROOT
ATOM      1  C   UNL d   1       1.038  -1.132  -0.063  0.00  0.00     0.078 C 
ATOM      2  C1  UNL d   1      -0.203  -1.063   0.775  0.00  0.00    -0.077 A 
ATOM      3  C2  UNL d   1      -0.895   0.143   0.941  0.00  0.00    -0.001 A 
ATOM      4  C3  UNL d   1      -2.044   0.194   1.732  0.00  0.00     0.003 A 
ATOM      5  C4  UNL d   1      -2.510  -0.957   2.364  0.00  0.00    -0.005 A 
ATOM      6  C5  UNL d   1      -1.827  -2.161   2.207  0.00  0.00     0.003 A 
ATOM      7  C6  UNL d   1      -0.678  -2.214   1.416  0.00  0.00    -0.001 A 
ENDROOT
TORSDOF 0
ENDMDL
