MODEL 1
REMARK minimizedAffinity -2.24480796
REMARK minimizedRMSD -1
REMARK  0 active torsions:
REMARK  status: ('A' for Active; 'I' for Inactive)
ROOT
ATOM      1  C   UNL d   1       1.464   2.155  -1.696  0.00  0.00     0.078 C 
ATOM      2  C1  UNL d   1       0.937   1.099  -0.771  0.00  0.00    -0.077 A 
ATOM      3  C2  UNL d   1       1.586  -0.135  -0.641  0.00  0.00    -0.001 A 
ATOM      4  C3  UNL d   1       1.079  -1.113   0.216  0.00  0.00     0.003 A 
ATOM      5  C4  UNL d   1      -0.081  -0.867   0.949  0.00  0.00    -0.005 A 
ATOM      6  C5  UNL d   1      -0.735   0.357   0.825  0.00  0.00     0.003 A 
ATOM      7  C6  UNL d   1      -0.229   1.335  -0.032  0.00  0.00    -0.001 A 
ENDROOT
TORSDOF 0
ENDMDL
