MODEL 1
REMARK minimizedAffinity 10.5226851
REMARK minimizedRMSD -1
REMARK  0 active torsions:
REMARK  status: ('A' for Active; 'I' for Inactive)
ROOT
ATOM      1  C   UNL d   1      -1.904  -3.399  -2.442  0.00  0.00     0.078 C 
ATOM      2  C1  UNL d   1      -1.725  -4.234  -3.674  0.00  0.00    -0.077 A 
ATOM      3  C2  UNL d   1      -0.746  -5.234  -3.732  0.00  0.00    -0.001 A 
ATOM      4  C3  UNL d   1      -0.584  -5.997  -4.889  0.00  0.00     0.003 A 
ATOM      5  C4  UNL d   1      -1.396  -5.768  -5.998  0.00  0.00    -0.005 A 
ATOM      6  C5  UNL d   1      -2.371  -4.774  -5.951  0.00  0.00     0.003 A 
ATOM      7  C6  UNL d   1      -2.535  -4.009  -4.794  0.00  0.00    -0.001 A 
ENDROOT
TORSDOF 0
ENDMDL
