MODEL 1
REMARK minimizedAffinity -2.70146346
REMARK minimizedRMSD -1
REMARK  0 active torsions:
REMARK  status: ('A' for Active; 'I' for Inactive)
ROOT
ATOM      1  C   UNL d   1       0.433   0.042  -0.316  0.00  0.00     0.078 C 
ATOM      2  C1  UNL d   1       0.586   0.933  -1.513  0.00  0.00    -0.077 A 
ATOM      3  C2  UNL d   1       1.188   2.192  -1.403  0.00  0.00    -0.001 A 
ATOM      4  C3  UNL d   1       1.315   3.015  -2.523  0.00  0.00     0.003 A 
ATOM      5  C4  UNL d   1       0.840   2.588  -3.762  0.00  0.00    -0.005 A 
ATOM      6  C5  UNL d   1       0.237   1.337  -3.881  0.00  0.00     0.003 A 
ATOM      7  C6  UNL d   1       0.110   0.513  -2.761  0.00  0.00    -0.001 A 
ENDROOT
TORSDOF 0
ENDMDL
