MODEL 1
REMARK minimizedAffinity -2.15213346
REMARK minimizedRMSD -1
REMARK  0 active torsions:
REMARK  status: ('A' for Active; 'I' for Inactive)
ROOT
ATOM      1  C   UNL d   1       1.066   1.215  -0.741  0.00  0.00     0.078 C 
ATOM      2  C1  UNL d   1       0.450   0.155   0.121  0.00  0.00    -0.077 A 
ATOM      3  C2  UNL d   1       1.054  -1.101   0.262  0.00  0.00    -0.001 A 
ATOM      4  C3  UNL d   1       0.464  -2.082   1.060  0.00  0.00     0.003 A 
ATOM      5  C4  UNL d   1      -0.733  -1.818   1.723  0.00  0.00    -0.005 A 
ATOM      6  C5  UNL d   1      -1.342  -0.573   1.588  0.00  0.00     0.003 A 
ATOM      7  C6  UNL d   1      -0.754   0.410   0.790  0.00  0.00    -0.001 A 
ENDROOT
TORSDOF 0
ENDMDL
