MODEL 1
REMARK minimizedAffinity -2.55178213
REMARK minimizedRMSD -1
REMARK  0 active torsions:
REMARK  status: ('A' for Active; 'I' for Inactive)
ROOT
ATOM      1  C   UNL d   1       0.414   1.502   0.366  0.00  0.00     0.078 C 
ATOM      2  C1  UNL d   1       0.925   1.714  -1.028  0.00  0.00    -0.077 A 
ATOM      3  C2  UNL d   1       2.299   1.738  -1.297  0.00  0.00    -0.001 A 
ATOM      4  C3  UNL d   1       2.760   1.946  -2.598  0.00  0.00     0.003 A 
ATOM      5  C4  UNL d   1       1.855   2.133  -3.640  0.00  0.00    -0.005 A 
ATOM      6  C5  UNL d   1       0.486   2.114  -3.382  0.00  0.00     0.003 A 
ATOM      7  C6  UNL d   1       0.022   1.906  -2.082  0.00  0.00    -0.001 A 
ENDROOT
TORSDOF 0
ENDMDL
