MODEL 1
REMARK minimizedAffinity -4.33022881
REMARK minimizedRMSD -1
REMARK  0 active torsions:
REMARK  status: ('A' for Active; 'I' for Inactive)
ROOT
ATOM      1  C   UNL d   1       0.460  -0.741  -0.496  0.00  0.00     0.078 C 
ATOM      2  C1  UNL d   1      -0.582  -0.935   0.566  0.00  0.00    -0.077 A 
ATOM      3  C2  UNL d   1      -1.339   0.143   1.039  0.00  0.00    -0.001 A 
ATOM      4  C3  UNL d   1      -2.298  -0.051   2.034  0.00  0.00     0.003 A 
ATOM      5  C4  UNL d   1      -2.508  -1.321   2.565  0.00  0.00    -0.005 A 
ATOM      6  C5  UNL d   1      -1.758  -2.400   2.102  0.00  0.00     0.003 A 
ATOM      7  C6  UNL d   1      -0.798  -2.208   1.107  0.00  0.00    -0.001 A 
ENDROOT
TORSDOF 0
ENDMDL
