MODEL 1
REMARK minimizedAffinity -4.10990143
REMARK minimizedRMSD -1
REMARK  0 active torsions:
REMARK  status: ('A' for Active; 'I' for Inactive)
ROOT
ATOM      1  C   UNL d   1      -2.396  -0.867   2.713  0.00  0.00     0.078 C 
ATOM      2  C1  UNL d   1      -1.382  -1.024   1.619  0.00  0.00    -0.077 A 
ATOM      3  C2  UNL d   1      -0.930   0.083   0.891  0.00  0.00    -0.001 A 
ATOM      4  C3  UNL d   1       0.007  -0.079  -0.131  0.00  0.00     0.003 A 
ATOM      5  C4  UNL d   1       0.499  -1.347  -0.434  0.00  0.00    -0.005 A 
ATOM      6  C5  UNL d   1       0.053  -2.455   0.284  0.00  0.00     0.003 A 
ATOM      7  C6  UNL d   1      -0.884  -2.295   1.306  0.00  0.00    -0.001 A 
ENDROOT
TORSDOF 0
ENDMDL
