MODEL 1
REMARK minimizedAffinity -4.29329872
REMARK minimizedRMSD -1
REMARK  0 active torsions:
REMARK  status: ('A' for Active; 'I' for Inactive)
ROOT
ATOM      1  C   UNL d   1       0.644  -0.805   0.102  0.00  0.00     0.078 C 
ATOM      2  C1  UNL d   1       0.595   0.494  -0.645  0.00  0.00    -0.077 A 
ATOM      3  C2  UNL d   1       0.607   1.718   0.036  0.00  0.00    -0.001 A 
ATOM      4  C3  UNL d   1       0.551   2.920  -0.672  0.00  0.00     0.003 A 
ATOM      5  C4  UNL d   1       0.483   2.910  -2.064  0.00  0.00    -0.005 A 
ATOM      6  C5  UNL d   1       0.469   1.697  -2.749  0.00  0.00     0.003 A 
ATOM      7  C6  UNL d   1       0.524   0.494  -2.044  0.00  0.00    -0.001 A 
ENDROOT
TORSDOF 0
ENDMDL
