MODEL 1
REMARK minimizedAffinity -3.55659699
REMARK minimizedRMSD -1
REMARK  0 active torsions:
REMARK  status: ('A' for Active; 'I' for Inactive)
ROOT
ATOM      1  C   UNL d   1       4.290   1.206  -3.699  0.00  0.00     0.078 C 
ATOM      2  C1  UNL d   1       2.889   1.529  -3.273  0.00  0.00    -0.077 A 
ATOM      3  C2  UNL d   1       1.827   1.473  -4.185  0.00  0.00    -0.001 A 
ATOM      4  C3  UNL d   1       0.530   1.785  -3.777  0.00  0.00     0.003 A 
ATOM      5  C4  UNL d   1       0.281   2.157  -2.457  0.00  0.00    -0.005 A 
ATOM      6  C5  UNL d   1       1.332   2.218  -1.543  0.00  0.00     0.003 A 
ATOM      7  C6  UNL d   1       2.630   1.905  -1.949  0.00  0.00    -0.001 A 
ENDROOT
TORSDOF 0
ENDMDL
