MODEL 1
REMARK minimizedAffinity -3.38707733
REMARK minimizedRMSD -1
REMARK  0 active torsions:
REMARK  status: ('A' for Active; 'I' for Inactive)
ROOT
ATOM      1  C   UNL d   1       1.036   1.178  -0.896  0.00  0.00     0.078 C 
ATOM      2  C1  UNL d   1       0.313   0.206  -0.012  0.00  0.00    -0.077 A 
ATOM      3  C2  UNL d   1       0.815  -1.083   0.203  0.00  0.00    -0.001 A 
ATOM      4  C3  UNL d   1       0.126  -1.981   1.021  0.00  0.00     0.003 A 
ATOM      5  C4  UNL d   1      -1.068  -1.599   1.628  0.00  0.00    -0.005 A 
ATOM      6  C5  UNL d   1      -1.576  -0.319   1.418  0.00  0.00     0.003 A 
ATOM      7  C6  UNL d   1      -0.889   0.580   0.601  0.00  0.00    -0.001 A 
ENDROOT
TORSDOF 0
ENDMDL
