MODEL 1
REMARK minimizedAffinity -2.21776915
REMARK minimizedRMSD -1
REMARK  0 active torsions:
REMARK  status: ('A' for Active; 'I' for Inactive)
ROOT
ATOM      1  C   UNL d   1       0.343   0.786   0.169  0.00  0.00     0.078 C 
ATOM      2  C1  UNL d   1       0.702   1.217  -1.221  0.00  0.00    -0.077 A 
ATOM      3  C2  UNL d   1       2.040   1.332  -1.617  0.00  0.00    -0.001 A 
ATOM      4  C3  UNL d   1       2.360   1.744  -2.912  0.00  0.00     0.003 A 
ATOM      5  C4  UNL d   1       1.348   2.045  -3.821  0.00  0.00    -0.005 A 
ATOM      6  C5  UNL d   1       0.013   1.936  -3.435  0.00  0.00     0.003 A 
ATOM      7  C6  UNL d   1      -0.309   1.524  -2.141  0.00  0.00    -0.001 A 
ENDROOT
TORSDOF 0
ENDMDL
