MODEL 1
REMARK minimizedAffinity -1.08668852
REMARK minimizedRMSD -1
REMARK  0 active torsions:
REMARK  status: ('A' for Active; 'I' for Inactive)
ROOT
ATOM      1  C   UNL d   1      -0.469  -0.221   3.383  0.00  0.00     0.124 A 
ATOM      2  C1  UNL d   1      -1.420  -0.637   2.461  0.00  0.00     0.062 A 
ATOM      3  C2  UNL d   1      -1.209  -0.440   1.100  0.00  0.00     0.162 A 
ATOM      4  C3  UNL d   1      -0.041   0.178   0.651  0.00  0.00    -0.034 A 
ATOM      5  C4  UNL d   1       0.910   0.595   1.584  0.00  0.00     0.162 A 
ATOM      6  C5  UNL d   1       0.694   0.395   2.943  0.00  0.00     0.062 A 
ATOM      7  F   UNL d   1       1.614   0.798   3.832  0.00  0.00    -0.097 F 
ATOM      8  F1  UNL d   1       2.044   1.192   1.187  0.00  0.00    -0.096 F 
ATOM      9  I   UNL d   1       0.278   0.475  -1.384  0.00  0.00    -0.060 I 
ATOM     10  F2  UNL d   1      -2.144  -0.852   0.232  0.00  0.00    -0.096 F 
ATOM     11  F3  UNL d   1      -2.545  -1.232   2.883  0.00  0.00    -0.097 F 
ATOM     12  F4  UNL d   1      -0.675  -0.411   4.692  0.00  0.00    -0.092 F 
ENDROOT
TORSDOF 0
ENDMDL
