MODEL 1
REMARK minimizedAffinity -2.14054918
REMARK minimizedRMSD -1
REMARK  0 active torsions:
REMARK  status: ('A' for Active; 'I' for Inactive)
ROOT
ATOM      1  C   UNL d   1      -0.545  -0.165   2.492  0.00  0.00     0.124 A 
ATOM      2  C1  UNL d   1      -1.385  -0.501   1.439  0.00  0.00     0.062 A 
ATOM      3  C2  UNL d   1      -0.927  -0.430   0.127  0.00  0.00     0.162 A 
ATOM      4  C3  UNL d   1       0.380  -0.022  -0.140  0.00  0.00    -0.034 A 
ATOM      5  C4  UNL d   1       1.219   0.315   0.924  0.00  0.00     0.162 A 
ATOM      6  C5  UNL d   1       0.756   0.242   2.233  0.00  0.00     0.062 A 
ATOM      7  F   UNL d   1       1.569   0.567   3.249  0.00  0.00    -0.097 F 
ATOM      8  F1  UNL d   1       2.481   0.711   0.702  0.00  0.00    -0.096 F 
ATOM      9  I   UNL d   1       1.070   0.085  -2.101  0.00  0.00    -0.060 I 
ATOM     10  F2  UNL d   1      -1.760  -0.761  -0.870  0.00  0.00    -0.096 F 
ATOM     11  F3  UNL d   1      -2.643  -0.895   1.687  0.00  0.00    -0.097 F 
ATOM     12  F4  UNL d   1      -0.990  -0.234   3.753  0.00  0.00    -0.092 F 
ENDROOT
TORSDOF 0
ENDMDL
