MODEL 1
REMARK minimizedAffinity 6.0947814
REMARK minimizedRMSD -1
REMARK  0 active torsions:
REMARK  status: ('A' for Active; 'I' for Inactive)
ROOT
ATOM      1  C   UNL d   1       1.290  -1.194  -3.104  0.00  0.00     0.124 A 
ATOM      2  C1  UNL d   1       0.302  -2.081  -2.700  0.00  0.00     0.062 A 
ATOM      3  C2  UNL d   1      -0.618  -1.707  -1.725  0.00  0.00     0.162 A 
ATOM      4  C3  UNL d   1      -0.555  -0.438  -1.148  0.00  0.00    -0.034 A 
ATOM      5  C4  UNL d   1       0.442   0.448  -1.558  0.00  0.00     0.162 A 
ATOM      6  C5  UNL d   1       1.360   0.069  -2.533  0.00  0.00     0.062 A 
ATOM      7  F   UNL d   1       2.314   0.927  -2.922  0.00  0.00    -0.097 F 
ATOM      8  F1  UNL d   1       0.531   1.675  -1.024  0.00  0.00    -0.096 F 
ATOM      9  I   UNL d   1      -1.930   0.125   0.310  0.00  0.00    -0.060 I 
ATOM     10  F2  UNL d   1      -1.563  -2.584  -1.354  0.00  0.00    -0.096 F 
ATOM     11  F3  UNL d   1       0.234  -3.302  -3.249  0.00  0.00    -0.097 F 
ATOM     12  F4  UNL d   1       2.175  -1.557  -4.041  0.00  0.00    -0.092 F 
ENDROOT
TORSDOF 0
ENDMDL
