MODEL 1
REMARK minimizedAffinity -0.987411618
REMARK minimizedRMSD -1
REMARK  0 active torsions:
REMARK  status: ('A' for Active; 'I' for Inactive)
ROOT
ATOM      1  C   UNL d   1      -1.678  -0.561   1.115  0.00  0.00     0.124 A 
ATOM      2  C1  UNL d   1      -2.184   0.088  -0.003  0.00  0.00     0.062 A 
ATOM      3  C2  UNL d   1      -1.413   0.201  -1.155  0.00  0.00     0.162 A 
ATOM      4  C3  UNL d   1      -0.127  -0.338  -1.197  0.00  0.00    -0.034 A 
ATOM      5  C4  UNL d   1       0.376  -0.988  -0.068  0.00  0.00     0.162 A 
ATOM      6  C5  UNL d   1      -0.400  -1.098   1.081  0.00  0.00     0.062 A 
ATOM      7  F   UNL d   1       0.091  -1.726   2.160  0.00  0.00    -0.097 F 
ATOM      8  F1  UNL d   1       1.608  -1.518  -0.074  0.00  0.00    -0.096 F 
ATOM      9  I   UNL d   1       1.030  -0.172  -2.919  0.00  0.00    -0.060 I 
ATOM     10  F2  UNL d   1      -1.927   0.833  -2.221  0.00  0.00    -0.096 F 
ATOM     11  F3  UNL d   1      -3.419   0.609   0.028  0.00  0.00    -0.097 F 
ATOM     12  F4  UNL d   1      -2.423  -0.667   2.224  0.00  0.00    -0.092 F 
ENDROOT
TORSDOF 0
ENDMDL
