MODEL 1
REMARK minimizedAffinity -1.1429019
REMARK minimizedRMSD -1
REMARK  0 active torsions:
REMARK  status: ('A' for Active; 'I' for Inactive)
ROOT
ATOM      1  C   UNL d   1       0.420  -0.523   2.514  0.00  0.00     0.124 A 
ATOM      2  C1  UNL d   1       1.387  -0.082   1.622  0.00  0.00     0.062 A 
ATOM      3  C2  UNL d   1       1.036   0.247   0.316  0.00  0.00     0.162 A 
ATOM      4  C3  UNL d   1      -0.289   0.139  -0.106  0.00  0.00    -0.034 A 
ATOM      5  C4  UNL d   1      -1.256  -0.306   0.797  0.00  0.00     0.162 A 
ATOM      6  C5  UNL d   1      -0.900  -0.635   2.101  0.00  0.00     0.062 A 
ATOM      7  F   UNL d   1      -1.837  -1.060   2.962  0.00  0.00    -0.097 F 
ATOM      8  F1  UNL d   1      -2.539  -0.423   0.425  0.00  0.00    -0.096 F 
ATOM      9  I   UNL d   1      -0.817   0.631  -2.058  0.00  0.00    -0.060 I 
ATOM     10  F2  UNL d   1       1.992   0.671  -0.525  0.00  0.00    -0.096 F 
ATOM     11  F3  UNL d   1       2.663   0.025   2.018  0.00  0.00    -0.097 F 
ATOM     12  F4  UNL d   1       0.760  -0.841   3.770  0.00  0.00    -0.092 F 
ENDROOT
TORSDOF 0
ENDMDL
