MODEL 1
REMARK minimizedAffinity -3.4665401
REMARK minimizedRMSD -1
REMARK  0 active torsions:
REMARK  status: ('A' for Active; 'I' for Inactive)
ROOT
ATOM      1  C   UNL d   1       0.321  -1.248  -2.107  0.00  0.00     0.124 A 
ATOM      2  C1  UNL d   1       0.109  -2.192  -1.111  0.00  0.00     0.062 A 
ATOM      3  C2  UNL d   1       0.035  -1.799   0.222  0.00  0.00     0.162 A 
ATOM      4  C3  UNL d   1       0.171  -0.455   0.567  0.00  0.00    -0.034 A 
ATOM      5  C4  UNL d   1       0.385   0.489  -0.439  0.00  0.00     0.162 A 
ATOM      6  C5  UNL d   1       0.458   0.091  -1.770  0.00  0.00     0.062 A 
ATOM      7  F   UNL d   1       0.663   1.004  -2.730  0.00  0.00    -0.097 F 
ATOM      8  F1  UNL d   1       0.520   1.790  -0.142  0.00  0.00    -0.096 F 
ATOM      9  I   UNL d   1       0.060   0.137   2.560  0.00  0.00    -0.060 I 
ATOM     10  F2  UNL d   1      -0.171  -2.733   1.163  0.00  0.00    -0.096 F 
ATOM     11  F3  UNL d   1      -0.023  -3.487  -1.434  0.00  0.00    -0.097 F 
ATOM     12  F4  UNL d   1       0.393  -1.630  -3.389  0.00  0.00    -0.092 F 
ENDROOT
TORSDOF 0
ENDMDL
