MODEL 1
REMARK minimizedAffinity -1.20064628
REMARK minimizedRMSD -1
REMARK  0 active torsions:
REMARK  status: ('A' for Active; 'I' for Inactive)
ROOT
ATOM      1  C   UNL d   1      -0.456   0.541   1.805  0.00  0.00     0.124 A 
ATOM      2  C1  UNL d   1      -1.205   0.732   0.652  0.00  0.00     0.062 A 
ATOM      3  C2  UNL d   1      -0.694   0.353  -0.586  0.00  0.00     0.162 A 
ATOM      4  C3  UNL d   1       0.573  -0.223  -0.678  0.00  0.00    -0.034 A 
ATOM      5  C4  UNL d   1       1.321  -0.411   0.486  0.00  0.00     0.162 A 
ATOM      6  C5  UNL d   1       0.806  -0.031   1.721  0.00  0.00     0.062 A 
ATOM      7  F   UNL d   1       1.532  -0.217   2.833  0.00  0.00    -0.097 F 
ATOM      8  F1  UNL d   1       2.543  -0.962   0.433  0.00  0.00    -0.096 F 
ATOM      9  I   UNL d   1       1.340  -0.791  -2.527  0.00  0.00    -0.060 I 
ATOM     10  F2  UNL d   1      -1.440   0.550  -1.683  0.00  0.00    -0.096 F 
ATOM     11  F3  UNL d   1      -2.424   1.285   0.731  0.00  0.00    -0.097 F 
ATOM     12  F4  UNL d   1      -0.949   0.907   2.995  0.00  0.00    -0.092 F 
ENDROOT
TORSDOF 0
ENDMDL
