MODEL 1
REMARK minimizedAffinity 5.15800858
REMARK minimizedRMSD -1
REMARK  0 active torsions:
REMARK  status: ('A' for Active; 'I' for Inactive)
ROOT
ATOM      1  C   UNL d   1      -1.677   0.508   0.236  0.00  0.00     0.124 A 
ATOM      2  C1  UNL d   1      -0.716  -0.419   0.613  0.00  0.00     0.062 A 
ATOM      3  C2  UNL d   1       0.267  -0.815  -0.289  0.00  0.00     0.162 A 
ATOM      4  C3  UNL d   1       0.294  -0.283  -1.578  0.00  0.00    -0.034 A 
ATOM      5  C4  UNL d   1      -0.677   0.648  -1.951  0.00  0.00     0.162 A 
ATOM      6  C5  UNL d   1      -1.657   1.041  -1.045  0.00  0.00     0.062 A 
ATOM      7  F   UNL d   1      -2.585   1.936  -1.412  0.00  0.00    -0.097 F 
ATOM      8  F1  UNL d   1      -0.680   1.179  -3.183  0.00  0.00    -0.096 F 
ATOM      9  I   UNL d   1       1.762  -0.872  -2.931  0.00  0.00    -0.060 I 
ATOM     10  F2  UNL d   1       1.184  -1.712   0.103  0.00  0.00    -0.096 F 
ATOM     11  F3  UNL d   1      -0.734  -0.936   1.850  0.00  0.00    -0.097 F 
ATOM     12  F4  UNL d   1      -2.622   0.887   1.106  0.00  0.00    -0.092 F 
ENDROOT
TORSDOF 0
ENDMDL
