MODEL 1
REMARK minimizedAffinity 1.7664113
REMARK minimizedRMSD -1
REMARK  0 active torsions:
REMARK  status: ('A' for Active; 'I' for Inactive)
ROOT
ATOM      1  C   UNL d   1      -1.215  -0.253   1.447  0.00  0.00     0.124 A 
ATOM      2  C1  UNL d   1      -1.842   0.060   2.645  0.00  0.00     0.062 A 
ATOM      3  C2  UNL d   1      -1.284   1.006   3.501  0.00  0.00     0.162 A 
ATOM      4  C3  UNL d   1      -0.092   1.647   3.161  0.00  0.00    -0.034 A 
ATOM      5  C4  UNL d   1       0.533   1.325   1.955  0.00  0.00     0.162 A 
ATOM      6  C5  UNL d   1      -0.028   0.379   1.104  0.00  0.00     0.062 A 
ATOM      7  F   UNL d   1       0.579   0.078  -0.053  0.00  0.00    -0.097 F 
ATOM      8  F1  UNL d   1       1.680   1.922   1.597  0.00  0.00    -0.096 F 
ATOM      9  I   UNL d   1       0.744   3.061   4.438  0.00  0.00    -0.060 I 
ATOM     10  F2  UNL d   1      -1.912   1.289   4.652  0.00  0.00    -0.096 F 
ATOM     11  F3  UNL d   1      -2.987  -0.550   2.980  0.00  0.00    -0.097 F 
ATOM     12  F4  UNL d   1      -1.753  -1.164   0.627  0.00  0.00    -0.092 F 
ENDROOT
TORSDOF 0
ENDMDL
