MODEL 1
REMARK minimizedAffinity -1.43286753
REMARK minimizedRMSD -1
REMARK  0 active torsions:
REMARK  status: ('A' for Active; 'I' for Inactive)
ROOT
ATOM      1  C   UNL d   1      -1.215  -0.228   3.009  0.00  0.00     0.124 A 
ATOM      2  C1  UNL d   1      -1.895  -0.692   1.892  0.00  0.00     0.062 A 
ATOM      3  C2  UNL d   1      -1.377  -0.477   0.618  0.00  0.00     0.162 A 
ATOM      4  C3  UNL d   1      -0.171   0.205   0.454  0.00  0.00    -0.034 A 
ATOM      5  C4  UNL d   1       0.507   0.670   1.582  0.00  0.00     0.162 A 
ATOM      6  C5  UNL d   1      -0.015   0.452   2.854  0.00  0.00     0.062 A 
ATOM      7  F   UNL d   1       0.643   0.902   3.932  0.00  0.00    -0.097 F 
ATOM      8  F1  UNL d   1       1.668   1.329   1.461  0.00  0.00    -0.096 F 
ATOM      9  I   UNL d   1       0.606   0.528  -1.449  0.00  0.00    -0.060 I 
ATOM     10  F2  UNL d   1      -2.056  -0.936  -0.444  0.00  0.00    -0.096 F 
ATOM     11  F3  UNL d   1      -3.055  -1.348   2.039  0.00  0.00    -0.097 F 
ATOM     12  F4  UNL d   1      -1.716  -0.435   4.234  0.00  0.00    -0.092 F 
ENDROOT
TORSDOF 0
ENDMDL
