MODEL 1
REMARK minimizedAffinity 1.17489994
REMARK minimizedRMSD -1
REMARK  0 active torsions:
REMARK  status: ('A' for Active; 'I' for Inactive)
ROOT
ATOM      1  C   UNL d   1       1.020   1.383   2.630  0.00  0.00     0.124 A 
ATOM      2  C1  UNL d   1      -0.160   0.670   2.473  0.00  0.00     0.062 A 
ATOM      3  C2  UNL d   1      -0.542   0.218   1.213  0.00  0.00     0.162 A 
ATOM      4  C3  UNL d   1       0.257   0.478   0.100  0.00  0.00    -0.034 A 
ATOM      5  C4  UNL d   1       1.441   1.198   0.266  0.00  0.00     0.162 A 
ATOM      6  C5  UNL d   1       1.819   1.647   1.527  0.00  0.00     0.062 A 
ATOM      7  F   UNL d   1       2.959   2.337   1.677  0.00  0.00    -0.097 F 
ATOM      8  F1  UNL d   1       2.233   1.466  -0.783  0.00  0.00    -0.096 F 
ATOM      9  I   UNL d   1      -0.312  -0.195  -1.786  0.00  0.00    -0.060 I 
ATOM     10  F2  UNL d   1      -1.688  -0.469   1.091  0.00  0.00    -0.096 F 
ATOM     11  F3  UNL d   1      -0.935   0.415   3.537  0.00  0.00    -0.097 F 
ATOM     12  F4  UNL d   1       1.385   1.818   3.844  0.00  0.00    -0.092 F 
ENDROOT
TORSDOF 0
ENDMDL
