MODEL 1
REMARK minimizedAffinity -3.5244379
REMARK minimizedRMSD -1
REMARK  0 active torsions:
REMARK  status: ('A' for Active; 'I' for Inactive)
ROOT
ATOM      1  C   UNL d   1      -2.153  -0.147   2.201  0.00  0.00     0.124 A 
ATOM      2  C1  UNL d   1      -2.743   0.340   1.043  0.00  0.00     0.062 A 
ATOM      3  C2  UNL d   1      -2.046   0.317  -0.161  0.00  0.00     0.162 A 
ATOM      4  C3  UNL d   1      -0.749  -0.196  -0.214  0.00  0.00    -0.034 A 
ATOM      5  C4  UNL d   1      -0.162  -0.683   0.955  0.00  0.00     0.162 A 
ATOM      6  C5  UNL d   1      -0.864  -0.658   2.156  0.00  0.00     0.062 A 
ATOM      7  F   UNL d   1      -0.292  -1.129   3.274  0.00  0.00    -0.097 F 
ATOM      8  F1  UNL d   1       1.083  -1.182   0.941  0.00  0.00    -0.096 F 
ATOM      9  I   UNL d   1       0.298  -0.231  -2.012  0.00  0.00    -0.060 I 
ATOM     10  F2  UNL d   1      -2.640   0.794  -1.265  0.00  0.00    -0.096 F 
ATOM     11  F3  UNL d   1      -3.989   0.834   1.084  0.00  0.00    -0.097 F 
ATOM     12  F4  UNL d   1      -2.827  -0.123   3.358  0.00  0.00    -0.092 F 
ENDROOT
TORSDOF 0
ENDMDL
