MODEL 1
REMARK minimizedAffinity 1.80594468
REMARK minimizedRMSD -1
REMARK  0 active torsions:
REMARK  status: ('A' for Active; 'I' for Inactive)
ROOT
ATOM      1  C   UNL d   1       0.914  -0.564  -2.797  0.00  0.00     0.124 A 
ATOM      2  C1  UNL d   1      -0.314  -0.847  -2.215  0.00  0.00     0.062 A 
ATOM      3  C2  UNL d   1      -0.578  -2.122  -1.722  0.00  0.00     0.162 A 
ATOM      4  C3  UNL d   1       0.389  -3.123  -1.808  0.00  0.00    -0.034 A 
ATOM      5  C4  UNL d   1       1.621  -2.832  -2.395  0.00  0.00     0.162 A 
ATOM      6  C5  UNL d   1       1.880  -1.556  -2.887  0.00  0.00     0.062 A 
ATOM      7  F   UNL d   1       3.067  -1.285  -3.448  0.00  0.00    -0.097 F 
ATOM      8  F1  UNL d   1       2.574  -3.771  -2.493  0.00  0.00    -0.096 F 
ATOM      9  I   UNL d   1      -0.001  -5.030  -1.071  0.00  0.00    -0.060 I 
ATOM     10  F2  UNL d   1      -1.773  -2.367  -1.165  0.00  0.00    -0.096 F 
ATOM     11  F3  UNL d   1      -1.249   0.109  -2.129  0.00  0.00    -0.097 F 
ATOM     12  F4  UNL d   1       1.165   0.663  -3.272  0.00  0.00    -0.092 F 
ENDROOT
TORSDOF 0
ENDMDL
