MODEL 1
REMARK minimizedAffinity -4.6631608
REMARK minimizedRMSD -1
REMARK  0 active torsions:
REMARK  status: ('A' for Active; 'I' for Inactive)
ROOT
ATOM      1  C   UNL d   1      -1.243   0.327   2.057  0.00  0.00     0.124 A 
ATOM      2  C1  UNL d   1       0.127   0.103   2.038  0.00  0.00     0.062 A 
ATOM      3  C2  UNL d   1       0.807   0.022   0.826  0.00  0.00     0.162 A 
ATOM      4  C3  UNL d   1       0.117   0.166  -0.378  0.00  0.00    -0.034 A 
ATOM      5  C4  UNL d   1      -1.260   0.389  -0.352  0.00  0.00     0.162 A 
ATOM      6  C5  UNL d   1      -1.935   0.469   0.862  0.00  0.00     0.062 A 
ATOM      7  F   UNL d   1      -3.259   0.685   0.878  0.00  0.00    -0.097 F 
ATOM      8  F1  UNL d   1      -1.954   0.531  -1.491  0.00  0.00    -0.096 F 
ATOM      9  I   UNL d   1       1.130   0.045  -2.192  0.00  0.00    -0.060 I 
ATOM     10  F2  UNL d   1       2.130  -0.194   0.838  0.00  0.00    -0.096 F 
ATOM     11  F3  UNL d   1       0.798  -0.036   3.191  0.00  0.00    -0.097 F 
ATOM     12  F4  UNL d   1      -1.895   0.403   3.224  0.00  0.00    -0.092 F 
ENDROOT
TORSDOF 0
ENDMDL
