MODEL 1
REMARK minimizedAffinity -5.08891821
REMARK minimizedRMSD -1
REMARK  0 active torsions:
REMARK  status: ('A' for Active; 'I' for Inactive)
ROOT
ATOM      1  C1  BNZ d   1      -1.826   1.788   0.352  0.00  0.00     0.000 A 
ATOM      2  C2  BNZ d   1      -1.836   1.956   1.711  0.00  0.00     0.000 A 
ATOM      3  C3  BNZ d   1      -1.126   1.118   2.525  0.00  0.00     0.000 A 
ATOM      4  C4  BNZ d   1      -0.442   0.090   1.983  0.00  0.00     0.000 A 
ATOM      5  C5  BNZ d   1      -0.430  -0.098   0.615  0.00  0.00     0.000 A 
ATOM      6  C6  BNZ d   1      -1.114   0.770  -0.204  0.00  0.00     0.000 A 
ENDROOT
TORSDOF 0
ENDMDL
