MODEL 1
REMARK minimizedAffinity -4.95241594
REMARK minimizedRMSD -1
REMARK  0 active torsions:
REMARK  status: ('A' for Active; 'I' for Inactive)
ROOT
ATOM      1  C1  BNZ d   1      -1.635   1.272  -0.192  0.00  0.00     0.000 A 
ATOM      2  C2  BNZ d   1      -0.541   0.563  -0.611  0.00  0.00     0.000 A 
ATOM      3  C3  BNZ d   1       0.247  -0.103   0.285  0.00  0.00     0.000 A 
ATOM      4  C4  BNZ d   1      -0.035  -0.026   1.602  0.00  0.00     0.000 A 
ATOM      5  C5  BNZ d   1      -1.129   0.692   2.041  0.00  0.00     0.000 A 
ATOM      6  C6  BNZ d   1      -1.943   1.329   1.133  0.00  0.00     0.000 A 
ENDROOT
TORSDOF 0
ENDMDL
