MODEL 1
REMARK minimizedAffinity -4.69584894
REMARK minimizedRMSD -1
REMARK  0 active torsions:
REMARK  status: ('A' for Active; 'I' for Inactive)
ROOT
ATOM      1  C1  BNZ d   1      -1.832   1.508   1.489  0.00  0.00     0.000 A 
ATOM      2  C2  BNZ d   1      -1.811   2.820   1.097  0.00  0.00     0.000 A 
ATOM      3  C3  BNZ d   1      -0.898   3.262   0.180  0.00  0.00     0.000 A 
ATOM      4  C4  BNZ d   1       0.016   2.402  -0.313  0.00  0.00     0.000 A 
ATOM      5  C5  BNZ d   1       0.014   1.078   0.080  0.00  0.00     0.000 A 
ATOM      6  C6  BNZ d   1      -0.930   0.628   0.974  0.00  0.00     0.000 A 
ENDROOT
TORSDOF 0
ENDMDL
