MODEL 1
REMARK minimizedAffinity -1.21419096
REMARK minimizedRMSD -1
REMARK  0 active torsions:
REMARK  status: ('A' for Active; 'I' for Inactive)
ROOT
ATOM      1  C1  BNZ d   1       0.831   1.190  -0.571  0.00  0.00     0.000 A 
ATOM      2  C2  BNZ d   1       1.010  -0.138  -0.289  0.00  0.00     0.000 A 
ATOM      3  C3  BNZ d   1       0.360  -0.724   0.761  0.00  0.00     0.000 A 
ATOM      4  C4  BNZ d   1      -0.435   0.026   1.551  0.00  0.00     0.000 A 
ATOM      5  C5  BNZ d   1      -0.618   1.369   1.286  0.00  0.00     0.000 A 
ATOM      6  C6  BNZ d   1       0.007   1.947   0.205  0.00  0.00     0.000 A 
ENDROOT
TORSDOF 0
ENDMDL
