MODEL 1
REMARK minimizedAffinity -3.34230947
REMARK minimizedRMSD -1
REMARK  0 active torsions:
REMARK  status: ('A' for Active; 'I' for Inactive)
ROOT
ATOM      1  C1  BNZ d   1       0.010  -0.779   1.484  0.00  0.00     0.000 A 
ATOM      2  C2  BNZ d   1      -0.878  -0.131   2.300  0.00  0.00     0.000 A 
ATOM      3  C3  BNZ d   1      -1.267   1.152   2.033  0.00  0.00     0.000 A 
ATOM      4  C4  BNZ d   1      -0.738   1.798   0.974  0.00  0.00     0.000 A 
ATOM      5  C5  BNZ d   1       0.166   1.162   0.147  0.00  0.00     0.000 A 
ATOM      6  C6  BNZ d   1       0.526  -0.143   0.397  0.00  0.00     0.000 A 
ENDROOT
TORSDOF 0
ENDMDL
