MODEL 1
REMARK minimizedAffinity -4.28744411
REMARK minimizedRMSD -1
REMARK  0 active torsions:
REMARK  status: ('A' for Active; 'I' for Inactive)
ROOT
ATOM      1  C1  BNZ d   1      -0.962   1.907  -0.088  0.00  0.00     0.000 A 
ATOM      2  C2  BNZ d   1      -0.028   0.947  -0.373  0.00  0.00     0.000 A 
ATOM      3  C3  BNZ d   1       0.329   0.018   0.564  0.00  0.00     0.000 A 
ATOM      4  C4  BNZ d   1      -0.217   0.075   1.796  0.00  0.00     0.000 A 
ATOM      5  C5  BNZ d   1      -1.152   1.044   2.102  0.00  0.00     0.000 A 
ATOM      6  C6  BNZ d   1      -1.538   1.953   1.144  0.00  0.00     0.000 A 
ENDROOT
TORSDOF 0
ENDMDL
