MODEL 1
REMARK minimizedAffinity -3.59853816
REMARK minimizedRMSD -1
REMARK  0 active torsions:
REMARK  status: ('A' for Active; 'I' for Inactive)
ROOT
ATOM      1  C1  BNZ d   1      -0.956  -1.855  -0.798  0.00  0.00     0.000 A 
ATOM      2  C2  BNZ d   1      -1.135  -2.746  -1.822  0.00  0.00     0.000 A 
ATOM      3  C3  BNZ d   1      -0.074  -3.424  -2.353  0.00  0.00     0.000 A 
ATOM      4  C4  BNZ d   1       1.168  -3.182  -1.887  0.00  0.00     0.000 A 
ATOM      5  C5  BNZ d   1       1.366  -2.280  -0.861  0.00  0.00     0.000 A 
ATOM      6  C6  BNZ d   1       0.291  -1.627  -0.303  0.00  0.00     0.000 A 
ENDROOT
TORSDOF 0
ENDMDL
