MODEL 1
REMARK minimizedAffinity -5.44519377
REMARK minimizedRMSD -1
REMARK  0 active torsions:
REMARK  status: ('A' for Active; 'I' for Inactive)
ROOT
ATOM      1  C1  BNZ d   1      -0.373   1.749  -0.391  0.00  0.00     0.000 A 
ATOM      2  C2  BNZ d   1      -1.175   1.806   0.718  0.00  0.00     0.000 A 
ATOM      3  C3  BNZ d   1      -1.438   2.999   1.331  0.00  0.00     0.000 A 
ATOM      4  C4  BNZ d   1      -0.868   4.127   0.860  0.00  0.00     0.000 A 
ATOM      5  C5  BNZ d   1      -0.050   4.085  -0.252  0.00  0.00     0.000 A 
ATOM      6  C6  BNZ d   1       0.181   2.888  -0.890  0.00  0.00     0.000 A 
ENDROOT
TORSDOF 0
ENDMDL
