MODEL 1
REMARK minimizedAffinity -5.13551188
REMARK minimizedRMSD -1
REMARK  0 active torsions:
REMARK  status: ('A' for Active; 'I' for Inactive)
ROOT
ATOM      1  C1  BNZ d   1      -0.204   1.189  -0.233  0.00  0.00     0.000 A 
ATOM      2  C2  BNZ d   1      -0.465   2.432  -0.744  0.00  0.00     0.000 A 
ATOM      3  C3  BNZ d   1      -1.266   3.312  -0.071  0.00  0.00     0.000 A 
ATOM      4  C4  BNZ d   1      -1.835   2.933   1.092  0.00  0.00     0.000 A 
ATOM      5  C5  BNZ d   1      -1.589   1.680   1.615  0.00  0.00     0.000 A 
ATOM      6  C6  BNZ d   1      -0.751   0.811   0.954  0.00  0.00     0.000 A 
ENDROOT
TORSDOF 0
ENDMDL
