MODEL 1
REMARK minimizedAffinity -4.06949043
REMARK minimizedRMSD -1
REMARK  0 active torsions:
REMARK  status: ('A' for Active; 'I' for Inactive)
ROOT
ATOM      1  C1  BNZ d   1       0.084   1.163  -0.277  0.00  0.00     0.000 A 
ATOM      2  C2  BNZ d   1      -0.655   0.466   0.642  0.00  0.00     0.000 A 
ATOM      3  C3  BNZ d   1      -1.396   1.120   1.586  0.00  0.00     0.000 A 
ATOM      4  C4  BNZ d   1      -1.368   2.467   1.635  0.00  0.00     0.000 A 
ATOM      5  C5  BNZ d   1      -0.621   3.184   0.721  0.00  0.00     0.000 A 
ATOM      6  C6  BNZ d   1       0.094   2.524  -0.252  0.00  0.00     0.000 A 
ENDROOT
TORSDOF 0
ENDMDL
