MODEL 1
REMARK minimizedAffinity -4.15214777
REMARK minimizedRMSD -1
REMARK  0 active torsions:
REMARK  status: ('A' for Active; 'I' for Inactive)
ROOT
ATOM      1  C1  BNZ d   1      -0.753   3.514  -0.165  0.00  0.00     0.000 A 
ATOM      2  C2  BNZ d   1      -0.379   2.378  -0.832  0.00  0.00     0.000 A 
ATOM      3  C3  BNZ d   1      -0.793   1.147  -0.405  0.00  0.00     0.000 A 
ATOM      4  C4  BNZ d   1      -1.545   1.051   0.710  0.00  0.00     0.000 A 
ATOM      5  C5  BNZ d   1      -1.922   2.187   1.399  0.00  0.00     0.000 A 
ATOM      6  C6  BNZ d   1      -1.537   3.426   0.944  0.00  0.00     0.000 A 
ENDROOT
TORSDOF 0
ENDMDL
