MODEL 1
REMARK minimizedAffinity -2.55579114
REMARK minimizedRMSD -1
REMARK  0 active torsions:
REMARK  status: ('A' for Active; 'I' for Inactive)
ROOT
ATOM      1  C1  BNZ d   1      -1.218   2.035   1.545  0.00  0.00     0.000 A 
ATOM      2  C2  BNZ d   1      -1.372   1.635   0.245  0.00  0.00     0.000 A 
ATOM      3  C3  BNZ d   1      -0.704   0.543  -0.235  0.00  0.00     0.000 A 
ATOM      4  C4  BNZ d   1       0.146  -0.122   0.574  0.00  0.00     0.000 A 
ATOM      5  C5  BNZ d   1       0.320   0.275   1.884  0.00  0.00     0.000 A 
ATOM      6  C6  BNZ d   1      -0.384   1.351   2.375  0.00  0.00     0.000 A 
ENDROOT
TORSDOF 0
ENDMDL
