MODEL 1
REMARK minimizedAffinity -4.22584867
REMARK minimizedRMSD -1
REMARK  0 active torsions:
REMARK  status: ('A' for Active; 'I' for Inactive)
ROOT
ATOM      1  C1  BNZ d   1      -0.335   2.349   0.047  0.00  0.00     0.000 A 
ATOM      2  C2  BNZ d   1       0.146   1.140  -0.379  0.00  0.00     0.000 A 
ATOM      3  C3  BNZ d   1      -0.068   0.004   0.351  0.00  0.00     0.000 A 
ATOM      4  C4  BNZ d   1      -0.728   0.085   1.525  0.00  0.00     0.000 A 
ATOM      5  C5  BNZ d   1      -1.212   1.299   1.972  0.00  0.00     0.000 A 
ATOM      6  C6  BNZ d   1      -1.028   2.433   1.215  0.00  0.00     0.000 A 
ENDROOT
TORSDOF 0
ENDMDL
