MODEL 1
REMARK minimizedAffinity -3.29404306
REMARK minimizedRMSD -1
REMARK  0 active torsions:
REMARK  status: ('A' for Active; 'I' for Inactive)
ROOT
ATOM      1  C1  BNZ d   1       1.162  -4.153  -1.883  0.00  0.00     0.000 A 
ATOM      2  C2  BNZ d   1       0.163  -3.839  -2.766  0.00  0.00     0.000 A 
ATOM      3  C3  BNZ d   1      -0.313  -2.561  -2.859  0.00  0.00     0.000 A 
ATOM      4  C4  BNZ d   1       0.181  -1.608  -2.043  0.00  0.00     0.000 A 
ATOM      5  C5  BNZ d   1       1.182  -1.911  -1.141  0.00  0.00     0.000 A 
ATOM      6  C6  BNZ d   1       1.686  -3.189  -1.077  0.00  0.00     0.000 A 
ENDROOT
TORSDOF 0
ENDMDL
