MODEL 1
REMARK minimizedAffinity 8.21016407
REMARK minimizedRMSD -1
REMARK  1 active torsions:
REMARK  status: ('A' for Active; 'I' for Inactive)
REMARK    1  A    between atoms: C1_2  and  C2_3 
ROOT
ATOM      1  C2  UNL d   1       2.432  -0.327  -0.289  0.00  0.00    -0.081 A 
ATOM      2  C3  UNL d   1       3.447  -0.013  -1.202  0.00  0.00     0.006 A 
ATOM      3  C4  UNL d   1       3.867  -0.954  -2.145  0.00  0.00     0.002 A 
ATOM      4  C5  UNL d   1       3.275  -2.220  -2.197  0.00  0.00    -0.080 A 
ATOM      5  C6  UNL d   1       3.695  -3.229  -3.224  0.00  0.00     0.076 C 
ATOM      6  C7  UNL d   1       2.273  -2.540  -1.274  0.00  0.00     0.002 A 
ATOM      7  C8  UNL d   1       1.853  -1.600  -0.330  0.00  0.00     0.006 A 
ENDROOT
BRANCH   1   8
ATOM      8  C1  UNL d   1       1.932   0.707   0.687  0.00  0.00     0.054 C 
ATOM      9  C   UNL d   1       0.653   1.365   0.189  0.00  0.00     0.018 C 
ENDBRANCH   1   8
TORSDOF 1
ENDMDL
