MODEL 1
REMARK minimizedAffinity 5.07043076
REMARK minimizedRMSD -1
REMARK  1 active torsions:
REMARK  status: ('A' for Active; 'I' for Inactive)
REMARK    1  A    between atoms: C1_2  and  C2_3 
ROOT
ATOM      1  C2  UNL d   1       1.730  -1.878  -0.101  0.00  0.00    -0.081 A 
ATOM      2  C3  UNL d   1       1.505  -0.559   0.312  0.00  0.00     0.006 A 
ATOM      3  C4  UNL d   1       2.437   0.441   0.028  0.00  0.00     0.002 A 
ATOM      4  C5  UNL d   1       3.606   0.142  -0.680  0.00  0.00    -0.080 A 
ATOM      5  C6  UNL d   1       4.601   1.212  -1.018  0.00  0.00     0.076 C 
ATOM      6  C7  UNL d   1       3.840  -1.179  -1.078  0.00  0.00     0.002 A 
ATOM      7  C8  UNL d   1       2.908  -2.180  -0.794  0.00  0.00     0.006 A 
ENDROOT
BRANCH   1   8
ATOM      8  C1  UNL d   1       0.696  -2.946   0.147  0.00  0.00     0.054 C 
ATOM      9  C   UNL d   1      -0.059  -3.292  -1.129  0.00  0.00     0.018 C 
ENDBRANCH   1   8
TORSDOF 1
ENDMDL
