MODEL 1
REMARK minimizedAffinity 2.12768197
REMARK minimizedRMSD -1
REMARK  1 active torsions:
REMARK  status: ('A' for Active; 'I' for Inactive)
REMARK    1  A    between atoms: C1_2  and  C2_3 
ROOT
ATOM      1  C2  UNL d   1       4.055  -0.044  -1.508  0.00  0.00    -0.081 A 
ATOM      2  C3  UNL d   1       2.906  -0.735  -1.103  0.00  0.00     0.006 A 
ATOM      3  C4  UNL d   1       2.035  -0.173  -0.166  0.00  0.00     0.002 A 
ATOM      4  C5  UNL d   1       2.293   1.091   0.374  0.00  0.00    -0.080 A 
ATOM      5  C6  UNL d   1       1.350   1.718   1.357  0.00  0.00     0.076 C 
ATOM      6  C7  UNL d   1       3.449   1.774  -0.017  0.00  0.00     0.002 A 
ATOM      7  C8  UNL d   1       4.321   1.212  -0.953  0.00  0.00     0.006 A 
ENDROOT
BRANCH   1   8
ATOM      8  C1  UNL d   1       4.962  -0.619  -2.565  0.00  0.00     0.054 C 
ATOM      9  C   UNL d   1       4.718  -2.109  -2.753  0.00  0.00     0.018 C 
ENDBRANCH   1   8
TORSDOF 1
ENDMDL
