MODEL 1
REMARK minimizedAffinity 12.5242949
REMARK minimizedRMSD -1
REMARK  1 active torsions:
REMARK  status: ('A' for Active; 'I' for Inactive)
REMARK    1  A    between atoms: C1_2  and  C2_3 
ROOT
ATOM      1  C2  UNL d   1      -4.670   1.814  -1.906  0.00  0.00    -0.081 A 
ATOM      2  C3  UNL d   1      -4.431   0.492  -1.511  0.00  0.00     0.006 A 
ATOM      3  C4  UNL d   1      -3.270  -0.169  -1.918  0.00  0.00     0.002 A 
ATOM      4  C5  UNL d   1      -2.326   0.481  -2.720  0.00  0.00    -0.080 A 
ATOM      5  C6  UNL d   1      -1.062  -0.208  -3.139  0.00  0.00     0.076 C 
ATOM      6  C7  UNL d   1      -2.573   1.796  -3.129  0.00  0.00     0.002 A 
ATOM      7  C8  UNL d   1      -3.734   2.458  -2.723  0.00  0.00     0.006 A 
ENDROOT
BRANCH   1   8
ATOM      8  C1  UNL d   1      -5.890   2.552  -1.415  0.00  0.00     0.054 C 
ATOM      9  C   UNL d   1      -5.582   4.021  -1.160  0.00  0.00     0.018 C 
ENDBRANCH   1   8
TORSDOF 1
ENDMDL
