MODEL 1
REMARK minimizedAffinity 3.25046897
REMARK minimizedRMSD -1
REMARK  1 active torsions:
REMARK  status: ('A' for Active; 'I' for Inactive)
REMARK    1  A    between atoms: C1_2  and  C2_3 
ROOT
ATOM      1  C2  UNL d   1       0.689  -0.223   1.431  0.00  0.00    -0.081 A 
ATOM      2  C3  UNL d   1      -0.104   0.283   2.468  0.00  0.00     0.006 A 
ATOM      3  C4  UNL d   1      -0.898   1.414   2.266  0.00  0.00     0.002 A 
ATOM      4  C5  UNL d   1      -0.918   2.054   1.022  0.00  0.00    -0.080 A 
ATOM      5  C6  UNL d   1      -1.789   3.251   0.782  0.00  0.00     0.076 C 
ATOM      6  C7  UNL d   1      -0.112   1.559  -0.010  0.00  0.00     0.002 A 
ATOM      7  C8  UNL d   1       0.682   0.428   0.192  0.00  0.00     0.006 A 
ENDROOT
BRANCH   1   8
ATOM      8  C1  UNL d   1       1.496  -1.481   1.626  0.00  0.00     0.054 C 
ATOM      9  C   UNL d   1       2.203  -1.890   0.342  0.00  0.00     0.018 C 
ENDBRANCH   1   8
TORSDOF 1
ENDMDL
