MODEL 1
REMARK minimizedAffinity 0.544257581
REMARK minimizedRMSD -1
REMARK  1 active torsions:
REMARK  status: ('A' for Active; 'I' for Inactive)
REMARK    1  A    between atoms: C1_2  and  C2_3 
ROOT
ATOM      1  C2  UNL d   1       1.395  -0.004   1.516  0.00  0.00    -0.081 A 
ATOM      2  C3  UNL d   1       1.636  -1.384   1.532  0.00  0.00     0.006 A 
ATOM      3  C4  UNL d   1       2.331  -1.993   0.485  0.00  0.00     0.002 A 
ATOM      4  C5  UNL d   1       2.804  -1.233  -0.591  0.00  0.00    -0.080 A 
ATOM      5  C6  UNL d   1       3.578  -1.871  -1.706  0.00  0.00     0.076 C 
ATOM      6  C7  UNL d   1       2.548   0.142  -0.615  0.00  0.00     0.002 A 
ATOM      7  C8  UNL d   1       1.852   0.752   0.431  0.00  0.00     0.006 A 
ENDROOT
BRANCH   1   8
ATOM      8  C1  UNL d   1       0.702   0.666   2.674  0.00  0.00     0.054 C 
ATOM      9  C   UNL d   1      -0.808   0.496   2.590  0.00  0.00     0.018 C 
ENDBRANCH   1   8
TORSDOF 1
ENDMDL
