MODEL 1
REMARK minimizedAffinity 1.41622341
REMARK minimizedRMSD -1
REMARK  1 active torsions:
REMARK  status: ('A' for Active; 'I' for Inactive)
REMARK    1  A    between atoms: C1_2  and  C2_3 
ROOT
ATOM      1  C2  UNL d   1       1.554  -0.322   2.225  0.00  0.00    -0.081 A 
ATOM      2  C3  UNL d   1       2.275  -1.471   1.876  0.00  0.00     0.006 A 
ATOM      3  C4  UNL d   1       3.119  -1.466   0.763  0.00  0.00     0.002 A 
ATOM      4  C5  UNL d   1       3.261  -0.312  -0.015  0.00  0.00    -0.080 A 
ATOM      5  C6  UNL d   1       4.187  -0.285  -1.195  0.00  0.00     0.076 C 
ATOM      6  C7  UNL d   1       2.527   0.830   0.323  0.00  0.00     0.002 A 
ATOM      7  C8  UNL d   1       1.683   0.826   1.435  0.00  0.00     0.006 A 
ENDROOT
BRANCH   1   8
ATOM      8  C1  UNL d   1       0.693  -0.304   3.462  0.00  0.00     0.054 C 
ATOM      9  C   UNL d   1       0.157   1.092   3.743  0.00  0.00     0.018 C 
ENDBRANCH   1   8
TORSDOF 1
ENDMDL
