MODEL 1
REMARK minimizedAffinity 5.65125084
REMARK minimizedRMSD -1
REMARK  1 active torsions:
REMARK  status: ('A' for Active; 'I' for Inactive)
REMARK    1  A    between atoms: C1_2  and  C2_3 
ROOT
ATOM      1  C2  UNL d   1       1.399   0.078   1.242  0.00  0.00    -0.081 A 
ATOM      2  C3  UNL d   1       2.162   0.844   0.352  0.00  0.00     0.006 A 
ATOM      3  C4  UNL d   1       3.008   0.224  -0.570  0.00  0.00     0.002 A 
ATOM      4  C5  UNL d   1       3.100  -1.171  -0.623  0.00  0.00    -0.080 A 
ATOM      5  C6  UNL d   1       3.982  -1.850  -1.628  0.00  0.00     0.076 C 
ATOM      6  C7  UNL d   1       2.351  -1.936   0.278  0.00  0.00     0.002 A 
ATOM      7  C8  UNL d   1       1.506  -1.316   1.201  0.00  0.00     0.006 A 
ENDROOT
BRANCH   1   8
ATOM      8  C1  UNL d   1       0.437   0.742   2.194  0.00  0.00     0.054 C 
ATOM      9  C   UNL d   1       0.135  -0.152   3.388  0.00  0.00     0.018 C 
ENDBRANCH   1   8
TORSDOF 1
ENDMDL
