MODEL 1
REMARK minimizedAffinity 12.8634701
REMARK minimizedRMSD -1
REMARK  1 active torsions:
REMARK  status: ('A' for Active; 'I' for Inactive)
REMARK    1  A    between atoms: C1_2  and  C2_3 
ROOT
ATOM      1  C2  UNL d   1      -2.230   1.918   2.822  0.00  0.00    -0.073 A 
ATOM      2  C3  UNL d   1      -2.738   0.648   2.528  0.00  0.00    -0.002 A 
ATOM      3  C4  UNL d   1      -4.052   0.319   2.863  0.00  0.00     0.004 A 
ATOM      4  C5  UNL d   1      -4.873   1.257   3.488  0.00  0.00    -0.004 A 
ATOM      5  C6  UNL d   1      -4.388   2.536   3.780  0.00  0.00    -0.075 A 
ATOM      6  C7  UNL d   1      -5.258   3.556   4.454  0.00  0.00     0.076 C 
ATOM      7  C8  UNL d   1      -3.066   2.858   3.443  0.00  0.00     0.001 A 
ENDROOT
BRANCH   1   8
ATOM      8  C1  UNL d   1      -0.814   2.280   2.457  0.00  0.00     0.053 C 
ATOM      9  C   UNL d   1       0.173   1.197   2.860  0.00  0.00     0.018 C 
ENDBRANCH   1   8
TORSDOF 1
ENDMDL
