MODEL 1
REMARK minimizedAffinity -3.25014663
REMARK minimizedRMSD -1
REMARK  1 active torsions:
REMARK  status: ('A' for Active; 'I' for Inactive)
REMARK    1  A    between atoms: C1_2  and  C2_3 
ROOT
ATOM      1  C2  UNL d   1       3.735  -4.491  -0.361  0.00  0.00    -0.073 A 
ATOM      2  C3  UNL d   1       2.404  -4.870  -0.158  0.00  0.00    -0.002 A 
ATOM      3  C4  UNL d   1       1.483  -4.797  -1.204  0.00  0.00     0.004 A 
ATOM      4  C5  UNL d   1       1.885  -4.350  -2.463  0.00  0.00    -0.004 A 
ATOM      5  C6  UNL d   1       3.214  -3.978  -2.688  0.00  0.00    -0.075 A 
ATOM      6  C7  UNL d   1       3.662  -3.493  -4.036  0.00  0.00     0.076 C 
ATOM      7  C8  UNL d   1       4.132  -4.052  -1.632  0.00  0.00     0.001 A 
ENDROOT
BRANCH   1   8
ATOM      8  C1  UNL d   1       4.735  -4.575   0.764  0.00  0.00     0.053 C 
ATOM      9  C   UNL d   1       6.000  -3.787   0.462  0.00  0.00     0.018 C 
ENDBRANCH   1   8
TORSDOF 1
ENDMDL
