MODEL 1
REMARK minimizedAffinity 15.8728418
REMARK minimizedRMSD -1
REMARK  1 active torsions:
REMARK  status: ('A' for Active; 'I' for Inactive)
REMARK    1  A    between atoms: C1_2  and  C2_3 
ROOT
ATOM      1  C2  UNL d   1       3.205  -2.044  -0.394  0.00  0.00    -0.073 A 
ATOM      2  C3  UNL d   1       3.831  -0.931   0.180  0.00  0.00    -0.002 A 
ATOM      3  C4  UNL d   1       3.215   0.320   0.145  0.00  0.00     0.004 A 
ATOM      4  C5  UNL d   1       1.966   0.471  -0.459  0.00  0.00    -0.004 A 
ATOM      5  C6  UNL d   1       1.320  -0.631  -1.028  0.00  0.00    -0.075 A 
ATOM      6  C7  UNL d   1      -0.022  -0.485  -1.683  0.00  0.00     0.076 C 
ATOM      7  C8  UNL d   1       1.946  -1.884  -0.991  0.00  0.00     0.001 A 
ENDROOT
BRANCH   1   8
ATOM      8  C1  UNL d   1       3.864  -3.398  -0.353  0.00  0.00     0.053 C 
ATOM      9  C   UNL d   1       5.380  -3.297  -0.401  0.00  0.00     0.018 C 
ENDBRANCH   1   8
TORSDOF 1
ENDMDL
