MODEL 1
REMARK minimizedAffinity 6.41604328
REMARK minimizedRMSD -1
REMARK  1 active torsions:
REMARK  status: ('A' for Active; 'I' for Inactive)
REMARK    1  A    between atoms: C1_2  and  C2_3 
ROOT
ATOM      1  C2  UNL d   1       2.852  -0.776  -0.956  0.00  0.00    -0.073 A 
ATOM      2  C3  UNL d   1       2.894   0.344  -1.793  0.00  0.00    -0.002 A 
ATOM      3  C4  UNL d   1       1.912   0.535  -2.765  0.00  0.00     0.004 A 
ATOM      4  C5  UNL d   1       0.875  -0.388  -2.906  0.00  0.00    -0.004 A 
ATOM      5  C6  UNL d   1       0.809  -1.508  -2.071  0.00  0.00    -0.075 A 
ATOM      6  C7  UNL d   1      -0.298  -2.511  -2.211  0.00  0.00     0.076 C 
ATOM      7  C8  UNL d   1       1.801  -1.693  -1.099  0.00  0.00     0.001 A 
ENDROOT
BRANCH   1   8
ATOM      8  C1  UNL d   1       3.907  -0.983   0.100  0.00  0.00     0.053 C 
ATOM      9  C   UNL d   1       4.446  -2.405   0.098  0.00  0.00     0.018 C 
ENDBRANCH   1   8
TORSDOF 1
ENDMDL
