MODEL 1
REMARK minimizedAffinity -0.358240932
REMARK minimizedRMSD -1
REMARK  1 active torsions:
REMARK  status: ('A' for Active; 'I' for Inactive)
REMARK    1  A    between atoms: C1_2  and  C2_3 
ROOT
ATOM      1  C2  UNL d   1       1.543   2.693  -0.779  0.00  0.00    -0.073 A 
ATOM      2  C3  UNL d   1       2.293   3.115  -1.883  0.00  0.00    -0.002 A 
ATOM      3  C4  UNL d   1       2.317   4.462  -2.246  0.00  0.00     0.004 A 
ATOM      4  C5  UNL d   1       1.597   5.401  -1.507  0.00  0.00    -0.004 A 
ATOM      5  C6  UNL d   1       0.851   5.001  -0.394  0.00  0.00    -0.075 A 
ATOM      6  C7  UNL d   1       0.070   5.998   0.411  0.00  0.00     0.076 C 
ATOM      7  C8  UNL d   1       0.831   3.646  -0.037  0.00  0.00     0.001 A 
ENDROOT
BRANCH   1   8
ATOM      8  C1  UNL d   1       1.520   1.240  -0.380  0.00  0.00     0.053 C 
ATOM      9  C   UNL d   1       2.530   0.417  -1.163  0.00  0.00     0.018 C 
ENDBRANCH   1   8
TORSDOF 1
ENDMDL
