MODEL 1
REMARK minimizedAffinity -0.732400239
REMARK minimizedRMSD -1
REMARK  1 active torsions:
REMARK  status: ('A' for Active; 'I' for Inactive)
REMARK    1  A    between atoms: C1_2  and  C2_3 
ROOT
ATOM      1  C2  UNL d   1       1.496   3.204  -0.964  0.00  0.00    -0.073 A 
ATOM      2  C3  UNL d   1       2.596   3.933  -1.430  0.00  0.00    -0.002 A 
ATOM      3  C4  UNL d   1       2.614   5.324  -1.328  0.00  0.00     0.004 A 
ATOM      4  C5  UNL d   1       1.537   6.000  -0.753  0.00  0.00    -0.004 A 
ATOM      5  C6  UNL d   1       0.434   5.288  -0.270  0.00  0.00    -0.075 A 
ATOM      6  C7  UNL d   1      -0.733   6.000   0.349  0.00  0.00     0.076 C 
ATOM      7  C8  UNL d   1       0.423   3.891  -0.379  0.00  0.00     0.001 A 
ENDROOT
BRANCH   1   8
ATOM      8  C1  UNL d   1       1.475   1.701  -1.066  0.00  0.00     0.053 C 
ATOM      9  C   UNL d   1       2.828   1.088  -0.739  0.00  0.00     0.018 C 
ENDBRANCH   1   8
TORSDOF 1
ENDMDL
