MODEL 1
REMARK minimizedAffinity 1.02976167
REMARK minimizedRMSD -1
REMARK  1 active torsions:
REMARK  status: ('A' for Active; 'I' for Inactive)
REMARK    1  A    between atoms: C1_2  and  C2_3 
ROOT
ATOM      1  C2  UNL d   1      -3.766   4.799  -5.856  0.00  0.00    -0.073 A 
ATOM      2  C3  UNL d   1      -5.154   4.963  -5.937  0.00  0.00    -0.002 A 
ATOM      3  C4  UNL d   1      -5.994   3.850  -5.974  0.00  0.00     0.004 A 
ATOM      4  C5  UNL d   1      -5.459   2.564  -5.923  0.00  0.00    -0.004 A 
ATOM      5  C6  UNL d   1      -4.075   2.379  -5.830  0.00  0.00    -0.075 A 
ATOM      6  C7  UNL d   1      -3.483   1.001  -5.777  0.00  0.00     0.076 C 
ATOM      7  C8  UNL d   1      -3.237   3.501  -5.797  0.00  0.00     0.001 A 
ENDROOT
BRANCH   1   8
ATOM      8  C1  UNL d   1      -2.854   5.998  -5.810  0.00  0.00     0.053 C 
ATOM      9  C   UNL d   1      -1.919   5.956  -4.612  0.00  0.00     0.018 C 
ENDBRANCH   1   8
TORSDOF 1
ENDMDL
