MODEL 1
REMARK minimizedAffinity 8.21922493
REMARK minimizedRMSD -1
REMARK  1 active torsions:
REMARK  status: ('A' for Active; 'I' for Inactive)
REMARK    1  A    between atoms: C1_2  and  C2_3 
ROOT
ATOM      1  C2  UNL d   1      -1.538  -4.280  -2.492  0.00  0.00    -0.073 A 
ATOM      2  C3  UNL d   1      -1.219  -2.922  -2.594  0.00  0.00    -0.002 A 
ATOM      3  C4  UNL d   1      -1.419  -2.238  -3.794  0.00  0.00     0.004 A 
ATOM      4  C5  UNL d   1      -1.945  -2.904  -4.901  0.00  0.00    -0.004 A 
ATOM      5  C6  UNL d   1      -2.282  -4.258  -4.816  0.00  0.00    -0.075 A 
ATOM      6  C7  UNL d   1      -2.847  -4.989  -5.998  0.00  0.00     0.076 C 
ATOM      7  C8  UNL d   1      -2.076  -4.938  -3.608  0.00  0.00     0.001 A 
ENDROOT
BRANCH   1   8
ATOM      8  C1  UNL d   1      -1.330  -5.021  -1.196  0.00  0.00     0.053 C 
ATOM      9  C   UNL d   1      -2.296  -4.561  -0.116  0.00  0.00     0.018 C 
ENDBRANCH   1   8
TORSDOF 1
ENDMDL
