MODEL 1
REMARK minimizedAffinity 12.1034651
REMARK minimizedRMSD -1
REMARK  1 active torsions:
REMARK  status: ('A' for Active; 'I' for Inactive)
REMARK    1  A    between atoms: C1_2  and  C2_3 
ROOT
ATOM      1  C2  UNL d   1      -3.253  -3.083   3.111  0.00  0.00    -0.073 A 
ATOM      2  C3  UNL d   1      -2.766  -4.000   2.173  0.00  0.00    -0.002 A 
ATOM      3  C4  UNL d   1      -1.394  -4.123   1.953  0.00  0.00     0.004 A 
ATOM      4  C5  UNL d   1      -0.494  -3.336   2.673  0.00  0.00    -0.004 A 
ATOM      5  C6  UNL d   1      -0.961  -2.422   3.623  0.00  0.00    -0.075 A 
ATOM      6  C7  UNL d   1      -0.006  -1.566   4.403  0.00  0.00     0.076 C 
ATOM      7  C8  UNL d   1      -2.341  -2.302   3.836  0.00  0.00     0.001 A 
ENDROOT
BRANCH   1   8
ATOM      8  C1  UNL d   1      -4.734  -2.951   3.356  0.00  0.00     0.053 C 
ATOM      9  C   UNL d   1      -5.501  -4.175   2.882  0.00  0.00     0.018 C 
ENDBRANCH   1   8
TORSDOF 1
ENDMDL
