MODEL 1
REMARK minimizedAffinity 6.55689764
REMARK minimizedRMSD -1
REMARK  1 active torsions:
REMARK  status: ('A' for Active; 'I' for Inactive)
REMARK    1  A    between atoms: C1_2  and  C2_3 
ROOT
ATOM      1  C2  UNL d   1       1.564   3.311  -1.482  0.00  0.00    -0.073 A 
ATOM      2  C3  UNL d   1       1.759   4.570  -2.062  0.00  0.00    -0.002 A 
ATOM      3  C4  UNL d   1       1.840   5.710  -1.261  0.00  0.00     0.004 A 
ATOM      4  C5  UNL d   1       1.734   5.603   0.125  0.00  0.00    -0.004 A 
ATOM      5  C6  UNL d   1       1.551   4.352   0.724  0.00  0.00    -0.075 A 
ATOM      6  C7  UNL d   1       1.432   4.220   2.214  0.00  0.00     0.076 C 
ATOM      7  C8  UNL d   1       1.467   3.213  -0.087  0.00  0.00     0.001 A 
ENDROOT
BRANCH   1   8
ATOM      8  C1  UNL d   1       1.482   2.077  -2.342  0.00  0.00     0.053 C 
ATOM      9  C   UNL d   1       1.918   0.829  -1.591  0.00  0.00     0.018 C 
ENDBRANCH   1   8
TORSDOF 1
ENDMDL
