MODEL 1
REMARK minimizedAffinity 4.83349657
REMARK minimizedRMSD -1
REMARK  1 active torsions:
REMARK  status: ('A' for Active; 'I' for Inactive)
REMARK    1  A    between atoms: C1_2  and  C2_3 
ROOT
ATOM      1  C2  UNL d   1       0.482  -2.882   0.463  0.00  0.00    -0.073 A 
ATOM      2  C3  UNL d   1      -0.227  -3.448  -0.603  0.00  0.00    -0.002 A 
ATOM      3  C4  UNL d   1      -1.523  -3.929  -0.411  0.00  0.00     0.004 A 
ATOM      4  C5  UNL d   1      -2.125  -3.843   0.845  0.00  0.00    -0.004 A 
ATOM      5  C6  UNL d   1      -1.436  -3.271   1.919  0.00  0.00    -0.075 A 
ATOM      6  C7  UNL d   1      -2.069  -3.174   3.277  0.00  0.00     0.076 C 
ATOM      7  C8  UNL d   1      -0.134  -2.793   1.719  0.00  0.00     0.001 A 
ENDROOT
BRANCH   1   8
ATOM      8  C1  UNL d   1       1.879  -2.356   0.259  0.00  0.00     0.053 C 
ATOM      9  C   UNL d   1       2.921  -3.461   0.328  0.00  0.00     0.018 C 
ENDBRANCH   1   8
TORSDOF 1
ENDMDL
