MODEL 1
REMARK minimizedAffinity 10.8235922
REMARK minimizedRMSD -1
REMARK  0 active torsions:
REMARK  status: ('A' for Active; 'I' for Inactive)
ROOT
ATOM      1  C   UNL d   1      -4.790   2.468  -5.226  0.00  0.00    -0.002 A 
ATOM      2  C1  UNL d   1      -5.306   3.757  -5.237  0.00  0.00     0.010 A 
ATOM      3  C2  UNL d   1      -4.469   4.856  -5.438  0.00  0.00     0.041 A 
ATOM      4  C3  UNL d   1      -3.091   4.636  -5.630  0.00  0.00    -0.075 A 
ATOM      5  S   UNL d   1      -1.875   5.830  -5.894  0.00  0.00     0.015 SA
ATOM      6  C4  UNL d   1      -0.642   4.658  -6.000  0.00  0.00     0.022 A 
ATOM      7  C5  UNL d   1      -1.128   3.382  -5.839  0.00  0.00     0.026 A 
ATOM      8  C6  UNL d   1      -2.547   3.348  -5.624  0.00  0.00    -0.082 A 
ATOM      9  C7  UNL d   1      -3.423   2.255  -5.418  0.00  0.00     0.045 A 
ENDROOT
TORSDOF 0
ENDMDL
