MODEL 1
REMARK minimizedAffinity 20.0980015
REMARK minimizedRMSD -1
REMARK  0 active torsions:
REMARK  status: ('A' for Active; 'I' for Inactive)
ROOT
ATOM      1  C   UNL d   1      -5.376  -2.194  -4.258  0.00  0.00    -0.002 A 
ATOM      2  C1  UNL d   1      -5.899  -0.918  -4.108  0.00  0.00     0.010 A 
ATOM      3  C2  UNL d   1      -5.367  -0.038  -3.163  0.00  0.00     0.041 A 
ATOM      4  C3  UNL d   1      -4.287  -0.467  -2.366  0.00  0.00    -0.075 A 
ATOM      5  S   UNL d   1      -3.473   0.439  -1.145  0.00  0.00     0.015 SA
ATOM      6  C4  UNL d   1      -2.411  -0.847  -0.794  0.00  0.00     0.022 A 
ATOM      7  C5  UNL d   1      -2.658  -1.948  -1.580  0.00  0.00     0.026 A 
ATOM      8  C6  UNL d   1      -3.743  -1.747  -2.499  0.00  0.00    -0.082 A 
ATOM      9  C7  UNL d   1      -4.305  -2.615  -3.465  0.00  0.00     0.045 A 
ENDROOT
TORSDOF 0
ENDMDL
