MODEL 1
REMARK minimizedAffinity 20.4065704
REMARK minimizedRMSD -1
REMARK  0 active torsions:
REMARK  status: ('A' for Active; 'I' for Inactive)
ROOT
ATOM      1  C   UNL d   1       1.388  -3.426   1.438  0.00  0.00    -0.002 A 
ATOM      2  C1  UNL d   1       1.810  -2.130   1.696  0.00  0.00     0.010 A 
ATOM      3  C2  UNL d   1       3.122  -1.741   1.418  0.00  0.00     0.041 A 
ATOM      4  C3  UNL d   1       4.011  -2.687   0.870  0.00  0.00    -0.075 A 
ATOM      5  S   UNL d   1       5.664  -2.436   0.447  0.00  0.00     0.015 SA
ATOM      6  C4  UNL d   1       5.849  -4.045  -0.085  0.00  0.00     0.022 A 
ATOM      7  C5  UNL d   1       4.688  -4.769   0.049  0.00  0.00     0.026 A 
ATOM      8  C6  UNL d   1       3.610  -3.998   0.601  0.00  0.00    -0.082 A 
ATOM      9  C7  UNL d   1       2.273  -4.361   0.895  0.00  0.00     0.045 A 
ENDROOT
TORSDOF 0
ENDMDL
