MODEL 1
REMARK minimizedAffinity 15.384758
REMARK minimizedRMSD -1
REMARK  0 active torsions:
REMARK  status: ('A' for Active; 'I' for Inactive)
ROOT
ATOM      1  C   UNL d   1       1.704   0.510  -1.239  0.00  0.00    -0.002 A 
ATOM      2  C1  UNL d   1       0.481  -0.050  -1.580  0.00  0.00     0.010 A 
ATOM      3  C2  UNL d   1      -0.045  -1.112  -0.841  0.00  0.00     0.041 A 
ATOM      4  C3  UNL d   1       0.686  -1.605   0.258  0.00  0.00    -0.075 A 
ATOM      5  S   UNL d   1       0.240  -2.897   1.308  0.00  0.00     0.015 SA
ATOM      6  C4  UNL d   1       1.661  -2.736   2.234  0.00  0.00     0.022 A 
ATOM      7  C5  UNL d   1       2.469  -1.725   1.767  0.00  0.00     0.026 A 
ATOM      8  C6  UNL d   1       1.920  -1.057   0.621  0.00  0.00    -0.082 A 
ATOM      9  C7  UNL d   1       2.426   0.018  -0.149  0.00  0.00     0.045 A 
ENDROOT
TORSDOF 0
ENDMDL
