MODEL 1
REMARK minimizedAffinity 18.9526844
REMARK minimizedRMSD -1
REMARK  0 active torsions:
REMARK  status: ('A' for Active; 'I' for Inactive)
ROOT
ATOM      1  C   UNL d   1      -3.156  -1.774  -1.824  0.00  0.00    -0.002 A 
ATOM      2  C1  UNL d   1      -3.427  -0.563  -1.203  0.00  0.00     0.010 A 
ATOM      3  C2  UNL d   1      -3.906   0.522  -1.940  0.00  0.00     0.041 A 
ATOM      4  C3  UNL d   1      -4.113   0.367  -3.325  0.00  0.00    -0.075 A 
ATOM      5  S   UNL d   1      -4.695   1.556  -4.429  0.00  0.00     0.015 SA
ATOM      6  C4  UNL d   1      -4.599   0.485  -5.751  0.00  0.00     0.022 A 
ATOM      7  C5  UNL d   1      -4.136  -0.755  -5.377  0.00  0.00     0.026 A 
ATOM      8  C6  UNL d   1      -3.849  -0.843  -3.973  0.00  0.00    -0.082 A 
ATOM      9  C7  UNL d   1      -3.362  -1.924  -3.198  0.00  0.00     0.045 A 
ENDROOT
TORSDOF 0
ENDMDL
