MODEL 1
REMARK minimizedAffinity 15.3091135
REMARK minimizedRMSD -1
REMARK  0 active torsions:
REMARK  status: ('A' for Active; 'I' for Inactive)
ROOT
ATOM      1  C   UNL d   1       3.781  -5.993   5.875  0.00  0.00    -0.002 A 
ATOM      2  C1  UNL d   1       5.165  -5.993   5.971  0.00  0.00     0.010 A 
ATOM      3  C2  UNL d   1       5.877  -4.792   5.970  0.00  0.00     0.041 A 
ATOM      4  C3  UNL d   1       5.168  -3.579   5.872  0.00  0.00    -0.075 A 
ATOM      5  S   UNL d   1       5.829  -1.987   5.852  0.00  0.00     0.015 SA
ATOM      6  C4  UNL d   1       4.289  -1.269   5.716  0.00  0.00     0.022 A 
ATOM      7  C5  UNL d   1       3.284  -2.206   5.685  0.00  0.00     0.026 A 
ATOM      8  C6  UNL d   1       3.774  -3.553   5.774  0.00  0.00    -0.082 A 
ATOM      9  C7  UNL d   1       3.081  -4.788   5.777  0.00  0.00     0.045 A 
ENDROOT
TORSDOF 0
ENDMDL
