MODEL 1
REMARK minimizedAffinity 17.5627747
REMARK minimizedRMSD -1
REMARK  0 active torsions:
REMARK  status: ('A' for Active; 'I' for Inactive)
ROOT
ATOM      1  C   UNL d   1       1.520   0.132  -0.756  0.00  0.00    -0.002 A 
ATOM      2  C1  UNL d   1       1.270   1.466  -1.043  0.00  0.00     0.010 A 
ATOM      3  C2  UNL d   1      -0.016   1.891  -1.383  0.00  0.00     0.041 A 
ATOM      4  C3  UNL d   1      -1.058   0.943  -1.428  0.00  0.00    -0.075 A 
ATOM      5  S   UNL d   1      -2.712   1.234  -1.818  0.00  0.00     0.015 SA
ATOM      6  C4  UNL d   1      -3.126  -0.407  -1.612  0.00  0.00     0.022 A 
ATOM      7  C5  UNL d   1      -2.041  -1.172  -1.255  0.00  0.00     0.026 A 
ATOM      8  C6  UNL d   1      -0.831  -0.406  -1.142  0.00  0.00    -0.082 A 
ATOM      9  C7  UNL d   1       0.484  -0.806  -0.802  0.00  0.00     0.045 A 
ENDROOT
TORSDOF 0
ENDMDL
