MODEL 1
REMARK minimizedAffinity 9.19728374
REMARK minimizedRMSD -1
REMARK  0 active torsions:
REMARK  status: ('A' for Active; 'I' for Inactive)
ROOT
ATOM      1  C   UNL d   1       0.490   1.080   1.460  0.00  0.00    -0.002 A 
ATOM      2  C1  UNL d   1      -0.872   1.130   1.199  0.00  0.00     0.010 A 
ATOM      3  C2  UNL d   1      -1.389   2.070   0.305  0.00  0.00     0.041 A 
ATOM      4  C3  UNL d   1      -0.506   2.965  -0.330  0.00  0.00    -0.075 A 
ATOM      5  S   UNL d   1      -0.913   4.200  -1.462  0.00  0.00     0.015 SA
ATOM      6  C4  UNL d   1       0.711   4.689  -1.627  0.00  0.00     0.022 A 
ATOM      7  C5  UNL d   1       1.557   3.939  -0.844  0.00  0.00     0.026 A 
ATOM      8  C6  UNL d   1       0.870   2.933  -0.084  0.00  0.00    -0.082 A 
ATOM      9  C7  UNL d   1       1.363   1.970   0.828  0.00  0.00     0.045 A 
ENDROOT
TORSDOF 0
ENDMDL
