MODEL 1
REMARK minimizedAffinity 0.474624783
REMARK minimizedRMSD -1
REMARK  0 active torsions:
REMARK  status: ('A' for Active; 'I' for Inactive)
ROOT
ATOM      1  C   UNL d   1      -0.055   0.977   0.344  0.00  0.00    -0.002 A 
ATOM      2  C1  UNL d   1       0.329   1.714   1.456  0.00  0.00     0.010 A 
ATOM      3  C2  UNL d   1       0.660   3.065   1.333  0.00  0.00     0.041 A 
ATOM      4  C3  UNL d   1       0.595   3.669   0.062  0.00  0.00    -0.075 A 
ATOM      5  S   UNL d   1       0.953   5.310  -0.327  0.00  0.00     0.015 SA
ATOM      6  C4  UNL d   1       0.604   5.072  -1.979  0.00  0.00     0.022 A 
ATOM      7  C5  UNL d   1       0.222   3.778  -2.244  0.00  0.00     0.026 A 
ATOM      8  C6  UNL d   1       0.210   2.949  -1.072  0.00  0.00    -0.082 A 
ATOM      9  C7  UNL d   1      -0.117   1.580  -0.915  0.00  0.00     0.045 A 
ENDROOT
TORSDOF 0
ENDMDL
