MODEL 1
REMARK minimizedAffinity 2.9355042
REMARK minimizedRMSD -1
REMARK  0 active torsions:
REMARK  status: ('A' for Active; 'I' for Inactive)
ROOT
ATOM      1  C   UNL d   1       0.385   1.673   0.814  0.00  0.00    -0.002 A 
ATOM      2  C1  UNL d   1      -0.017   1.304  -0.462  0.00  0.00     0.010 A 
ATOM      3  C2  UNL d   1      -0.079   2.249  -1.488  0.00  0.00     0.041 A 
ATOM      4  C3  UNL d   1       0.274   3.584  -1.208  0.00  0.00    -0.075 A 
ATOM      5  S   UNL d   1       0.275   4.912  -2.308  0.00  0.00     0.015 SA
ATOM      6  C4  UNL d   1       0.810   6.000  -1.110  0.00  0.00     0.022 A 
ATOM      7  C5  UNL d   1       0.989   5.382   0.105  0.00  0.00     0.026 A 
ATOM      8  C6  UNL d   1       0.683   3.979   0.069  0.00  0.00    -0.082 A 
ATOM      9  C7  UNL d   1       0.735   2.998   1.088  0.00  0.00     0.045 A 
ENDROOT
TORSDOF 0
ENDMDL
