MODEL 1
REMARK minimizedAffinity 19.4853039
REMARK minimizedRMSD -1
REMARK  0 active torsions:
REMARK  status: ('A' for Active; 'I' for Inactive)
ROOT
ATOM      1  C   UNL d   1      -6.000   0.053   3.965  0.00  0.00    -0.002 A 
ATOM      2  C1  UNL d   1      -6.000  -0.648   5.163  0.00  0.00     0.010 A 
ATOM      3  C2  UNL d   1      -5.233  -1.806   5.308  0.00  0.00     0.041 A 
ATOM      4  C3  UNL d   1      -4.457  -2.251   4.219  0.00  0.00    -0.075 A 
ATOM      5  S   UNL d   1      -3.439  -3.641   4.168  0.00  0.00     0.015 SA
ATOM      6  C4  UNL d   1      -2.980  -3.337   2.555  0.00  0.00     0.022 A 
ATOM      7  C5  UNL d   1      -3.579  -2.206   2.052  0.00  0.00     0.026 A 
ATOM      8  C6  UNL d   1      -4.440  -1.561   3.004  0.00  0.00    -0.082 A 
ATOM      9  C7  UNL d   1      -5.229  -0.391   2.887  0.00  0.00     0.045 A 
ENDROOT
TORSDOF 0
ENDMDL
