MODEL 1
REMARK minimizedAffinity 6.37781763
REMARK minimizedRMSD -1
REMARK  0 active torsions:
REMARK  status: ('A' for Active; 'I' for Inactive)
ROOT
ATOM      1  C   UNL d   1      -0.050   4.254  -1.929  0.00  0.00    -0.002 A 
ATOM      2  C1  UNL d   1       1.007   4.881  -1.285  0.00  0.00     0.010 A 
ATOM      3  C2  UNL d   1       1.564   4.329  -0.130  0.00  0.00     0.041 A 
ATOM      4  C3  UNL d   1       1.037   3.123   0.372  0.00  0.00    -0.075 A 
ATOM      5  S   UNL d   1       1.560   2.262   1.771  0.00  0.00     0.015 SA
ATOM      6  C4  UNL d   1       0.393   1.040   1.547  0.00  0.00     0.022 A 
ATOM      7  C5  UNL d   1      -0.386   1.268   0.437  0.00  0.00     0.026 A 
ATOM      8  C6  UNL d   1      -0.027   2.472  -0.259  0.00  0.00    -0.082 A 
ATOM      9  C7  UNL d   1      -0.571   3.057  -1.428  0.00  0.00     0.045 A 
ENDROOT
TORSDOF 0
ENDMDL
