MODEL 1
REMARK minimizedAffinity 9.34838676
REMARK minimizedRMSD -1
REMARK  0 active torsions:
REMARK  status: ('A' for Active; 'I' for Inactive)
ROOT
ATOM      1  C   UNL d   1       0.910  -2.335   1.414  0.00  0.00    -0.002 A 
ATOM      2  C1  UNL d   1       2.158  -2.024   0.891  0.00  0.00     0.010 A 
ATOM      3  C2  UNL d   1       2.482  -0.706   0.564  0.00  0.00     0.041 A 
ATOM      4  C3  UNL d   1       1.523   0.304   0.774  0.00  0.00    -0.075 A 
ATOM      5  S   UNL d   1       1.699   1.988   0.448  0.00  0.00     0.015 SA
ATOM      6  C4  UNL d   1       0.123   2.335   0.996  0.00  0.00     0.022 A 
ATOM      7  C5  UNL d   1      -0.535   1.205   1.420  0.00  0.00     0.026 A 
ATOM      8  C6  UNL d   1       0.261   0.017   1.300  0.00  0.00    -0.082 A 
ATOM      9  C7  UNL d   1      -0.038  -1.329   1.622  0.00  0.00     0.045 A 
ENDROOT
TORSDOF 0
ENDMDL
