MODEL 1
REMARK minimizedAffinity 10.5343838
REMARK minimizedRMSD -1
REMARK  0 active torsions:
REMARK  status: ('A' for Active; 'I' for Inactive)
ROOT
ATOM      1  O1  BZF d   1      -3.907   4.853   2.278  0.00  0.00    -0.204 OA
ATOM      2  C2  BZF d   1      -5.026   5.663   2.246  0.00  0.00     0.174 A 
ATOM      3  C3  BZF d   1      -6.000   5.103   1.499  0.00  0.00    -0.012 A 
ATOM      4  C3A BZF d   1      -5.490   3.823   1.113  0.00  0.00    -0.107 A 
ATOM      5  C4  BZF d   1      -5.999   2.793   0.376  0.00  0.00     0.055 A 
ATOM      6  C5  BZF d   1      -5.216   1.712   0.122  0.00  0.00    -0.016 A 
ATOM      7  C6  BZF d   1      -3.919   1.630   0.585  0.00  0.00     0.022 A 
ATOM      8  C7  BZF d   1      -3.371   2.625   1.324  0.00  0.00     0.029 A 
ATOM      9  C7A BZF d   1      -4.171   3.704   1.610  0.00  0.00     0.058 A 
ENDROOT
TORSDOF 0
ENDMDL
