MODEL 1
REMARK minimizedAffinity 12.1071253
REMARK minimizedRMSD -1
REMARK  0 active torsions:
REMARK  status: ('A' for Active; 'I' for Inactive)
ROOT
ATOM      1  O1  BZF d   1      -4.780   4.117  -4.866  0.00  0.00    -0.204 OA
ATOM      2  C2  BZF d   1      -4.125   5.068  -5.624  0.00  0.00     0.174 A 
ATOM      3  C3  BZF d   1      -2.908   4.625  -6.000  0.00  0.00    -0.012 A 
ATOM      4  C3A BZF d   1      -2.833   3.279  -5.520  0.00  0.00    -0.107 A 
ATOM      5  C4  BZF d   1      -1.876   2.308  -5.596  0.00  0.00     0.055 A 
ATOM      6  C5  BZF d   1      -2.084   1.125  -4.959  0.00  0.00    -0.016 A 
ATOM      7  C6  BZF d   1      -3.233   0.882  -4.236  0.00  0.00     0.022 A 
ATOM      8  C7  BZF d   1      -4.212   1.813  -4.136  0.00  0.00     0.029 A 
ATOM      9  C7A BZF d   1      -4.020   2.997  -4.806  0.00  0.00     0.058 A 
ENDROOT
TORSDOF 0
ENDMDL
