MODEL 1
REMARK minimizedAffinity 9.43680573
REMARK minimizedRMSD -1
REMARK  0 active torsions:
REMARK  status: ('A' for Active; 'I' for Inactive)
ROOT
ATOM      1  O1  BZF d   1       0.743   2.568   0.090  0.00  0.00    -0.204 OA
ATOM      2  C2  BZF d   1      -0.580   2.188   0.206  0.00  0.00     0.174 A 
ATOM      3  C3  BZF d   1      -1.393   3.110  -0.348  0.00  0.00    -0.012 A 
ATOM      4  C3A BZF d   1      -0.518   4.086  -0.923  0.00  0.00    -0.107 A 
ATOM      5  C4  BZF d   1      -0.729   5.237  -1.627  0.00  0.00     0.055 A 
ATOM      6  C5  BZF d   1       0.339   6.000  -1.981  0.00  0.00    -0.016 A 
ATOM      7  C6  BZF d   1       1.629   5.644  -1.644  0.00  0.00     0.022 A 
ATOM      8  C7  BZF d   1       1.888   4.509  -0.951  0.00  0.00     0.029 A 
ATOM      9  C7A BZF d   1       0.814   3.719  -0.620  0.00  0.00     0.058 A 
ENDROOT
TORSDOF 0
ENDMDL
