MODEL 1
REMARK minimizedAffinity 8.20570564
REMARK minimizedRMSD -1
REMARK  0 active torsions:
REMARK  status: ('A' for Active; 'I' for Inactive)
ROOT
ATOM      1  O1  BZF d   1       2.148   4.937  -0.292  0.00  0.00    -0.204 OA
ATOM      2  C2  BZF d   1       1.891   5.997  -1.140  0.00  0.00     0.174 A 
ATOM      3  C3  BZF d   1       0.601   5.994  -1.533  0.00  0.00    -0.012 A 
ATOM      4  C3A BZF d   1      -0.007   4.914  -0.818  0.00  0.00    -0.107 A 
ATOM      5  C4  BZF d   1      -1.278   4.417  -0.773  0.00  0.00     0.055 A 
ATOM      6  C5  BZF d   1      -1.527   3.307  -0.029  0.00  0.00    -0.016 A 
ATOM      7  C6  BZF d   1      -0.529   2.668   0.677  0.00  0.00     0.022 A 
ATOM      8  C7  BZF d   1       0.746   3.127   0.667  0.00  0.00     0.029 A 
ATOM      9  C7A BZF d   1       0.994   4.267  -0.057  0.00  0.00     0.058 A 
ENDROOT
TORSDOF 0
ENDMDL
