MODEL 1
REMARK minimizedAffinity 14.0581474
REMARK minimizedRMSD -1
REMARK  0 active torsions:
REMARK  status: ('A' for Active; 'I' for Inactive)
ROOT
ATOM      1  O1  BZF d   1      -3.938   5.387   2.336  0.00  0.00    -0.204 OA
ATOM      2  C2  BZF d   1      -5.265   5.767   2.269  0.00  0.00     0.174 A 
ATOM      3  C3  BZF d   1      -5.977   4.888   1.536  0.00  0.00    -0.012 A 
ATOM      4  C3A BZF d   1      -5.056   3.847   1.195  0.00  0.00    -0.107 A 
ATOM      5  C4  BZF d   1      -5.172   2.684   0.489  0.00  0.00     0.055 A 
ATOM      6  C5  BZF d   1      -4.064   1.927   0.277  0.00  0.00    -0.016 A 
ATOM      7  C6  BZF d   1      -2.825   2.305   0.750  0.00  0.00     0.022 A 
ATOM      8  C7  BZF d   1      -2.660   3.448   1.459  0.00  0.00     0.029 A 
ATOM      9  C7A BZF d   1      -3.784   4.199   1.705  0.00  0.00     0.058 A 
ENDROOT
TORSDOF 0
ENDMDL
