MODEL 1
REMARK minimizedAffinity 10.9105158
REMARK minimizedRMSD -1
REMARK  0 active torsions:
REMARK  status: ('A' for Active; 'I' for Inactive)
ROOT
ATOM      1  O1  BZF d   1      -0.699  -4.703  -1.495  0.00  0.00    -0.204 OA
ATOM      2  C2  BZF d   1      -0.457  -3.546  -2.210  0.00  0.00     0.174 A 
ATOM      3  C3  BZF d   1       0.742  -3.022  -1.881  0.00  0.00    -0.012 A 
ATOM      4  C3A BZF d   1       1.323  -3.958  -0.967  0.00  0.00    -0.107 A 
ATOM      5  C4  BZF d   1       2.514  -4.003  -0.301  0.00  0.00     0.055 A 
ATOM      6  C5  BZF d   1       2.743  -5.018   0.573  0.00  0.00    -0.016 A 
ATOM      7  C6  BZF d   1       1.803  -6.000   0.809  0.00  0.00     0.022 A 
ATOM      8  C7  BZF d   1       0.609  -6.000   0.168  0.00  0.00     0.029 A 
ATOM      9  C7A BZF d   1       0.387  -4.994  -0.741  0.00  0.00     0.058 A 
ENDROOT
TORSDOF 0
ENDMDL
