MODEL 1
REMARK minimizedAffinity 14.4238653
REMARK minimizedRMSD -1
REMARK  0 active torsions:
REMARK  status: ('A' for Active; 'I' for Inactive)
ROOT
ATOM      1  O1  BZF d   1      -3.827   5.296   2.325  0.00  0.00    -0.204 OA
ATOM      2  C2  BZF d   1      -5.035   5.952   2.459  0.00  0.00     0.174 A 
ATOM      3  C3  BZF d   1      -5.995   5.340   1.735  0.00  0.00    -0.012 A 
ATOM      4  C3A BZF d   1      -5.366   4.179   1.183  0.00  0.00    -0.107 A 
ATOM      5  C4  BZF d   1      -5.808   3.162   0.386  0.00  0.00     0.055 A 
ATOM      6  C5  BZF d   1      -4.922   2.221  -0.035  0.00  0.00    -0.016 A 
ATOM      7  C6  BZF d   1      -3.590   2.268   0.319  0.00  0.00     0.022 A 
ATOM      8  C7  BZF d   1      -3.106   3.254   1.112  0.00  0.00     0.029 A 
ATOM      9  C7A BZF d   1      -4.005   4.189   1.566  0.00  0.00     0.058 A 
ENDROOT
TORSDOF 0
ENDMDL
