MODEL 1
REMARK minimizedAffinity 14.144865
REMARK minimizedRMSD -1
REMARK  0 active torsions:
REMARK  status: ('A' for Active; 'I' for Inactive)
ROOT
ATOM      1  O1  BZF d   1       2.282   4.853  -0.842  0.00  0.00    -0.204 OA
ATOM      2  C2  BZF d   1       1.882   6.000  -1.500  0.00  0.00     0.174 A 
ATOM      3  C3  BZF d   1       0.566   5.950  -1.790  0.00  0.00    -0.012 A 
ATOM      4  C3A BZF d   1       0.096   4.734  -1.201  0.00  0.00    -0.107 A 
ATOM      5  C4  BZF d   1      -1.129   4.135  -1.134  0.00  0.00     0.055 A 
ATOM      6  C5  BZF d   1      -1.237   2.914  -0.547  0.00  0.00    -0.016 A 
ATOM      7  C6  BZF d   1      -0.140   2.262  -0.022  0.00  0.00     0.022 A 
ATOM      8  C7  BZF d   1       1.095   2.818  -0.060  0.00  0.00     0.029 A 
ATOM      9  C7A BZF d   1       1.201   4.067  -0.623  0.00  0.00     0.058 A 
ENDROOT
TORSDOF 0
ENDMDL
