MODEL 1
REMARK minimizedAffinity 2.18864202
REMARK minimizedRMSD -1
REMARK  0 active torsions:
REMARK  status: ('A' for Active; 'I' for Inactive)
ROOT
ATOM      1  C2' OXE d   1      -2.175   1.416   0.131  0.00  0.00     0.078 C 
ATOM      2  C1' OXE d   1      -2.893   0.494  -2.421  0.00  0.00     0.078 C 
ATOM      3  C1  OXE d   1      -1.878   1.606  -2.335  0.00  0.00    -0.078 A 
ATOM      4  C2  OXE d   1      -1.567   2.082  -1.084  0.00  0.00    -0.078 A 
ATOM      5  C3  OXE d   1      -0.595   3.070  -0.944  0.00  0.00     0.003 A 
ATOM      6  C4  OXE d   1      -0.045   3.688  -2.074  0.00  0.00    -0.002 A 
ATOM      7  C5  OXE d   1      -0.378   3.244  -3.358  0.00  0.00    -0.002 A 
ATOM      8  C6  OXE d   1      -1.258   2.178  -3.504  0.00  0.00     0.003 A 
ENDROOT
TORSDOF 0
ENDMDL
