MODEL 1
REMARK minimizedAffinity 2.79802704
REMARK minimizedRMSD -1
REMARK  0 active torsions:
REMARK  status: ('A' for Active; 'I' for Inactive)
ROOT
ATOM      1  C2' OXE d   1       1.279  -3.439  -0.650  0.00  0.00     0.078 C 
ATOM      2  C1' OXE d   1       2.762  -1.065  -0.431  0.00  0.00     0.078 C 
ATOM      3  C1  OXE d   1       1.397  -1.104   0.211  0.00  0.00    -0.078 A 
ATOM      4  C2  OXE d   1       0.660  -2.254   0.058  0.00  0.00    -0.078 A 
ATOM      5  C3  OXE d   1      -0.583  -2.363   0.676  0.00  0.00     0.003 A 
ATOM      6  C4  OXE d   1      -1.153  -1.258   1.321  0.00  0.00    -0.002 A 
ATOM      7  C5  OXE d   1      -0.436  -0.065   1.453  0.00  0.00    -0.002 A 
ATOM      8  C6  OXE d   1       0.855   0.014   0.942  0.00  0.00     0.003 A 
ENDROOT
TORSDOF 0
ENDMDL
