MODEL 1
REMARK minimizedAffinity 0.860687733
REMARK minimizedRMSD -1
REMARK  0 active torsions:
REMARK  status: ('A' for Active; 'I' for Inactive)
ROOT
ATOM      1  C2' OXE d   1       3.268  -1.480  -0.154  0.00  0.00     0.078 C 
ATOM      2  C1' OXE d   1       2.119   0.222   1.760  0.00  0.00     0.078 C 
ATOM      3  C1  OXE d   1       1.219  -0.774   1.073  0.00  0.00    -0.078 A 
ATOM      4  C2  OXE d   1       1.780  -1.571   0.105  0.00  0.00    -0.078 A 
ATOM      5  C3  OXE d   1       1.006  -2.545  -0.520  0.00  0.00     0.003 A 
ATOM      6  C4  OXE d   1      -0.372  -2.616  -0.282  0.00  0.00    -0.002 A 
ATOM      7  C5  OXE d   1      -0.971  -1.786   0.672  0.00  0.00    -0.002 A 
ATOM      8  C6  OXE d   1      -0.184  -0.891   1.387  0.00  0.00     0.003 A 
ENDROOT
TORSDOF 0
ENDMDL
