MODEL 1
REMARK minimizedAffinity -3.1436677
REMARK minimizedRMSD -1
REMARK  0 active torsions:
REMARK  status: ('A' for Active; 'I' for Inactive)
ROOT
ATOM      1  C2' OXE d   1      -5.270  -2.678   5.663  0.00  0.00     0.078 C 
ATOM      2  C1' OXE d   1      -5.272  -5.465   5.997  0.00  0.00     0.078 C 
ATOM      3  C1  OXE d   1      -5.132  -4.925   4.596  0.00  0.00    -0.078 A 
ATOM      4  C2  OXE d   1      -5.179  -3.561   4.437  0.00  0.00    -0.078 A 
ATOM      5  C3  OXE d   1      -5.001  -3.008   3.172  0.00  0.00     0.003 A 
ATOM      6  C4  OXE d   1      -4.928  -3.832   2.042  0.00  0.00    -0.002 A 
ATOM      7  C5  OXE d   1      -4.918  -5.224   2.178  0.00  0.00    -0.002 A 
ATOM      8  C6  OXE d   1      -4.977  -5.785   3.449  0.00  0.00     0.003 A 
ENDROOT
TORSDOF 0
ENDMDL
