MODEL 1
REMARK minimizedAffinity -0.947845519
REMARK minimizedRMSD -1
REMARK  0 active torsions:
REMARK  status: ('A' for Active; 'I' for Inactive)
ROOT
ATOM      1  C2' OXE d   1       1.903  -3.350  -0.384  0.00  0.00     0.078 C 
ATOM      2  C1' OXE d   1       2.707  -0.853   0.616  0.00  0.00     0.078 C 
ATOM      3  C1  OXE d   1       1.254  -1.233   0.756  0.00  0.00    -0.078 A 
ATOM      4  C2  OXE d   1       0.861  -2.436   0.222  0.00  0.00    -0.078 A 
ATOM      5  C3  OXE d   1      -0.457  -2.859   0.372  0.00  0.00     0.003 A 
ATOM      6  C4  OXE d   1      -1.417  -2.004   0.926  0.00  0.00    -0.002 A 
ATOM      7  C5  OXE d   1      -1.046  -0.757   1.440  0.00  0.00    -0.002 A 
ATOM      8  C6  OXE d   1       0.291  -0.375   1.401  0.00  0.00     0.003 A 
ENDROOT
TORSDOF 0
ENDMDL
