MODEL 1
REMARK minimizedAffinity 1.34775138
REMARK minimizedRMSD -1
REMARK  0 active torsions:
REMARK  status: ('A' for Active; 'I' for Inactive)
ROOT
ATOM      1  C2' OXE d   1       1.146  -3.097  -0.970  0.00  0.00     0.078 C 
ATOM      2  C1' OXE d   1       2.996  -1.354   0.222  0.00  0.00     0.078 C 
ATOM      3  C1  OXE d   1       1.538  -1.176   0.566  0.00  0.00    -0.078 A 
ATOM      4  C2  OXE d   1       0.635  -2.003  -0.057  0.00  0.00    -0.078 A 
ATOM      5  C3  OXE d   1      -0.716  -1.917   0.266  0.00  0.00     0.003 A 
ATOM      6  C4  OXE d   1      -1.181  -0.896   1.103  0.00  0.00    -0.002 A 
ATOM      7  C5  OXE d   1      -0.282  -0.017   1.718  0.00  0.00    -0.002 A 
ATOM      8  C6  OXE d   1       1.081  -0.170   1.494  0.00  0.00     0.003 A 
ENDROOT
TORSDOF 0
ENDMDL
