MODEL 1
REMARK minimizedAffinity 5.73663235
REMARK minimizedRMSD -1
REMARK  0 active torsions:
REMARK  status: ('A' for Active; 'I' for Inactive)
ROOT
ATOM      1  C2' OXE d   1       3.195  -0.006   2.272  0.00  0.00     0.078 C 
ATOM      2  C1' OXE d   1       0.851  -0.429   3.757  0.00  0.00     0.078 C 
ATOM      3  C1  OXE d   1       0.787  -0.642   2.265  0.00  0.00    -0.078 A 
ATOM      4  C2  OXE d   1       1.926  -0.388   1.541  0.00  0.00    -0.078 A 
ATOM      5  C3  OXE d   1       1.937  -0.621   0.168  0.00  0.00     0.003 A 
ATOM      6  C4  OXE d   1       0.757  -0.965  -0.502  0.00  0.00    -0.002 A 
ATOM      7  C5  OXE d   1      -0.425  -1.190   0.212  0.00  0.00    -0.002 A 
ATOM      8  C6  OXE d   1      -0.416  -1.074   1.598  0.00  0.00     0.003 A 
ENDROOT
TORSDOF 0
ENDMDL
