MODEL 1
REMARK minimizedAffinity 3.72773862
REMARK minimizedRMSD -1
REMARK  0 active torsions:
REMARK  status: ('A' for Active; 'I' for Inactive)
ROOT
ATOM      1  C2' OXE d   1       2.739   1.068   2.117  0.00  0.00     0.078 C 
ATOM      2  C1' OXE d   1       3.572  -0.708   0.109  0.00  0.00     0.078 C 
ATOM      3  C1  OXE d   1       2.120  -0.737   0.516  0.00  0.00    -0.078 A 
ATOM      4  C2  OXE d   1       1.731   0.103   1.532  0.00  0.00    -0.078 A 
ATOM      5  C3  OXE d   1       0.392   0.155   1.908  0.00  0.00     0.003 A 
ATOM      6  C4  OXE d   1      -0.532  -0.748   1.369  0.00  0.00    -0.002 A 
ATOM      7  C5  OXE d   1      -0.148  -1.639   0.361  0.00  0.00    -0.002 A 
ATOM      8  C6  OXE d   1       1.162  -1.617  -0.106  0.00  0.00     0.003 A 
ENDROOT
TORSDOF 0
ENDMDL
