MODEL 1
REMARK minimizedAffinity 1.98926425
REMARK minimizedRMSD -1
REMARK  0 active torsions:
REMARK  status: ('A' for Active; 'I' for Inactive)
ROOT
ATOM      1  C2' OXE d   1       3.500  -0.798   0.140  0.00  0.00     0.078 C 
ATOM      2  C1' OXE d   1       2.788   0.582   2.479  0.00  0.00     0.078 C 
ATOM      3  C1  OXE d   1       1.681  -0.043   1.667  0.00  0.00    -0.078 A 
ATOM      4  C2  OXE d   1       2.034  -0.676   0.500  0.00  0.00    -0.078 A 
ATOM      5  C3  OXE d   1       1.059  -1.317  -0.259  0.00  0.00     0.003 A 
ATOM      6  C4  OXE d   1      -0.295  -1.191   0.075  0.00  0.00    -0.002 A 
ATOM      7  C5  OXE d   1      -0.679  -0.516   1.238  0.00  0.00    -0.002 A 
ATOM      8  C6  OXE d   1       0.297   0.026   2.066  0.00  0.00     0.003 A 
ENDROOT
TORSDOF 0
ENDMDL
