MODEL 1
REMARK minimizedAffinity 0.362780273
REMARK minimizedRMSD -1
REMARK  0 active torsions:
REMARK  status: ('A' for Active; 'I' for Inactive)
ROOT
ATOM      1  C2' OXE d   1      -0.706  -0.558   1.226  0.00  0.00     0.078 C 
ATOM      2  C1' OXE d   1       1.973   0.262   1.046  0.00  0.00     0.078 C 
ATOM      3  C1  OXE d   1       1.594  -1.049   0.404  0.00  0.00    -0.078 A 
ATOM      4  C2  OXE d   1       0.291  -1.465   0.538  0.00  0.00    -0.078 A 
ATOM      5  C3  OXE d   1      -0.124  -2.640  -0.082  0.00  0.00     0.003 A 
ATOM      6  C4  OXE d   1       0.806  -3.478  -0.708  0.00  0.00    -0.002 A 
ATOM      7  C5  OXE d   1       2.146  -3.093  -0.821  0.00  0.00    -0.002 A 
ATOM      8  C6  OXE d   1       2.547  -1.864  -0.308  0.00  0.00     0.003 A 
ENDROOT
TORSDOF 0
ENDMDL
