MODEL 1
REMARK minimizedAffinity -3.44579482
REMARK minimizedRMSD -1
REMARK  0 active torsions:
REMARK  status: ('A' for Active; 'I' for Inactive)
ROOT
ATOM      1  C2' OXE d   1       2.150  -4.007  -0.315  0.00  0.00     0.078 C 
ATOM      2  C1' OXE d   1       3.524  -1.587   0.057  0.00  0.00     0.078 C 
ATOM      3  C1  OXE d   1       2.026  -1.581   0.237  0.00  0.00    -0.078 A 
ATOM      4  C2  OXE d   1       1.357  -2.759   0.007  0.00  0.00    -0.078 A 
ATOM      5  C3  OXE d   1      -0.019  -2.822   0.213  0.00  0.00     0.003 A 
ATOM      6  C4  OXE d   1      -0.746  -1.661   0.501  0.00  0.00    -0.002 A 
ATOM      7  C5  OXE d   1      -0.088  -0.442   0.700  0.00  0.00    -0.002 A 
ATOM      8  C6  OXE d   1       1.299  -0.394   0.614  0.00  0.00     0.003 A 
ENDROOT
TORSDOF 0
ENDMDL
