MODEL 1
REMARK minimizedAffinity -1.16105628
REMARK minimizedRMSD -1
REMARK  0 active torsions:
REMARK  status: ('A' for Active; 'I' for Inactive)
ROOT
ATOM      1  C2' OXE d   1       0.461  -3.256  -0.393  0.00  0.00     0.078 C 
ATOM      2  C1' OXE d   1       2.535  -1.476   0.246  0.00  0.00     0.078 C 
ATOM      3  C1  OXE d   1       1.140  -1.119   0.693  0.00  0.00    -0.078 A 
ATOM      4  C2  OXE d   1       0.124  -1.973   0.336  0.00  0.00    -0.078 A 
ATOM      5  C3  OXE d   1      -1.174  -1.720   0.770  0.00  0.00     0.003 A 
ATOM      6  C4  OXE d   1      -1.479  -0.526   1.435  0.00  0.00    -0.002 A 
ATOM      7  C5  OXE d   1      -0.465   0.376   1.775  0.00  0.00    -0.002 A 
ATOM      8  C6  OXE d   1       0.853   0.075   1.449  0.00  0.00     0.003 A 
ENDROOT
TORSDOF 0
ENDMDL
