MODEL 1
REMARK minimizedAffinity 8.55945396
REMARK minimizedRMSD -1
REMARK  0 active torsions:
REMARK  status: ('A' for Active; 'I' for Inactive)
ROOT
ATOM      1  C2' OXE d   1       3.003  -1.821   0.683  0.00  0.00     0.078 C 
ATOM      2  C1' OXE d   1       1.846   0.123   2.344  0.00  0.00     0.078 C 
ATOM      3  C1  OXE d   1       0.946  -0.595   1.369  0.00  0.00    -0.078 A 
ATOM      4  C2  OXE d   1       1.530  -1.511   0.528  0.00  0.00    -0.078 A 
ATOM      5  C3  OXE d   1       0.737  -2.241  -0.353  0.00  0.00     0.003 A 
ATOM      6  C4  OXE d   1      -0.623  -1.942  -0.497  0.00  0.00    -0.002 A 
ATOM      7  C5  OXE d   1      -1.230  -0.984   0.323  0.00  0.00    -0.002 A 
ATOM      8  C6  OXE d   1      -0.469  -0.333   1.288  0.00  0.00     0.003 A 
ENDROOT
TORSDOF 0
ENDMDL
