MODEL 1
REMARK minimizedAffinity -2.21872854
REMARK minimizedRMSD -1
REMARK  0 active torsions:
REMARK  status: ('A' for Active; 'I' for Inactive)
ROOT
ATOM      1  C2' OXE d   1       1.740  -3.544  -0.573  0.00  0.00     0.078 C 
ATOM      2  C1' OXE d   1       2.963  -1.039  -0.239  0.00  0.00     0.078 C 
ATOM      3  C1  OXE d   1       1.547  -1.202   0.254  0.00  0.00    -0.078 A 
ATOM      4  C2  OXE d   1       0.940  -2.417   0.044  0.00  0.00    -0.078 A 
ATOM      5  C3  OXE d   1      -0.346  -2.638   0.529  0.00  0.00     0.003 A 
ATOM      6  C4  OXE d   1      -1.082  -1.588   1.090  0.00  0.00    -0.002 A 
ATOM      7  C5  OXE d   1      -0.497  -0.331   1.277  0.00  0.00    -0.002 A 
ATOM      8  C6  OXE d   1       0.828  -0.134   0.904  0.00  0.00     0.003 A 
ENDROOT
TORSDOF 0
ENDMDL
