MODEL 1
REMARK minimizedAffinity -4.22516823
REMARK minimizedRMSD -1
REMARK  0 active torsions:
REMARK  status: ('A' for Active; 'I' for Inactive)
ROOT
ATOM      1  C2' OXE d   1       1.657  -3.751  -0.504  0.00  0.00     0.078 C 
ATOM      2  C1' OXE d   1       3.401  -1.552  -0.451  0.00  0.00     0.078 C 
ATOM      3  C1  OXE d   1       2.019  -1.367   0.123  0.00  0.00    -0.078 A 
ATOM      4  C2  OXE d   1       1.156  -2.435   0.051  0.00  0.00    -0.078 A 
ATOM      5  C3  OXE d   1      -0.112  -2.335   0.614  0.00  0.00     0.003 A 
ATOM      6  C4  OXE d   1      -0.571  -1.111   1.116  0.00  0.00    -0.002 A 
ATOM      7  C5  OXE d   1       0.278  -0.000   1.163  0.00  0.00    -0.002 A 
ATOM      8  C6  OXE d   1       1.587  -0.123   0.711  0.00  0.00     0.003 A 
ENDROOT
TORSDOF 0
ENDMDL
