MODEL 1
REMARK minimizedAffinity 2.27458191
REMARK minimizedRMSD -1
REMARK  0 active torsions:
REMARK  status: ('A' for Active; 'I' for Inactive)
ROOT
ATOM      1  C2' OXE d   1       0.268  -2.594  -1.506  0.00  0.00     0.078 C 
ATOM      2  C1' OXE d   1       2.433  -0.930  -0.854  0.00  0.00     0.078 C 
ATOM      3  C1  OXE d   1       1.321  -1.066   0.156  0.00  0.00    -0.078 A 
ATOM      4  C2  OXE d   1       0.244  -1.846  -0.191  0.00  0.00    -0.078 A 
ATOM      5  C3  OXE d   1      -0.784  -2.049   0.726  0.00  0.00     0.003 A 
ATOM      6  C4  OXE d   1      -0.804  -1.345   1.936  0.00  0.00    -0.002 A 
ATOM      7  C5  OXE d   1       0.264  -0.515   2.292  0.00  0.00    -0.002 A 
ATOM      8  C6  OXE d   1       1.352  -0.398   1.434  0.00  0.00     0.003 A 
ENDROOT
TORSDOF 0
ENDMDL
