MODEL 1
REMARK minimizedAffinity 1.85082531
REMARK minimizedRMSD -1
REMARK  0 active torsions:
REMARK  status: ('A' for Active; 'I' for Inactive)
ROOT
ATOM      1  C2' OXE d   1       3.017  -1.924  -0.439  0.00  0.00     0.078 C 
ATOM      2  C1' OXE d   1       0.669  -3.428  -0.769  0.00  0.00     0.078 C 
ATOM      3  C1  OXE d   1       0.572  -2.131  -0.005  0.00  0.00    -0.078 A 
ATOM      4  C2  OXE d   1       1.735  -1.425   0.192  0.00  0.00    -0.078 A 
ATOM      5  C3  OXE d   1       1.692  -0.195   0.842  0.00  0.00     0.003 A 
ATOM      6  C4  OXE d   1       0.504   0.255   1.431  0.00  0.00    -0.002 A 
ATOM      7  C5  OXE d   1      -0.683  -0.468   1.277  0.00  0.00    -0.002 A 
ATOM      8  C6  OXE d   1      -0.675  -1.639   0.527  0.00  0.00     0.003 A 
ENDROOT
TORSDOF 0
ENDMDL
