MODEL 1
REMARK minimizedAffinity 10.8779917
REMARK minimizedRMSD -1
REMARK  1 active torsions:
REMARK  status: ('A' for Active; 'I' for Inactive)
REMARK    1  A    between atoms: C1_2  and  C2_3 
ROOT
ATOM      1  C2  UNL d   1       2.616  -2.379   3.186  0.00  0.00    -0.081 A 
ATOM      2  C3  UNL d   1       3.186  -3.351   4.017  0.00  0.00     0.006 A 
ATOM      3  C4  UNL d   1       4.272  -4.110   3.575  0.00  0.00     0.002 A 
ATOM      4  C5  UNL d   1       4.811  -3.905   2.300  0.00  0.00    -0.080 A 
ATOM      5  C6  UNL d   1       5.996  -4.692   1.826  0.00  0.00     0.076 C 
ATOM      6  C7  UNL d   1       4.229  -2.946   1.464  0.00  0.00     0.002 A 
ATOM      7  C8  UNL d   1       3.143  -2.187   1.904  0.00  0.00     0.006 A 
ENDROOT
BRANCH   1   8
ATOM      8  C1  UNL d   1       1.486  -1.513   3.683  0.00  0.00     0.054 C 
ATOM      9  C   UNL d   1       1.094  -0.467   2.650  0.00  0.00     0.018 C 
ENDBRANCH   1   8
TORSDOF 1
ENDMDL
