MODEL 1
REMARK minimizedAffinity 4.47566271
REMARK minimizedRMSD -1
REMARK  1 active torsions:
REMARK  status: ('A' for Active; 'I' for Inactive)
REMARK    1  A    between atoms: C1_2  and  C2_3 
ROOT
ATOM      1  C2  UNL d   1       4.361  -2.139  -4.372  0.00  0.00    -0.081 A 
ATOM      2  C3  UNL d   1       3.786  -3.304  -3.851  0.00  0.00     0.006 A 
ATOM      3  C4  UNL d   1       4.113  -4.554  -4.382  0.00  0.00     0.002 A 
ATOM      4  C5  UNL d   1       5.025  -4.660  -5.437  0.00  0.00    -0.080 A 
ATOM      5  C6  UNL d   1       5.408  -5.999  -5.996  0.00  0.00     0.076 C 
ATOM      6  C7  UNL d   1       5.587  -3.495  -5.970  0.00  0.00     0.002 A 
ATOM      7  C8  UNL d   1       5.260  -2.245  -5.439  0.00  0.00     0.006 A 
ENDROOT
BRANCH   1   8
ATOM      8  C1  UNL d   1       4.060  -0.795  -3.759  0.00  0.00     0.054 C 
ATOM      9  C   UNL d   1       5.339  -0.061  -3.381  0.00  0.00     0.018 C 
ENDBRANCH   1   8
TORSDOF 1
ENDMDL
