MODEL 1
REMARK minimizedAffinity 8.47896004
REMARK minimizedRMSD -1
REMARK  1 active torsions:
REMARK  status: ('A' for Active; 'I' for Inactive)
REMARK    1  A    between atoms: C1_2  and  C2_3 
ROOT
ATOM      1  C2  UNL d   1       3.405  -2.888  -4.512  0.00  0.00    -0.081 A 
ATOM      2  C3  UNL d   1       4.532  -2.562  -5.276  0.00  0.00     0.006 A 
ATOM      3  C4  UNL d   1       5.381  -3.566  -5.749  0.00  0.00     0.002 A 
ATOM      4  C5  UNL d   1       5.113  -4.911  -5.472  0.00  0.00    -0.080 A 
ATOM      5  C6  UNL d   1       6.000  -5.999  -6.000  0.00  0.00     0.076 C 
ATOM      6  C7  UNL d   1       3.997  -5.235  -4.694  0.00  0.00     0.002 A 
ATOM      7  C8  UNL d   1       3.148  -4.232  -4.220  0.00  0.00     0.006 A 
ENDROOT
BRANCH   1   8
ATOM      8  C1  UNL d   1       2.452  -1.813  -4.055  0.00  0.00     0.054 C 
ATOM      9  C   UNL d   1       1.576  -2.301  -2.910  0.00  0.00     0.018 C 
ENDBRANCH   1   8
TORSDOF 1
ENDMDL
