MODEL 1
REMARK minimizedAffinity 7.54282284
REMARK minimizedRMSD -1
REMARK  1 active torsions:
REMARK  status: ('A' for Active; 'I' for Inactive)
REMARK    1  A    between atoms: C1_2  and  C2_3 
ROOT
ATOM      1  C2  UNL d   1      -4.902   0.297  -3.887  0.00  0.00    -0.081 A 
ATOM      2  C3  UNL d   1      -5.500  -0.135  -5.077  0.00  0.00     0.006 A 
ATOM      3  C4  UNL d   1      -5.840  -1.478  -5.253  0.00  0.00     0.002 A 
ATOM      4  C5  UNL d   1      -5.595  -2.411  -4.239  0.00  0.00    -0.080 A 
ATOM      5  C6  UNL d   1      -5.983  -3.850  -4.402  0.00  0.00     0.076 C 
ATOM      6  C7  UNL d   1      -4.982  -1.983  -3.056  0.00  0.00     0.002 A 
ATOM      7  C8  UNL d   1      -4.641  -0.640  -2.881  0.00  0.00     0.006 A 
ENDROOT
BRANCH   1   8
ATOM      8  C1  UNL d   1      -4.593   1.756  -3.670  0.00  0.00     0.054 C 
ATOM      9  C   UNL d   1      -4.030   2.001  -2.277  0.00  0.00     0.018 C 
ENDBRANCH   1   8
TORSDOF 1
ENDMDL
