MODEL 1
REMARK minimizedAffinity 5.01144361
REMARK minimizedRMSD -1
REMARK  1 active torsions:
REMARK  status: ('A' for Active; 'I' for Inactive)
REMARK    1  A    between atoms: C1_2  and  C2_3 
ROOT
ATOM      1  C2  UNL d   1      -1.275  -4.537   0.037  0.00  0.00    -0.081 A 
ATOM      2  C3  UNL d   1      -1.192  -3.139   0.052  0.00  0.00     0.006 A 
ATOM      3  C4  UNL d   1      -0.361  -2.470  -0.850  0.00  0.00     0.002 A 
ATOM      4  C5  UNL d   1       0.393  -3.185  -1.786  0.00  0.00    -0.080 A 
ATOM      5  C6  UNL d   1       1.266  -2.477  -2.779  0.00  0.00     0.076 C 
ATOM      6  C7  UNL d   1       0.324  -4.582  -1.789  0.00  0.00     0.002 A 
ATOM      7  C8  UNL d   1      -0.506  -5.252  -0.887  0.00  0.00     0.006 A 
ENDROOT
BRANCH   1   8
ATOM      8  C1  UNL d   1      -2.219  -5.258   0.965  0.00  0.00     0.054 C 
ATOM      9  C   UNL d   1      -3.529  -4.499   1.121  0.00  0.00     0.018 C 
ENDBRANCH   1   8
TORSDOF 1
ENDMDL
