MODEL 1
REMARK minimizedAffinity 2.23900294
REMARK minimizedRMSD -1
REMARK  1 active torsions:
REMARK  status: ('A' for Active; 'I' for Inactive)
REMARK    1  A    between atoms: C1_2  and  C2_3 
ROOT
ATOM      1  C2  UNL d   1       5.188   3.749  -3.553  0.00  0.00    -0.081 A 
ATOM      2  C3  UNL d   1       3.882   3.343  -3.253  0.00  0.00     0.006 A 
ATOM      3  C4  UNL d   1       3.112   4.058  -2.333  0.00  0.00     0.002 A 
ATOM      4  C5  UNL d   1       3.631   5.194  -1.704  0.00  0.00    -0.080 A 
ATOM      5  C6  UNL d   1       2.803   5.988  -0.738  0.00  0.00     0.076 C 
ATOM      6  C7  UNL d   1       4.942   5.590  -1.990  0.00  0.00     0.002 A 
ATOM      7  C8  UNL d   1       5.713   4.875  -2.910  0.00  0.00     0.006 A 
ENDROOT
BRANCH   1   8
ATOM      8  C1  UNL d   1       5.999   3.018  -4.593  0.00  0.00     0.054 C 
ATOM      9  C   UNL d   1       5.617   3.455  -6.000  0.00  0.00     0.018 C 
ENDBRANCH   1   8
TORSDOF 1
ENDMDL
