MODEL 1
REMARK minimizedAffinity 12.0025597
REMARK minimizedRMSD -1
REMARK  0 active torsions:
REMARK  status: ('A' for Active; 'I' for Inactive)
ROOT
ATOM      1  C1  DEN d   1      -1.778   2.470  -0.738  0.00  0.00     0.130 A 
ATOM      2  C2  DEN d   1      -0.838   2.179   0.341  0.00  0.00    -0.031 A 
ATOM      3  C3  DEN d   1       0.500   2.639  -0.084  0.00  0.00     0.027 A 
ATOM      4  C4  DEN d   1       1.201   3.771  -2.293  0.00  0.00     0.027 A 
ATOM      5  C5  DEN d   1       0.755   4.215  -3.518  0.00  0.00    -0.003 A 
ATOM      6  C6  DEN d   1      -0.550   4.079  -3.912  0.00  0.00     0.001 A 
ATOM      7  C7  DEN d   1      -1.464   3.525  -3.056  0.00  0.00     0.017 A 
ATOM      8  C8  DEN d   1      -1.020   3.068  -1.822  0.00  0.00    -0.094 A 
ATOM      9  C9  DEN d   1       0.301   3.226  -1.436  0.00  0.00    -0.072 A 
ENDROOT
TORSDOF 0
ENDMDL
