MODEL 1
REMARK minimizedAffinity 15.4099026
REMARK minimizedRMSD -1
REMARK  0 active torsions:
REMARK  status: ('A' for Active; 'I' for Inactive)
ROOT
ATOM      1  C1  DEN d   1       1.080   3.154   0.025  0.00  0.00     0.130 A 
ATOM      2  C2  DEN d   1       0.302   3.700  -1.083  0.00  0.00    -0.031 A 
ATOM      3  C3  DEN d   1      -1.121   3.385  -0.840  0.00  0.00     0.027 A 
ATOM      4  C4  DEN d   1      -2.187   2.116   1.136  0.00  0.00     0.027 A 
ATOM      5  C5  DEN d   1      -1.928   1.453   2.315  0.00  0.00    -0.003 A 
ATOM      6  C6  DEN d   1      -0.655   1.282   2.792  0.00  0.00     0.001 A 
ATOM      7  C7  DEN d   1       0.404   1.820   2.110  0.00  0.00     0.017 A 
ATOM      8  C8  DEN d   1       0.151   2.483   0.916  0.00  0.00    -0.094 A 
ATOM      9  C9  DEN d   1      -1.144   2.656   0.457  0.00  0.00    -0.072 A 
ENDROOT
TORSDOF 0
ENDMDL
