MODEL 1
REMARK minimizedAffinity 11.9835672
REMARK minimizedRMSD -1
REMARK  0 active torsions:
REMARK  status: ('A' for Active; 'I' for Inactive)
ROOT
ATOM      1  C1  DEN d   1      -5.953   6.000   3.162  0.00  0.00     0.130 A 
ATOM      2  C2  DEN d   1      -4.951   5.977   4.224  0.00  0.00    -0.031 A 
ATOM      3  C3  DEN d   1      -3.616   5.963   3.592  0.00  0.00     0.027 A 
ATOM      4  C4  DEN d   1      -3.008   5.978   1.085  0.00  0.00     0.027 A 
ATOM      5  C5  DEN d   1      -3.519   5.984  -0.194  0.00  0.00    -0.003 A 
ATOM      6  C6  DEN d   1      -4.866   5.962  -0.442  0.00  0.00     0.001 A 
ATOM      7  C7  DEN d   1      -5.749   5.978   0.605  0.00  0.00     0.017 A 
ATOM      8  C8  DEN d   1      -5.242   5.964   1.897  0.00  0.00    -0.094 A 
ATOM      9  C9  DEN d   1      -3.877   5.999   2.127  0.00  0.00    -0.072 A 
ENDROOT
TORSDOF 0
ENDMDL
