MODEL 1
REMARK minimizedAffinity 16.4124737
REMARK minimizedRMSD -1
REMARK  0 active torsions:
REMARK  status: ('A' for Active; 'I' for Inactive)
ROOT
ATOM      1  C1  DEN d   1       3.498  -4.124  -2.995  0.00  0.00     0.130 A 
ATOM      2  C2  DEN d   1       2.692  -5.145  -2.333  0.00  0.00    -0.031 A 
ATOM      3  C3  DEN d   1       1.399  -5.237  -3.041  0.00  0.00     0.027 A 
ATOM      4  C4  DEN d   1       0.576  -3.909  -5.093  0.00  0.00     0.027 A 
ATOM      5  C5  DEN d   1       0.904  -2.924  -5.999  0.00  0.00    -0.003 A 
ATOM      6  C6  DEN d   1       2.096  -2.252  -5.946  0.00  0.00     0.001 A 
ATOM      7  C7  DEN d   1       3.023  -2.588  -4.995  0.00  0.00     0.017 A 
ATOM      8  C8  DEN d   1       2.697  -3.574  -4.074  0.00  0.00    -0.094 A 
ATOM      9  C9  DEN d   1       1.491  -4.251  -4.151  0.00  0.00    -0.072 A 
ENDROOT
TORSDOF 0
ENDMDL
