MODEL 1
REMARK minimizedAffinity 23.827507
REMARK minimizedRMSD -1
REMARK  0 active torsions:
REMARK  status: ('A' for Active; 'I' for Inactive)
ROOT
ATOM      1  C1  DEN d   1      -3.611   5.470  -1.808  0.00  0.00     0.130 A 
ATOM      2  C2  DEN d   1      -4.819   5.534  -2.626  0.00  0.00    -0.031 A 
ATOM      3  C3  DEN d   1      -5.969   5.750  -1.726  0.00  0.00     0.027 A 
ATOM      4  C4  DEN d   1      -5.996   5.995   0.842  0.00  0.00     0.027 A 
ATOM      5  C5  DEN d   1      -5.217   5.998   1.978  0.00  0.00    -0.003 A 
ATOM      6  C6  DEN d   1      -3.863   5.794   1.935  0.00  0.00     0.001 A 
ATOM      7  C7  DEN d   1      -3.240   5.622   0.727  0.00  0.00     0.017 A 
ATOM      8  C8  DEN d   1      -4.021   5.610  -0.422  0.00  0.00    -0.094 A 
ATOM      9  C9  DEN d   1      -5.386   5.830  -0.359  0.00  0.00    -0.072 A 
ENDROOT
TORSDOF 0
ENDMDL
