MODEL 1
REMARK minimizedAffinity 15.9087868
REMARK minimizedRMSD -1
REMARK  0 active torsions:
REMARK  status: ('A' for Active; 'I' for Inactive)
ROOT
ATOM      1  C1  DEN d   1       1.459  -1.562   0.229  0.00  0.00     0.130 A 
ATOM      2  C2  DEN d   1       1.748  -2.245   1.487  0.00  0.00    -0.031 A 
ATOM      3  C3  DEN d   1       1.979  -3.672   1.189  0.00  0.00     0.027 A 
ATOM      4  C4  DEN d   1       1.924  -4.884  -1.088  0.00  0.00     0.027 A 
ATOM      5  C5  DEN d   1       1.711  -4.725  -2.439  0.00  0.00    -0.003 A 
ATOM      6  C6  DEN d   1       1.369  -3.517  -2.987  0.00  0.00     0.001 A 
ATOM      7  C7  DEN d   1       1.274  -2.410  -2.185  0.00  0.00     0.017 A 
ATOM      8  C8  DEN d   1       1.479  -2.565  -0.821  0.00  0.00    -0.094 A 
ATOM      9  C9  DEN d   1       1.837  -3.791  -0.288  0.00  0.00    -0.072 A 
ENDROOT
TORSDOF 0
ENDMDL
