MODEL 1
REMARK minimizedAffinity 16.7871132
REMARK minimizedRMSD -1
REMARK  0 active torsions:
REMARK  status: ('A' for Active; 'I' for Inactive)
ROOT
ATOM      1  C1  DEN d   1       1.955   5.058   2.680  0.00  0.00     0.130 A 
ATOM      2  C2  DEN d   1       2.139   6.000   1.579  0.00  0.00    -0.031 A 
ATOM      3  C3  DEN d   1       1.450   5.455   0.392  0.00  0.00     0.027 A 
ATOM      4  C4  DEN d   1       0.122   3.257   0.153  0.00  0.00     0.027 A 
ATOM      5  C5  DEN d   1      -0.299   2.122   0.812  0.00  0.00    -0.003 A 
ATOM      6  C6  DEN d   1       0.028   1.872   2.118  0.00  0.00     0.001 A 
ATOM      7  C7  DEN d   1       0.761   2.791   2.822  0.00  0.00     0.017 A 
ATOM      8  C8  DEN d   1       1.195   3.934   2.163  0.00  0.00    -0.094 A 
ATOM      9  C9  DEN d   1       0.843   4.174   0.846  0.00  0.00    -0.072 A 
ENDROOT
TORSDOF 0
ENDMDL
