MODEL 1
REMARK minimizedAffinity 19.918602
REMARK minimizedRMSD -1
REMARK  0 active torsions:
REMARK  status: ('A' for Active; 'I' for Inactive)
ROOT
ATOM      1  C1  DEN d   1      -1.852   3.572  -3.723  0.00  0.00     0.130 A 
ATOM      2  C2  DEN d   1      -1.596   2.962  -2.422  0.00  0.00    -0.031 A 
ATOM      3  C3  DEN d   1      -0.316   3.493  -1.912  0.00  0.00     0.027 A 
ATOM      4  C4  DEN d   1       1.283   5.197  -3.004  0.00  0.00     0.027 A 
ATOM      5  C5  DEN d   1       1.496   5.986  -4.113  0.00  0.00    -0.003 A 
ATOM      6  C6  DEN d   1       0.632   5.999  -5.176  0.00  0.00     0.001 A 
ATOM      7  C7  DEN d   1      -0.509   5.243  -5.133  0.00  0.00     0.017 A 
ATOM      8  C8  DEN d   1      -0.727   4.440  -4.021  0.00  0.00    -0.094 A 
ATOM      9  C9  DEN d   1       0.152   4.449  -2.951  0.00  0.00    -0.072 A 
ENDROOT
TORSDOF 0
ENDMDL
