MODEL 1
REMARK minimizedAffinity 12.949357
REMARK minimizedRMSD -1
REMARK  0 active torsions:
REMARK  status: ('A' for Active; 'I' for Inactive)
ROOT
ATOM      1  C1  DEN d   1       1.006  -3.240  -2.214  0.00  0.00     0.130 A 
ATOM      2  C2  DEN d   1       1.670  -2.262  -1.357  0.00  0.00    -0.031 A 
ATOM      3  C3  DEN d   1       2.308  -1.252  -2.226  0.00  0.00     0.027 A 
ATOM      4  C4  DEN d   1       2.327  -1.107  -4.801  0.00  0.00     0.027 A 
ATOM      5  C5  DEN d   1       1.909  -1.717  -5.963  0.00  0.00    -0.003 A 
ATOM      6  C6  DEN d   1       1.195  -2.886  -5.957  0.00  0.00     0.001 A 
ATOM      7  C7  DEN d   1       0.839  -3.459  -4.765  0.00  0.00     0.017 A 
ATOM      8  C8  DEN d   1       1.264  -2.853  -3.589  0.00  0.00    -0.094 A 
ATOM      9  C9  DEN d   1       1.974  -1.665  -3.615  0.00  0.00    -0.072 A 
ENDROOT
TORSDOF 0
ENDMDL
