MODEL 1
REMARK minimizedAffinity 21.7666092
REMARK minimizedRMSD -1
REMARK  0 active torsions:
REMARK  status: ('A' for Active; 'I' for Inactive)
ROOT
ATOM      1  C1  DEN d   1      -2.434   2.413  -2.193  0.00  0.00     0.130 A 
ATOM      2  C2  DEN d   1      -1.889   3.345  -3.176  0.00  0.00    -0.031 A 
ATOM      3  C3  DEN d   1      -0.571   3.802  -2.691  0.00  0.00     0.027 A 
ATOM      4  C4  DEN d   1       0.674   3.157  -0.527  0.00  0.00     0.027 A 
ATOM      5  C5  DEN d   1       0.606   2.407   0.627  0.00  0.00    -0.003 A 
ATOM      6  C6  DEN d   1      -0.486   1.640   0.935  0.00  0.00     0.001 A 
ATOM      7  C7  DEN d   1      -1.536   1.569   0.058  0.00  0.00     0.017 A 
ATOM      8  C8  DEN d   1      -1.477   2.328  -1.104  0.00  0.00    -0.094 A 
ATOM      9  C9  DEN d   1      -0.359   3.088  -1.404  0.00  0.00    -0.072 A 
ENDROOT
TORSDOF 0
ENDMDL
