MODEL 1
REMARK minimizedAffinity 26.896244
REMARK minimizedRMSD -1
REMARK  0 active torsions:
REMARK  status: ('A' for Active; 'I' for Inactive)
ROOT
ATOM      1  C1  DEN d   1      -5.987   6.000   1.322  0.00  0.00     0.130 A 
ATOM      2  C2  DEN d   1      -4.917   5.999   2.315  0.00  0.00    -0.031 A 
ATOM      3  C3  DEN d   1      -3.628   5.940   1.597  0.00  0.00     0.027 A 
ATOM      4  C4  DEN d   1      -3.188   5.854  -0.943  0.00  0.00     0.027 A 
ATOM      5  C5  DEN d   1      -3.783   5.822  -2.185  0.00  0.00    -0.003 A 
ATOM      6  C6  DEN d   1      -5.143   5.813  -2.343  0.00  0.00     0.001 A 
ATOM      7  C7  DEN d   1      -5.955   5.881  -1.241  0.00  0.00     0.017 A 
ATOM      8  C8  DEN d   1      -5.362   5.906   0.015  0.00  0.00    -0.094 A 
ATOM      9  C9  DEN d   1      -3.985   5.927   0.153  0.00  0.00    -0.072 A 
ENDROOT
TORSDOF 0
ENDMDL
