MODEL 1
REMARK minimizedAffinity 14.7367411
REMARK minimizedRMSD -1
REMARK  0 active torsions:
REMARK  status: ('A' for Active; 'I' for Inactive)
ROOT
ATOM      1  C1  DEN d   1       2.043  -1.853  -2.031  0.00  0.00     0.130 A 
ATOM      2  C2  DEN d   1       1.386  -2.979  -1.373  0.00  0.00    -0.031 A 
ATOM      3  C3  DEN d   1       0.756  -3.813  -2.416  0.00  0.00     0.027 A 
ATOM      4  C4  DEN d   1       0.737  -3.473  -4.973  0.00  0.00     0.027 A 
ATOM      5  C5  DEN d   1       1.150  -2.653  -6.000  0.00  0.00    -0.003 A 
ATOM      6  C6  DEN d   1       1.855  -1.500  -5.774  0.00  0.00     0.001 A 
ATOM      7  C7  DEN d   1       2.207  -1.158  -4.495  0.00  0.00     0.017 A 
ATOM      8  C8  DEN d   1       1.788  -1.977  -3.455  0.00  0.00    -0.094 A 
ATOM      9  C9  DEN d   1       1.086  -3.144  -3.704  0.00  0.00    -0.072 A 
ENDROOT
TORSDOF 0
ENDMDL
