MODEL 1
REMARK minimizedAffinity 15.2248898
REMARK minimizedRMSD -1
REMARK  0 active torsions:
REMARK  status: ('A' for Active; 'I' for Inactive)
ROOT
ATOM      1  C1  DEN d   1       2.153  -4.583  -1.407  0.00  0.00     0.130 A 
ATOM      2  C2  DEN d   1       1.853  -4.011  -2.716  0.00  0.00    -0.031 A 
ATOM      3  C3  DEN d   1       1.577  -2.572  -2.533  0.00  0.00     0.027 A 
ATOM      4  C4  DEN d   1       1.589  -1.181  -0.361  0.00  0.00     0.027 A 
ATOM      5  C5  DEN d   1       1.776  -1.231   1.003  0.00  0.00    -0.003 A 
ATOM      6  C6  DEN d   1       2.066  -2.398   1.658  0.00  0.00     0.001 A 
ATOM      7  C7  DEN d   1       2.222  -3.557   0.944  0.00  0.00     0.017 A 
ATOM      8  C8  DEN d   1       2.028  -3.516  -0.431  0.00  0.00    -0.094 A 
ATOM      9  C9  DEN d   1       1.747  -2.324  -1.076  0.00  0.00    -0.072 A 
ENDROOT
TORSDOF 0
ENDMDL
