MODEL 1
REMARK minimizedAffinity -2.79056978
REMARK minimizedRMSD -1
REMARK  1 active torsions:
REMARK  status: ('A' for Active; 'I' for Inactive)
REMARK    1  A    between atoms: C1_2  and  C2_3 
ROOT
ATOM      1  C2  UNL d   1      -0.279   0.544   0.003  0.00  0.00    -0.081 A 
ATOM      2  C3  UNL d   1      -1.039   1.711   0.152  0.00  0.00     0.006 A 
ATOM      3  C4  UNL d   1      -0.411   2.947   0.321  0.00  0.00     0.002 A 
ATOM      4  C5  UNL d   1       0.984   3.039   0.336  0.00  0.00    -0.080 A 
ATOM      5  C6  UNL d   1       1.671   4.364   0.486  0.00  0.00     0.076 C 
ATOM      6  C7  UNL d   1       1.743   1.871   0.204  0.00  0.00     0.002 A 
ATOM      7  C8  UNL d   1       1.117   0.634   0.036  0.00  0.00     0.006 A 
ENDROOT
BRANCH   1   8
ATOM      8  C1  UNL d   1      -0.952  -0.782  -0.245  0.00  0.00     0.054 C 
ATOM      9  C   UNL d   1      -0.504  -1.392  -1.565  0.00  0.00     0.018 C 
ENDBRANCH   1   8
TORSDOF 1
ENDMDL
