MODEL 1
REMARK minimizedAffinity -5.12974548
REMARK minimizedRMSD -1
REMARK  1 active torsions:
REMARK  status: ('A' for Active; 'I' for Inactive)
REMARK    1  A    between atoms: C1_2  and  C2_3 
ROOT
ATOM      1  C2  UNL d   1      -0.930  -0.510   0.859  0.00  0.00    -0.081 A 
ATOM      2  C3  UNL d   1      -2.036   0.348   0.891  0.00  0.00     0.006 A 
ATOM      3  C4  UNL d   1      -3.067   0.140   1.810  0.00  0.00     0.002 A 
ATOM      4  C5  UNL d   1      -3.005  -0.923   2.718  0.00  0.00    -0.080 A 
ATOM      5  C6  UNL d   1      -4.090  -1.139   3.731  0.00  0.00     0.076 C 
ATOM      6  C7  UNL d   1      -1.908  -1.790   2.675  0.00  0.00     0.002 A 
ATOM      7  C8  UNL d   1      -0.877  -1.583   1.755  0.00  0.00     0.006 A 
ENDROOT
BRANCH   1   8
ATOM      8  C1  UNL d   1       0.214  -0.251  -0.088  0.00  0.00     0.054 C 
ATOM      9  C   UNL d   1       1.367   0.450   0.616  0.00  0.00     0.018 C 
ENDBRANCH   1   8
TORSDOF 1
ENDMDL
