MODEL 1
REMARK minimizedAffinity -1.88684094
REMARK minimizedRMSD -1
REMARK  1 active torsions:
REMARK  status: ('A' for Active; 'I' for Inactive)
REMARK    1  A    between atoms: C1_2  and  C2_3 
ROOT
ATOM      1  C2  UNL d   1      -1.569  -2.695   1.775  0.00  0.00    -0.081 A 
ATOM      2  C3  UNL d   1      -0.817  -1.905   0.897  0.00  0.00     0.006 A 
ATOM      3  C4  UNL d   1      -0.701  -2.256  -0.450  0.00  0.00     0.002 A 
ATOM      4  C5  UNL d   1      -1.342  -3.398  -0.944  0.00  0.00    -0.080 A 
ATOM      5  C6  UNL d   1      -1.252  -3.769  -2.394  0.00  0.00     0.076 C 
ATOM      6  C7  UNL d   1      -2.080  -4.197  -0.063  0.00  0.00     0.002 A 
ATOM      7  C8  UNL d   1      -2.195  -3.847   1.284  0.00  0.00     0.006 A 
ENDROOT
BRANCH   1   8
ATOM      8  C1  UNL d   1      -1.748  -2.284   3.214  0.00  0.00     0.054 C 
ATOM      9  C   UNL d   1      -3.166  -1.797   3.477  0.00  0.00     0.018 C 
ENDBRANCH   1   8
TORSDOF 1
ENDMDL
