MODEL 1
REMARK minimizedAffinity -3.334517
REMARK minimizedRMSD -1
REMARK  1 active torsions:
REMARK  status: ('A' for Active; 'I' for Inactive)
REMARK    1  A    between atoms: C1_2  and  C2_3 
ROOT
ATOM      1  C2  UNL d   1      -1.535  -0.620   1.535  0.00  0.00    -0.081 A 
ATOM      2  C3  UNL d   1      -0.389  -0.968   0.810  0.00  0.00     0.006 A 
ATOM      3  C4  UNL d   1       0.344   0.009   0.132  0.00  0.00     0.002 A 
ATOM      4  C5  UNL d   1      -0.052   1.350   0.174  0.00  0.00    -0.080 A 
ATOM      5  C6  UNL d   1       0.743   2.413  -0.524  0.00  0.00     0.076 C 
ATOM      6  C7  UNL d   1      -1.207   1.695   0.885  0.00  0.00     0.002 A 
ATOM      7  C8  UNL d   1      -1.941   0.718   1.562  0.00  0.00     0.006 A 
ENDROOT
BRANCH   1   8
ATOM      8  C1  UNL d   1      -2.291  -1.662   2.321  0.00  0.00     0.054 C 
ATOM      9  C   UNL d   1      -3.368  -1.027   3.188  0.00  0.00     0.018 C 
ENDBRANCH   1   8
TORSDOF 1
ENDMDL
