MODEL 1
REMARK minimizedAffinity -5.17422009
REMARK minimizedRMSD -1
REMARK  1 active torsions:
REMARK  status: ('A' for Active; 'I' for Inactive)
REMARK    1  A    between atoms: C1_2  and  C2_3 
ROOT
ATOM      1  C2  UNL d   1      -0.789  -2.597   1.872  0.00  0.00    -0.081 A 
ATOM      2  C3  UNL d   1      -0.052  -1.651   1.148  0.00  0.00     0.006 A 
ATOM      3  C4  UNL d   1       0.239  -1.863  -0.201  0.00  0.00     0.002 A 
ATOM      4  C5  UNL d   1      -0.209  -3.018  -0.852  0.00  0.00    -0.080 A 
ATOM      5  C6  UNL d   1       0.071  -3.242  -2.308  0.00  0.00     0.076 C 
ATOM      6  C7  UNL d   1      -0.930  -3.970  -0.125  0.00  0.00     0.002 A 
ATOM      7  C8  UNL d   1      -1.221  -3.760   1.225  0.00  0.00     0.006 A 
ENDROOT
BRANCH   1   8
ATOM      8  C1  UNL d   1      -1.160  -2.341   3.311  0.00  0.00     0.054 C 
ATOM      9  C   UNL d   1      -2.493  -1.615   3.418  0.00  0.00     0.018 C 
ENDBRANCH   1   8
TORSDOF 1
ENDMDL
