MODEL 1
REMARK minimizedAffinity -2.67982054
REMARK minimizedRMSD -1
REMARK  1 active torsions:
REMARK  status: ('A' for Active; 'I' for Inactive)
REMARK    1  A    between atoms: C1_2  and  C2_3 
ROOT
ATOM      1  C2  UNL d   1       0.189   2.106   0.425  0.00  0.00    -0.081 A 
ATOM      2  C3  UNL d   1       1.484   2.619   0.567  0.00  0.00     0.006 A 
ATOM      3  C4  UNL d   1       2.587   1.761   0.592  0.00  0.00     0.002 A 
ATOM      4  C5  UNL d   1       2.413   0.379   0.468  0.00  0.00    -0.080 A 
ATOM      5  C6  UNL d   1       3.591  -0.551   0.462  0.00  0.00     0.076 C 
ATOM      6  C7  UNL d   1       1.118  -0.135   0.343  0.00  0.00     0.002 A 
ATOM      7  C8  UNL d   1       0.016   0.722   0.319  0.00  0.00     0.006 A 
ENDROOT
BRANCH   1   8
ATOM      8  C1  UNL d   1      -0.996   3.033   0.333  0.00  0.00     0.054 C 
ATOM      9  C   UNL d   1      -2.285   2.323   0.721  0.00  0.00     0.018 C 
ENDBRANCH   1   8
TORSDOF 1
ENDMDL
