MODEL 1
REMARK minimizedAffinity -4.37998676
REMARK minimizedRMSD -1
REMARK  1 active torsions:
REMARK  status: ('A' for Active; 'I' for Inactive)
REMARK    1  A    between atoms: C1_2  and  C2_3 
ROOT
ATOM      1  C2  UNL d   1      -1.123  -0.400   0.953  0.00  0.00    -0.081 A 
ATOM      2  C3  UNL d   1      -0.035  -0.315   0.076  0.00  0.00     0.006 A 
ATOM      3  C4  UNL d   1       0.372   0.922  -0.430  0.00  0.00     0.002 A 
ATOM      4  C5  UNL d   1      -0.297   2.095  -0.061  0.00  0.00    -0.080 A 
ATOM      5  C6  UNL d   1       0.149   3.432  -0.573  0.00  0.00     0.076 C 
ATOM      6  C7  UNL d   1      -1.394   2.008   0.802  0.00  0.00     0.002 A 
ATOM      7  C8  UNL d   1      -1.802   0.772   1.307  0.00  0.00     0.006 A 
ENDROOT
BRANCH   1   8
ATOM      8  C1  UNL d   1      -1.524  -1.724   1.551  0.00  0.00     0.054 C 
ATOM      9  C   UNL d   1      -1.946  -1.569   3.006  0.00  0.00     0.018 C 
ENDBRANCH   1   8
TORSDOF 1
ENDMDL
