MODEL 1
REMARK minimizedAffinity -4.28870106
REMARK minimizedRMSD -1
REMARK  1 active torsions:
REMARK  status: ('A' for Active; 'I' for Inactive)
REMARK    1  A    between atoms: C1_2  and  C2_3 
ROOT
ATOM      1  C2  UNL d   1      -0.626  -3.040  -0.659  0.00  0.00    -0.081 A 
ATOM      2  C3  UNL d   1      -0.033  -2.031   0.110  0.00  0.00     0.006 A 
ATOM      3  C4  UNL d   1      -0.368  -1.877   1.457  0.00  0.00     0.002 A 
ATOM      4  C5  UNL d   1      -1.295  -2.734   2.060  0.00  0.00    -0.080 A 
ATOM      5  C6  UNL d   1      -1.642  -2.598   3.513  0.00  0.00     0.076 C 
ATOM      6  C7  UNL d   1      -1.902  -3.730   1.288  0.00  0.00     0.002 A 
ATOM      7  C8  UNL d   1      -1.568  -3.884  -0.059  0.00  0.00     0.006 A 
ENDROOT
BRANCH   1   8
ATOM      8  C1  UNL d   1      -0.219  -3.250  -2.095  0.00  0.00     0.054 C 
ATOM      9  C   UNL d   1       1.053  -4.080  -2.194  0.00  0.00     0.018 C 
ENDBRANCH   1   8
TORSDOF 1
ENDMDL
