MODEL 1
REMARK minimizedAffinity -2.77962232
REMARK minimizedRMSD -1
REMARK  1 active torsions:
REMARK  status: ('A' for Active; 'I' for Inactive)
REMARK    1  A    between atoms: C1_2  and  C2_3 
ROOT
ATOM      1  C2  UNL d   1      -0.390  -1.539  -0.601  0.00  0.00    -0.081 A 
ATOM      2  C3  UNL d   1      -1.490  -0.828  -0.106  0.00  0.00     0.006 A 
ATOM      3  C4  UNL d   1      -1.303   0.329   0.653  0.00  0.00     0.002 A 
ATOM      4  C5  UNL d   1      -0.013   0.799   0.924  0.00  0.00    -0.080 A 
ATOM      5  C6  UNL d   1       0.202   2.057   1.712  0.00  0.00     0.076 C 
ATOM      6  C7  UNL d   1       1.087   0.079   0.445  0.00  0.00     0.002 A 
ATOM      7  C8  UNL d   1       0.900  -1.079  -0.314  0.00  0.00     0.006 A 
ENDROOT
BRANCH   1   8
ATOM      8  C1  UNL d   1      -0.590  -2.751  -1.474  0.00  0.00     0.054 C 
ATOM      9  C   UNL d   1      -2.025  -2.841  -1.975  0.00  0.00     0.018 C 
ENDBRANCH   1   8
TORSDOF 1
ENDMDL
