MODEL 1
REMARK minimizedAffinity -2.0613699
REMARK minimizedRMSD -1
REMARK  1 active torsions:
REMARK  status: ('A' for Active; 'I' for Inactive)
REMARK    1  A    between atoms: C1_2  and  C2_3 
ROOT
ATOM      1  C2  UNL d   1       0.871   3.276   0.218  0.00  0.00    -0.081 A 
ATOM      2  C3  UNL d   1      -0.427   2.876   0.558  0.00  0.00     0.006 A 
ATOM      3  C4  UNL d   1      -0.860   2.928   1.885  0.00  0.00     0.002 A 
ATOM      4  C5  UNL d   1      -0.004   3.387   2.893  0.00  0.00    -0.080 A 
ATOM      5  C6  UNL d   1      -0.466   3.476   4.317  0.00  0.00     0.076 C 
ATOM      6  C7  UNL d   1       1.298   3.769   2.556  0.00  0.00     0.002 A 
ATOM      7  C8  UNL d   1       1.731   3.717   1.229  0.00  0.00     0.006 A 
ENDROOT
BRANCH   1   8
ATOM      8  C1  UNL d   1       1.319   3.283  -1.221  0.00  0.00     0.054 C 
ATOM      9  C   UNL d   1       0.185   2.884  -2.155  0.00  0.00     0.018 C 
ENDBRANCH   1   8
TORSDOF 1
ENDMDL
