MODEL 1
REMARK minimizedAffinity 1.00189233
REMARK minimizedRMSD -1
REMARK  1 active torsions:
REMARK  status: ('A' for Active; 'I' for Inactive)
REMARK    1  A    between atoms: C1_2  and  C2_3 
ROOT
ATOM      1  C2  UNL d   1       3.152   2.092  -5.934  0.00  0.00    -0.081 A 
ATOM      2  C3  UNL d   1       2.263   1.012  -5.879  0.00  0.00     0.006 A 
ATOM      3  C4  UNL d   1       0.883   1.229  -5.888  0.00  0.00     0.002 A 
ATOM      4  C5  UNL d   1       0.369   2.528  -5.959  0.00  0.00    -0.080 A 
ATOM      5  C6  UNL d   1      -1.110   2.773  -6.000  0.00  0.00     0.076 C 
ATOM      6  C7  UNL d   1       1.257   3.608  -5.997  0.00  0.00     0.002 A 
ATOM      7  C8  UNL d   1       2.637   3.392  -5.987  0.00  0.00     0.006 A 
ENDROOT
BRANCH   1   8
ATOM      8  C1  UNL d   1       4.640   1.858  -5.991  0.00  0.00     0.054 C 
ATOM      9  C   UNL d   1       5.392   2.877  -5.148  0.00  0.00     0.018 C 
ENDBRANCH   1   8
TORSDOF 1
ENDMDL
