MODEL 1
REMARK minimizedAffinity -3.93699622
REMARK minimizedRMSD -1
REMARK  1 active torsions:
REMARK  status: ('A' for Active; 'I' for Inactive)
REMARK    1  A    between atoms: C1_2  and  C2_3 
ROOT
ATOM      1  C2  UNL d   1      -0.414  -0.278  -0.823  0.00  0.00    -0.081 A 
ATOM      2  C3  UNL d   1       0.740  -0.002  -0.079  0.00  0.00     0.006 A 
ATOM      3  C4  UNL d   1       1.014   1.301   0.345  0.00  0.00     0.002 A 
ATOM      4  C5  UNL d   1       0.137   2.347   0.039  0.00  0.00    -0.080 A 
ATOM      5  C6  UNL d   1       0.404   3.744   0.515  0.00  0.00     0.076 C 
ATOM      6  C7  UNL d   1      -1.007   2.074  -0.719  0.00  0.00     0.002 A 
ATOM      7  C8  UNL d   1      -1.282   0.772  -1.144  0.00  0.00     0.006 A 
ENDROOT
BRANCH   1   8
ATOM      8  C1  UNL d   1      -0.746  -1.692  -1.227  0.00  0.00     0.054 C 
ATOM      9  C   UNL d   1      -0.111  -2.049  -2.563  0.00  0.00     0.018 C 
ENDBRANCH   1   8
TORSDOF 1
ENDMDL
