MODEL 1
REMARK minimizedAffinity 10.2098799
REMARK minimizedRMSD -1
REMARK  0 active torsions:
REMARK  status: ('A' for Active; 'I' for Inactive)
ROOT
ATOM      1  C1  BNZ d   1      -0.022   4.132  -0.769  0.00  0.00     0.000 A 
ATOM      2  C2  BNZ d   1      -0.842   3.150  -1.257  0.00  0.00     0.000 A 
ATOM      3  C3  BNZ d   1      -1.330   2.173  -0.435  0.00  0.00     0.000 A 
ATOM      4  C4  BNZ d   1      -0.968   2.158   0.864  0.00  0.00     0.000 A 
ATOM      5  C5  BNZ d   1      -0.135   3.136   1.369  0.00  0.00     0.000 A 
ATOM      6  C6  BNZ d   1       0.324   4.140   0.547  0.00  0.00     0.000 A 
ENDROOT
TORSDOF 0
ENDMDL
