MODEL 1
REMARK minimizedAffinity -2.06912303
REMARK minimizedRMSD -1
REMARK  0 active torsions:
REMARK  status: ('A' for Active; 'I' for Inactive)
ROOT
ATOM      1  C1  BNZ d   1      -5.619  -5.664  -4.900  0.00  0.00     0.000 A 
ATOM      2  C2  BNZ d   1      -5.067  -5.035  -3.816  0.00  0.00     0.000 A 
ATOM      3  C3  BNZ d   1      -4.899  -3.679  -3.803  0.00  0.00     0.000 A 
ATOM      4  C4  BNZ d   1      -5.247  -2.958  -4.889  0.00  0.00     0.000 A 
ATOM      5  C5  BNZ d   1      -5.796  -3.577  -5.993  0.00  0.00     0.000 A 
ATOM      6  C6  BNZ d   1      -6.000  -4.938  -5.987  0.00  0.00     0.000 A 
ENDROOT
TORSDOF 0
ENDMDL
