MODEL 1
REMARK minimizedAffinity -4.27062225
REMARK minimizedRMSD -1
REMARK  0 active torsions:
REMARK  status: ('A' for Active; 'I' for Inactive)
ROOT
ATOM      1  C1  BNZ d   1       1.278  -2.226   3.999  0.00  0.00     0.000 A 
ATOM      2  C2  BNZ d   1       1.522  -2.573   5.302  0.00  0.00     0.000 A 
ATOM      3  C3  BNZ d   1       2.763  -2.989   5.694  0.00  0.00     0.000 A 
ATOM      4  C4  BNZ d   1       3.747  -3.097   4.778  0.00  0.00     0.000 A 
ATOM      5  C5  BNZ d   1       3.514  -2.760   3.460  0.00  0.00     0.000 A 
ATOM      6  C6  BNZ d   1       2.274  -2.304   3.076  0.00  0.00     0.000 A 
ENDROOT
TORSDOF 0
ENDMDL
