MODEL 1
REMARK minimizedAffinity 7.75619173
REMARK minimizedRMSD -1
REMARK  0 active torsions:
REMARK  status: ('A' for Active; 'I' for Inactive)
ROOT
ATOM      1  C1  BNZ d   1       1.618   0.732   2.527  0.00  0.00     0.000 A 
ATOM      2  C2  BNZ d   1       2.263   1.858   2.087  0.00  0.00     0.000 A 
ATOM      3  C3  BNZ d   1       2.855   1.888   0.855  0.00  0.00     0.000 A 
ATOM      4  C4  BNZ d   1       2.837   0.782   0.083  0.00  0.00     0.000 A 
ATOM      5  C5  BNZ d   1       2.200  -0.363   0.517  0.00  0.00     0.000 A 
ATOM      6  C6  BNZ d   1       1.571  -0.377   1.741  0.00  0.00     0.000 A 
ENDROOT
TORSDOF 0
ENDMDL
