MODEL 1
REMARK minimizedAffinity -1.29513264
REMARK minimizedRMSD -1
REMARK  0 active torsions:
REMARK  status: ('A' for Active; 'I' for Inactive)
ROOT
ATOM      1  C1  BNZ d   1      -5.265  -5.860  -4.412  0.00  0.00     0.000 A 
ATOM      2  C2  BNZ d   1      -5.956  -4.678  -4.379  0.00  0.00     0.000 A 
ATOM      3  C3  BNZ d   1      -5.584  -3.627  -5.170  0.00  0.00     0.000 A 
ATOM      4  C4  BNZ d   1      -4.498  -3.745  -5.961  0.00  0.00     0.000 A 
ATOM      5  C5  BNZ d   1      -3.785  -4.927  -5.998  0.00  0.00     0.000 A 
ATOM      6  C6  BNZ d   1      -4.186  -5.996  -5.230  0.00  0.00     0.000 A 
ENDROOT
TORSDOF 0
ENDMDL
