MODEL 1
REMARK minimizedAffinity 1.08012044
REMARK minimizedRMSD -1
REMARK  0 active torsions:
REMARK  status: ('A' for Active; 'I' for Inactive)
ROOT
ATOM      1  C1  BNZ d   1       3.570   3.907  -5.631  0.00  0.00     0.000 A 
ATOM      2  C2  BNZ d   1       3.685   5.248  -5.382  0.00  0.00     0.000 A 
ATOM      3  C3  BNZ d   1       4.899   5.873  -5.460  0.00  0.00     0.000 A 
ATOM      4  C4  BNZ d   1       6.000   5.149  -5.747  0.00  0.00     0.000 A 
ATOM      5  C5  BNZ d   1       5.902   3.794  -5.991  0.00  0.00     0.000 A 
ATOM      6  C6  BNZ d   1       4.673   3.176  -5.950  0.00  0.00     0.000 A 
ENDROOT
TORSDOF 0
ENDMDL
