MODEL 1
REMARK minimizedAffinity 7.51965666
REMARK minimizedRMSD -1
REMARK  0 active torsions:
REMARK  status: ('A' for Active; 'I' for Inactive)
ROOT
ATOM      1  C1  BNZ d   1       5.017   4.653  -3.286  0.00  0.00     0.000 A 
ATOM      2  C2  BNZ d   1       4.111   4.119  -4.163  0.00  0.00     0.000 A 
ATOM      3  C3  BNZ d   1       4.150   4.440  -5.491  0.00  0.00     0.000 A 
ATOM      4  C4  BNZ d   1       5.069   5.324  -5.933  0.00  0.00     0.000 A 
ATOM      5  C5  BNZ d   1       5.983   5.877  -5.060  0.00  0.00     0.000 A 
ATOM      6  C6  BNZ d   1       5.966   5.522  -3.730  0.00  0.00     0.000 A 
ENDROOT
TORSDOF 0
ENDMDL
