MODEL 1
REMARK minimizedAffinity 5.1232543
REMARK minimizedRMSD -1
REMARK  0 active torsions:
REMARK  status: ('A' for Active; 'I' for Inactive)
ROOT
ATOM      1  C1  BNZ d   1      -6.000   4.329   1.700  0.00  0.00     0.000 A 
ATOM      2  C2  BNZ d   1      -5.022   4.056   2.620  0.00  0.00     0.000 A 
ATOM      3  C3  BNZ d   1      -3.785   3.634   2.221  0.00  0.00     0.000 A 
ATOM      4  C4  BNZ d   1      -3.539   3.446   0.909  0.00  0.00     0.000 A 
ATOM      5  C5  BNZ d   1      -4.518   3.707  -0.030  0.00  0.00     0.000 A 
ATOM      6  C6  BNZ d   1      -5.750   4.169   0.372  0.00  0.00     0.000 A 
ENDROOT
TORSDOF 0
ENDMDL
