MODEL 1
REMARK minimizedAffinity 4.03450108
REMARK minimizedRMSD -1
REMARK  0 active torsions:
REMARK  status: ('A' for Active; 'I' for Inactive)
ROOT
ATOM      1  C1  BNZ d   1      -5.996  -3.857  -5.995  0.00  0.00     0.000 A 
ATOM      2  C2  BNZ d   1      -5.954  -5.226  -5.980  0.00  0.00     0.000 A 
ATOM      3  C3  BNZ d   1      -4.762  -5.889  -5.901  0.00  0.00     0.000 A 
ATOM      4  C4  BNZ d   1      -3.612  -5.185  -5.879  0.00  0.00     0.000 A 
ATOM      5  C5  BNZ d   1      -3.637  -3.805  -5.903  0.00  0.00     0.000 A 
ATOM      6  C6  BNZ d   1      -4.841  -3.140  -5.943  0.00  0.00     0.000 A 
ENDROOT
TORSDOF 0
ENDMDL
