MODEL 1
REMARK minimizedAffinity 12.8224745
REMARK minimizedRMSD -1
REMARK  2 active torsions:
REMARK  status: ('A' for Active; 'I' for Inactive)
REMARK    1  A    between atoms: C2'_3  and  C1'_4 
REMARK    2  A    between atoms: C1'_4  and  C1_5 
ROOT
ATOM      1  C1  I4B d   1       1.714  -2.872   0.422  0.00  0.00    -0.075 A 
ATOM      2  C2  I4B d   1       0.411  -2.494   0.627  0.00  0.00     0.003 A 
ATOM      3  C3  I4B d   1       0.107  -1.437   1.520  0.00  0.00     0.002 A 
ATOM      4  C4  I4B d   1       1.126  -0.825   2.220  0.00  0.00    -0.004 A 
ATOM      5  C5  I4B d   1       2.449  -1.194   1.994  0.00  0.00     0.002 A 
ATOM      6  C6  I4B d   1       2.746  -2.216   1.081  0.00  0.00     0.003 A 
ENDROOT
BRANCH   1   7
ATOM      7  C1' I4B d   1       1.997  -4.013  -0.502  0.00  0.00     0.060 C 
BRANCH   7   8
ATOM      8  C2' I4B d   1       2.504  -5.173   0.330  0.00  0.00    -0.013 C 
ATOM      9  C4' I4B d   1       1.365  -5.998   0.867  0.00  0.00     0.013 C 
ATOM     10  C3' I4B d   1       3.411  -6.000  -0.533  0.00  0.00     0.013 C 
ENDBRANCH   7   8
ENDBRANCH   1   7
TORSDOF 2
ENDMDL
