MODEL 1
REMARK minimizedAffinity 11.3139219
REMARK minimizedRMSD -1
REMARK  2 active torsions:
REMARK  status: ('A' for Active; 'I' for Inactive)
REMARK    1  A    between atoms: C2'_3  and  C1'_4 
REMARK    2  A    between atoms: C1'_4  and  C1_5 
ROOT
ATOM      1  C1  I4B d   1       0.709  -2.042   1.512  0.00  0.00    -0.075 A 
ATOM      2  C2  I4B d   1       1.893  -1.378   1.716  0.00  0.00     0.003 A 
ATOM      3  C3  I4B d   1       3.117  -1.962   1.306  0.00  0.00     0.002 A 
ATOM      4  C4  I4B d   1       3.115  -3.223   0.746  0.00  0.00    -0.004 A 
ATOM      5  C5  I4B d   1       1.911  -3.884   0.519  0.00  0.00     0.002 A 
ATOM      6  C6  I4B d   1       0.699  -3.285   0.893  0.00  0.00     0.003 A 
ENDROOT
BRANCH   1   7
ATOM      7  C1' I4B d   1      -0.562  -1.411   1.987  0.00  0.00     0.060 C 
BRANCH   7   8
ATOM      8  C2' I4B d   1      -1.700  -2.359   1.669  0.00  0.00    -0.013 C 
ATOM      9  C4' I4B d   1      -2.237  -3.004   2.919  0.00  0.00     0.013 C 
ATOM     10  C3' I4B d   1      -2.768  -1.579   0.960  0.00  0.00     0.013 C 
ENDBRANCH   7   8
ENDBRANCH   1   7
TORSDOF 2
ENDMDL
