MODEL 1
REMARK minimizedAffinity 15.9425793
REMARK minimizedRMSD -1
REMARK  2 active torsions:
REMARK  status: ('A' for Active; 'I' for Inactive)
REMARK    1  A    between atoms: C2'_3  and  C1'_4 
REMARK    2  A    between atoms: C1'_4  and  C1_5 
ROOT
ATOM      1  C1  I4B d   1       0.746  -1.967   0.492  0.00  0.00    -0.075 A 
ATOM      2  C2  I4B d   1       1.482  -0.955   1.056  0.00  0.00     0.003 A 
ATOM      3  C3  I4B d   1       2.798  -1.203   1.517  0.00  0.00     0.002 A 
ATOM      4  C4  I4B d   1       3.316  -2.480   1.442  0.00  0.00    -0.004 A 
ATOM      5  C5  I4B d   1       2.576  -3.499   0.849  0.00  0.00     0.002 A 
ATOM      6  C6  I4B d   1       1.288  -3.239   0.360  0.00  0.00     0.003 A 
ENDROOT
BRANCH   1   7
ATOM      7  C1' I4B d   1      -0.652  -1.678   0.045  0.00  0.00     0.060 C 
BRANCH   7   8
ATOM      8  C2' I4B d   1      -0.576  -0.847  -1.219  0.00  0.00    -0.013 C 
ATOM      9  C4' I4B d   1       0.077  -1.616  -2.338  0.00  0.00     0.013 C 
ATOM     10  C3' I4B d   1      -1.970  -0.436  -1.588  0.00  0.00     0.013 C 
ENDBRANCH   7   8
ENDBRANCH   1   7
TORSDOF 2
ENDMDL
