MODEL 1
REMARK minimizedAffinity 6.87452221
REMARK minimizedRMSD -1
REMARK  2 active torsions:
REMARK  status: ('A' for Active; 'I' for Inactive)
REMARK    1  A    between atoms: C2'_3  and  C1'_4 
REMARK    2  A    between atoms: C1'_4  and  C1_5 
ROOT
ATOM      1  C1  I4B d   1       0.827  -2.451   0.936  0.00  0.00    -0.075 A 
ATOM      2  C2  I4B d   1       1.803  -1.680   1.518  0.00  0.00     0.003 A 
ATOM      3  C3  I4B d   1       3.130  -2.166   1.616  0.00  0.00     0.002 A 
ATOM      4  C4  I4B d   1       3.423  -3.438   1.169  0.00  0.00    -0.004 A 
ATOM      5  C5  I4B d   1       2.437  -4.208   0.559  0.00  0.00     0.002 A 
ATOM      6  C6  I4B d   1       1.134  -3.707   0.430  0.00  0.00     0.003 A 
ENDROOT
BRANCH   1   7
ATOM      7  C1' I4B d   1      -0.570  -1.920   0.879  0.00  0.00     0.060 C 
BRANCH   7   8
ATOM      8  C2' I4B d   1      -1.226  -2.184   2.219  0.00  0.00    -0.013 C 
ATOM      9  C4' I4B d   1      -1.548  -0.897   2.931  0.00  0.00     0.013 C 
ATOM     10  C3' I4B d   1      -2.464  -2.995   1.977  0.00  0.00     0.013 C 
ENDBRANCH   7   8
ENDBRANCH   1   7
TORSDOF 2
ENDMDL
