MODEL 1
REMARK minimizedAffinity 14.2668056
REMARK minimizedRMSD -1
REMARK  1 active torsions:
REMARK  status: ('A' for Active; 'I' for Inactive)
REMARK    1  A    between atoms: C1_2  and  C2_3 
ROOT
ATOM      1  C2  UNL d   1      -4.879  -0.093   2.705  0.00  0.00    -0.081 A 
ATOM      2  C3  UNL d   1      -4.908   0.410   4.011  0.00  0.00     0.006 A 
ATOM      3  C4  UNL d   1      -5.280  -0.411   5.078  0.00  0.00     0.002 A 
ATOM      4  C5  UNL d   1      -5.621  -1.750   4.858  0.00  0.00    -0.080 A 
ATOM      5  C6  UNL d   1      -5.993  -2.651   5.998  0.00  0.00     0.076 C 
ATOM      6  C7  UNL d   1      -5.609  -2.248   3.551  0.00  0.00     0.002 A 
ATOM      7  C8  UNL d   1      -5.238  -1.428   2.483  0.00  0.00     0.006 A 
ENDROOT
BRANCH   1   8
ATOM      8  C1  UNL d   1      -4.416   0.772   1.560  0.00  0.00     0.054 C 
ATOM      9  C   UNL d   1      -4.755   2.236   1.801  0.00  0.00     0.018 C 
ENDBRANCH   1   8
TORSDOF 1
ENDMDL
