MODEL 1
REMARK minimizedAffinity 10.0656776
REMARK minimizedRMSD -1
REMARK  1 active torsions:
REMARK  status: ('A' for Active; 'I' for Inactive)
REMARK    1  A    between atoms: C1_2  and  C2_3 
ROOT
ATOM      1  C2  UNL d   1      -4.317  -0.116   4.313  0.00  0.00    -0.081 A 
ATOM      2  C3  UNL d   1      -4.974  -1.199   4.908  0.00  0.00     0.006 A 
ATOM      3  C4  UNL d   1      -5.240  -2.357   4.174  0.00  0.00     0.002 A 
ATOM      4  C5  UNL d   1      -4.847  -2.454   2.835  0.00  0.00    -0.080 A 
ATOM      5  C6  UNL d   1      -5.099  -3.703   2.044  0.00  0.00     0.076 C 
ATOM      6  C7  UNL d   1      -4.205  -1.366   2.234  0.00  0.00     0.002 A 
ATOM      7  C8  UNL d   1      -3.940  -0.207   2.968  0.00  0.00     0.006 A 
ENDROOT
BRANCH   1   8
ATOM      8  C1  UNL d   1      -3.971   1.109   5.120  0.00  0.00     0.054 C 
ATOM      9  C   UNL d   1      -2.481   1.167   5.426  0.00  0.00     0.018 C 
ENDBRANCH   1   8
TORSDOF 1
ENDMDL
