MODEL 1
REMARK minimizedAffinity 13.3950701
REMARK minimizedRMSD -1
REMARK  1 active torsions:
REMARK  status: ('A' for Active; 'I' for Inactive)
REMARK    1  A    between atoms: C1_2  and  C2_3 
ROOT
ATOM      1  C2  UNL d   1      -0.189  -1.583   3.061  0.00  0.00    -0.081 A 
ATOM      2  C3  UNL d   1      -1.312  -1.256   2.292  0.00  0.00     0.006 A 
ATOM      3  C4  UNL d   1      -1.693  -2.062   1.216  0.00  0.00     0.002 A 
ATOM      4  C5  UNL d   1      -0.962  -3.211   0.896  0.00  0.00    -0.080 A 
ATOM      5  C6  UNL d   1      -1.377  -4.102  -0.237  0.00  0.00     0.076 C 
ATOM      6  C7  UNL d   1       0.171  -3.528   1.654  0.00  0.00     0.002 A 
ATOM      7  C8  UNL d   1       0.552  -2.723   2.729  0.00  0.00     0.006 A 
ENDROOT
BRANCH   1   8
ATOM      8  C1  UNL d   1       0.186  -0.752   4.261  0.00  0.00     0.054 C 
ATOM      9  C   UNL d   1      -1.043  -0.355   5.065  0.00  0.00     0.018 C 
ENDBRANCH   1   8
TORSDOF 1
ENDMDL
