MODEL 1
REMARK minimizedAffinity -3.54826832
REMARK minimizedRMSD -1
REMARK  1 active torsions:
REMARK  status: ('A' for Active; 'I' for Inactive)
REMARK    1  A    between atoms: C1_2  and  C2_3 
ROOT
ATOM      1  C2  UNL d   1       3.082  -3.669  -0.740  0.00  0.00    -0.081 A 
ATOM      2  C3  UNL d   1       2.789  -2.313  -0.929  0.00  0.00     0.006 A 
ATOM      3  C4  UNL d   1       1.732  -1.713  -0.240  0.00  0.00     0.002 A 
ATOM      4  C5  UNL d   1       0.957  -2.457   0.657  0.00  0.00    -0.080 A 
ATOM      5  C6  UNL d   1      -0.161  -1.818   1.426  0.00  0.00     0.076 C 
ATOM      6  C7  UNL d   1       1.239  -3.816   0.834  0.00  0.00     0.002 A 
ATOM      7  C8  UNL d   1       2.294  -4.416   0.144  0.00  0.00     0.006 A 
ENDROOT
BRANCH   1   8
ATOM      8  C1  UNL d   1       4.260  -4.303  -1.433  0.00  0.00     0.054 C 
ATOM      9  C   UNL d   1       5.439  -4.465  -0.484  0.00  0.00     0.018 C 
ENDBRANCH   1   8
TORSDOF 1
ENDMDL
