MODEL 1
REMARK minimizedAffinity 9.59071445
REMARK minimizedRMSD -1
REMARK  1 active torsions:
REMARK  status: ('A' for Active; 'I' for Inactive)
REMARK    1  A    between atoms: C1_2  and  C2_3 
ROOT
ATOM      1  C2  UNL d   1      -2.988  -1.957   1.510  0.00  0.00    -0.081 A 
ATOM      2  C3  UNL d   1      -2.191  -3.000   1.024  0.00  0.00     0.006 A 
ATOM      3  C4  UNL d   1      -0.800  -2.881   1.010  0.00  0.00     0.002 A 
ATOM      4  C5  UNL d   1      -0.182  -1.720   1.489  0.00  0.00    -0.080 A 
ATOM      5  C6  UNL d   1       1.312  -1.592   1.508  0.00  0.00     0.076 C 
ATOM      6  C7  UNL d   1      -0.979  -0.671   1.959  0.00  0.00     0.002 A 
ATOM      7  C8  UNL d   1      -2.370  -0.790   1.972  0.00  0.00     0.006 A 
ENDROOT
BRANCH   1   8
ATOM      8  C1  UNL d   1      -4.486  -2.108   1.587  0.00  0.00     0.054 C 
ATOM      9  C   UNL d   1      -4.885  -3.558   1.821  0.00  0.00     0.018 C 
ENDBRANCH   1   8
TORSDOF 1
ENDMDL
