MODEL 1
REMARK minimizedAffinity -2.34584403
REMARK minimizedRMSD -1
REMARK  1 active torsions:
REMARK  status: ('A' for Active; 'I' for Inactive)
REMARK    1  A    between atoms: C1_2  and  C2_3 
ROOT
ATOM      1  C2  UNL d   1       5.278  -4.793  -0.681  0.00  0.00    -0.081 A 
ATOM      2  C3  UNL d   1       3.929  -4.507  -0.437  0.00  0.00     0.006 A 
ATOM      3  C4  UNL d   1       3.310  -3.423  -1.065  0.00  0.00     0.002 A 
ATOM      4  C5  UNL d   1       4.027  -2.612  -1.951  0.00  0.00    -0.080 A 
ATOM      5  C6  UNL d   1       3.367  -1.463  -2.655  0.00  0.00     0.076 C 
ATOM      6  C7  UNL d   1       5.380  -2.887  -2.182  0.00  0.00     0.002 A 
ATOM      7  C8  UNL d   1       5.999  -3.970  -1.554  0.00  0.00     0.006 A 
ENDROOT
BRANCH   1   8
ATOM      8  C1  UNL d   1       5.930  -5.999  -0.056  0.00  0.00     0.054 C 
ATOM      9  C   UNL d   1       5.999  -5.868   1.459  0.00  0.00     0.018 C 
ENDBRANCH   1   8
TORSDOF 1
ENDMDL
