MODEL 1
REMARK minimizedAffinity -4.70338774
REMARK minimizedRMSD -1
REMARK  1 active torsions:
REMARK  status: ('A' for Active; 'I' for Inactive)
REMARK    1  A    between atoms: C1_2  and  C2_3 
ROOT
ATOM      1  C2  UNL d   1       2.224  -3.059  -0.152  0.00  0.00    -0.081 A 
ATOM      2  C3  UNL d   1       2.625  -2.639  -1.426  0.00  0.00     0.006 A 
ATOM      3  C4  UNL d   1       3.852  -3.050  -1.954  0.00  0.00     0.002 A 
ATOM      4  C5  UNL d   1       4.693  -3.893  -1.221  0.00  0.00    -0.080 A 
ATOM      5  C6  UNL d   1       5.998  -4.366  -1.788  0.00  0.00     0.076 C 
ATOM      6  C7  UNL d   1       4.300  -4.299   0.059  0.00  0.00     0.002 A 
ATOM      7  C8  UNL d   1       3.075  -3.888   0.588  0.00  0.00     0.006 A 
ENDROOT
BRANCH   1   8
ATOM      8  C1  UNL d   1       0.874  -2.670   0.394  0.00  0.00     0.054 C 
ATOM      9  C   UNL d   1      -0.066  -3.866   0.450  0.00  0.00     0.018 C 
ENDBRANCH   1   8
TORSDOF 1
ENDMDL
