MODEL 1
REMARK minimizedAffinity -4.67989302
REMARK minimizedRMSD -1
REMARK  1 active torsions:
REMARK  status: ('A' for Active; 'I' for Inactive)
REMARK    1  A    between atoms: C1_2  and  C2_3 
ROOT
ATOM      1  C2  UNL d   1       2.637  -3.437  -0.243  0.00  0.00    -0.081 A 
ATOM      2  C3  UNL d   1       3.525  -3.109  -1.276  0.00  0.00     0.006 A 
ATOM      3  C4  UNL d   1       4.621  -3.929  -1.554  0.00  0.00     0.002 A 
ATOM      4  C5  UNL d   1       4.844  -5.094  -0.811  0.00  0.00    -0.080 A 
ATOM      5  C6  UNL d   1       5.999  -5.998  -1.119  0.00  0.00     0.076 C 
ATOM      6  C7  UNL d   1       3.967  -5.412   0.232  0.00  0.00     0.002 A 
ATOM      7  C8  UNL d   1       2.871  -4.592   0.511  0.00  0.00     0.006 A 
ENDROOT
BRANCH   1   8
ATOM      8  C1  UNL d   1       1.418  -2.590   0.017  0.00  0.00     0.054 C 
ATOM      9  C   UNL d   1       0.567  -3.174   1.136  0.00  0.00     0.018 C 
ENDBRANCH   1   8
TORSDOF 1
ENDMDL
