MODEL 1
REMARK minimizedAffinity -1.83895552
REMARK minimizedRMSD -1
REMARK  1 active torsions:
REMARK  status: ('A' for Active; 'I' for Inactive)
REMARK    1  A    between atoms: C1_2  and  C2_3 
ROOT
ATOM      1  C2  UNL d   1       2.480  -3.180  -0.030  0.00  0.00    -0.081 A 
ATOM      2  C3  UNL d   1       3.045  -3.130  -1.311  0.00  0.00     0.006 A 
ATOM      3  C4  UNL d   1       4.191  -3.872  -1.608  0.00  0.00     0.002 A 
ATOM      4  C5  UNL d   1       4.786  -4.680  -0.634  0.00  0.00    -0.080 A 
ATOM      5  C6  UNL d   1       5.999  -5.505  -0.949  0.00  0.00     0.076 C 
ATOM      6  C7  UNL d   1       4.232  -4.716   0.650  0.00  0.00     0.002 A 
ATOM      7  C8  UNL d   1       3.087  -3.975   0.948  0.00  0.00     0.006 A 
ENDROOT
BRANCH   1   8
ATOM      8  C1  UNL d   1       1.208  -2.432   0.275  0.00  0.00     0.054 C 
ATOM      9  C   UNL d   1       0.517  -2.996   1.509  0.00  0.00     0.018 C 
ENDBRANCH   1   8
TORSDOF 1
ENDMDL
