MODEL 1
REMARK minimizedAffinity 4.07127953
REMARK minimizedRMSD -1
REMARK  1 active torsions:
REMARK  status: ('A' for Active; 'I' for Inactive)
REMARK    1  A    between atoms: C1_2  and  C2_3 
ROOT
ATOM      1  C2  UNL d   1      -2.051  -0.427   1.027  0.00  0.00    -0.081 A 
ATOM      2  C3  UNL d   1      -1.690  -1.225   2.120  0.00  0.00     0.006 A 
ATOM      3  C4  UNL d   1      -1.058  -2.455   1.921  0.00  0.00     0.002 A 
ATOM      4  C5  UNL d   1      -0.770  -2.903   0.627  0.00  0.00    -0.080 A 
ATOM      5  C6  UNL d   1      -0.065  -4.208   0.401  0.00  0.00     0.076 C 
ATOM      6  C7  UNL d   1      -1.147  -2.115  -0.465  0.00  0.00     0.002 A 
ATOM      7  C8  UNL d   1      -1.779  -0.885  -0.267  0.00  0.00     0.006 A 
ENDROOT
BRANCH   1   8
ATOM      8  C1  UNL d   1      -2.674   0.929   1.241  0.00  0.00     0.054 C 
ATOM      9  C   UNL d   1      -3.259   1.479  -0.052  0.00  0.00     0.018 C 
ENDBRANCH   1   8
TORSDOF 1
ENDMDL
