MODEL 1
REMARK minimizedAffinity 12.6173868
REMARK minimizedRMSD -1
REMARK  1 active torsions:
REMARK  status: ('A' for Active; 'I' for Inactive)
REMARK    1  A    between atoms: C1_2  and  C2_3 
ROOT
ATOM      1  C2  UNL d   1      -3.679   2.974  -0.019  0.00  0.00    -0.081 A 
ATOM      2  C3  UNL d   1      -2.771   2.908   1.044  0.00  0.00     0.006 A 
ATOM      3  C4  UNL d   1      -2.544   1.699   1.708  0.00  0.00     0.002 A 
ATOM      4  C5  UNL d   1      -3.215   0.537   1.314  0.00  0.00    -0.080 A 
ATOM      5  C6  UNL d   1      -2.958  -0.773   1.998  0.00  0.00     0.076 C 
ATOM      6  C7  UNL d   1      -4.135   0.606   0.263  0.00  0.00     0.002 A 
ATOM      7  C8  UNL d   1      -4.363   1.814  -0.401  0.00  0.00     0.006 A 
ENDROOT
BRANCH   1   8
ATOM      8  C1  UNL d   1      -3.878   4.261  -0.778  0.00  0.00     0.054 C 
ATOM      9  C   UNL d   1      -2.660   5.166  -0.660  0.00  0.00     0.018 C 
ENDBRANCH   1   8
TORSDOF 1
ENDMDL
