MODEL 1
REMARK minimizedAffinity 8.86405563
REMARK minimizedRMSD -1
REMARK  1 active torsions:
REMARK  status: ('A' for Active; 'I' for Inactive)
REMARK    1  A    between atoms: C1_2  and  C2_3 
ROOT
ATOM      1  C2  UNL d   1       0.107   4.695  -3.788  0.00  0.00    -0.081 A 
ATOM      2  C3  UNL d   1       0.971   3.595  -3.848  0.00  0.00     0.006 A 
ATOM      3  C4  UNL d   1       1.526   3.066  -2.680  0.00  0.00     0.002 A 
ATOM      4  C5  UNL d   1       1.221   3.623  -1.434  0.00  0.00    -0.080 A 
ATOM      5  C6  UNL d   1       1.786   3.046  -0.170  0.00  0.00     0.076 C 
ATOM      6  C7  UNL d   1       0.371   4.733  -1.375  0.00  0.00     0.002 A 
ATOM      7  C8  UNL d   1      -0.184   5.262  -2.543  0.00  0.00     0.006 A 
ENDROOT
BRANCH   1   8
ATOM      8  C1  UNL d   1      -0.545   5.227  -5.039  0.00  0.00     0.054 C 
ATOM      9  C   UNL d   1       0.449   6.000  -5.895  0.00  0.00     0.018 C 
ENDBRANCH   1   8
TORSDOF 1
ENDMDL
