MODEL 1
REMARK minimizedAffinity 3.5888896
REMARK minimizedRMSD -1
REMARK  1 active torsions:
REMARK  status: ('A' for Active; 'I' for Inactive)
REMARK    1  A    between atoms: C1_2  and  C2_3 
ROOT
ATOM      1  C2  UNL d   1       3.638   5.346   1.083  0.00  0.00    -0.081 A 
ATOM      2  C3  UNL d   1       2.663   6.000   1.846  0.00  0.00     0.006 A 
ATOM      3  C4  UNL d   1       1.308   5.715   1.660  0.00  0.00     0.002 A 
ATOM      4  C5  UNL d   1       0.906   4.766   0.713  0.00  0.00    -0.080 A 
ATOM      5  C6  UNL d   1      -0.543   4.428   0.524  0.00  0.00     0.076 C 
ATOM      6  C7  UNL d   1       1.879   4.125  -0.061  0.00  0.00     0.002 A 
ATOM      7  C8  UNL d   1       3.234   4.410   0.125  0.00  0.00     0.006 A 
ENDROOT
BRANCH   1   8
ATOM      8  C1  UNL d   1       5.102   5.604   1.327  0.00  0.00     0.054 C 
ATOM      9  C   UNL d   1       5.816   5.999   0.042  0.00  0.00     0.018 C 
ENDBRANCH   1   8
TORSDOF 1
ENDMDL
