MODEL 1
REMARK minimizedAffinity 6.77562428
REMARK minimizedRMSD -1
REMARK  1 active torsions:
REMARK  status: ('A' for Active; 'I' for Inactive)
REMARK    1  A    between atoms: C1_2  and  C2_3 
ROOT
ATOM      1  C2  UNL d   1       3.757   4.961   1.186  0.00  0.00    -0.081 A 
ATOM      2  C3  UNL d   1       3.326   3.642   0.995  0.00  0.00     0.006 A 
ATOM      3  C4  UNL d   1       1.989   3.369   0.700  0.00  0.00     0.002 A 
ATOM      4  C5  UNL d   1       1.061   4.410   0.583  0.00  0.00    -0.080 A 
ATOM      5  C6  UNL d   1      -0.372   4.133   0.236  0.00  0.00     0.076 C 
ATOM      6  C7  UNL d   1       1.487   5.726   0.791  0.00  0.00     0.002 A 
ATOM      7  C8  UNL d   1       2.824   5.999   1.087  0.00  0.00     0.006 A 
ENDROOT
BRANCH   1   8
ATOM      8  C1  UNL d   1       5.211   5.263   1.441  0.00  0.00     0.054 C 
ATOM      9  C   UNL d   1       5.837   6.000   0.266  0.00  0.00     0.018 C 
ENDBRANCH   1   8
TORSDOF 1
ENDMDL
