MODEL 1
REMARK minimizedAffinity -5.07188892
REMARK minimizedRMSD -1
REMARK  0 active torsions:
REMARK  status: ('A' for Active; 'I' for Inactive)
ROOT
ATOM      1  O1  BZF d   1       1.052  -1.775  -0.443  0.00  0.00    -0.204 OA
ATOM      2  C2  BZF d   1       2.272  -1.394  -0.966  0.00  0.00     0.174 A 
ATOM      3  C3  BZF d   1       2.527  -0.098  -0.689  0.00  0.00    -0.012 A 
ATOM      4  C3A BZF d   1       1.437   0.332   0.132  0.00  0.00    -0.107 A 
ATOM      5  C4  BZF d   1       1.129   1.517   0.738  0.00  0.00     0.055 A 
ATOM      6  C5  BZF d   1      -0.048   1.629   1.409  0.00  0.00    -0.016 A 
ATOM      7  C6  BZF d   1      -0.941   0.581   1.488  0.00  0.00     0.022 A 
ATOM      8  C7  BZF d   1      -0.677  -0.615   0.907  0.00  0.00     0.029 A 
ATOM      9  C7A BZF d   1       0.526  -0.742   0.257  0.00  0.00     0.058 A 
ENDROOT
TORSDOF 0
ENDMDL
