MODEL 1
REMARK minimizedAffinity -1.59580696
REMARK minimizedRMSD -1
REMARK  0 active torsions:
REMARK  status: ('A' for Active; 'I' for Inactive)
ROOT
ATOM      1  O1  BZF d   1       1.981  -0.276  -0.690  0.00  0.00    -0.204 OA
ATOM      2  C2  BZF d   1       1.250  -1.230  -1.371  0.00  0.00     0.174 A 
ATOM      3  C3  BZF d   1      -0.043  -1.204  -0.989  0.00  0.00    -0.012 A 
ATOM      4  C3A BZF d   1      -0.144  -0.107  -0.076  0.00  0.00    -0.107 A 
ATOM      5  C4  BZF d   1      -1.180   0.434   0.630  0.00  0.00     0.055 A 
ATOM      6  C5  BZF d   1      -0.930   1.456   1.490  0.00  0.00    -0.016 A 
ATOM      7  C6  BZF d   1       0.342   1.957   1.672  0.00  0.00     0.022 A 
ATOM      8  C7  BZF d   1       1.401   1.456   0.990  0.00  0.00     0.029 A 
ATOM      9  C7A BZF d   1       1.146   0.445   0.096  0.00  0.00     0.058 A 
ENDROOT
TORSDOF 0
ENDMDL
