MODEL 1
REMARK minimizedAffinity -2.88057232
REMARK minimizedRMSD -1
REMARK  0 active torsions:
REMARK  status: ('A' for Active; 'I' for Inactive)
ROOT
ATOM      1  O1  BZF d   1       0.601   1.713   2.045  0.00  0.00    -0.204 OA
ATOM      2  C2  BZF d   1       1.430   2.636   1.436  0.00  0.00     0.174 A 
ATOM      3  C3  BZF d   1       1.623   2.322   0.139  0.00  0.00    -0.012 A 
ATOM      4  C3A BZF d   1       0.795   1.181  -0.100  0.00  0.00    -0.107 A 
ATOM      5  C4  BZF d   1       0.544   0.417  -1.204  0.00  0.00     0.055 A 
ATOM      6  C5  BZF d   1      -0.260  -0.672  -1.085  0.00  0.00    -0.016 A 
ATOM      7  C6  BZF d   1      -0.825  -1.029   0.122  0.00  0.00     0.022 A 
ATOM      8  C7  BZF d   1      -0.609  -0.300   1.243  0.00  0.00     0.029 A 
ATOM      9  C7A BZF d   1       0.176   0.820   1.119  0.00  0.00     0.058 A 
ENDROOT
TORSDOF 0
ENDMDL
