MODEL 1
REMARK minimizedAffinity -5.89582872
REMARK minimizedRMSD -1
REMARK  0 active torsions:
REMARK  status: ('A' for Active; 'I' for Inactive)
ROOT
ATOM      1  O1  BZF d   1       1.876   1.826   0.333  0.00  0.00    -0.204 OA
ATOM      2  C2  BZF d   1       1.304   2.618   1.310  0.00  0.00     0.174 A 
ATOM      3  C3  BZF d   1       0.127   2.100   1.717  0.00  0.00    -0.012 A 
ATOM      4  C3A BZF d   1      -0.003   0.861   1.014  0.00  0.00    -0.107 A 
ATOM      5  C4  BZF d   1      -0.953  -0.120   1.007  0.00  0.00     0.055 A 
ATOM      6  C5  BZF d   1      -0.816  -1.166   0.151  0.00  0.00    -0.016 A 
ATOM      7  C6  BZF d   1       0.255  -1.262  -0.713  0.00  0.00     0.022 A 
ATOM      8  C7  BZF d   1       1.226  -0.316  -0.739  0.00  0.00     0.029 A 
ATOM      9  C7A BZF d   1       1.107   0.726   0.147  0.00  0.00     0.058 A 
ENDROOT
TORSDOF 0
ENDMDL
