MODEL 1
REMARK minimizedAffinity -2.88357019
REMARK minimizedRMSD -1
REMARK  0 active torsions:
REMARK  status: ('A' for Active; 'I' for Inactive)
ROOT
ATOM      1  O1  BZF d   1      -0.038   2.423   2.011  0.00  0.00    -0.204 OA
ATOM      2  C2  BZF d   1       1.012   3.151   1.486  0.00  0.00     0.174 A 
ATOM      3  C3  BZF d   1       1.548   2.520   0.421  0.00  0.00    -0.012 A 
ATOM      4  C3A BZF d   1       0.725   1.367   0.215  0.00  0.00    -0.107 A 
ATOM      5  C4  BZF d   1       0.741   0.355  -0.702  0.00  0.00     0.055 A 
ATOM      6  C5  BZF d   1      -0.158  -0.657  -0.584  0.00  0.00    -0.016 A 
ATOM      7  C6  BZF d   1      -1.081  -0.693   0.441  0.00  0.00     0.022 A 
ATOM      8  C7  BZF d   1      -1.138   0.291   1.372  0.00  0.00     0.029 A 
ATOM      9  C7A BZF d   1      -0.253   1.333   1.235  0.00  0.00     0.058 A 
ENDROOT
TORSDOF 0
ENDMDL
