MODEL 1
REMARK minimizedAffinity -5.36334038
REMARK minimizedRMSD -1
REMARK  0 active torsions:
REMARK  status: ('A' for Active; 'I' for Inactive)
ROOT
ATOM      1  O1  BZF d   1      -1.095  -0.585   0.044  0.00  0.00    -0.204 OA
ATOM      2  C2  BZF d   1      -0.315  -0.642  -1.095  0.00  0.00     0.174 A 
ATOM      3  C3  BZF d   1       0.543   0.398  -1.139  0.00  0.00    -0.012 A 
ATOM      4  C3A BZF d   1       0.348   1.100   0.092  0.00  0.00    -0.107 A 
ATOM      5  C4  BZF d   1       0.921   2.211   0.640  0.00  0.00     0.055 A 
ATOM      6  C5  BZF d   1       0.452   2.679   1.827  0.00  0.00    -0.016 A 
ATOM      7  C6  BZF d   1      -0.590   2.064   2.489  0.00  0.00     0.022 A 
ATOM      8  C7  BZF d   1      -1.187   0.956   1.987  0.00  0.00     0.029 A 
ATOM      9  C7A BZF d   1      -0.694   0.461   0.804  0.00  0.00     0.058 A 
ENDROOT
TORSDOF 0
ENDMDL
