MODEL 1
REMARK minimizedAffinity -2.56042266
REMARK minimizedRMSD -1
REMARK  0 active torsions:
REMARK  status: ('A' for Active; 'I' for Inactive)
ROOT
ATOM      1  O1  BZF d   1       0.537   2.416   2.302  0.00  0.00    -0.204 OA
ATOM      2  C2  BZF d   1       1.529   3.050   1.580  0.00  0.00     0.174 A 
ATOM      3  C3  BZF d   1       1.731   2.433   0.398  0.00  0.00    -0.012 A 
ATOM      4  C3A BZF d   1       0.742   1.400   0.341  0.00  0.00    -0.107 A 
ATOM      5  C4  BZF d   1       0.425   0.455  -0.593  0.00  0.00     0.055 A 
ATOM      6  C5  BZF d   1      -0.548  -0.451  -0.312  0.00  0.00    -0.016 A 
ATOM      7  C6  BZF d   1      -1.218  -0.446   0.894  0.00  0.00     0.022 A 
ATOM      8  C7  BZF d   1      -0.941   0.474   1.850  0.00  0.00     0.029 A 
ATOM      9  C7A BZF d   1       0.018   1.412   1.555  0.00  0.00     0.058 A 
ENDROOT
TORSDOF 0
ENDMDL
