MODEL 1
REMARK minimizedAffinity -2.10578322
REMARK minimizedRMSD -1
REMARK  0 active torsions:
REMARK  status: ('A' for Active; 'I' for Inactive)
ROOT
ATOM      1  O1  BZF d   1      -0.653   1.140   1.033  0.00  0.00    -0.204 OA
ATOM      2  C2  BZF d   1       0.032   2.266   1.447  0.00  0.00     0.174 A 
ATOM      3  C3  BZF d   1       1.319   2.217   1.049  0.00  0.00    -0.012 A 
ATOM      4  C3A BZF d   1       1.425   1.026   0.263  0.00  0.00    -0.107 A 
ATOM      5  C4  BZF d   1       2.452   0.440  -0.420  0.00  0.00     0.055 A 
ATOM      6  C5  BZF d   1       2.244  -0.759  -1.025  0.00  0.00    -0.016 A 
ATOM      7  C6  BZF d   1       1.024  -1.402  -0.963  0.00  0.00     0.022 A 
ATOM      8  C7  BZF d   1      -0.026  -0.857  -0.302  0.00  0.00     0.029 A 
ATOM      9  C7A BZF d   1       0.172   0.370   0.283  0.00  0.00     0.058 A 
ENDROOT
TORSDOF 0
ENDMDL
