MODEL 1
REMARK minimizedAffinity -4.79199505
REMARK minimizedRMSD -1
REMARK  0 active torsions:
REMARK  status: ('A' for Active; 'I' for Inactive)
ROOT
ATOM      1  O1  BZF d   1       1.603  -0.323  -0.638  0.00  0.00    -0.204 OA
ATOM      2  C2  BZF d   1       0.723  -1.388  -0.637  0.00  0.00     0.174 A 
ATOM      3  C3  BZF d   1      -0.383  -1.094   0.076  0.00  0.00    -0.012 A 
ATOM      4  C3A BZF d   1      -0.223   0.271   0.473  0.00  0.00    -0.107 A 
ATOM      5  C4  BZF d   1      -0.997   1.138   1.190  0.00  0.00     0.055 A 
ATOM      6  C5  BZF d   1      -0.519   2.380   1.464  0.00  0.00    -0.016 A 
ATOM      7  C6  BZF d   1       0.730   2.786   1.042  0.00  0.00     0.022 A 
ATOM      8  C7  BZF d   1       1.533   1.964   0.323  0.00  0.00     0.029 A 
ATOM      9  C7A BZF d   1       1.039   0.719   0.017  0.00  0.00     0.058 A 
ENDROOT
TORSDOF 0
ENDMDL
