MODEL 1
REMARK minimizedAffinity -4.98005247
REMARK minimizedRMSD -1
REMARK  0 active torsions:
REMARK  status: ('A' for Active; 'I' for Inactive)
ROOT
ATOM      1  O1  BZF d   1       0.675  -1.118  -0.173  0.00  0.00    -0.204 OA
ATOM      2  C2  BZF d   1       1.815  -0.795  -0.882  0.00  0.00     0.174 A 
ATOM      3  C3  BZF d   1       2.084   0.522  -0.783  0.00  0.00    -0.012 A 
ATOM      4  C3A BZF d   1       1.099   1.041   0.116  0.00  0.00    -0.107 A 
ATOM      5  C4  BZF d   1       0.852   2.284   0.623  0.00  0.00     0.055 A 
ATOM      6  C5  BZF d   1      -0.233   2.470   1.420  0.00  0.00    -0.016 A 
ATOM      7  C6  BZF d   1      -1.095   1.436   1.725  0.00  0.00     0.022 A 
ATOM      8  C7  BZF d   1      -0.889   0.184   1.249  0.00  0.00     0.029 A 
ATOM      9  C7A BZF d   1       0.226  -0.014   0.471  0.00  0.00     0.058 A 
ENDROOT
TORSDOF 0
ENDMDL
