MODEL 1
REMARK minimizedAffinity -2.34837866
REMARK minimizedRMSD -1
REMARK  0 active torsions:
REMARK  status: ('A' for Active; 'I' for Inactive)
ROOT
ATOM      1  O1  BZF d   1      -0.682   0.887  -1.027  0.00  0.00    -0.204 OA
ATOM      2  C2  BZF d   1       0.009   0.289   0.009  0.00  0.00     0.174 A 
ATOM      3  C3  BZF d   1      -0.242  -1.035   0.050  0.00  0.00    -0.012 A 
ATOM      4  C3A BZF d   1      -1.074  -1.296  -1.085  0.00  0.00    -0.107 A 
ATOM      5  C4  BZF d   1      -1.642  -2.429  -1.592  0.00  0.00     0.055 A 
ATOM      6  C5  BZF d   1      -2.459  -2.332  -2.674  0.00  0.00    -0.016 A 
ATOM      7  C6  BZF d   1      -2.734  -1.118  -3.269  0.00  0.00     0.022 A 
ATOM      8  C7  BZF d   1      -2.190   0.033  -2.804  0.00  0.00     0.029 A 
ATOM      9  C7A BZF d   1      -1.337  -0.066  -1.732  0.00  0.00     0.058 A 
ENDROOT
TORSDOF 0
ENDMDL
