MODEL 1
REMARK minimizedAffinity -2.68900919
REMARK minimizedRMSD -1
REMARK  0 active torsions:
REMARK  status: ('A' for Active; 'I' for Inactive)
ROOT
ATOM      1  O1  BZF d   1      -2.122  -0.463  -1.172  0.00  0.00    -0.204 OA
ATOM      2  C2  BZF d   1      -1.468  -1.250  -2.101  0.00  0.00     0.174 A 
ATOM      3  C3  BZF d   1      -0.131  -1.123  -1.979  0.00  0.00    -0.012 A 
ATOM      4  C3A BZF d   1       0.065  -0.270  -0.847  0.00  0.00    -0.107 A 
ATOM      5  C4  BZF d   1       1.175   0.214  -0.217  0.00  0.00     0.055 A 
ATOM      6  C5  BZF d   1       1.022   1.083   0.817  0.00  0.00    -0.016 A 
ATOM      7  C6  BZF d   1      -0.224   1.494   1.242  0.00  0.00     0.022 A 
ATOM      8  C7  BZF d   1      -1.355   1.037   0.651  0.00  0.00     0.029 A 
ATOM      9  C7A BZF d   1      -1.205   0.133  -0.372  0.00  0.00     0.058 A 
ENDROOT
TORSDOF 0
ENDMDL
