MODEL 1
REMARK minimizedAffinity -4.75123644
REMARK minimizedRMSD -1
REMARK  0 active torsions:
REMARK  status: ('A' for Active; 'I' for Inactive)
ROOT
ATOM      1  O1  BZF d   1      -0.850  -0.561   1.196  0.00  0.00    -0.204 OA
ATOM      2  C2  BZF d   1      -0.819  -1.196  -0.031  0.00  0.00     0.174 A 
ATOM      3  C3  BZF d   1      -0.227  -0.416  -0.958  0.00  0.00    -0.012 A 
ATOM      4  C3A BZF d   1       0.217   0.744  -0.247  0.00  0.00    -0.107 A 
ATOM      5  C4  BZF d   1       0.888   1.873  -0.620  0.00  0.00     0.055 A 
ATOM      6  C5  BZF d   1       1.103   2.848   0.303  0.00  0.00    -0.016 A 
ATOM      7  C6  BZF d   1       0.656   2.729   1.602  0.00  0.00     0.022 A 
ATOM      8  C7  BZF d   1      -0.010   1.625   2.020  0.00  0.00     0.029 A 
ATOM      9  C7A BZF d   1      -0.200   0.624   1.099  0.00  0.00     0.058 A 
ENDROOT
TORSDOF 0
ENDMDL
