MODEL 1
REMARK minimizedAffinity -6.64255857
REMARK minimizedRMSD -1
REMARK  0 active torsions:
REMARK  status: ('A' for Active; 'I' for Inactive)
ROOT
ATOM      1  O1  BZF d   1       1.012  -0.578  -0.271  0.00  0.00    -0.204 OA
ATOM      2  C2  BZF d   1      -0.245  -0.778   0.265  0.00  0.00     0.174 A 
ATOM      3  C3  BZF d   1      -0.555   0.201   1.139  0.00  0.00    -0.012 A 
ATOM      4  C3A BZF d   1       0.542   1.118   1.081  0.00  0.00    -0.107 A 
ATOM      5  C4  BZF d   1       0.813   2.300   1.709  0.00  0.00     0.055 A 
ATOM      6  C5  BZF d   1       2.006   2.909   1.485  0.00  0.00    -0.016 A 
ATOM      7  C6  BZF d   1       2.954   2.362   0.645  0.00  0.00     0.022 A 
ATOM      8  C7  BZF d   1       2.730   1.194  -0.004  0.00  0.00     0.029 A 
ATOM      9  C7A BZF d   1       1.511   0.593   0.194  0.00  0.00     0.058 A 
ENDROOT
TORSDOF 0
ENDMDL
