MODEL 1
REMARK minimizedAffinity -3.97064042
REMARK minimizedRMSD -1
REMARK  0 active torsions:
REMARK  status: ('A' for Active; 'I' for Inactive)
ROOT
ATOM      1  O1  BZF d   1       2.228   1.767   0.576  0.00  0.00    -0.204 OA
ATOM      2  C2  BZF d   1       1.672   2.941   1.047  0.00  0.00     0.174 A 
ATOM      3  C3  BZF d   1       0.330   2.840   1.120  0.00  0.00    -0.012 A 
ATOM      4  C3A BZF d   1       0.034   1.489   0.753  0.00  0.00    -0.107 A 
ATOM      5  C4  BZF d   1      -1.127   0.776   0.651  0.00  0.00     0.055 A 
ATOM      6  C5  BZF d   1      -1.079  -0.503   0.196  0.00  0.00    -0.016 A 
ATOM      7  C6  BZF d   1       0.110  -1.099  -0.170  0.00  0.00     0.022 A 
ATOM      8  C7  BZF d   1       1.288  -0.434  -0.082  0.00  0.00     0.029 A 
ATOM      9  C7A BZF d   1       1.246   0.848   0.409  0.00  0.00     0.058 A 
ENDROOT
TORSDOF 0
ENDMDL
