MODEL 1
REMARK minimizedAffinity -4.92880344
REMARK minimizedRMSD -1
REMARK  0 active torsions:
REMARK  status: ('A' for Active; 'I' for Inactive)
ROOT
ATOM      1  O1  BZF d   1       1.045  -0.866  -0.620  0.00  0.00    -0.204 OA
ATOM      2  C2  BZF d   1       2.321  -0.533  -1.030  0.00  0.00     0.174 A 
ATOM      3  C3  BZF d   1       2.661   0.695  -0.586  0.00  0.00    -0.012 A 
ATOM      4  C3A BZF d   1       1.561   1.119   0.225  0.00  0.00    -0.107 A 
ATOM      5  C4  BZF d   1       1.312   2.247   0.954  0.00  0.00     0.055 A 
ATOM      6  C5  BZF d   1       0.110   2.381   1.573  0.00  0.00    -0.016 A 
ATOM      7  C6  BZF d   1      -0.867   1.411   1.480  0.00  0.00     0.022 A 
ATOM      8  C7  BZF d   1      -0.665   0.273   0.772  0.00  0.00     0.029 A 
ATOM      9  C7A BZF d   1       0.562   0.120   0.173  0.00  0.00     0.058 A 
ENDROOT
TORSDOF 0
ENDMDL
