MODEL 1
REMARK minimizedAffinity -0.732762456
REMARK minimizedRMSD -1
REMARK  0 active torsions:
REMARK  status: ('A' for Active; 'I' for Inactive)
ROOT
ATOM      1  C   UNL d   1       0.750  -0.005   2.800  0.00  0.00    -0.002 A 
ATOM      2  C1  UNL d   1      -0.628  -0.156   2.872  0.00  0.00     0.010 A 
ATOM      3  C2  UNL d   1      -1.389  -0.289   1.709  0.00  0.00     0.041 A 
ATOM      4  C3  UNL d   1      -0.736  -0.270   0.461  0.00  0.00    -0.075 A 
ATOM      5  S   UNL d   1      -1.464  -0.417  -1.095  0.00  0.00     0.015 SA
ATOM      6  C4  UNL d   1       0.037  -0.284  -1.892  0.00  0.00     0.022 A 
ATOM      7  C5  UNL d   1       1.078  -0.130  -1.007  0.00  0.00     0.026 A 
ATOM      8  C6  UNL d   1       0.650  -0.120   0.363  0.00  0.00    -0.082 A 
ATOM      9  C7  UNL d   1       1.394   0.014   1.560  0.00  0.00     0.045 A 
ENDROOT
TORSDOF 0
ENDMDL
