MODEL 1
REMARK minimizedAffinity -3.85466123
REMARK minimizedRMSD -1
REMARK  0 active torsions:
REMARK  status: ('A' for Active; 'I' for Inactive)
ROOT
ATOM      1  C   UNL d   1       1.114  -1.699  -3.801  0.00  0.00    -0.002 A 
ATOM      2  C1  UNL d   1       1.657  -0.428  -3.917  0.00  0.00     0.010 A 
ATOM      3  C2  UNL d   1       1.569   0.482  -2.862  0.00  0.00     0.041 A 
ATOM      4  C3  UNL d   1       0.921   0.088  -1.675  0.00  0.00    -0.075 A 
ATOM      5  S   UNL d   1       0.694   1.033  -0.251  0.00  0.00     0.015 SA
ATOM      6  C4  UNL d   1      -0.128  -0.229   0.546  0.00  0.00     0.022 A 
ATOM      7  C5  UNL d   1      -0.236  -1.351  -0.240  0.00  0.00     0.026 A 
ATOM      8  C6  UNL d   1       0.367  -1.188  -1.533  0.00  0.00    -0.082 A 
ATOM      9  C7  UNL d   1       0.472  -2.087  -2.621  0.00  0.00     0.045 A 
ENDROOT
TORSDOF 0
ENDMDL
