MODEL 1
REMARK minimizedAffinity -0.427891314
REMARK minimizedRMSD -1
REMARK  0 active torsions:
REMARK  status: ('A' for Active; 'I' for Inactive)
ROOT
ATOM      1  C   UNL d   1      -0.445   0.180   0.909  0.00  0.00    -0.002 A 
ATOM      2  C1  UNL d   1       0.756  -0.467   1.163  0.00  0.00     0.010 A 
ATOM      3  C2  UNL d   1       1.537  -0.952   0.113  0.00  0.00     0.041 A 
ATOM      4  C3  UNL d   1       1.088  -0.772  -1.210  0.00  0.00    -0.075 A 
ATOM      5  S   UNL d   1       1.880  -1.282  -2.655  0.00  0.00     0.015 SA
ATOM      6  C4  UNL d   1       0.643  -0.651  -3.643  0.00  0.00     0.022 A 
ATOM      7  C5  UNL d   1      -0.357  -0.063  -2.906  0.00  0.00     0.026 A 
ATOM      8  C6  UNL d   1      -0.117  -0.123  -1.492  0.00  0.00    -0.082 A 
ATOM      9  C7  UNL d   1      -0.887   0.357  -0.405  0.00  0.00     0.045 A 
ENDROOT
TORSDOF 0
ENDMDL
