MODEL 1
REMARK minimizedAffinity -2.64032221
REMARK minimizedRMSD -1
REMARK  0 active torsions:
REMARK  status: ('A' for Active; 'I' for Inactive)
ROOT
ATOM      1  C   UNL d   1      -1.880   0.345   2.808  0.00  0.00    -0.002 A 
ATOM      2  C1  UNL d   1      -0.647   0.135   3.409  0.00  0.00     0.010 A 
ATOM      3  C2  UNL d   1       0.482  -0.143   2.636  0.00  0.00     0.041 A 
ATOM      4  C3  UNL d   1       0.350  -0.204   1.235  0.00  0.00    -0.075 A 
ATOM      5  S   UNL d   1       1.595  -0.527   0.087  0.00  0.00     0.015 SA
ATOM      6  C4  UNL d   1       0.520  -0.393  -1.229  0.00  0.00     0.022 A 
ATOM      7  C5  UNL d   1      -0.762  -0.109  -0.820  0.00  0.00     0.026 A 
ATOM      8  C6  UNL d   1      -0.881   0.005   0.606  0.00  0.00    -0.082 A 
ATOM      9  C7  UNL d   1      -2.007   0.284   1.418  0.00  0.00     0.045 A 
ENDROOT
TORSDOF 0
ENDMDL
