MODEL 1
REMARK minimizedAffinity -1.36376119
REMARK minimizedRMSD -1
REMARK  0 active torsions:
REMARK  status: ('A' for Active; 'I' for Inactive)
ROOT
ATOM      1  C   UNL d   1       1.745   0.073   1.749  0.00  0.00    -0.002 A 
ATOM      2  C1  UNL d   1       0.661   0.113   2.615  0.00  0.00     0.010 A 
ATOM      3  C2  UNL d   1      -0.644   0.134   2.120  0.00  0.00     0.041 A 
ATOM      4  C3  UNL d   1      -0.844   0.112   0.725  0.00  0.00    -0.075 A 
ATOM      5  S   UNL d   1      -2.353   0.130  -0.109  0.00  0.00     0.015 SA
ATOM      6  C4  UNL d   1      -1.595   0.084  -1.635  0.00  0.00     0.022 A 
ATOM      7  C5  UNL d   1      -0.224   0.055  -1.529  0.00  0.00     0.026 A 
ATOM      8  C6  UNL d   1       0.231   0.070  -0.167  0.00  0.00    -0.082 A 
ATOM      9  C7  UNL d   1       1.542   0.050   0.367  0.00  0.00     0.045 A 
ENDROOT
TORSDOF 0
ENDMDL
