MODEL 1
REMARK minimizedAffinity -2.99532032
REMARK minimizedRMSD -1
REMARK  0 active torsions:
REMARK  status: ('A' for Active; 'I' for Inactive)
ROOT
ATOM      1  C   UNL d   1      -1.406   0.858  -1.534  0.00  0.00    -0.002 A 
ATOM      2  C1  UNL d   1      -2.433   0.429  -0.706  0.00  0.00     0.010 A 
ATOM      3  C2  UNL d   1      -2.190   0.147   0.640  0.00  0.00     0.041 A 
ATOM      4  C3  UNL d   1      -0.885   0.308   1.145  0.00  0.00    -0.075 A 
ATOM      5  S   UNL d   1      -0.353   0.024   2.760  0.00  0.00     0.015 SA
ATOM      6  C4  UNL d   1       1.250   0.467   2.389  0.00  0.00     0.022 A 
ATOM      7  C5  UNL d   1       1.394   0.825   1.070  0.00  0.00     0.026 A 
ATOM      8  C6  UNL d   1       0.166   0.740   0.331  0.00  0.00    -0.082 A 
ATOM      9  C7  UNL d   1      -0.112   1.016  -1.030  0.00  0.00     0.045 A 
ENDROOT
TORSDOF 0
ENDMDL
