MODEL 1
REMARK minimizedAffinity -4.2991066
REMARK minimizedRMSD -1
REMARK  0 active torsions:
REMARK  status: ('A' for Active; 'I' for Inactive)
ROOT
ATOM      1  C   UNL d   1       0.138   0.229   1.382  0.00  0.00    -0.002 A 
ATOM      2  C1  UNL d   1       0.195  -1.158   1.406  0.00  0.00     0.010 A 
ATOM      3  C2  UNL d   1       0.474  -1.877   0.243  0.00  0.00     0.041 A 
ATOM      4  C3  UNL d   1       0.700  -1.173  -0.957  0.00  0.00    -0.075 A 
ATOM      5  S   UNL d   1       1.060  -1.844  -2.503  0.00  0.00     0.015 SA
ATOM      6  C4  UNL d   1       1.148  -0.306  -3.232  0.00  0.00     0.022 A 
ATOM      7  C5  UNL d   1       0.911   0.706  -2.332  0.00  0.00     0.026 A 
ATOM      8  C6  UNL d   1       0.649   0.223  -1.006  0.00  0.00    -0.082 A 
ATOM      9  C7  UNL d   1       0.362   0.923   0.191  0.00  0.00     0.045 A 
ENDROOT
TORSDOF 0
ENDMDL
