MODEL 1
REMARK minimizedAffinity -1.18668485
REMARK minimizedRMSD -1
REMARK  0 active torsions:
REMARK  status: ('A' for Active; 'I' for Inactive)
ROOT
ATOM      1  C   UNL d   1       0.369   0.347   2.650  0.00  0.00    -0.002 A 
ATOM      2  C1  UNL d   1       1.405   1.094   2.107  0.00  0.00     0.010 A 
ATOM      3  C2  UNL d   1       1.716   0.994   0.749  0.00  0.00     0.041 A 
ATOM      4  C3  UNL d   1       0.960   0.125  -0.062  0.00  0.00    -0.075 A 
ATOM      5  S   UNL d   1       1.160  -0.159  -1.750  0.00  0.00     0.015 SA
ATOM      6  C4  UNL d   1      -0.126  -1.276  -1.791  0.00  0.00     0.022 A 
ATOM      7  C5  UNL d   1      -0.705  -1.441  -0.555  0.00  0.00     0.026 A 
ATOM      8  C6  UNL d   1      -0.089  -0.636   0.462  0.00  0.00    -0.082 A 
ATOM      9  C7  UNL d   1      -0.379  -0.514   1.842  0.00  0.00     0.045 A 
ENDROOT
TORSDOF 0
ENDMDL
