MODEL 1
REMARK minimizedAffinity -1.92476058
REMARK minimizedRMSD -1
REMARK  0 active torsions:
REMARK  status: ('A' for Active; 'I' for Inactive)
ROOT
ATOM      1  C   UNL d   1      -1.036   0.760  -1.897  0.00  0.00    -0.002 A 
ATOM      2  C1  UNL d   1      -2.121   0.447  -1.090  0.00  0.00     0.010 A 
ATOM      3  C2  UNL d   1      -1.939   0.154   0.263  0.00  0.00     0.041 A 
ATOM      4  C3  UNL d   1      -0.636   0.184   0.797  0.00  0.00    -0.075 A 
ATOM      5  S   UNL d   1      -0.172  -0.139   2.426  0.00  0.00     0.015 SA
ATOM      6  C4  UNL d   1       1.476   0.132   2.090  0.00  0.00     0.022 A 
ATOM      7  C5  UNL d   1       1.686   0.462   0.772  0.00  0.00     0.026 A 
ATOM      8  C6  UNL d   1       0.473   0.497   0.005  0.00  0.00    -0.082 A 
ATOM      9  C7  UNL d   1       0.255   0.789  -1.363  0.00  0.00     0.045 A 
ENDROOT
TORSDOF 0
ENDMDL
