MODEL 1
REMARK minimizedAffinity -4.32359695
REMARK minimizedRMSD -1
REMARK  0 active torsions:
REMARK  status: ('A' for Active; 'I' for Inactive)
ROOT
ATOM      1  C   UNL d   1      -3.000   0.626   2.526  0.00  0.00    -0.002 A 
ATOM      2  C1  UNL d   1      -3.284   0.863   1.188  0.00  0.00     0.010 A 
ATOM      3  C2  UNL d   1      -2.281   0.766   0.221  0.00  0.00     0.041 A 
ATOM      4  C3  UNL d   1      -0.976   0.423   0.625  0.00  0.00    -0.075 A 
ATOM      5  S   UNL d   1       0.411   0.246  -0.384  0.00  0.00     0.015 SA
ATOM      6  C4  UNL d   1       1.413  -0.150   0.937  0.00  0.00     0.022 A 
ATOM      7  C5  UNL d   1       0.723  -0.151   2.126  0.00  0.00     0.026 A 
ATOM      8  C6  UNL d   1      -0.665   0.178   1.966  0.00  0.00    -0.082 A 
ATOM      9  C7  UNL d   1      -1.704   0.285   2.922  0.00  0.00     0.045 A 
ENDROOT
TORSDOF 0
ENDMDL
