MODEL 1
REMARK minimizedAffinity -2.39296913
REMARK minimizedRMSD -1
REMARK  0 active torsions:
REMARK  status: ('A' for Active; 'I' for Inactive)
ROOT
ATOM      1  C   UNL d   1       0.176  -0.930   1.410  0.00  0.00    -0.002 A 
ATOM      2  C1  UNL d   1       0.217   0.421   1.094  0.00  0.00     0.010 A 
ATOM      3  C2  UNL d   1       0.369   0.836  -0.230  0.00  0.00     0.041 A 
ATOM      4  C3  UNL d   1       0.478  -0.139  -1.242  0.00  0.00    -0.075 A 
ATOM      5  S   UNL d   1       0.670   0.136  -2.933  0.00  0.00     0.015 SA
ATOM      6  C4  UNL d   1       0.701  -1.534  -3.276  0.00  0.00     0.022 A 
ATOM      7  C5  UNL d   1       0.570  -2.296  -2.140  0.00  0.00     0.026 A 
ATOM      8  C6  UNL d   1       0.439  -1.505  -0.948  0.00  0.00    -0.082 A 
ATOM      9  C7  UNL d   1       0.285  -1.894   0.404  0.00  0.00     0.045 A 
ENDROOT
TORSDOF 0
ENDMDL
