MODEL 1
REMARK minimizedAffinity 2.65128374
REMARK minimizedRMSD -1
REMARK  0 active torsions:
REMARK  status: ('A' for Active; 'I' for Inactive)
ROOT
ATOM      1  C1  DEN d   1      -0.799  -1.423  -1.679  0.00  0.00     0.130 A 
ATOM      2  C2  DEN d   1      -0.383  -0.030  -1.545  0.00  0.00    -0.031 A 
ATOM      3  C3  DEN d   1      -0.848   0.461  -0.233  0.00  0.00     0.027 A 
ATOM      4  C4  DEN d   1      -2.159  -0.795   1.599  0.00  0.00     0.027 A 
ATOM      5  C5  DEN d   1      -2.748  -1.994   1.935  0.00  0.00    -0.003 A 
ATOM      6  C6  DEN d   1      -2.758  -3.067   1.084  0.00  0.00     0.001 A 
ATOM      7  C7  DEN d   1      -2.128  -2.977  -0.129  0.00  0.00     0.017 A 
ATOM      8  C8  DEN d   1      -1.539  -1.769  -0.478  0.00  0.00    -0.094 A 
ATOM      9  C9  DEN d   1      -1.529  -0.700   0.401  0.00  0.00    -0.072 A 
ENDROOT
TORSDOF 0
ENDMDL
