MODEL 1
REMARK minimizedAffinity 12.4354887
REMARK minimizedRMSD -1
REMARK  0 active torsions:
REMARK  status: ('A' for Active; 'I' for Inactive)
ROOT
ATOM      1  C1  DEN d   1      -3.375   1.088   1.011  0.00  0.00     0.130 A 
ATOM      2  C2  DEN d   1      -3.716   0.200   2.119  0.00  0.00    -0.031 A 
ATOM      3  C3  DEN d   1      -2.689  -0.859   2.189  0.00  0.00     0.027 A 
ATOM      4  C4  DEN d   1      -0.612  -1.205   0.699  0.00  0.00     0.027 A 
ATOM      5  C5  DEN d   1       0.090  -0.714  -0.379  0.00  0.00    -0.003 A 
ATOM      6  C6  DEN d   1      -0.328   0.383  -1.085  0.00  0.00     0.001 A 
ATOM      7  C7  DEN d   1      -1.457   1.052  -0.693  0.00  0.00     0.017 A 
ATOM      8  C8  DEN d   1      -2.174   0.559   0.389  0.00  0.00    -0.094 A 
ATOM      9  C9  DEN d   1      -1.728  -0.544   1.097  0.00  0.00    -0.072 A 
ENDROOT
TORSDOF 0
ENDMDL
