MODEL 1
REMARK minimizedAffinity -6.38551712
REMARK minimizedRMSD -1
REMARK  0 active torsions:
REMARK  status: ('A' for Active; 'I' for Inactive)
ROOT
ATOM      1  C1  DEN d   1      -0.943   0.544   0.796  0.00  0.00     0.130 A 
ATOM      2  C2  DEN d   1      -1.989   0.320   1.791  0.00  0.00    -0.031 A 
ATOM      3  C3  DEN d   1      -2.129  -1.136   1.987  0.00  0.00     0.027 A 
ATOM      4  C4  DEN d   1      -0.830  -3.058   0.858  0.00  0.00     0.027 A 
ATOM      5  C5  DEN d   1       0.147  -3.363  -0.064  0.00  0.00    -0.003 A 
ATOM      6  C6  DEN d   1       0.800  -2.397  -0.782  0.00  0.00     0.001 A 
ATOM      7  C7  DEN d   1       0.516  -1.075  -0.558  0.00  0.00     0.017 A 
ATOM      8  C8  DEN d   1      -0.474  -0.760   0.364  0.00  0.00    -0.094 A 
ATOM      9  C9  DEN d   1      -1.114  -1.751   1.089  0.00  0.00    -0.072 A 
ENDROOT
TORSDOF 0
ENDMDL
