MODEL 1
REMARK minimizedAffinity -0.586405396
REMARK minimizedRMSD -1
REMARK  0 active torsions:
REMARK  status: ('A' for Active; 'I' for Inactive)
ROOT
ATOM      1  C1  DEN d   1       1.337   0.206   0.483  0.00  0.00     0.130 A 
ATOM      2  C2  DEN d   1       0.348   1.272   0.350  0.00  0.00    -0.031 A 
ATOM      3  C3  DEN d   1      -0.993   0.653   0.350  0.00  0.00     0.027 A 
ATOM      4  C4  DEN d   1      -1.631  -1.838   0.546  0.00  0.00     0.027 A 
ATOM      5  C5  DEN d   1      -1.135  -3.118   0.666  0.00  0.00    -0.003 A 
ATOM      6  C6  DEN d   1       0.209  -3.380   0.699  0.00  0.00     0.001 A 
ATOM      7  C7  DEN d   1       1.104  -2.344   0.656  0.00  0.00     0.017 A 
ATOM      8  C8  DEN d   1       0.612  -1.051   0.528  0.00  0.00    -0.094 A 
ATOM      9  C9  DEN d   1      -0.751  -0.806   0.508  0.00  0.00    -0.072 A 
ENDROOT
TORSDOF 0
ENDMDL
