MODEL 1
REMARK minimizedAffinity -4.95375443
REMARK minimizedRMSD -1
REMARK  0 active torsions:
REMARK  status: ('A' for Active; 'I' for Inactive)
ROOT
ATOM      1  C1  DEN d   1       1.642   0.131   0.031  0.00  0.00     0.130 A 
ATOM      2  C2  DEN d   1       1.023   1.404   0.389  0.00  0.00    -0.031 A 
ATOM      3  C3  DEN d   1      -0.369   1.135   0.801  0.00  0.00     0.027 A 
ATOM      4  C4  DEN d   1      -1.618  -1.119   0.924  0.00  0.00     0.027 A 
ATOM      5  C5  DEN d   1      -1.510  -2.475   0.709  0.00  0.00    -0.003 A 
ATOM      6  C6  DEN d   1      -0.365  -3.049   0.224  0.00  0.00     0.001 A 
ATOM      7  C7  DEN d   1       0.735  -2.269  -0.019  0.00  0.00     0.017 A 
ATOM      8  C8  DEN d   1       0.632  -0.900   0.189  0.00  0.00    -0.094 A 
ATOM      9  C9  DEN d   1      -0.531  -0.340   0.691  0.00  0.00    -0.072 A 
ENDROOT
TORSDOF 0
ENDMDL
