MODEL 1
REMARK minimizedAffinity -3.20879388
REMARK minimizedRMSD -1
REMARK  0 active torsions:
REMARK  status: ('A' for Active; 'I' for Inactive)
ROOT
ATOM      1  C1  DEN d   1       0.089  -1.056  -2.379  0.00  0.00     0.130 A 
ATOM      2  C2  DEN d   1       0.326   0.376  -2.544  0.00  0.00    -0.031 A 
ATOM      3  C3  DEN d   1      -0.048   1.048  -1.284  0.00  0.00     0.027 A 
ATOM      4  C4  DEN d   1      -0.963   0.018   0.896  0.00  0.00     0.027 A 
ATOM      5  C5  DEN d   1      -1.343  -1.155   1.510  0.00  0.00    -0.003 A 
ATOM      6  C6  DEN d   1      -1.305  -2.363   0.865  0.00  0.00     0.001 A 
ATOM      7  C7  DEN d   1      -0.834  -2.431  -0.420  0.00  0.00     0.017 A 
ATOM      8  C8  DEN d   1      -0.456  -1.252  -1.048  0.00  0.00    -0.094 A 
ATOM      9  C9  DEN d   1      -0.491  -0.043  -0.375  0.00  0.00    -0.072 A 
ENDROOT
TORSDOF 0
ENDMDL
