MODEL 1
REMARK minimizedAffinity -4.54397202
REMARK minimizedRMSD -1
REMARK  0 active torsions:
REMARK  status: ('A' for Active; 'I' for Inactive)
ROOT
ATOM      1  C1  DEN d   1       0.532  -2.590  -0.774  0.00  0.00     0.130 A 
ATOM      2  C2  DEN d   1      -0.267  -3.509   0.031  0.00  0.00    -0.031 A 
ATOM      3  C3  DEN d   1      -1.149  -2.705   0.902  0.00  0.00     0.027 A 
ATOM      4  C4  DEN d   1      -1.355  -0.140   1.076  0.00  0.00     0.027 A 
ATOM      5  C5  DEN d   1      -0.874   1.060   0.601  0.00  0.00    -0.003 A 
ATOM      6  C6  DEN d   1       0.125   1.127  -0.334  0.00  0.00     0.001 A 
ATOM      7  C7  DEN d   1       0.644  -0.028  -0.857  0.00  0.00     0.017 A 
ATOM      8  C8  DEN d   1       0.169  -1.242  -0.377  0.00  0.00    -0.094 A 
ATOM      9  C9  DEN d   1      -0.849  -1.289   0.560  0.00  0.00    -0.072 A 
ENDROOT
TORSDOF 0
ENDMDL
