MODEL 1
REMARK minimizedAffinity -5.06330538
REMARK minimizedRMSD -1
REMARK  0 active torsions:
REMARK  status: ('A' for Active; 'I' for Inactive)
ROOT
ATOM      1  C1  DEN d   1       0.337  -0.062  -1.199  0.00  0.00     0.130 A 
ATOM      2  C2  DEN d   1       0.080   1.095  -0.346  0.00  0.00    -0.031 A 
ATOM      3  C3  DEN d   1      -0.708   0.639   0.817  0.00  0.00     0.027 A 
ATOM      4  C4  DEN d   1      -1.547  -1.735   1.377  0.00  0.00     0.027 A 
ATOM      5  C5  DEN d   1      -1.586  -3.043   0.946  0.00  0.00    -0.003 A 
ATOM      6  C6  DEN d   1      -1.021  -3.439  -0.237  0.00  0.00     0.001 A 
ATOM      7  C7  DEN d   1      -0.352  -2.526  -1.009  0.00  0.00     0.017 A 
ATOM      8  C8  DEN d   1      -0.315  -1.204  -0.585  0.00  0.00    -0.094 A 
ATOM      9  C9  DEN d   1      -0.882  -0.826   0.620  0.00  0.00    -0.072 A 
ENDROOT
TORSDOF 0
ENDMDL
