MODEL 1
REMARK minimizedAffinity -3.9423399
REMARK minimizedRMSD -1
REMARK  0 active torsions:
REMARK  status: ('A' for Active; 'I' for Inactive)
ROOT
ATOM      1  C1  DEN d   1       1.111   0.704  -0.164  0.00  0.00     0.130 A 
ATOM      2  C2  DEN d   1      -0.197   1.351  -0.115  0.00  0.00    -0.031 A 
ATOM      3  C3  DEN d   1      -1.200   0.327   0.239  0.00  0.00     0.027 A 
ATOM      4  C4  DEN d   1      -0.856  -2.184   0.717  0.00  0.00     0.027 A 
ATOM      5  C5  DEN d   1       0.075  -3.196   0.785  0.00  0.00    -0.003 A 
ATOM      6  C6  DEN d   1       1.401  -2.989   0.511  0.00  0.00     0.001 A 
ATOM      7  C7  DEN d   1       1.840  -1.729   0.199  0.00  0.00     0.017 A 
ATOM      8  C8  DEN d   1       0.906  -0.705   0.121  0.00  0.00    -0.094 A 
ATOM      9  C9  DEN d   1      -0.428  -0.932   0.414  0.00  0.00    -0.072 A 
ENDROOT
TORSDOF 0
ENDMDL
