MODEL 1
REMARK minimizedAffinity -5.41571903
REMARK minimizedRMSD -1
REMARK  0 active torsions:
REMARK  status: ('A' for Active; 'I' for Inactive)
ROOT
ATOM      1  C1  DEN d   1      -0.423  -1.347  -0.700  0.00  0.00     0.130 A 
ATOM      2  C2  DEN d   1      -0.281  -1.760   0.693  0.00  0.00    -0.031 A 
ATOM      3  C3  DEN d   1       0.021  -0.559   1.497  0.00  0.00     0.027 A 
ATOM      4  C4  DEN d   1       0.277   1.889   0.725  0.00  0.00     0.027 A 
ATOM      5  C5  DEN d   1       0.256   2.729  -0.366  0.00  0.00    -0.003 A 
ATOM      6  C6  DEN d   1       0.043   2.269  -1.639  0.00  0.00     0.001 A 
ATOM      7  C7  DEN d   1      -0.203   0.938  -1.847  0.00  0.00     0.017 A 
ATOM      8  C8  DEN d   1      -0.176   0.083  -0.753  0.00  0.00    -0.094 A 
ATOM      9  C9  DEN d   1       0.029   0.569   0.527  0.00  0.00    -0.072 A 
ENDROOT
TORSDOF 0
ENDMDL
