MODEL 1
REMARK minimizedAffinity -4.7553668
REMARK minimizedRMSD -1
REMARK  0 active torsions:
REMARK  status: ('A' for Active; 'I' for Inactive)
ROOT
ATOM      1  C1  DEN d   1       0.553   0.825   0.216  0.00  0.00     0.130 A 
ATOM      2  C2  DEN d   1      -0.763   1.455   0.135  0.00  0.00    -0.031 A 
ATOM      3  C3  DEN d   1      -1.784   0.403   0.310  0.00  0.00     0.027 A 
ATOM      4  C4  DEN d   1      -1.458  -2.126   0.701  0.00  0.00     0.027 A 
ATOM      5  C5  DEN d   1      -0.525  -3.130   0.834  0.00  0.00    -0.003 A 
ATOM      6  C6  DEN d   1       0.821  -2.894   0.736  0.00  0.00     0.001 A 
ATOM      7  C7  DEN d   1       1.273  -1.615   0.545  0.00  0.00     0.017 A 
ATOM      8  C8  DEN d   1       0.338  -0.598   0.403  0.00  0.00    -0.094 A 
ATOM      9  C9  DEN d   1      -1.017  -0.855   0.517  0.00  0.00    -0.072 A 
ENDROOT
TORSDOF 0
ENDMDL
