MODEL 1
REMARK minimizedAffinity -3.97596598
REMARK minimizedRMSD -1
REMARK  0 active torsions:
REMARK  status: ('A' for Active; 'I' for Inactive)
ROOT
ATOM      1  C1  DEN d   1       0.835  -0.041  -0.857  0.00  0.00     0.130 A 
ATOM      2  C2  DEN d   1       0.029   1.162  -0.670  0.00  0.00    -0.031 A 
ATOM      3  C3  DEN d   1      -1.066   0.837   0.267  0.00  0.00     0.027 A 
ATOM      4  C4  DEN d   1      -1.586  -1.399   1.442  0.00  0.00     0.027 A 
ATOM      5  C5  DEN d   1      -1.189  -2.710   1.586  0.00  0.00    -0.003 A 
ATOM      6  C6  DEN d   1      -0.119  -3.229   0.905  0.00  0.00     0.001 A 
ATOM      7  C7  DEN d   1       0.619  -2.419   0.083  0.00  0.00     0.017 A 
ATOM      8  C8  DEN d   1       0.221  -1.098  -0.073  0.00  0.00    -0.094 A 
ATOM      9  C9  DEN d   1      -0.856  -0.589   0.633  0.00  0.00    -0.072 A 
ENDROOT
TORSDOF 0
ENDMDL
