MODEL 1
REMARK minimizedAffinity -6.82073593
REMARK minimizedRMSD -1
REMARK  0 active torsions:
REMARK  status: ('A' for Active; 'I' for Inactive)
ROOT
ATOM      1  C1  DEN d   1      -0.700  -1.470   1.443  0.00  0.00     0.130 A 
ATOM      2  C2  DEN d   1      -0.570  -2.903   1.197  0.00  0.00    -0.031 A 
ATOM      3  C3  DEN d   1      -0.095  -3.088  -0.189  0.00  0.00     0.027 A 
ATOM      4  C4  DEN d   1       0.453  -1.302  -1.967  0.00  0.00     0.027 A 
ATOM      5  C5  DEN d   1       0.485   0.050  -2.228  0.00  0.00    -0.003 A 
ATOM      6  C6  DEN d   1       0.095   0.982  -1.302  0.00  0.00     0.001 A 
ATOM      7  C7  DEN d   1      -0.302   0.575  -0.055  0.00  0.00     0.017 A 
ATOM      8  C8  DEN d   1      -0.343  -0.787   0.212  0.00  0.00    -0.094 A 
ATOM      9  C9  DEN d   1       0.066  -1.712  -0.733  0.00  0.00    -0.072 A 
ENDROOT
TORSDOF 0
ENDMDL
