MODEL 1
REMARK minimizedAffinity -5.15907049
REMARK minimizedRMSD -1
REMARK  0 active torsions:
REMARK  status: ('A' for Active; 'I' for Inactive)
ROOT
ATOM      1  C1  DEN d   1       0.251  -0.794  -2.307  0.00  0.00     0.130 A 
ATOM      2  C2  DEN d   1       0.127   0.578  -1.821  0.00  0.00    -0.031 A 
ATOM      3  C3  DEN d   1      -0.106   0.526  -0.363  0.00  0.00     0.027 A 
ATOM      4  C4  DEN d   1      -0.279  -1.533   1.181  0.00  0.00     0.027 A 
ATOM      5  C5  DEN d   1      -0.250  -2.909   1.223  0.00  0.00    -0.003 A 
ATOM      6  C6  DEN d   1      -0.088  -3.672   0.097  0.00  0.00     0.001 A 
ATOM      7  C7  DEN d   1       0.097  -3.061  -1.115  0.00  0.00     0.017 A 
ATOM      8  C8  DEN d   1       0.062  -1.674  -1.167  0.00  0.00    -0.094 A 
ATOM      9  C9  DEN d   1      -0.091  -0.920  -0.016  0.00  0.00    -0.072 A 
ENDROOT
TORSDOF 0
ENDMDL
