MODEL 1
REMARK minimizedAffinity -4.13635635
REMARK minimizedRMSD -1
REMARK  0 active torsions:
REMARK  status: ('A' for Active; 'I' for Inactive)
ROOT
ATOM      1  C1  DEN d   1       1.186   4.111   3.012  0.00  0.00     0.130 A 
ATOM      2  C2  DEN d   1      -0.256   4.276   3.172  0.00  0.00    -0.031 A 
ATOM      3  C3  DEN d   1      -0.917   3.694   1.987  0.00  0.00     0.027 A 
ATOM      4  C4  DEN d   1       0.148   2.555  -0.068  0.00  0.00     0.027 A 
ATOM      5  C5  DEN d   1       1.338   2.191  -0.659  0.00  0.00    -0.003 A 
ATOM      6  C6  DEN d   1       2.551   2.470  -0.089  0.00  0.00     0.001 A 
ATOM      7  C7  DEN d   1       2.602   3.091   1.131  0.00  0.00     0.017 A 
ATOM      8  C8  DEN d   1       1.406   3.468   1.730  0.00  0.00    -0.094 A 
ATOM      9  C9  DEN d   1       0.189   3.167   1.143  0.00  0.00    -0.072 A 
ENDROOT
TORSDOF 0
ENDMDL
