MODEL 1
REMARK minimizedAffinity -4.16004276
REMARK minimizedRMSD -1
REMARK  0 active torsions:
REMARK  status: ('A' for Active; 'I' for Inactive)
ROOT
ATOM      1  C1  DEN d   1      -0.595   3.508   1.642  0.00  0.00     0.130 A 
ATOM      2  C2  DEN d   1       0.413   4.298   2.344  0.00  0.00    -0.031 A 
ATOM      3  C3  DEN d   1       1.724   4.022   1.724  0.00  0.00     0.027 A 
ATOM      4  C4  DEN d   1       2.288   2.458  -0.249  0.00  0.00     0.027 A 
ATOM      5  C5  DEN d   1       1.765   1.568  -1.161  0.00  0.00    -0.003 A 
ATOM      6  C6  DEN d   1       0.436   1.239  -1.180  0.00  0.00     0.001 A 
ATOM      7  C7  DEN d   1      -0.425   1.839  -0.299  0.00  0.00     0.017 A 
ATOM      8  C8  DEN d   1       0.096   2.732   0.628  0.00  0.00    -0.094 A 
ATOM      9  C9  DEN d   1       1.441   3.061   0.624  0.00  0.00    -0.072 A 
ENDROOT
TORSDOF 0
ENDMDL
