MODEL 1
REMARK minimizedAffinity -6.59873724
REMARK minimizedRMSD -1
REMARK  0 active torsions:
REMARK  status: ('A' for Active; 'I' for Inactive)
ROOT
ATOM      1  C1  DEN d   1       0.679  -3.057  -2.248  0.00  0.00     0.130 A 
ATOM      2  C2  DEN d   1       0.930  -1.883  -3.080  0.00  0.00    -0.031 A 
ATOM      3  C3  DEN d   1       0.597  -0.683  -2.288  0.00  0.00     0.027 A 
ATOM      4  C4  DEN d   1      -0.273  -0.528   0.135  0.00  0.00     0.027 A 
ATOM      5  C5  DEN d   1      -0.652  -1.257   1.241  0.00  0.00    -0.003 A 
ATOM      6  C6  DEN d   1      -0.646  -2.626   1.249  0.00  0.00     0.001 A 
ATOM      7  C7  DEN d   1      -0.210  -3.310   0.145  0.00  0.00     0.017 A 
ATOM      8  C8  DEN d   1       0.166  -2.582  -0.976  0.00  0.00    -0.094 A 
ATOM      9  C9  DEN d   1       0.165  -1.198  -0.961  0.00  0.00    -0.072 A 
ENDROOT
TORSDOF 0
ENDMDL
