MODEL 1
REMARK minimizedAffinity 5.86060858
REMARK minimizedRMSD -1
REMARK  0 active torsions:
REMARK  status: ('A' for Active; 'I' for Inactive)
ROOT
ATOM      1  N1  IND d   1       5.090   3.031  -5.718  0.00  0.00    -0.196 N 
ATOM      2  C2  IND d   1       4.537   1.782  -5.671  0.00  0.00     0.054 A 
ATOM      3  C3  IND d   1       3.188   1.863  -5.708  0.00  0.00    -0.031 A 
ATOM      4  C4  IND d   1       1.680   3.935  -5.950  0.00  0.00     0.051 A 
ATOM      5  C5  IND d   1       1.725   5.301  -5.993  0.00  0.00    -0.031 A 
ATOM      6  C6  IND d   1       2.918   5.993  -5.949  0.00  0.00     0.015 A 
ATOM      7  C7  IND d   1       4.116   5.342  -5.871  0.00  0.00    -0.016 A 
ATOM      8  C8  IND d   1       4.075   3.956  -5.819  0.00  0.00    -0.047 A 
ATOM      9  C9  IND d   1       2.865   3.250  -5.821  0.00  0.00    -0.096 A 
ATOM     10  HN1 IND d   1       5.931   3.209  -5.689  0.00  0.00     0.298 HD
ENDROOT
TORSDOF 0
ENDMDL
