MODEL 1
REMARK minimizedAffinity 10.8673563
REMARK minimizedRMSD -1
REMARK  0 active torsions:
REMARK  status: ('A' for Active; 'I' for Inactive)
ROOT
ATOM      1  N1  IND d   1       4.599  -3.391   2.994  0.00  0.00    -0.196 N 
ATOM      2  C2  IND d   1       4.616  -2.597   4.107  0.00  0.00     0.054 A 
ATOM      3  C3  IND d   1       3.694  -1.614   3.997  0.00  0.00    -0.031 A 
ATOM      4  C4  IND d   1       1.981  -1.179   2.125  0.00  0.00     0.051 A 
ATOM      5  C5  IND d   1       1.607  -1.616   0.885  0.00  0.00    -0.031 A 
ATOM      6  C6  IND d   1       2.221  -2.690   0.274  0.00  0.00     0.015 A 
ATOM      7  C7  IND d   1       3.230  -3.377   0.887  0.00  0.00    -0.016 A 
ATOM      8  C8  IND d   1       3.617  -2.933   2.143  0.00  0.00    -0.047 A 
ATOM      9  C9  IND d   1       3.027  -1.817   2.750  0.00  0.00    -0.096 A 
ATOM     10  HN1 IND d   1       5.115  -4.064   2.850  0.00  0.00     0.298 HD
ENDROOT
TORSDOF 0
ENDMDL
