MODEL 1
REMARK minimizedAffinity 7.9636879
REMARK minimizedRMSD -1
REMARK  0 active torsions:
REMARK  status: ('A' for Active; 'I' for Inactive)
ROOT
ATOM      1  N1  IND d   1       4.678  -4.735   1.759  0.00  0.00    -0.196 N 
ATOM      2  C2  IND d   1       5.005  -4.157   2.955  0.00  0.00     0.054 A 
ATOM      3  C3  IND d   1       4.330  -2.997   3.117  0.00  0.00    -0.031 A 
ATOM      4  C4  IND d   1       2.563  -1.907   1.595  0.00  0.00     0.051 A 
ATOM      5  C5  IND d   1       1.959  -2.043   0.376  0.00  0.00    -0.031 A 
ATOM      6  C6  IND d   1       2.234  -3.106  -0.459  0.00  0.00     0.015 A 
ATOM      7  C7  IND d   1       3.119  -4.084  -0.100  0.00  0.00    -0.016 A 
ATOM      8  C8  IND d   1       3.739  -3.945   1.133  0.00  0.00    -0.047 A 
ATOM      9  C9  IND d   1       3.496  -2.845   1.967  0.00  0.00    -0.096 A 
ATOM     10  HN1 IND d   1       5.004  -5.468   1.451  0.00  0.00     0.298 HD
ENDROOT
TORSDOF 0
ENDMDL
