MODEL 1
REMARK minimizedAffinity 4.73138094
REMARK minimizedRMSD -1
REMARK  0 active torsions:
REMARK  status: ('A' for Active; 'I' for Inactive)
ROOT
ATOM      1  N1  IND d   1       0.962   1.870  -5.602  0.00  0.00    -0.196 N 
ATOM      2  C2  IND d   1       1.852   0.837  -5.695  0.00  0.00     0.054 A 
ATOM      3  C3  IND d   1       3.103   1.311  -5.893  0.00  0.00    -0.031 A 
ATOM      4  C4  IND d   1       3.932   3.745  -5.996  0.00  0.00     0.051 A 
ATOM      5  C5  IND d   1       3.485   5.037  -6.000  0.00  0.00    -0.031 A 
ATOM      6  C6  IND d   1       2.146   5.345  -5.866  0.00  0.00     0.015 A 
ATOM      7  C7  IND d   1       1.203   4.369  -5.711  0.00  0.00    -0.016 A 
ATOM      8  C8  IND d   1       1.653   3.056  -5.714  0.00  0.00    -0.047 A 
ATOM      9  C9  IND d   1       3.005   2.736  -5.892  0.00  0.00    -0.096 A 
ATOM     10  HN1 IND d   1       0.112   1.792  -5.493  0.00  0.00     0.298 HD
ENDROOT
TORSDOF 0
ENDMDL
