MODEL 1
REMARK minimizedAffinity 10.8029938
REMARK minimizedRMSD -1
REMARK  0 active torsions:
REMARK  status: ('A' for Active; 'I' for Inactive)
ROOT
ATOM      1  N1  IND d   1       3.606   1.503  -5.915  0.00  0.00    -0.196 N 
ATOM      2  C2  IND d   1       4.718   2.297  -5.935  0.00  0.00     0.054 A 
ATOM      3  C3  IND d   1       4.364   3.601  -5.997  0.00  0.00    -0.031 A 
ATOM      4  C4  IND d   1       2.018   4.661  -5.973  0.00  0.00     0.051 A 
ATOM      5  C5  IND d   1       0.690   4.339  -5.999  0.00  0.00    -0.031 A 
ATOM      6  C6  IND d   1       0.257   3.029  -5.995  0.00  0.00     0.015 A 
ATOM      7  C7  IND d   1       1.140   1.987  -5.954  0.00  0.00    -0.016 A 
ATOM      8  C8  IND d   1       2.490   2.310  -5.935  0.00  0.00    -0.047 A 
ATOM      9  C9  IND d   1       2.936   3.637  -5.981  0.00  0.00    -0.096 A 
ATOM     10  HN1 IND d   1       3.604   0.643  -5.894  0.00  0.00     0.298 HD
ENDROOT
TORSDOF 0
ENDMDL
