MODEL 1
REMARK minimizedAffinity 0.26569894
REMARK minimizedRMSD -1
REMARK  0 active torsions:
REMARK  status: ('A' for Active; 'I' for Inactive)
ROOT
ATOM      1  N1  IND d   1       5.113   3.429  -5.999  0.00  0.00    -0.196 N 
ATOM      2  C2  IND d   1       5.949   4.510  -5.998  0.00  0.00     0.054 A 
ATOM      3  C3  IND d   1       5.234   5.658  -5.999  0.00  0.00    -0.031 A 
ATOM      4  C4  IND d   1       2.683   5.995  -5.898  0.00  0.00     0.051 A 
ATOM      5  C5  IND d   1       1.504   5.305  -5.921  0.00  0.00    -0.031 A 
ATOM      6  C6  IND d   1       1.466   3.927  -5.969  0.00  0.00     0.015 A 
ATOM      7  C7  IND d   1       2.612   3.183  -5.985  0.00  0.00    -0.016 A 
ATOM      8  C8  IND d   1       3.812   3.880  -5.969  0.00  0.00    -0.047 A 
ATOM      9  C9  IND d   1       3.856   5.280  -5.963  0.00  0.00    -0.096 A 
ATOM     10  HN1 IND d   1       5.358   2.605  -6.015  0.00  0.00     0.298 HD
ENDROOT
TORSDOF 0
ENDMDL
