MODEL 1
REMARK minimizedAffinity 5.56432915
REMARK minimizedRMSD -1
REMARK  0 active torsions:
REMARK  status: ('A' for Active; 'I' for Inactive)
ROOT
ATOM      1  N1  IND d   1       3.842   2.639  -5.962  0.00  0.00    -0.196 N 
ATOM      2  C2  IND d   1       3.347   1.365  -5.927  0.00  0.00     0.054 A 
ATOM      3  C3  IND d   1       1.996   1.386  -5.895  0.00  0.00    -0.031 A 
ATOM      4  C4  IND d   1       0.389   3.395  -5.997  0.00  0.00     0.051 A 
ATOM      5  C5  IND d   1       0.371   4.762  -5.999  0.00  0.00    -0.031 A 
ATOM      6  C6  IND d   1       1.534   5.506  -5.992  0.00  0.00     0.015 A 
ATOM      7  C7  IND d   1       2.762   4.908  -5.993  0.00  0.00    -0.016 A 
ATOM      8  C8  IND d   1       2.783   3.520  -5.984  0.00  0.00    -0.047 A 
ATOM      9  C9  IND d   1       1.607   2.760  -5.948  0.00  0.00    -0.096 A 
ATOM     10  HN1 IND d   1       4.675   2.854  -5.968  0.00  0.00     0.298 HD
ENDROOT
TORSDOF 0
ENDMDL
