MODEL 1
REMARK minimizedAffinity 4.68497705
REMARK minimizedRMSD -1
REMARK  0 active torsions:
REMARK  status: ('A' for Active; 'I' for Inactive)
ROOT
ATOM      1  N1  IND d   1       2.194  -2.463   0.029  0.00  0.00    -0.196 N 
ATOM      2  C2  IND d   1       1.296  -1.918   0.903  0.00  0.00     0.054 A 
ATOM      3  C3  IND d   1       1.592  -2.285   2.171  0.00  0.00    -0.031 A 
ATOM      4  C4  IND d   1       3.563  -3.688   3.050  0.00  0.00     0.051 A 
ATOM      5  C5  IND d   1       4.627  -4.433   2.627  0.00  0.00    -0.031 A 
ATOM      6  C6  IND d   1       4.943  -4.560   1.289  0.00  0.00     0.015 A 
ATOM      7  C7  IND d   1       4.210  -3.935   0.322  0.00  0.00    -0.016 A 
ATOM      8  C8  IND d   1       3.124  -3.182   0.747  0.00  0.00    -0.047 A 
ATOM      9  C9  IND d   1       2.773  -3.084   2.100  0.00  0.00    -0.096 A 
ATOM     10  HN1 IND d   1       2.181  -2.371  -0.826  0.00  0.00     0.298 HD
ENDROOT
TORSDOF 0
ENDMDL
