MODEL 1
REMARK minimizedAffinity 13.7632694
REMARK minimizedRMSD -1
REMARK  0 active torsions:
REMARK  status: ('A' for Active; 'I' for Inactive)
ROOT
ATOM      1  N1  IND d   1      -2.694   1.674   4.514  0.00  0.00    -0.196 N 
ATOM      2  C2  IND d   1      -3.193   2.224   5.662  0.00  0.00     0.054 A 
ATOM      3  C3  IND d   1      -4.481   2.594   5.485  0.00  0.00    -0.031 A 
ATOM      4  C4  IND d   1      -5.999   2.299   3.426  0.00  0.00     0.051 A 
ATOM      5  C5  IND d   1      -5.980   1.882   2.125  0.00  0.00    -0.031 A 
ATOM      6  C6  IND d   1      -4.842   1.362   1.542  0.00  0.00     0.015 A 
ATOM      7  C7  IND d   1      -3.679   1.228   2.246  0.00  0.00    -0.016 A 
ATOM      8  C8  IND d   1      -3.693   1.656   3.566  0.00  0.00    -0.047 A 
ATOM      9  C9  IND d   1      -4.832   2.225   4.150  0.00  0.00    -0.096 A 
ATOM     10  HN1 IND d   1      -1.891   1.388   4.403  0.00  0.00     0.298 HD
ENDROOT
TORSDOF 0
ENDMDL
