MODEL 1
REMARK minimizedAffinity -0.0688686818
REMARK minimizedRMSD -1
REMARK  1 active torsions:
REMARK  status: ('A' for Active; 'I' for Inactive)
REMARK    1  A    between atoms: C1_2  and  C2_3 
ROOT
ATOM      1  C2  UNL d   1      -0.497  -2.775  -1.070  0.00  0.00    -0.076 A 
ATOM      2  C3  UNL d   1      -1.623  -3.238  -0.367  0.00  0.00     0.004 A 
ATOM      3  C4  UNL d   1      -2.660  -3.896  -1.026  0.00  0.00    -0.003 A 
ATOM      4  C5  UNL d   1      -2.588  -4.102  -2.399  0.00  0.00     0.000 A 
ATOM      5  C6  UNL d   1      -1.471  -3.665  -3.110  0.00  0.00     0.000 A 
ATOM      6  C7  UNL d   1      -0.409  -3.014  -2.459  0.00  0.00    -0.073 A 
ATOM      7  C8  UNL d   1       0.768  -2.559  -3.276  0.00  0.00     0.078 C 
ENDROOT
BRANCH   1   8
ATOM      8  C1  UNL d   1       0.584  -2.044  -0.307  0.00  0.00     0.053 C 
ATOM      9  C   UNL d   1       0.058  -0.811   0.412  0.00  0.00     0.018 C 
ENDBRANCH   1   8
TORSDOF 1
ENDMDL
