MODEL 1
REMARK minimizedAffinity -5.05618382
REMARK minimizedRMSD -1
REMARK  1 active torsions:
REMARK  status: ('A' for Active; 'I' for Inactive)
REMARK    1  A    between atoms: C1_2  and  C2_3 
ROOT
ATOM      1  C2  UNL d   1      -0.210  -1.654  -0.774  0.00  0.00    -0.076 A 
ATOM      2  C3  UNL d   1      -1.036  -0.873  -1.601  0.00  0.00     0.004 A 
ATOM      3  C4  UNL d   1      -1.110   0.510  -1.442  0.00  0.00    -0.003 A 
ATOM      4  C5  UNL d   1      -0.358   1.135  -0.453  0.00  0.00     0.000 A 
ATOM      5  C6  UNL d   1       0.480   0.378   0.365  0.00  0.00     0.000 A 
ATOM      6  C7  UNL d   1       0.578  -1.015   0.207  0.00  0.00    -0.073 A 
ATOM      7  C8  UNL d   1       1.494  -1.783   1.121  0.00  0.00     0.078 C 
ENDROOT
BRANCH   1   8
ATOM      8  C1  UNL d   1      -0.192  -3.152  -0.976  0.00  0.00     0.053 C 
ATOM      9  C   UNL d   1      -0.831  -3.571  -2.291  0.00  0.00     0.018 C 
ENDBRANCH   1   8
TORSDOF 1
ENDMDL
