MODEL 1
REMARK minimizedAffinity -5.06912756
REMARK minimizedRMSD -1
REMARK  1 active torsions:
REMARK  status: ('A' for Active; 'I' for Inactive)
REMARK    1  A    between atoms: C1_2  and  C2_3 
ROOT
ATOM      1  C2  UNL d   1       0.466   0.679  -0.009  0.00  0.00    -0.076 A 
ATOM      2  C3  UNL d   1      -0.508   1.687  -0.112  0.00  0.00     0.004 A 
ATOM      3  C4  UNL d   1      -0.204   3.013   0.193  0.00  0.00    -0.003 A 
ATOM      4  C5  UNL d   1       1.081   3.352   0.604  0.00  0.00     0.000 A 
ATOM      5  C6  UNL d   1       2.064   2.368   0.695  0.00  0.00     0.000 A 
ATOM      6  C7  UNL d   1       1.778   1.029   0.376  0.00  0.00    -0.073 A 
ATOM      7  C8  UNL d   1       2.876   0.008   0.497  0.00  0.00     0.078 C 
ENDROOT
BRANCH   1   8
ATOM      8  C1  UNL d   1       0.071  -0.746  -0.326  0.00  0.00     0.053 C 
ATOM      9  C   UNL d   1      -0.550  -1.457   0.866  0.00  0.00     0.018 C 
ENDBRANCH   1   8
TORSDOF 1
ENDMDL
