MODEL 1
REMARK minimizedAffinity -3.56195354
REMARK minimizedRMSD -1
REMARK  1 active torsions:
REMARK  status: ('A' for Active; 'I' for Inactive)
REMARK    1  A    between atoms: C1_2  and  C2_3 
ROOT
ATOM      1  C2  UNL d   1      -0.559   0.881   0.225  0.00  0.00    -0.076 A 
ATOM      2  C3  UNL d   1       0.649   0.489  -0.378  0.00  0.00     0.004 A 
ATOM      3  C4  UNL d   1       0.981  -0.858  -0.513  0.00  0.00    -0.003 A 
ATOM      4  C5  UNL d   1       0.109  -1.836  -0.046  0.00  0.00     0.000 A 
ATOM      5  C6  UNL d   1      -1.101  -1.466   0.539  0.00  0.00     0.000 A 
ATOM      6  C7  UNL d   1      -1.458  -0.113   0.667  0.00  0.00    -0.073 A 
ATOM      7  C8  UNL d   1      -2.774   0.228   1.312  0.00  0.00     0.078 C 
ENDROOT
BRANCH   1   8
ATOM      8  C1  UNL d   1      -0.853   2.357   0.367  0.00  0.00     0.053 C 
ATOM      9  C   UNL d   1       0.322   3.131   0.945  0.00  0.00     0.018 C 
ENDBRANCH   1   8
TORSDOF 1
ENDMDL
