MODEL 1
REMARK minimizedAffinity -3.5541625
REMARK minimizedRMSD -1
REMARK  1 active torsions:
REMARK  status: ('A' for Active; 'I' for Inactive)
REMARK    1  A    between atoms: C1_2  and  C2_3 
ROOT
ATOM      1  C2  UNL d   1      -0.163  -0.380  -0.015  0.00  0.00    -0.076 A 
ATOM      2  C3  UNL d   1      -1.436   0.207  -0.120  0.00  0.00     0.004 A 
ATOM      3  C4  UNL d   1      -1.606   1.583   0.030  0.00  0.00    -0.003 A 
ATOM      4  C5  UNL d   1      -0.505   2.393   0.287  0.00  0.00     0.000 A 
ATOM      5  C6  UNL d   1       0.767   1.829   0.376  0.00  0.00     0.000 A 
ATOM      6  C7  UNL d   1       0.958   0.446   0.211  0.00  0.00    -0.073 A 
ATOM      7  C8  UNL d   1       2.351  -0.109   0.324  0.00  0.00     0.078 C 
ENDROOT
BRANCH   1   8
ATOM      8  C1  UNL d   1      -0.044  -1.881  -0.160  0.00  0.00     0.053 C 
ATOM      9  C   UNL d   1       0.016  -2.323  -1.614  0.00  0.00     0.018 C 
ENDBRANCH   1   8
TORSDOF 1
ENDMDL
