MODEL 1
REMARK minimizedAffinity -1.61876214
REMARK minimizedRMSD -1
REMARK  1 active torsions:
REMARK  status: ('A' for Active; 'I' for Inactive)
REMARK    1  A    between atoms: C1_2  and  C2_3 
ROOT
ATOM      1  C2  UNL d   1      -0.819  -1.657  -1.434  0.00  0.00    -0.076 A 
ATOM      2  C3  UNL d   1      -0.168  -1.095  -2.546  0.00  0.00     0.004 A 
ATOM      3  C4  UNL d   1      -0.009  -1.819  -3.726  0.00  0.00    -0.003 A 
ATOM      4  C5  UNL d   1      -0.499  -3.118  -3.814  0.00  0.00     0.000 A 
ATOM      5  C6  UNL d   1      -1.163  -3.685  -2.726  0.00  0.00     0.000 A 
ATOM      6  C7  UNL d   1      -1.346  -2.962  -1.535  0.00  0.00    -0.073 A 
ATOM      7  C8  UNL d   1      -2.064  -3.625  -0.392  0.00  0.00     0.078 C 
ENDROOT
BRANCH   1   8
ATOM      8  C1  UNL d   1      -0.938  -0.833  -0.172  0.00  0.00     0.053 C 
ATOM      9  C   UNL d   1      -0.495   0.608  -0.373  0.00  0.00     0.018 C 
ENDBRANCH   1   8
TORSDOF 1
ENDMDL
