MODEL 1
REMARK minimizedAffinity -4.27103949
REMARK minimizedRMSD -1
REMARK  1 active torsions:
REMARK  status: ('A' for Active; 'I' for Inactive)
REMARK    1  A    between atoms: C1_2  and  C2_3 
ROOT
ATOM      1  C2  UNL d   1      -0.522   0.082  -0.242  0.00  0.00    -0.076 A 
ATOM      2  C3  UNL d   1      -0.024   0.655  -1.426  0.00  0.00     0.004 A 
ATOM      3  C4  UNL d   1      -0.194   2.013  -1.692  0.00  0.00    -0.003 A 
ATOM      4  C5  UNL d   1      -0.863   2.820  -0.778  0.00  0.00     0.000 A 
ATOM      5  C6  UNL d   1      -1.347   2.272   0.409  0.00  0.00     0.000 A 
ATOM      6  C7  UNL d   1      -1.171   0.909   0.700  0.00  0.00    -0.073 A 
ATOM      7  C8  UNL d   1      -1.719   0.370   1.993  0.00  0.00     0.078 C 
ENDROOT
BRANCH   1   8
ATOM      8  C1  UNL d   1      -0.332  -1.401  -0.020  0.00  0.00     0.053 C 
ATOM      9  C   UNL d   1      -0.532  -2.211  -1.292  0.00  0.00     0.018 C 
ENDBRANCH   1   8
TORSDOF 1
ENDMDL
