MODEL 1
REMARK minimizedAffinity -5.01064301
REMARK minimizedRMSD -1
REMARK  1 active torsions:
REMARK  status: ('A' for Active; 'I' for Inactive)
REMARK    1  A    between atoms: C1_2  and  C2_3 
ROOT
ATOM      1  C2  UNL d   1       0.090   0.402   0.251  0.00  0.00    -0.076 A 
ATOM      2  C3  UNL d   1       1.368   0.888  -0.076  0.00  0.00     0.004 A 
ATOM      3  C4  UNL d   1       1.580   2.244  -0.319  0.00  0.00    -0.003 A 
ATOM      4  C5  UNL d   1       0.517   3.137  -0.239  0.00  0.00     0.000 A 
ATOM      5  C6  UNL d   1      -0.754   2.675   0.101  0.00  0.00     0.000 A 
ATOM      6  C7  UNL d   1      -0.982   1.314   0.365  0.00  0.00    -0.073 A 
ATOM      7  C8  UNL d   1      -2.374   0.870   0.721  0.00  0.00     0.078 C 
ENDROOT
BRANCH   1   8
ATOM      8  C1  UNL d   1      -0.084  -1.082   0.478  0.00  0.00     0.053 C 
ATOM      9  C   UNL d   1      -0.103  -1.872  -0.822  0.00  0.00     0.018 C 
ENDBRANCH   1   8
TORSDOF 1
ENDMDL
