MODEL 1
REMARK minimizedAffinity 6.90318584
REMARK minimizedRMSD -1
REMARK  1 active torsions:
REMARK  status: ('A' for Active; 'I' for Inactive)
REMARK    1  A    between atoms: C1_2  and  C2_3 
ROOT
ATOM      1  C2  UNL d   1       1.150   1.641   0.359  0.00  0.00    -0.076 A 
ATOM      2  C3  UNL d   1       1.876   2.465  -0.518  0.00  0.00     0.004 A 
ATOM      3  C4  UNL d   1       1.480   3.779  -0.762  0.00  0.00    -0.003 A 
ATOM      4  C5  UNL d   1       0.351   4.290  -0.132  0.00  0.00     0.000 A 
ATOM      5  C6  UNL d   1      -0.372   3.493   0.755  0.00  0.00     0.000 A 
ATOM      6  C7  UNL d   1       0.024   2.171   1.024  0.00  0.00    -0.073 A 
ATOM      7  C8  UNL d   1      -0.796   1.354   1.984  0.00  0.00     0.078 C 
ENDROOT
BRANCH   1   8
ATOM      8  C1  UNL d   1       1.612   0.216   0.563  0.00  0.00     0.053 C 
ATOM      9  C   UNL d   1       3.074   0.019   0.194  0.00  0.00     0.018 C 
ENDBRANCH   1   8
TORSDOF 1
ENDMDL
