MODEL 1
REMARK minimizedAffinity 0.705206215
REMARK minimizedRMSD -1
REMARK  0 active torsions:
REMARK  status: ('A' for Active; 'I' for Inactive)
ROOT
ATOM      1  C   UNL d   1       0.568  -1.698  -0.052  0.00  0.00     0.124 A 
ATOM      2  C1  UNL d   1       1.668  -0.887   0.188  0.00  0.00     0.062 A 
ATOM      3  C2  UNL d   1       1.492   0.459   0.495  0.00  0.00     0.162 A 
ATOM      4  C3  UNL d   1       0.209   1.003   0.566  0.00  0.00    -0.034 A 
ATOM      5  C4  UNL d   1      -0.893   0.180   0.324  0.00  0.00     0.162 A 
ATOM      6  C5  UNL d   1      -0.711  -1.164   0.016  0.00  0.00     0.062 A 
ATOM      7  F   UNL d   1      -1.775  -1.947  -0.215  0.00  0.00    -0.097 F 
ATOM      8  F1  UNL d   1      -2.140   0.670   0.384  0.00  0.00    -0.096 F 
ATOM      9  I   UNL d   1      -0.059   3.015   1.026  0.00  0.00    -0.060 I 
ATOM     10  F2  UNL d   1       2.573   1.220   0.722  0.00  0.00    -0.096 F 
ATOM     11  F3  UNL d   1       2.905  -1.400   0.122  0.00  0.00    -0.097 F 
ATOM     12  F4  UNL d   1       0.741  -2.993  -0.348  0.00  0.00    -0.092 F 
ENDROOT
TORSDOF 0
ENDMDL
