MODEL 1
REMARK minimizedAffinity -2.49894094
REMARK minimizedRMSD -1
REMARK  0 active torsions:
REMARK  status: ('A' for Active; 'I' for Inactive)
ROOT
ATOM      1  C   UNL d   1       1.105   2.797   0.401  0.00  0.00     0.124 A 
ATOM      2  C1  UNL d   1      -0.213   2.377   0.286  0.00  0.00     0.062 A 
ATOM      3  C2  UNL d   1      -0.512   1.020   0.214  0.00  0.00     0.162 A 
ATOM      4  C3  UNL d   1       0.510   0.071   0.257  0.00  0.00    -0.034 A 
ATOM      5  C4  UNL d   1       1.833   0.501   0.372  0.00  0.00     0.162 A 
ATOM      6  C5  UNL d   1       2.127   1.859   0.444  0.00  0.00     0.062 A 
ATOM      7  F   UNL d   1       3.401   2.262   0.555  0.00  0.00    -0.097 F 
ATOM      8  F1  UNL d   1       2.840  -0.384   0.417  0.00  0.00    -0.096 F 
ATOM      9  I   UNL d   1       0.068  -1.960   0.150  0.00  0.00    -0.060 I 
ATOM     10  F2  UNL d   1      -1.794   0.643   0.103  0.00  0.00    -0.096 F 
ATOM     11  F3  UNL d   1      -1.202   3.282   0.244  0.00  0.00    -0.097 F 
ATOM     12  F4  UNL d   1       1.390   4.104   0.469  0.00  0.00    -0.092 F 
ENDROOT
TORSDOF 0
ENDMDL
