MODEL 1
REMARK minimizedAffinity -3.32800627
REMARK minimizedRMSD -1
REMARK  0 active torsions:
REMARK  status: ('A' for Active; 'I' for Inactive)
ROOT
ATOM      1  C   UNL d   1      -1.594   0.318   0.503  0.00  0.00     0.124 A 
ATOM      2  C1  UNL d   1      -0.714  -0.745   0.360  0.00  0.00     0.062 A 
ATOM      3  C2  UNL d   1       0.647  -0.510   0.189  0.00  0.00     0.162 A 
ATOM      4  C3  UNL d   1       1.138   0.796   0.162  0.00  0.00    -0.034 A 
ATOM      5  C4  UNL d   1       0.247   1.860   0.306  0.00  0.00     0.162 A 
ATOM      6  C5  UNL d   1      -1.113   1.620   0.476  0.00  0.00     0.062 A 
ATOM      7  F   UNL d   1      -1.961   2.649   0.614  0.00  0.00    -0.097 F 
ATOM      8  F1  UNL d   1       0.684   3.128   0.284  0.00  0.00    -0.096 F 
ATOM      9  I   UNL d   1       3.172   1.152  -0.093  0.00  0.00    -0.060 I 
ATOM     10  F2  UNL d   1       1.475  -1.557   0.053  0.00  0.00    -0.096 F 
ATOM     11  F3  UNL d   1      -1.176  -2.004   0.385  0.00  0.00    -0.097 F 
ATOM     12  F4  UNL d   1      -2.903   0.089   0.666  0.00  0.00    -0.092 F 
ENDROOT
TORSDOF 0
ENDMDL
