MODEL 1
REMARK minimizedAffinity 0.394689769
REMARK minimizedRMSD -1
REMARK  0 active torsions:
REMARK  status: ('A' for Active; 'I' for Inactive)
ROOT
ATOM      1  C   UNL d   1      -0.026   3.170   0.194  0.00  0.00     0.124 A 
ATOM      2  C1  UNL d   1       1.037   2.475  -0.366  0.00  0.00     0.062 A 
ATOM      3  C2  UNL d   1       0.975   1.092  -0.503  0.00  0.00     0.162 A 
ATOM      4  C3  UNL d   1      -0.156   0.393  -0.079  0.00  0.00    -0.034 A 
ATOM      5  C4  UNL d   1      -1.220   1.099   0.485  0.00  0.00     0.162 A 
ATOM      6  C5  UNL d   1      -1.153   2.482   0.619  0.00  0.00     0.062 A 
ATOM      7  F   UNL d   1      -2.181   3.151   1.161  0.00  0.00    -0.097 F 
ATOM      8  F1  UNL d   1      -2.323   0.458   0.902  0.00  0.00    -0.096 F 
ATOM      9  I   UNL d   1      -0.254  -1.676  -0.282  0.00  0.00    -0.060 I 
ATOM     10  F2  UNL d   1       2.016   0.446  -1.048  0.00  0.00    -0.096 F 
ATOM     11  F3  UNL d   1       2.128   3.138  -0.777  0.00  0.00    -0.097 F 
ATOM     12  F4  UNL d   1       0.038   4.502   0.325  0.00  0.00    -0.092 F 
ENDROOT
TORSDOF 0
ENDMDL
