MODEL 1
REMARK minimizedAffinity 1.58426499
REMARK minimizedRMSD -1
REMARK  0 active torsions:
REMARK  status: ('A' for Active; 'I' for Inactive)
ROOT
ATOM      1  C   UNL d   1       0.289   2.478   0.152  0.00  0.00     0.124 A 
ATOM      2  C1  UNL d   1      -0.931   1.998   0.609  0.00  0.00     0.062 A 
ATOM      3  C2  UNL d   1      -1.212   0.636   0.554  0.00  0.00     0.162 A 
ATOM      4  C3  UNL d   1      -0.271  -0.257   0.042  0.00  0.00    -0.034 A 
ATOM      5  C4  UNL d   1       0.953   0.233  -0.417  0.00  0.00     0.162 A 
ATOM      6  C5  UNL d   1       1.229   1.595  -0.360  0.00  0.00     0.062 A 
ATOM      7  F   UNL d   1       2.408   2.057  -0.802  0.00  0.00    -0.097 F 
ATOM      8  F1  UNL d   1       1.880  -0.597  -0.916  0.00  0.00    -0.096 F 
ATOM      9  I   UNL d   1      -0.688  -2.294  -0.042  0.00  0.00    -0.060 I 
ATOM     10  F2  UNL d   1      -2.399   0.200   1.003  0.00  0.00    -0.096 F 
ATOM     11  F3  UNL d   1      -1.842   2.849   1.104  0.00  0.00    -0.097 F 
ATOM     12  F4  UNL d   1       0.556   3.789   0.205  0.00  0.00    -0.092 F 
ENDROOT
TORSDOF 0
ENDMDL
