MODEL 1
REMARK minimizedAffinity -2.39495707
REMARK minimizedRMSD -1
REMARK  0 active torsions:
REMARK  status: ('A' for Active; 'I' for Inactive)
ROOT
ATOM      1  C   UNL d   1       0.416   2.130   0.487  0.00  0.00     0.124 A 
ATOM      2  C1  UNL d   1      -0.939   1.828   0.524  0.00  0.00     0.062 A 
ATOM      3  C2  UNL d   1      -1.379   0.548   0.201  0.00  0.00     0.162 A 
ATOM      4  C3  UNL d   1      -0.465  -0.441  -0.160  0.00  0.00    -0.034 A 
ATOM      5  C4  UNL d   1       0.896  -0.130  -0.196  0.00  0.00     0.162 A 
ATOM      6  C5  UNL d   1       1.331   1.151   0.127  0.00  0.00     0.062 A 
ATOM      7  F   UNL d   1       2.640   1.441   0.091  0.00  0.00    -0.097 F 
ATOM      8  F1  UNL d   1       1.802  -1.057  -0.540  0.00  0.00    -0.096 F 
ATOM      9  I   UNL d   1      -1.120  -2.357  -0.644  0.00  0.00    -0.060 I 
ATOM     10  F2  UNL d   1      -2.694   0.284   0.245  0.00  0.00    -0.096 F 
ATOM     11  F3  UNL d   1      -1.825   2.772   0.871  0.00  0.00    -0.097 F 
ATOM     12  F4  UNL d   1       0.837   3.362   0.798  0.00  0.00    -0.092 F 
ENDROOT
TORSDOF 0
ENDMDL
