MODEL 1
REMARK minimizedAffinity -3.82747197
REMARK minimizedRMSD -1
REMARK  0 active torsions:
REMARK  status: ('A' for Active; 'I' for Inactive)
ROOT
ATOM      1  C   UNL d   1      -1.573   1.918   0.004  0.00  0.00     0.124 A 
ATOM      2  C1  UNL d   1      -0.283   2.334  -0.295  0.00  0.00     0.062 A 
ATOM      3  C2  UNL d   1       0.771   1.425  -0.267  0.00  0.00     0.162 A 
ATOM      4  C3  UNL d   1       0.539   0.089   0.060  0.00  0.00    -0.034 A 
ATOM      5  C4  UNL d   1      -0.761  -0.323   0.360  0.00  0.00     0.162 A 
ATOM      6  C5  UNL d   1      -1.811   0.590   0.331  0.00  0.00     0.062 A 
ATOM      7  F   UNL d   1      -3.056   0.186   0.619  0.00  0.00    -0.097 F 
ATOM      8  F1  UNL d   1      -1.020  -1.600   0.678  0.00  0.00    -0.096 F 
ATOM      9  I   UNL d   1       2.111  -1.274   0.102  0.00  0.00    -0.060 I 
ATOM     10  F2  UNL d   1       2.007   1.855  -0.560  0.00  0.00    -0.096 F 
ATOM     11  F3  UNL d   1      -0.050   3.617  -0.610  0.00  0.00    -0.097 F 
ATOM     12  F4  UNL d   1      -2.584   2.795  -0.023  0.00  0.00    -0.092 F 
ENDROOT
TORSDOF 0
ENDMDL
