MODEL 1
REMARK minimizedAffinity 0.804731488
REMARK minimizedRMSD -1
REMARK  0 active torsions:
REMARK  status: ('A' for Active; 'I' for Inactive)
ROOT
ATOM      1  C   UNL d   1       0.460   3.265   0.378  0.00  0.00     0.124 A 
ATOM      2  C1  UNL d   1       1.543   2.569  -0.140  0.00  0.00     0.062 A 
ATOM      3  C2  UNL d   1       1.440   1.206  -0.399  0.00  0.00     0.162 A 
ATOM      4  C3  UNL d   1       0.249   0.528  -0.141  0.00  0.00    -0.034 A 
ATOM      5  C4  UNL d   1      -0.836   1.235   0.382  0.00  0.00     0.162 A 
ATOM      6  C5  UNL d   1      -0.728   2.598   0.638  0.00  0.00     0.062 A 
ATOM      7  F   UNL d   1      -1.776   3.268   1.139  0.00  0.00    -0.097 F 
ATOM      8  F1  UNL d   1      -1.997   0.615   0.642  0.00  0.00    -0.096 F 
ATOM      9  I   UNL d   1       0.091  -1.511  -0.526  0.00  0.00    -0.060 I 
ATOM     10  F2  UNL d   1       2.503   0.558  -0.900  0.00  0.00    -0.096 F 
ATOM     11  F3  UNL d   1       2.693   3.212  -0.392  0.00  0.00    -0.097 F 
ATOM     12  F4  UNL d   1       0.562   4.577   0.627  0.00  0.00    -0.092 F 
ENDROOT
TORSDOF 0
ENDMDL
