MODEL 1
REMARK minimizedAffinity -1.11523759
REMARK minimizedRMSD -1
REMARK  0 active torsions:
REMARK  status: ('A' for Active; 'I' for Inactive)
ROOT
ATOM      1  C   UNL d   1       0.086  -1.848  -0.891  0.00  0.00     0.124 A 
ATOM      2  C1  UNL d   1      -1.033  -1.139  -1.307  0.00  0.00     0.062 A 
ATOM      3  C2  UNL d   1      -1.106   0.235  -1.102  0.00  0.00     0.162 A 
ATOM      4  C3  UNL d   1      -0.057   0.911  -0.480  0.00  0.00    -0.034 A 
ATOM      5  C4  UNL d   1       1.064   0.192  -0.063  0.00  0.00     0.162 A 
ATOM      6  C5  UNL d   1       1.133  -1.182  -0.270  0.00  0.00     0.062 A 
ATOM      7  F   UNL d   1       2.214  -1.865   0.133  0.00  0.00    -0.097 F 
ATOM      8  F1  UNL d   1       2.091   0.810   0.538  0.00  0.00    -0.096 F 
ATOM      9  I   UNL d   1      -0.163   2.967  -0.173  0.00  0.00    -0.060 I 
ATOM     10  F2  UNL d   1      -2.199   0.895  -1.515  0.00  0.00    -0.096 F 
ATOM     11  F3  UNL d   1      -2.047  -1.781  -1.906  0.00  0.00    -0.097 F 
ATOM     12  F4  UNL d   1       0.153  -3.171  -1.087  0.00  0.00    -0.092 F 
ENDROOT
TORSDOF 0
ENDMDL
