MODEL 1
REMARK minimizedAffinity 0.0169351548
REMARK minimizedRMSD -1
REMARK  0 active torsions:
REMARK  status: ('A' for Active; 'I' for Inactive)
ROOT
ATOM      1  C   UNL d   1       0.835   2.163  -0.027  0.00  0.00     0.124 A 
ATOM      2  C1  UNL d   1       1.694   1.086  -0.193  0.00  0.00     0.062 A 
ATOM      3  C2  UNL d   1       1.188  -0.210  -0.250  0.00  0.00     0.162 A 
ATOM      4  C3  UNL d   1      -0.184  -0.435  -0.141  0.00  0.00    -0.034 A 
ATOM      5  C4  UNL d   1      -1.041   0.653   0.027  0.00  0.00     0.162 A 
ATOM      6  C5  UNL d   1      -0.531   1.946   0.083  0.00  0.00     0.062 A 
ATOM      7  F   UNL d   1      -1.363   2.986   0.244  0.00  0.00    -0.097 F 
ATOM      8  F1  UNL d   1      -2.366   0.472   0.135  0.00  0.00    -0.096 F 
ATOM      9  I   UNL d   1      -0.944  -2.371  -0.226  0.00  0.00    -0.060 I 
ATOM     10  F2  UNL d   1       2.041  -1.232  -0.412  0.00  0.00    -0.096 F 
ATOM     11  F3  UNL d   1       3.014   1.293  -0.299  0.00  0.00    -0.097 F 
ATOM     12  F4  UNL d   1       1.324   3.409   0.029  0.00  0.00    -0.092 F 
ENDROOT
TORSDOF 0
ENDMDL
