MODEL 1
REMARK minimizedAffinity 2.41278839
REMARK minimizedRMSD -1
REMARK  0 active torsions:
REMARK  status: ('A' for Active; 'I' for Inactive)
ROOT
ATOM      1  C   UNL d   1      -0.386   1.986   0.763  0.00  0.00     0.124 A 
ATOM      2  C1  UNL d   1      -0.978   0.807   1.193  0.00  0.00     0.062 A 
ATOM      3  C2  UNL d   1      -0.838  -0.360   0.446  0.00  0.00     0.162 A 
ATOM      4  C3  UNL d   1      -0.102  -0.353  -0.738  0.00  0.00    -0.034 A 
ATOM      5  C4  UNL d   1       0.490   0.837  -1.165  0.00  0.00     0.162 A 
ATOM      6  C5  UNL d   1       0.347   2.000  -0.415  0.00  0.00     0.062 A 
ATOM      7  F   UNL d   1       0.920   3.139  -0.832  0.00  0.00    -0.097 F 
ATOM      8  F1  UNL d   1       1.204   0.880  -2.299  0.00  0.00    -0.096 F 
ATOM      9  I   UNL d   1       0.109  -2.094  -1.858  0.00  0.00    -0.060 I 
ATOM     10  F2  UNL d   1      -1.421  -1.485   0.886  0.00  0.00    -0.096 F 
ATOM     11  F3  UNL d   1      -1.688   0.790   2.331  0.00  0.00    -0.097 F 
ATOM     12  F4  UNL d   1      -0.523   3.107   1.483  0.00  0.00    -0.092 F 
ENDROOT
TORSDOF 0
ENDMDL
