MODEL 1
REMARK minimizedAffinity 28.9578857
REMARK minimizedRMSD -1
REMARK  0 active torsions:
REMARK  status: ('A' for Active; 'I' for Inactive)
ROOT
ATOM      1  C   UNL d   1       1.285  -5.078  -2.018  0.00  0.00     0.124 A 
ATOM      2  C1  UNL d   1       1.279  -4.121  -3.023  0.00  0.00     0.062 A 
ATOM      3  C2  UNL d   1       2.285  -3.161  -3.081  0.00  0.00     0.162 A 
ATOM      4  C3  UNL d   1       3.307  -3.154  -2.131  0.00  0.00    -0.034 A 
ATOM      5  C4  UNL d   1       3.305  -4.119  -1.123  0.00  0.00     0.162 A 
ATOM      6  C5  UNL d   1       2.297  -5.076  -1.069  0.00  0.00     0.062 A 
ATOM      7  F   UNL d   1       2.304  -6.000  -0.097  0.00  0.00    -0.097 F 
ATOM      8  F1  UNL d   1       4.272  -4.141  -0.193  0.00  0.00    -0.096 F 
ATOM      9  I   UNL d   1       4.813  -1.720  -2.214  0.00  0.00    -0.060 I 
ATOM     10  F2  UNL d   1       2.255  -2.248  -4.063  0.00  0.00    -0.096 F 
ATOM     11  F3  UNL d   1       0.301  -4.120  -3.940  0.00  0.00    -0.097 F 
ATOM     12  F4  UNL d   1       0.315  -6.000  -1.964  0.00  0.00    -0.092 F 
ENDROOT
TORSDOF 0
ENDMDL
