MODEL 1
REMARK minimizedAffinity -0.882241726
REMARK minimizedRMSD -1
REMARK  0 active torsions:
REMARK  status: ('A' for Active; 'I' for Inactive)
ROOT
ATOM      1  C   UNL d   1       0.107   2.766  -0.271  0.00  0.00     0.124 A 
ATOM      2  C1  UNL d   1      -1.044   2.296   0.345  0.00  0.00     0.062 A 
ATOM      3  C2  UNL d   1      -1.235   0.929   0.523  0.00  0.00     0.162 A 
ATOM      4  C3  UNL d   1      -0.271   0.021   0.084  0.00  0.00    -0.034 A 
ATOM      5  C4  UNL d   1       0.884   0.502  -0.536  0.00  0.00     0.162 A 
ATOM      6  C5  UNL d   1       1.070   1.869  -0.711  0.00  0.00     0.062 A 
ATOM      7  F   UNL d   1       2.183   2.321  -1.306  0.00  0.00    -0.097 F 
ATOM      8  F1  UNL d   1       1.831  -0.343  -0.969  0.00  0.00    -0.096 F 
ATOM      9  I   UNL d   1      -0.552  -2.024   0.348  0.00  0.00    -0.060 I 
ATOM     10  F2  UNL d   1      -2.357   0.503   1.122  0.00  0.00    -0.096 F 
ATOM     11  F3  UNL d   1      -1.977   3.161   0.770  0.00  0.00    -0.097 F 
ATOM     12  F4  UNL d   1       0.287   4.082  -0.441  0.00  0.00    -0.092 F 
ENDROOT
TORSDOF 0
ENDMDL
