MODEL 1
REMARK minimizedAffinity 4.23878956
REMARK minimizedRMSD -1
REMARK  2 active torsions:
REMARK  status: ('A' for Active; 'I' for Inactive)
REMARK    1  A    between atoms: C2'_3  and  C1'_4 
REMARK    2  A    between atoms: C1'_4  and  C1_5 
ROOT
ATOM      1  C1  I4B d   1       0.133   0.343   0.521  0.00  0.00    -0.075 A 
ATOM      2  C2  I4B d   1      -0.529  -0.182  -0.561  0.00  0.00     0.003 A 
ATOM      3  C3  I4B d   1      -1.929  -0.388  -0.509  0.00  0.00     0.002 A 
ATOM      4  C4  I4B d   1      -2.615  -0.105   0.654  0.00  0.00    -0.004 A 
ATOM      5  C5  I4B d   1      -1.947   0.449   1.742  0.00  0.00     0.002 A 
ATOM      6  C6  I4B d   1      -0.566   0.686   1.671  0.00  0.00     0.003 A 
ENDROOT
BRANCH   1   7
ATOM      7  C1' I4B d   1       1.616   0.517   0.444  0.00  0.00     0.060 C 
BRANCH   7   8
ATOM      8  C2' I4B d   1       2.247  -0.386   1.485  0.00  0.00    -0.013 C 
ATOM      9  C4' I4B d   1       3.104  -1.444   0.842  0.00  0.00     0.013 C 
ATOM     10  C3' I4B d   1       3.052   0.472   2.415  0.00  0.00     0.013 C 
ENDBRANCH   7   8
ENDBRANCH   1   7
TORSDOF 2
ENDMDL
