MODEL 1
REMARK minimizedAffinity -5.44287014
REMARK minimizedRMSD -1
REMARK  2 active torsions:
REMARK  status: ('A' for Active; 'I' for Inactive)
REMARK    1  A    between atoms: C2'_3  and  C1'_4 
REMARK    2  A    between atoms: C1'_4  and  C1_5 
ROOT
ATOM      1  C1  I4B d   1      -0.082  -0.444  -0.261  0.00  0.00    -0.075 A 
ATOM      2  C2  I4B d   1      -1.407  -0.374  -0.610  0.00  0.00     0.003 A 
ATOM      3  C3  I4B d   1      -2.352   0.181   0.288  0.00  0.00     0.002 A 
ATOM      4  C4  I4B d   1      -1.938   0.603   1.535  0.00  0.00    -0.004 A 
ATOM      5  C5  I4B d   1      -0.590   0.552   1.877  0.00  0.00     0.002 A 
ATOM      6  C6  I4B d   1       0.346   0.036   0.970  0.00  0.00     0.003 A 
ENDROOT
BRANCH   1   7
ATOM      7  C1' I4B d   1       0.884  -1.066  -1.220  0.00  0.00     0.060 C 
BRANCH   7   8
ATOM      8  C2' I4B d   1       0.659  -0.438  -2.581  0.00  0.00    -0.013 C 
ATOM      9  C4' I4B d   1       1.801   0.469  -2.957  0.00  0.00     0.013 C 
ATOM     10  C3' I4B d   1       0.495  -1.544  -3.580  0.00  0.00     0.013 C 
ENDBRANCH   7   8
ENDBRANCH   1   7
TORSDOF 2
ENDMDL
