MODEL 1
REMARK minimizedAffinity -6.53160286
REMARK minimizedRMSD -1
REMARK  2 active torsions:
REMARK  status: ('A' for Active; 'I' for Inactive)
REMARK    1  A    between atoms: C2'_3  and  C1'_4 
REMARK    2  A    between atoms: C1'_4  and  C1_5 
ROOT
ATOM      1  C1  I4B d   1       0.326  -0.075   0.373  0.00  0.00    -0.075 A 
ATOM      2  C2  I4B d   1      -0.948   0.428   0.287  0.00  0.00     0.003 A 
ATOM      3  C3  I4B d   1      -1.558   1.022   1.418  0.00  0.00     0.002 A 
ATOM      4  C4  I4B d   1      -0.882   1.046   2.621  0.00  0.00    -0.004 A 
ATOM      5  C5  I4B d   1       0.419   0.556   2.701  0.00  0.00     0.002 A 
ATOM      6  C6  I4B d   1       1.032   0.003   1.567  0.00  0.00     0.003 A 
ENDROOT
BRANCH   1   7
ATOM      7  C1' I4B d   1       0.928  -0.725  -0.832  0.00  0.00     0.060 C 
BRANCH   7   8
ATOM      8  C2' I4B d   1       0.530   0.086  -2.048  0.00  0.00    -0.013 C 
ATOM      9  C4' I4B d   1       1.661   0.967  -2.510  0.00  0.00     0.013 C 
ATOM     10  C3' I4B d   1       0.113  -0.869  -3.126  0.00  0.00     0.013 C 
ENDBRANCH   7   8
ENDBRANCH   1   7
TORSDOF 2
ENDMDL
