MODEL 1
REMARK minimizedAffinity -5.66661787
REMARK minimizedRMSD -1
REMARK  2 active torsions:
REMARK  status: ('A' for Active; 'I' for Inactive)
REMARK    1  A    between atoms: C2'_3  and  C1'_4 
REMARK    2  A    between atoms: C1'_4  and  C1_5 
ROOT
ATOM      1  C1  I4B d   1      -0.105  -0.051  -0.016  0.00  0.00    -0.075 A 
ATOM      2  C2  I4B d   1       0.484   0.038   1.221  0.00  0.00     0.003 A 
ATOM      3  C3  I4B d   1      -0.163   0.736   2.270  0.00  0.00     0.002 A 
ATOM      4  C4  I4B d   1      -1.366   1.367   2.026  0.00  0.00    -0.004 A 
ATOM      5  C5  I4B d   1      -1.972   1.256   0.778  0.00  0.00     0.002 A 
ATOM      6  C6  I4B d   1      -1.345   0.532  -0.246  0.00  0.00     0.003 A 
ENDROOT
BRANCH   1   7
ATOM      7  C1' I4B d   1       0.621  -0.768  -1.110  0.00  0.00     0.060 C 
BRANCH   7   8
ATOM      8  C2' I4B d   1       0.423   0.016  -2.392  0.00  0.00    -0.013 C 
ATOM      9  C4' I4B d   1       1.690   0.720  -2.801  0.00  0.00     0.013 C 
ATOM     10  C3' I4B d   1      -0.031  -0.941  -3.453  0.00  0.00     0.013 C 
ENDBRANCH   7   8
ENDBRANCH   1   7
TORSDOF 2
ENDMDL
