MODEL 1
REMARK minimizedAffinity -2.48842645
REMARK minimizedRMSD -1
REMARK  0 active torsions:
REMARK  status: ('A' for Active; 'I' for Inactive)
ROOT
ATOM      1  O1  BZF d   1       1.436   1.418  -0.199  0.00  0.00    -0.204 OA
ATOM      2  C2  BZF d   1       0.110   1.785  -0.332  0.00  0.00     0.174 A 
ATOM      3  C3  BZF d   1      -0.653   0.716  -0.638  0.00  0.00    -0.012 A 
ATOM      4  C3A BZF d   1       0.237  -0.404  -0.608  0.00  0.00    -0.107 A 
ATOM      5  C4  BZF d   1       0.068  -1.743  -0.813  0.00  0.00     0.055 A 
ATOM      6  C5  BZF d   1       1.155  -2.558  -0.783  0.00  0.00    -0.016 A 
ATOM      7  C6  BZF d   1       2.424  -2.068  -0.556  0.00  0.00     0.022 A 
ATOM      8  C7  BZF d   1       2.641  -0.747  -0.343  0.00  0.00     0.029 A 
ATOM      9  C7A BZF d   1       1.540   0.075  -0.340  0.00  0.00     0.058 A 
ENDROOT
TORSDOF 0
ENDMDL
