MODEL 1
REMARK minimizedAffinity -5.78688049
REMARK minimizedRMSD -1
REMARK  0 active torsions:
REMARK  status: ('A' for Active; 'I' for Inactive)
ROOT
ATOM      1  O1  BZF d   1       0.272   1.375   0.613  0.00  0.00    -0.204 OA
ATOM      2  C2  BZF d   1      -0.884   0.810   0.108  0.00  0.00     0.174 A 
ATOM      3  C3  BZF d   1      -0.650  -0.441  -0.337  0.00  0.00    -0.012 A 
ATOM      4  C3A BZF d   1       0.717  -0.707  -0.010  0.00  0.00    -0.107 A 
ATOM      5  C4  BZF d   1       1.530  -1.791  -0.184  0.00  0.00     0.055 A 
ATOM      6  C5  BZF d   1       2.836  -1.701   0.181  0.00  0.00    -0.016 A 
ATOM      7  C6  BZF d   1       3.364  -0.544   0.716  0.00  0.00     0.022 A 
ATOM      8  C7  BZF d   1       2.595   0.555   0.912  0.00  0.00     0.029 A 
ATOM      9  C7A BZF d   1       1.267   0.457   0.575  0.00  0.00     0.058 A 
ENDROOT
TORSDOF 0
ENDMDL
