MODEL 1
REMARK minimizedAffinity -5.80167627
REMARK minimizedRMSD -1
REMARK  0 active torsions:
REMARK  status: ('A' for Active; 'I' for Inactive)
ROOT
ATOM      1  O1  BZF d   1      -0.019   0.899  -0.158  0.00  0.00    -0.204 OA
ATOM      2  C2  BZF d   1      -0.803  -0.166  -0.560  0.00  0.00     0.174 A 
ATOM      3  C3  BZF d   1      -0.132  -1.329  -0.434  0.00  0.00    -0.012 A 
ATOM      4  C3A BZF d   1       1.119  -0.978   0.166  0.00  0.00    -0.107 A 
ATOM      5  C4  BZF d   1       2.209  -1.702   0.555  0.00  0.00     0.055 A 
ATOM      6  C5  BZF d   1       3.298  -1.049   1.040  0.00  0.00    -0.016 A 
ATOM      7  C6  BZF d   1       3.333   0.327   1.143  0.00  0.00     0.022 A 
ATOM      8  C7  BZF d   1       2.274   1.087   0.774  0.00  0.00     0.029 A 
ATOM      9  C7A BZF d   1       1.160   0.428   0.315  0.00  0.00     0.058 A 
ENDROOT
TORSDOF 0
ENDMDL
