MODEL 1
REMARK minimizedAffinity 0.160737187
REMARK minimizedRMSD -1
REMARK  0 active torsions:
REMARK  status: ('A' for Active; 'I' for Inactive)
ROOT
ATOM      1  O1  BZF d   1      -0.945   1.373  -0.688  0.00  0.00    -0.204 OA
ATOM      2  C2  BZF d   1      -0.400   0.119  -0.883  0.00  0.00     0.174 A 
ATOM      3  C3  BZF d   1      -1.222  -0.839  -0.408  0.00  0.00    -0.012 A 
ATOM      4  C3A BZF d   1      -2.393  -0.145   0.033  0.00  0.00    -0.107 A 
ATOM      5  C4  BZF d   1      -3.573  -0.552   0.587  0.00  0.00     0.055 A 
ATOM      6  C5  BZF d   1      -4.480   0.385   0.971  0.00  0.00    -0.016 A 
ATOM      7  C6  BZF d   1      -4.239   1.734   0.820  0.00  0.00     0.022 A 
ATOM      8  C7  BZF d   1      -3.085   2.186   0.270  0.00  0.00     0.029 A 
ATOM      9  C7A BZF d   1      -2.181   1.241  -0.149  0.00  0.00     0.058 A 
ENDROOT
TORSDOF 0
ENDMDL
