MODEL 1
REMARK minimizedAffinity -1.84605324
REMARK minimizedRMSD -1
REMARK  0 active torsions:
REMARK  status: ('A' for Active; 'I' for Inactive)
ROOT
ATOM      1  O1  BZF d   1      -0.670   0.779  -0.382  0.00  0.00    -0.204 OA
ATOM      2  C2  BZF d   1       0.130   1.707   0.256  0.00  0.00     0.174 A 
ATOM      3  C3  BZF d   1       1.401   1.263   0.344  0.00  0.00    -0.012 A 
ATOM      4  C3A BZF d   1       1.414   0.017  -0.360  0.00  0.00    -0.107 A 
ATOM      5  C4  BZF d   1       2.392  -0.896  -0.634  0.00  0.00     0.055 A 
ATOM      6  C5  BZF d   1       2.060  -2.044  -1.281  0.00  0.00    -0.016 A 
ATOM      7  C6  BZF d   1       0.762  -2.314  -1.663  0.00  0.00     0.022 A 
ATOM      8  C7  BZF d   1      -0.241  -1.436  -1.417  0.00  0.00     0.029 A 
ATOM      9  C7A BZF d   1       0.097  -0.260  -0.793  0.00  0.00     0.058 A 
ENDROOT
TORSDOF 0
ENDMDL
