MODEL 1
REMARK minimizedAffinity -0.23110798
REMARK minimizedRMSD -1
REMARK  0 active torsions:
REMARK  status: ('A' for Active; 'I' for Inactive)
ROOT
ATOM      1  O1  BZF d   1      -0.178   0.923  -1.802  0.00  0.00    -0.204 OA
ATOM      2  C2  BZF d   1      -1.535   0.719  -1.646  0.00  0.00     0.174 A 
ATOM      3  C3  BZF d   1      -1.786  -0.545  -1.247  0.00  0.00    -0.012 A 
ATOM      4  C3A BZF d   1      -0.500  -1.142  -1.058  0.00  0.00    -0.107 A 
ATOM      5  C4  BZF d   1      -0.091  -2.380  -0.652  0.00  0.00     0.055 A 
ATOM      6  C5  BZF d   1       1.237  -2.667  -0.645  0.00  0.00    -0.016 A 
ATOM      7  C6  BZF d   1       2.182  -1.743  -1.041  0.00  0.00     0.022 A 
ATOM      8  C7  BZF d   1       1.824  -0.501  -1.447  0.00  0.00     0.029 A 
ATOM      9  C7A BZF d   1       0.485  -0.197  -1.425  0.00  0.00     0.058 A 
ENDROOT
TORSDOF 0
ENDMDL
