MODEL 1
REMARK minimizedAffinity -0.272402108
REMARK minimizedRMSD -1
REMARK  0 active torsions:
REMARK  status: ('A' for Active; 'I' for Inactive)
ROOT
ATOM      1  C   UNL d   1       2.345  -1.448  -0.803  0.00  0.00    -0.002 A 
ATOM      2  C1  UNL d   1       2.894  -2.723  -0.792  0.00  0.00     0.010 A 
ATOM      3  C2  UNL d   1       2.094  -3.842  -1.032  0.00  0.00     0.041 A 
ATOM      4  C3  UNL d   1       0.721  -3.657  -1.288  0.00  0.00    -0.075 A 
ATOM      5  S   UNL d   1      -0.451  -4.879  -1.610  0.00  0.00     0.015 SA
ATOM      6  C4  UNL d   1      -1.706  -3.738  -1.772  0.00  0.00     0.022 A 
ATOM      7  C5  UNL d   1      -1.260  -2.451  -1.587  0.00  0.00     0.026 A 
ATOM      8  C6  UNL d   1       0.146  -2.383  -1.306  0.00  0.00    -0.082 A 
ATOM      9  C7  UNL d   1       0.983  -1.268  -1.058  0.00  0.00     0.045 A 
ENDROOT
TORSDOF 0
ENDMDL
