MODEL 1
REMARK minimizedAffinity -1.3867135
REMARK minimizedRMSD -1
REMARK  0 active torsions:
REMARK  status: ('A' for Active; 'I' for Inactive)
ROOT
ATOM      1  C   UNL d   1      -1.717   2.528   1.377  0.00  0.00    -0.002 A 
ATOM      2  C1  UNL d   1      -0.742   2.763   2.336  0.00  0.00     0.010 A 
ATOM      3  C2  UNL d   1       0.368   1.921   2.442  0.00  0.00     0.041 A 
ATOM      4  C3  UNL d   1       0.483   0.831   1.557  0.00  0.00    -0.075 A 
ATOM      5  S   UNL d   1       1.754  -0.331   1.499  0.00  0.00     0.015 SA
ATOM      6  C4  UNL d   1       1.034  -1.166   0.199  0.00  0.00     0.022 A 
ATOM      7  C5  UNL d   1      -0.149  -0.585  -0.194  0.00  0.00     0.026 A 
ATOM      8  C6  UNL d   1      -0.486   0.575   0.582  0.00  0.00    -0.082 A 
ATOM      9  C7  UNL d   1      -1.600   1.446   0.501  0.00  0.00     0.045 A 
ENDROOT
TORSDOF 0
ENDMDL
