MODEL 1
REMARK minimizedAffinity 0.841894865
REMARK minimizedRMSD -1
REMARK  0 active torsions:
REMARK  status: ('A' for Active; 'I' for Inactive)
ROOT
ATOM      1  C   UNL d   1       1.682  -5.999   0.007  0.00  0.00    -0.002 A 
ATOM      2  C1  UNL d   1       2.547  -4.918  -0.075  0.00  0.00     0.010 A 
ATOM      3  C2  UNL d   1       2.117  -3.703  -0.612  0.00  0.00     0.041 A 
ATOM      4  C3  UNL d   1       0.788  -3.591  -1.067  0.00  0.00    -0.075 A 
ATOM      5  S   UNL d   1       0.040  -2.201  -1.760  0.00  0.00     0.015 SA
ATOM      6  C4  UNL d   1      -1.446  -3.010  -1.962  0.00  0.00     0.022 A 
ATOM      7  C5  UNL d   1      -1.391  -4.309  -1.517  0.00  0.00     0.026 A 
ATOM      8  C6  UNL d   1      -0.102  -4.666  -0.993  0.00  0.00    -0.082 A 
ATOM      9  C7  UNL d   1       0.365  -5.885  -0.445  0.00  0.00     0.045 A 
ENDROOT
TORSDOF 0
ENDMDL
