MODEL 1
REMARK minimizedAffinity 3.90986824
REMARK minimizedRMSD -1
REMARK  0 active torsions:
REMARK  status: ('A' for Active; 'I' for Inactive)
ROOT
ATOM      1  C   UNL d   1      -1.394   2.717  -1.171  0.00  0.00    -0.002 A 
ATOM      2  C1  UNL d   1      -2.225   2.418  -0.101  0.00  0.00     0.010 A 
ATOM      3  C2  UNL d   1      -2.200   1.151   0.486  0.00  0.00     0.041 A 
ATOM      4  C3  UNL d   1      -1.316   0.181  -0.025  0.00  0.00    -0.075 A 
ATOM      5  S   UNL d   1      -1.113  -1.437   0.534  0.00  0.00     0.015 SA
ATOM      6  C4  UNL d   1       0.083  -1.770  -0.634  0.00  0.00     0.022 A 
ATOM      7  C5  UNL d   1       0.333  -0.685  -1.439  0.00  0.00     0.026 A 
ATOM      8  C6  UNL d   1      -0.469   0.458  -1.102  0.00  0.00    -0.082 A 
ATOM      9  C7  UNL d   1      -0.518   1.751  -1.675  0.00  0.00     0.045 A 
ENDROOT
TORSDOF 0
ENDMDL
