MODEL 1
REMARK minimizedAffinity 5.61437321
REMARK minimizedRMSD -1
REMARK  0 active torsions:
REMARK  status: ('A' for Active; 'I' for Inactive)
ROOT
ATOM      1  C   UNL d   1       4.270  -1.048  -0.186  0.00  0.00    -0.002 A 
ATOM      2  C1  UNL d   1       3.960  -0.833   1.150  0.00  0.00     0.010 A 
ATOM      3  C2  UNL d   1       2.710  -0.330   1.517  0.00  0.00     0.041 A 
ATOM      4  C3  UNL d   1       1.768  -0.044   0.510  0.00  0.00    -0.075 A 
ATOM      5  S   UNL d   1       0.174   0.578   0.723  0.00  0.00     0.015 SA
ATOM      6  C4  UNL d   1      -0.133   0.573  -0.953  0.00  0.00     0.022 A 
ATOM      7  C5  UNL d   1       0.943   0.111  -1.673  0.00  0.00     0.026 A 
ATOM      8  C6  UNL d   1       2.056  -0.253  -0.842  0.00  0.00    -0.082 A 
ATOM      9  C7  UNL d   1       3.332  -0.764  -1.182  0.00  0.00     0.045 A 
ENDROOT
TORSDOF 0
ENDMDL
