MODEL 1
REMARK minimizedAffinity 1.1743784
REMARK minimizedRMSD -1
REMARK  0 active torsions:
REMARK  status: ('A' for Active; 'I' for Inactive)
ROOT
ATOM      1  C   UNL d   1      -1.465   2.559   1.333  0.00  0.00    -0.002 A 
ATOM      2  C1  UNL d   1      -0.147   2.719   1.736  0.00  0.00     0.010 A 
ATOM      3  C2  UNL d   1       0.801   1.728   1.475  0.00  0.00     0.041 A 
ATOM      4  C3  UNL d   1       0.398   0.562   0.793  0.00  0.00    -0.075 A 
ATOM      5  S   UNL d   1       1.385  -0.784   0.364  0.00  0.00     0.015 SA
ATOM      6  C4  UNL d   1       0.081  -1.603  -0.366  0.00  0.00     0.022 A 
ATOM      7  C5  UNL d   1      -1.087  -0.881  -0.293  0.00  0.00     0.026 A 
ATOM      8  C6  UNL d   1      -0.924   0.379   0.376  0.00  0.00    -0.082 A 
ATOM      9  C7  UNL d   1      -1.861   1.402   0.657  0.00  0.00     0.045 A 
ENDROOT
TORSDOF 0
ENDMDL
