MODEL 1
REMARK minimizedAffinity -3.42957425
REMARK minimizedRMSD -1
REMARK  0 active torsions:
REMARK  status: ('A' for Active; 'I' for Inactive)
ROOT
ATOM      1  C   UNL d   1      -0.057   0.753   1.505  0.00  0.00     0.020 A 
ATOM      2  C1  UNL d   1       0.424   1.394   0.364  0.00  0.00     0.020 A 
ATOM      3  C2  UNL d   1       0.521   0.694  -0.841  0.00  0.00     0.034 A 
ATOM      4  C3  UNL d   1       0.136  -0.650  -0.907  0.00  0.00     0.017 A 
ATOM      5  C4  UNL d   1      -0.346  -1.292   0.239  0.00  0.00     0.017 A 
ATOM      6  C5  UNL d   1      -0.441  -0.587   1.443  0.00  0.00     0.034 A 
ATOM      7 Cl   UNL d   1      -0.840  -2.949   0.235  0.00  0.00    -0.070 Cl
ATOM      8 Cl1  UNL d   1       0.282  -1.453  -2.430  0.00  0.00    -0.070 Cl
ENDROOT
TORSDOF 0
ENDMDL
