MODEL 1
REMARK minimizedAffinity -3.64596629
REMARK minimizedRMSD -1
REMARK  0 active torsions:
REMARK  status: ('A' for Active; 'I' for Inactive)
ROOT
ATOM      1  C   UNL d   1      -0.232   1.150   0.243  0.00  0.00     0.020 A 
ATOM      2  C1  UNL d   1       0.121   1.215  -1.104  0.00  0.00     0.020 A 
ATOM      3  C2  UNL d   1       0.095   0.061  -1.889  0.00  0.00     0.034 A 
ATOM      4  C3  UNL d   1      -0.285  -1.164  -1.328  0.00  0.00     0.017 A 
ATOM      5  C4  UNL d   1      -0.640  -1.228   0.025  0.00  0.00     0.017 A 
ATOM      6  C5  UNL d   1      -0.612  -0.069   0.806  0.00  0.00     0.034 A 
ATOM      7 Cl   UNL d   1      -1.120  -2.702   0.788  0.00  0.00    -0.070 Cl
ATOM      8 Cl1  UNL d   1      -0.295  -2.551  -2.357  0.00  0.00    -0.070 Cl
ENDROOT
TORSDOF 0
ENDMDL
