MODEL 1
REMARK minimizedAffinity -1.88880217
REMARK minimizedRMSD -1
REMARK  0 active torsions:
REMARK  status: ('A' for Active; 'I' for Inactive)
ROOT
ATOM      1  C   UNL d   1      -0.089   1.608   0.237  0.00  0.00     0.020 A 
ATOM      2  C1  UNL d   1      -0.499   1.103   1.471  0.00  0.00     0.020 A 
ATOM      3  C2  UNL d   1      -0.746  -0.264   1.618  0.00  0.00     0.034 A 
ATOM      4  C3  UNL d   1      -0.584  -1.130   0.530  0.00  0.00     0.017 A 
ATOM      5  C4  UNL d   1      -0.173  -0.621  -0.707  0.00  0.00     0.017 A 
ATOM      6  C5  UNL d   1       0.074   0.748  -0.849  0.00  0.00     0.034 A 
ATOM      7 Cl   UNL d   1       0.049  -1.628  -2.095  0.00  0.00    -0.070 Cl
ATOM      8 Cl1  UNL d   1      -0.907  -2.808   0.784  0.00  0.00    -0.070 Cl
ENDROOT
TORSDOF 0
ENDMDL
