MODEL 1
REMARK minimizedAffinity -2.88619661
REMARK minimizedRMSD -1
REMARK  0 active torsions:
REMARK  status: ('A' for Active; 'I' for Inactive)
ROOT
ATOM      1  C   UNL d   1      -0.363   0.276   0.374  0.00  0.00     0.020 A 
ATOM      2  C1  UNL d   1       0.828  -0.287  -0.080  0.00  0.00     0.020 A 
ATOM      3  C2  UNL d   1       0.878  -1.643  -0.410  0.00  0.00     0.034 A 
ATOM      4  C3  UNL d   1      -0.266  -2.440  -0.287  0.00  0.00     0.017 A 
ATOM      5  C4  UNL d   1      -1.462  -1.873   0.169  0.00  0.00     0.017 A 
ATOM      6  C5  UNL d   1      -1.506  -0.515   0.498  0.00  0.00     0.034 A 
ATOM      7 Cl   UNL d   1      -2.914  -2.793   0.346  0.00  0.00    -0.070 Cl
ATOM      8 Cl1  UNL d   1      -0.132  -4.109  -0.714  0.00  0.00    -0.070 Cl
ENDROOT
TORSDOF 0
ENDMDL
