MODEL 1
REMARK minimizedAffinity -1.90139461
REMARK minimizedRMSD -1
REMARK  0 active torsions:
REMARK  status: ('A' for Active; 'I' for Inactive)
ROOT
ATOM      1  C   UNL d   1      -1.373  -1.920   1.646  0.00  0.00     0.020 A 
ATOM      2  C1  UNL d   1      -1.275  -2.996   0.765  0.00  0.00     0.020 A 
ATOM      3  C2  UNL d   1      -0.781  -2.799  -0.526  0.00  0.00     0.034 A 
ATOM      4  C3  UNL d   1      -0.381  -1.523  -0.940  0.00  0.00     0.017 A 
ATOM      5  C4  UNL d   1      -0.480  -0.443  -0.055  0.00  0.00     0.017 A 
ATOM      6  C5  UNL d   1      -0.976  -0.647   1.237  0.00  0.00     0.034 A 
ATOM      7 Cl   UNL d   1      -0.007   1.160  -0.493  0.00  0.00    -0.070 Cl
ATOM      8 Cl1  UNL d   1       0.221  -1.352  -2.550  0.00  0.00    -0.070 Cl
ENDROOT
TORSDOF 0
ENDMDL
