MODEL 1
REMARK minimizedAffinity -2.31232405
REMARK minimizedRMSD -1
REMARK  0 active torsions:
REMARK  status: ('A' for Active; 'I' for Inactive)
ROOT
ATOM      1  C   UNL d   1      -0.890  -2.945   0.428  0.00  0.00     0.020 A 
ATOM      2  C1  UNL d   1      -1.092  -1.930   1.363  0.00  0.00     0.020 A 
ATOM      3  C2  UNL d   1      -0.711  -0.620   1.064  0.00  0.00     0.034 A 
ATOM      4  C3  UNL d   1      -0.126  -0.322  -0.172  0.00  0.00     0.017 A 
ATOM      5  C4  UNL d   1       0.076  -1.341  -1.110  0.00  0.00     0.017 A 
ATOM      6  C5  UNL d   1      -0.308  -2.651  -0.805  0.00  0.00     0.034 A 
ATOM      7 Cl   UNL d   1       0.791  -1.050  -2.656  0.00  0.00    -0.070 Cl
ATOM      8 Cl1  UNL d   1       0.321   1.320  -0.474  0.00  0.00    -0.070 Cl
ENDROOT
TORSDOF 0
ENDMDL
