MODEL 1
REMARK minimizedAffinity -3.61806035
REMARK minimizedRMSD -1
REMARK  0 active torsions:
REMARK  status: ('A' for Active; 'I' for Inactive)
ROOT
ATOM      1  C   UNL d   1      -1.258  -2.492   0.512  0.00  0.00     0.020 A 
ATOM      2  C1  UNL d   1      -1.048  -1.664   1.614  0.00  0.00     0.020 A 
ATOM      3  C2  UNL d   1      -0.436  -0.420   1.447  0.00  0.00     0.034 A 
ATOM      4  C3  UNL d   1      -0.032  -0.000   0.174  0.00  0.00     0.017 A 
ATOM      5  C4  UNL d   1      -0.243  -0.832  -0.932  0.00  0.00     0.017 A 
ATOM      6  C5  UNL d   1      -0.857  -2.076  -0.758  0.00  0.00     0.034 A 
ATOM      7 Cl   UNL d   1       0.228  -0.382  -2.533  0.00  0.00    -0.070 Cl
ATOM      8 Cl1  UNL d   1       0.718   1.551   0.040  0.00  0.00    -0.070 Cl
ENDROOT
TORSDOF 0
ENDMDL
