MODEL 1
REMARK minimizedAffinity -1.66254818
REMARK minimizedRMSD -1
REMARK  0 active torsions:
REMARK  status: ('A' for Active; 'I' for Inactive)
ROOT
ATOM      1  C   UNL d   1      -1.105  -2.712   0.353  0.00  0.00     0.020 A 
ATOM      2  C1  UNL d   1      -1.207  -1.872   1.460  0.00  0.00     0.020 A 
ATOM      3  C2  UNL d   1      -0.844  -0.528   1.353  0.00  0.00     0.034 A 
ATOM      4  C3  UNL d   1      -0.376  -0.020   0.135  0.00  0.00     0.017 A 
ATOM      5  C4  UNL d   1      -0.274  -0.865  -0.976  0.00  0.00     0.017 A 
ATOM      6  C5  UNL d   1      -0.640  -2.210  -0.863  0.00  0.00     0.034 A 
ATOM      7 Cl   UNL d   1       0.294  -0.312  -2.512  0.00  0.00    -0.070 Cl
ATOM      8 Cl1  UNL d   1       0.056   1.651   0.074  0.00  0.00    -0.070 Cl
ENDROOT
TORSDOF 0
ENDMDL
