MODEL 1
REMARK minimizedAffinity -2.27386642
REMARK minimizedRMSD -1
REMARK  0 active torsions:
REMARK  status: ('A' for Active; 'I' for Inactive)
ROOT
ATOM      1  C   UNL d   1       0.028  -0.321  -2.273  0.00  0.00     0.020 A 
ATOM      2  C1  UNL d   1      -0.053   0.859  -1.536  0.00  0.00     0.020 A 
ATOM      3  C2  UNL d   1      -0.527   0.832  -0.223  0.00  0.00     0.034 A 
ATOM      4  C3  UNL d   1      -0.922  -0.379   0.357  0.00  0.00     0.017 A 
ATOM      5  C4  UNL d   1      -0.841  -1.564  -0.383  0.00  0.00     0.017 A 
ATOM      6  C5  UNL d   1      -0.365  -1.530  -1.698  0.00  0.00     0.034 A 
ATOM      7 Cl   UNL d   1      -1.310  -3.096   0.265  0.00  0.00    -0.070 Cl
ATOM      8 Cl1  UNL d   1      -1.499  -0.339   1.986  0.00  0.00    -0.070 Cl
ENDROOT
TORSDOF 0
ENDMDL
