MODEL 1
REMARK minimizedAffinity -4.56620264
REMARK minimizedRMSD -1
REMARK  0 active torsions:
REMARK  status: ('A' for Active; 'I' for Inactive)
ROOT
ATOM      1  C   UNL d   1      -0.536  -3.079   0.073  0.00  0.00     0.020 A 
ATOM      2  C1  UNL d   1      -0.856  -2.234   1.135  0.00  0.00     0.020 A 
ATOM      3  C2  UNL d   1      -0.749  -0.850   0.984  0.00  0.00     0.034 A 
ATOM      4  C3  UNL d   1      -0.319  -0.306  -0.232  0.00  0.00     0.017 A 
ATOM      5  C4  UNL d   1       0.002  -1.155  -1.298  0.00  0.00     0.017 A 
ATOM      6  C5  UNL d   1      -0.107  -2.540  -1.141  0.00  0.00     0.034 A 
ATOM      7 Cl   UNL d   1       0.539  -0.558  -2.829  0.00  0.00    -0.070 Cl
ATOM      8 Cl1  UNL d   1      -0.210   1.414  -0.349  0.00  0.00    -0.070 Cl
ENDROOT
TORSDOF 0
ENDMDL
