MODEL 1
REMARK minimizedAffinity -4.59760618
REMARK minimizedRMSD -1
REMARK  0 active torsions:
REMARK  status: ('A' for Active; 'I' for Inactive)
ROOT
ATOM      1  C   UNL d   1      -0.142  -3.122   0.609  0.00  0.00     0.020 A 
ATOM      2  C1  UNL d   1      -0.307  -2.176   1.620  0.00  0.00     0.020 A 
ATOM      3  C2  UNL d   1      -0.171  -0.816   1.332  0.00  0.00     0.034 A 
ATOM      4  C3  UNL d   1       0.130  -0.399   0.030  0.00  0.00     0.017 A 
ATOM      5  C4  UNL d   1       0.296  -1.350  -0.983  0.00  0.00     0.017 A 
ATOM      6  C5  UNL d   1       0.159  -2.710  -0.689  0.00  0.00     0.034 A 
ATOM      7 Cl   UNL d   1       0.668  -0.911  -2.613  0.00  0.00    -0.070 Cl
ATOM      8 Cl1  UNL d   1       0.283   1.299  -0.254  0.00  0.00    -0.070 Cl
ENDROOT
TORSDOF 0
ENDMDL
