MODEL 1
REMARK minimizedAffinity -1.72420633
REMARK minimizedRMSD -1
REMARK  0 active torsions:
REMARK  status: ('A' for Active; 'I' for Inactive)
ROOT
ATOM      1  C   UNL d   1      -1.122  -1.894   1.379  0.00  0.00     0.020 A 
ATOM      2  C1  UNL d   1      -1.120  -0.518   1.604  0.00  0.00     0.020 A 
ATOM      3  C2  UNL d   1      -0.817   0.359   0.560  0.00  0.00     0.034 A 
ATOM      4  C3  UNL d   1      -0.515  -0.138  -0.713  0.00  0.00     0.017 A 
ATOM      5  C4  UNL d   1      -0.518  -1.520  -0.937  0.00  0.00     0.017 A 
ATOM      6  C5  UNL d   1      -0.822  -2.394   0.111  0.00  0.00     0.034 A 
ATOM      7 Cl   UNL d   1      -0.155  -2.208  -2.480  0.00  0.00    -0.070 Cl
ATOM      8 Cl1  UNL d   1      -0.151   1.005  -1.956  0.00  0.00    -0.070 Cl
ENDROOT
TORSDOF 0
ENDMDL
