MODEL 1
REMARK minimizedAffinity -2.51332188
REMARK minimizedRMSD -1
REMARK  0 active torsions:
REMARK  status: ('A' for Active; 'I' for Inactive)
ROOT
ATOM      1  C   UNL d   1       1.479   4.278   0.424  0.00  0.00     0.020 A 
ATOM      2  C1  UNL d   1       1.724   3.601   1.618  0.00  0.00     0.020 A 
ATOM      3  C2  UNL d   1       1.324   2.271   1.761  0.00  0.00     0.034 A 
ATOM      4  C3  UNL d   1       0.677   1.613   0.708  0.00  0.00     0.017 A 
ATOM      5  C4  UNL d   1       0.431   2.294  -0.490  0.00  0.00     0.017 A 
ATOM      6  C5  UNL d   1       0.834   3.626  -0.628  0.00  0.00     0.034 A 
ATOM      7 Cl   UNL d   1      -0.362   1.549  -1.833  0.00  0.00    -0.070 Cl
ATOM      8 Cl1  UNL d   1       0.210  -0.032   0.955  0.00  0.00    -0.070 Cl
ENDROOT
TORSDOF 0
ENDMDL
