MODEL 1
REMARK minimizedAffinity -0.593256056
REMARK minimizedRMSD -1
REMARK  0 active torsions:
REMARK  status: ('A' for Active; 'I' for Inactive)
ROOT
ATOM      1  C   UNL d   1      -1.436  -1.016   2.113  0.00  0.00     0.020 A 
ATOM      2  C1  UNL d   1      -1.459  -2.212   1.396  0.00  0.00     0.020 A 
ATOM      3  C2  UNL d   1      -0.987  -2.247   0.082  0.00  0.00     0.034 A 
ATOM      4  C3  UNL d   1      -0.490  -1.085  -0.519  0.00  0.00     0.017 A 
ATOM      5  C4  UNL d   1      -0.467   0.115   0.202  0.00  0.00     0.017 A 
ATOM      6  C5  UNL d   1      -0.941   0.145   1.517  0.00  0.00     0.034 A 
ATOM      7 Cl   UNL d   1       0.131   1.590  -0.472  0.00  0.00    -0.070 Cl
ATOM      8 Cl1  UNL d   1       0.078  -1.202  -2.146  0.00  0.00    -0.070 Cl
ENDROOT
TORSDOF 0
ENDMDL
