MODEL 1
REMARK minimizedAffinity -3.15532923
REMARK minimizedRMSD -1
REMARK  0 active torsions:
REMARK  status: ('A' for Active; 'I' for Inactive)
ROOT
ATOM      1  C   UNL d   1      -0.731  -1.472   1.852  0.00  0.00     0.020 A 
ATOM      2  C1  UNL d   1      -1.113  -2.210   0.732  0.00  0.00     0.020 A 
ATOM      3  C2  UNL d   1      -0.898  -1.697  -0.549  0.00  0.00     0.034 A 
ATOM      4  C3  UNL d   1      -0.300  -0.442  -0.713  0.00  0.00     0.017 A 
ATOM      5  C4  UNL d   1       0.082   0.298   0.411  0.00  0.00     0.017 A 
ATOM      6  C5  UNL d   1      -0.135  -0.221   1.692  0.00  0.00     0.034 A 
ATOM      7 Cl   UNL d   1       0.826   1.853   0.288  0.00  0.00    -0.070 Cl
ATOM      8 Cl1  UNL d   1      -0.065   0.130  -2.326  0.00  0.00    -0.070 Cl
ENDROOT
TORSDOF 0
ENDMDL
