MODEL 1
REMARK minimizedAffinity 9.22113514
REMARK minimizedRMSD -1
REMARK  0 active torsions:
REMARK  status: ('A' for Active; 'I' for Inactive)
ROOT
ATOM      1  C   UNL d   1       3.212   1.170   3.673  0.00  0.00     0.172 C 
ATOM      2  N   UNL d   1       1.983   0.495   3.326  0.00  0.00    -0.070 N 
ATOM      3  C1  UNL d   1       1.790  -0.295   2.225  0.00  0.00    -0.004 A 
ATOM      4  C2  UNL d   1       0.490  -0.750   2.255  0.00  0.00    -0.047 A 
ATOM      5  C3  UNL d   1      -0.120  -0.213   3.413  0.00  0.00    -0.047 A 
ATOM      6  C4  UNL d   1       0.827   0.554   4.058  0.00  0.00    -0.004 A 
ENDROOT
TORSDOF 0
ENDMDL
