MODEL 1
REMARK minimizedAffinity 9.04540253
REMARK minimizedRMSD -1
REMARK  0 active torsions:
REMARK  status: ('A' for Active; 'I' for Inactive)
ROOT
ATOM      1  C   UNL d   1       5.653   5.952   5.376  0.00  0.00     0.172 C 
ATOM      2  N   UNL d   1       5.187   5.964   4.010  0.00  0.00    -0.070 N 
ATOM      3  C1  UNL d   1       3.876   5.992   3.614  0.00  0.00    -0.004 A 
ATOM      4  C2  UNL d   1       3.852   5.995   2.236  0.00  0.00    -0.047 A 
ATOM      5  C3  UNL d   1       5.194   5.967   1.788  0.00  0.00    -0.047 A 
ATOM      6  C4  UNL d   1       6.000   5.949   2.907  0.00  0.00    -0.004 A 
ENDROOT
TORSDOF 0
ENDMDL
