MODEL 1
REMARK minimizedAffinity 7.14438963
REMARK minimizedRMSD -1
REMARK  0 active torsions:
REMARK  status: ('A' for Active; 'I' for Inactive)
ROOT
ATOM      1  C   UNL d   1       4.418   1.646   3.734  0.00  0.00     0.172 C 
ATOM      2  N   UNL d   1       4.323   2.841   2.930  0.00  0.00    -0.070 N 
ATOM      3  C1  UNL d   1       4.380   4.126   3.400  0.00  0.00    -0.004 A 
ATOM      4  C2  UNL d   1       4.253   4.976   2.322  0.00  0.00    -0.047 A 
ATOM      5  C3  UNL d   1       4.114   4.174   1.165  0.00  0.00    -0.047 A 
ATOM      6  C4  UNL d   1       4.161   2.857   1.570  0.00  0.00    -0.004 A 
ENDROOT
TORSDOF 0
ENDMDL
