MODEL 1
REMARK minimizedAffinity 4.41803837
REMARK minimizedRMSD -1
REMARK  0 active torsions:
REMARK  status: ('A' for Active; 'I' for Inactive)
ROOT
ATOM      1  C   UNL d   1       4.309   2.080   4.120  0.00  0.00     0.172 C 
ATOM      2  N   UNL d   1       4.008   2.906   2.974  0.00  0.00    -0.070 N 
ATOM      3  C1  UNL d   1       3.867   4.268   2.987  0.00  0.00    -0.004 A 
ATOM      4  C2  UNL d   1       3.585   4.676   1.701  0.00  0.00    -0.047 A 
ATOM      5  C3  UNL d   1       3.555   3.518   0.887  0.00  0.00    -0.047 A 
ATOM      6  C4  UNL d   1       3.821   2.437   1.701  0.00  0.00    -0.004 A 
ENDROOT
TORSDOF 0
ENDMDL
