MODEL 1
REMARK minimizedAffinity 3.53984666
REMARK minimizedRMSD -1
REMARK  0 active torsions:
REMARK  status: ('A' for Active; 'I' for Inactive)
ROOT
ATOM      1  C   UNL d   1       5.264   2.457   4.887  0.00  0.00     0.172 C 
ATOM      2  N   UNL d   1       4.763   3.811   4.863  0.00  0.00    -0.070 N 
ATOM      3  C1  UNL d   1       3.860   4.344   5.744  0.00  0.00    -0.004 A 
ATOM      4  C2  UNL d   1       3.643   5.656   5.384  0.00  0.00    -0.047 A 
ATOM      5  C3  UNL d   1       4.443   5.921   4.247  0.00  0.00    -0.047 A 
ATOM      6  C4  UNL d   1       5.126   4.762   3.946  0.00  0.00    -0.004 A 
ENDROOT
TORSDOF 0
ENDMDL
