MODEL 1
REMARK minimizedAffinity 2.43145609
REMARK minimizedRMSD -1
REMARK  0 active torsions:
REMARK  status: ('A' for Active; 'I' for Inactive)
ROOT
ATOM      1  C   UNL d   1       1.152  -2.905   4.451  0.00  0.00     0.172 C 
ATOM      2  N   UNL d   1       0.835  -1.662   3.788  0.00  0.00    -0.070 N 
ATOM      3  C1  UNL d   1      -0.342  -1.376   3.149  0.00  0.00    -0.004 A 
ATOM      4  C2  UNL d   1      -0.251  -0.094   2.651  0.00  0.00    -0.047 A 
ATOM      5  C3  UNL d   1       1.025   0.407   3.002  0.00  0.00    -0.047 A 
ATOM      6  C4  UNL d   1       1.676  -0.585   3.706  0.00  0.00    -0.004 A 
ENDROOT
TORSDOF 0
ENDMDL
