MODEL 1
REMARK minimizedAffinity 9.65359783
REMARK minimizedRMSD -1
REMARK  0 active torsions:
REMARK  status: ('A' for Active; 'I' for Inactive)
ROOT
ATOM      1  C   UNL d   1       1.479  -2.643   4.072  0.00  0.00     0.172 C 
ATOM      2  N   UNL d   1       0.959  -1.496   3.365  0.00  0.00    -0.070 N 
ATOM      3  C1  UNL d   1       0.040  -1.533   2.351  0.00  0.00    -0.004 A 
ATOM      4  C2  UNL d   1      -0.194  -0.236   1.946  0.00  0.00    -0.047 A 
ATOM      5  C3  UNL d   1       0.614   0.609   2.743  0.00  0.00    -0.047 A 
ATOM      6  C4  UNL d   1       1.317  -0.197   3.614  0.00  0.00    -0.004 A 
ENDROOT
TORSDOF 0
ENDMDL
