MODEL 1
REMARK minimizedAffinity -2.03977656
REMARK minimizedRMSD -1
REMARK  0 active torsions:
REMARK  status: ('A' for Active; 'I' for Inactive)
ROOT
ATOM      1  C   UNL d   1       3.111   0.556   0.398  0.00  0.00     0.023 A 
ATOM      2  C1  UNL d   1       2.205   1.600   0.208  0.00  0.00     0.003 A 
ATOM      3  C2  UNL d   1       0.851   1.325   0.011  0.00  0.00     0.048 A 
ATOM      4  C3  UNL d   1       0.408   0.003   0.006  0.00  0.00     0.023 A 
ATOM      5  C4  UNL d   1       1.310  -1.045   0.197  0.00  0.00     0.048 A 
ATOM      6  C5  UNL d   1       2.663  -0.765   0.392  0.00  0.00     0.003 A 
ATOM      7  I   UNL d   1      -1.608  -0.410  -0.286  0.00  0.00    -0.146 I 
ENDROOT
TORSDOF 0
ENDMDL
