MODEL 1
REMARK minimizedAffinity -5.25329638
REMARK minimizedRMSD -1
REMARK  0 active torsions:
REMARK  status: ('A' for Active; 'I' for Inactive)
ROOT
ATOM      1  C   UNL d   1       3.333  -0.022   1.120  0.00  0.00     0.023 A 
ATOM      2  C1  UNL d   1       2.616   1.162   0.945  0.00  0.00     0.003 A 
ATOM      3  C2  UNL d   1       1.281   1.118   0.540  0.00  0.00     0.048 A 
ATOM      4  C3  UNL d   1       0.667  -0.113   0.312  0.00  0.00     0.023 A 
ATOM      5  C4  UNL d   1       1.380  -1.301   0.487  0.00  0.00     0.048 A 
ATOM      6  C5  UNL d   1       2.715  -1.252   0.891  0.00  0.00     0.003 A 
ATOM      7  I   UNL d   1      -1.321  -0.180  -0.290  0.00  0.00    -0.146 I 
ENDROOT
TORSDOF 0
ENDMDL
