MODEL 1
REMARK minimizedAffinity -4.5163703
REMARK minimizedRMSD -1
REMARK  0 active torsions:
REMARK  status: ('A' for Active; 'I' for Inactive)
ROOT
ATOM      1  C   UNL d   1      -1.000   0.939  -0.471  0.00  0.00     0.023 A 
ATOM      2  C1  UNL d   1      -0.032   1.890  -0.146  0.00  0.00     0.003 A 
ATOM      3  C2  UNL d   1       1.185   1.487   0.408  0.00  0.00     0.048 A 
ATOM      4  C3  UNL d   1       1.428   0.133   0.633  0.00  0.00     0.023 A 
ATOM      5  C4  UNL d   1       0.462  -0.822   0.309  0.00  0.00     0.048 A 
ATOM      6  C5  UNL d   1      -0.754  -0.415  -0.244  0.00  0.00     0.003 A 
ATOM      7  I   UNL d   1       3.238  -0.469   1.457  0.00  0.00    -0.146 I 
ENDROOT
TORSDOF 0
ENDMDL
