MODEL 1
REMARK minimizedAffinity 1.30211353
REMARK minimizedRMSD -1
REMARK  0 active torsions:
REMARK  status: ('A' for Active; 'I' for Inactive)
ROOT
ATOM      1  C   UNL d   1      -1.226  -2.142   0.377  0.00  0.00     0.023 A 
ATOM      2  C1  UNL d   1      -0.538  -2.887   1.335  0.00  0.00     0.003 A 
ATOM      3  C2  UNL d   1       0.669  -2.413   1.854  0.00  0.00     0.048 A 
ATOM      4  C3  UNL d   1       1.181  -1.194   1.412  0.00  0.00     0.023 A 
ATOM      5  C4  UNL d   1       0.495  -0.445   0.455  0.00  0.00     0.048 A 
ATOM      6  C5  UNL d   1      -0.710  -0.923  -0.063  0.00  0.00     0.003 A 
ATOM      7  I   UNL d   1       2.976  -0.488   2.185  0.00  0.00    -0.146 I 
ENDROOT
TORSDOF 0
ENDMDL
