MODEL 1
REMARK minimizedAffinity -5.17942619
REMARK minimizedRMSD -1
REMARK  0 active torsions:
REMARK  status: ('A' for Active; 'I' for Inactive)
ROOT
ATOM      1  C   UNL d   1       3.531   0.200   0.944  0.00  0.00     0.023 A 
ATOM      2  C1  UNL d   1       2.740   1.348   0.982  0.00  0.00     0.003 A 
ATOM      3  C2  UNL d   1       1.381   1.272   0.672  0.00  0.00     0.048 A 
ATOM      4  C3  UNL d   1       0.819   0.043   0.325  0.00  0.00     0.023 A 
ATOM      5  C4  UNL d   1       1.607  -1.108   0.287  0.00  0.00     0.048 A 
ATOM      6  C5  UNL d   1       2.966  -1.026   0.597  0.00  0.00     0.003 A 
ATOM      7  I   UNL d   1      -1.204  -0.074  -0.136  0.00  0.00    -0.146 I 
ENDROOT
TORSDOF 0
ENDMDL
