MODEL 1
REMARK minimizedAffinity -5.22879457
REMARK minimizedRMSD -1
REMARK  0 active torsions:
REMARK  status: ('A' for Active; 'I' for Inactive)
ROOT
ATOM      1  C   UNL d   1       3.131  -0.854   1.759  0.00  0.00     0.023 A 
ATOM      2  C1  UNL d   1       2.123  -1.817   1.731  0.00  0.00     0.003 A 
ATOM      3  C2  UNL d   1       0.922  -1.554   1.068  0.00  0.00     0.048 A 
ATOM      4  C3  UNL d   1       0.737  -0.325   0.435  0.00  0.00     0.023 A 
ATOM      5  C4  UNL d   1       1.743   0.641   0.460  0.00  0.00     0.048 A 
ATOM      6  C5  UNL d   1       2.941   0.374   1.124  0.00  0.00     0.003 A 
ATOM      7  I   UNL d   1      -1.049   0.069  -0.552  0.00  0.00    -0.146 I 
ENDROOT
TORSDOF 0
ENDMDL
