MODEL 1
REMARK minimizedAffinity -3.23847795
REMARK minimizedRMSD -1
REMARK  0 active torsions:
REMARK  status: ('A' for Active; 'I' for Inactive)
ROOT
ATOM      1  C   UNL d   1       3.137  -0.064   1.385  0.00  0.00     0.023 A 
ATOM      2  C1  UNL d   1       2.738   1.026   0.612  0.00  0.00     0.003 A 
ATOM      3  C2  UNL d   1       1.441   1.079   0.095  0.00  0.00     0.048 A 
ATOM      4  C3  UNL d   1       0.549   0.039   0.357  0.00  0.00     0.023 A 
ATOM      5  C4  UNL d   1       0.945  -1.053   1.131  0.00  0.00     0.048 A 
ATOM      6  C5  UNL d   1       2.242  -1.102   1.644  0.00  0.00     0.003 A 
ATOM      7  I   UNL d   1      -1.380   0.117  -0.411  0.00  0.00    -0.146 I 
ENDROOT
TORSDOF 0
ENDMDL
