MODEL 1
REMARK minimizedAffinity 1.76081955
REMARK minimizedRMSD -1
REMARK  0 active torsions:
REMARK  status: ('A' for Active; 'I' for Inactive)
ROOT
ATOM      1  C   UNL d   1      -0.030  -0.178   0.681  0.00  0.00     0.023 A 
ATOM      2  C1  UNL d   1      -0.744   0.711  -0.122  0.00  0.00     0.003 A 
ATOM      3  C2  UNL d   1      -1.891   0.283  -0.794  0.00  0.00     0.048 A 
ATOM      4  C3  UNL d   1      -2.319  -1.037  -0.656  0.00  0.00     0.023 A 
ATOM      5  C4  UNL d   1      -1.609  -1.931   0.147  0.00  0.00     0.048 A 
ATOM      6  C5  UNL d   1      -0.462  -1.498   0.816  0.00  0.00     0.003 A 
ATOM      7  I   UNL d   1      -4.026  -1.678  -1.654  0.00  0.00    -0.146 I 
ENDROOT
TORSDOF 0
ENDMDL
