MODEL 1
REMARK minimizedAffinity -1.48968518
REMARK minimizedRMSD -1
REMARK  0 active torsions:
REMARK  status: ('A' for Active; 'I' for Inactive)
ROOT
ATOM      1  C1  DEN d   1      -1.884  -0.251  -1.745  0.00  0.00     0.130 A 
ATOM      2  C2  DEN d   1      -2.899  -0.868  -0.895  0.00  0.00    -0.031 A 
ATOM      3  C3  DEN d   1      -2.290  -1.133   0.424  0.00  0.00     0.027 A 
ATOM      4  C4  DEN d   1       0.111  -0.646   1.230  0.00  0.00     0.027 A 
ATOM      5  C5  DEN d   1       1.338  -0.141   0.861  0.00  0.00    -0.003 A 
ATOM      6  C6  DEN d   1       1.585   0.328  -0.402  0.00  0.00     0.001 A 
ATOM      7  C7  DEN d   1       0.577   0.342  -1.330  0.00  0.00     0.017 A 
ATOM      8  C8  DEN d   1      -0.661  -0.172  -0.968  0.00  0.00    -0.094 A 
ATOM      9  C9  DEN d   1      -0.894  -0.630   0.318  0.00  0.00    -0.072 A 
ENDROOT
TORSDOF 0
ENDMDL
