MODEL 1
REMARK minimizedAffinity -5.8495307
REMARK minimizedRMSD -1
REMARK  0 active torsions:
REMARK  status: ('A' for Active; 'I' for Inactive)
ROOT
ATOM      1  C1  DEN d   1      -1.804   0.321  -1.537  0.00  0.00     0.130 A 
ATOM      2  C2  DEN d   1      -3.020  -0.416  -1.204  0.00  0.00    -0.031 A 
ATOM      3  C3  DEN d   1      -2.683  -1.404  -0.160  0.00  0.00     0.027 A 
ATOM      4  C4  DEN d   1      -0.410  -1.858   0.973  0.00  0.00     0.027 A 
ATOM      5  C5  DEN d   1       0.917  -1.492   1.012  0.00  0.00    -0.003 A 
ATOM      6  C6  DEN d   1       1.433  -0.527   0.188  0.00  0.00     0.001 A 
ATOM      7  C7  DEN d   1       0.607   0.137  -0.680  0.00  0.00     0.017 A 
ATOM      8  C8  DEN d   1      -0.730  -0.232  -0.731  0.00  0.00    -0.094 A 
ATOM      9  C9  DEN d   1      -1.236  -1.201   0.119  0.00  0.00    -0.072 A 
ENDROOT
TORSDOF 0
ENDMDL
