MODEL 1
REMARK minimizedAffinity -4.79743433
REMARK minimizedRMSD -1
REMARK  0 active torsions:
REMARK  status: ('A' for Active; 'I' for Inactive)
ROOT
ATOM      1  C1  DEN d   1       0.625   0.518  -0.975  0.00  0.00     0.130 A 
ATOM      2  C2  DEN d   1       1.616   0.076   0.002  0.00  0.00    -0.031 A 
ATOM      3  C3  DEN d   1       0.925  -0.754   1.009  0.00  0.00     0.027 A 
ATOM      4  C4  DEN d   1      -1.569  -1.398   1.147  0.00  0.00     0.027 A 
ATOM      5  C5  DEN d   1      -2.801  -1.250   0.549  0.00  0.00    -0.003 A 
ATOM      6  C6  DEN d   1      -2.982  -0.481  -0.570  0.00  0.00     0.001 A 
ATOM      7  C7  DEN d   1      -1.905   0.134  -1.153  0.00  0.00     0.017 A 
ATOM      8  C8  DEN d   1      -0.661  -0.005  -0.551  0.00  0.00    -0.094 A 
ATOM      9  C9  DEN d   1      -0.496  -0.796   0.572  0.00  0.00    -0.072 A 
ENDROOT
TORSDOF 0
ENDMDL
