MODEL 1
REMARK minimizedAffinity 0.498642355
REMARK minimizedRMSD -1
REMARK  0 active torsions:
REMARK  status: ('A' for Active; 'I' for Inactive)
ROOT
ATOM      1  C1  DEN d   1       0.183  -1.138   1.335  0.00  0.00     0.130 A 
ATOM      2  C2  DEN d   1       1.480  -0.467   1.292  0.00  0.00    -0.031 A 
ATOM      3  C3  DEN d   1       1.526   0.360   0.070  0.00  0.00     0.027 A 
ATOM      4  C4  DEN d   1      -0.278   0.671  -1.748  0.00  0.00     0.027 A 
ATOM      5  C5  DEN d   1      -1.541   0.298  -2.152  0.00  0.00    -0.003 A 
ATOM      6  C6  DEN d   1      -2.298  -0.599  -1.445  0.00  0.00     0.001 A 
ATOM      7  C7  DEN d   1      -1.816  -1.119  -0.273  0.00  0.00     0.017 A 
ATOM      8  C8  DEN d   1      -0.541  -0.753   0.137  0.00  0.00    -0.094 A 
ATOM      9  C9  DEN d   1       0.204   0.165  -0.584  0.00  0.00    -0.072 A 
ENDROOT
TORSDOF 0
ENDMDL
