MODEL 1
REMARK minimizedAffinity 0.775613248
REMARK minimizedRMSD -1
REMARK  0 active torsions:
REMARK  status: ('A' for Active; 'I' for Inactive)
ROOT
ATOM      1  C1  DEN d   1       1.548   0.746  -0.573  0.00  0.00     0.130 A 
ATOM      2  C2  DEN d   1       2.555  -0.297  -0.748  0.00  0.00    -0.031 A 
ATOM      3  C3  DEN d   1       2.140  -1.470   0.048  0.00  0.00     0.027 A 
ATOM      4  C4  DEN d   1       0.046  -1.772   1.522  0.00  0.00     0.027 A 
ATOM      5  C5  DEN d   1      -1.095  -1.159   1.991  0.00  0.00    -0.003 A 
ATOM      6  C6  DEN d   1      -1.414   0.133   1.669  0.00  0.00     0.001 A 
ATOM      7  C7  DEN d   1      -0.607   0.840   0.817  0.00  0.00     0.017 A 
ATOM      8  C8  DEN d   1       0.549   0.231   0.346  0.00  0.00    -0.094 A 
ATOM      9  C9  DEN d   1       0.848  -1.081   0.674  0.00  0.00    -0.072 A 
ENDROOT
TORSDOF 0
ENDMDL
