MODEL 1
REMARK minimizedAffinity -6.41342592
REMARK minimizedRMSD -1
REMARK  0 active torsions:
REMARK  status: ('A' for Active; 'I' for Inactive)
ROOT
ATOM      1  C1  DEN d   1      -0.331   0.365  -0.866  0.00  0.00     0.130 A 
ATOM      2  C2  DEN d   1       0.855   0.151  -0.042  0.00  0.00    -0.031 A 
ATOM      3  C3  DEN d   1       0.585  -0.989   0.858  0.00  0.00     0.027 A 
ATOM      4  C4  DEN d   1      -1.541  -2.437   1.051  0.00  0.00     0.027 A 
ATOM      5  C5  DEN d   1      -2.816  -2.628   0.567  0.00  0.00    -0.003 A 
ATOM      6  C6  DEN d   1      -3.360  -1.821  -0.397  0.00  0.00     0.001 A 
ATOM      7  C7  DEN d   1      -2.610  -0.812  -0.940  0.00  0.00     0.017 A 
ATOM      8  C8  DEN d   1      -1.326  -0.608  -0.452  0.00  0.00    -0.094 A 
ATOM      9  C9  DEN d   1      -0.789  -1.442   0.514  0.00  0.00    -0.072 A 
ENDROOT
TORSDOF 0
ENDMDL
