MODEL 1
REMARK minimizedAffinity -3.09428024
REMARK minimizedRMSD -1
REMARK  0 active torsions:
REMARK  status: ('A' for Active; 'I' for Inactive)
ROOT
ATOM      1  C1  DEN d   1       0.038  -0.470   1.570  0.00  0.00     0.130 A 
ATOM      2  C2  DEN d   1       1.253   0.009   0.918  0.00  0.00    -0.031 A 
ATOM      3  C3  DEN d   1       0.929   0.301  -0.493  0.00  0.00     0.027 A 
ATOM      4  C4  DEN d   1      -1.326   0.062  -1.723  0.00  0.00     0.027 A 
ATOM      5  C5  DEN d   1      -2.643  -0.318  -1.588  0.00  0.00    -0.003 A 
ATOM      6  C6  DEN d   1      -3.147  -0.803  -0.410  0.00  0.00     0.001 A 
ATOM      7  C7  DEN d   1      -2.338  -0.879   0.693  0.00  0.00     0.017 A 
ATOM      8  C8  DEN d   1      -1.007  -0.505   0.563  0.00  0.00    -0.094 A 
ATOM      9  C9  DEN d   1      -0.520  -0.006  -0.633  0.00  0.00    -0.072 A 
ENDROOT
TORSDOF 0
ENDMDL
