MODEL 1
REMARK minimizedAffinity -4.91770554
REMARK minimizedRMSD -1
REMARK  0 active torsions:
REMARK  status: ('A' for Active; 'I' for Inactive)
ROOT
ATOM      1  C1  DEN d   1       0.013  -0.197   0.598  0.00  0.00     0.130 A 
ATOM      2  C2  DEN d   1       0.384   0.798  -0.403  0.00  0.00    -0.031 A 
ATOM      3  C3  DEN d   1      -0.660   0.806  -1.448  0.00  0.00     0.027 A 
ATOM      4  C4  DEN d   1      -2.806  -0.616  -1.608  0.00  0.00     0.027 A 
ATOM      5  C5  DEN d   1      -3.544  -1.607  -0.999  0.00  0.00    -0.003 A 
ATOM      6  C6  DEN d   1      -3.134  -2.216   0.158  0.00  0.00     0.001 A 
ATOM      7  C7  DEN d   1      -1.977  -1.808   0.767  0.00  0.00     0.017 A 
ATOM      8  C8  DEN d   1      -1.223  -0.815   0.155  0.00  0.00    -0.094 A 
ATOM      9  C9  DEN d   1      -1.660  -0.203  -1.008  0.00  0.00    -0.072 A 
ENDROOT
TORSDOF 0
ENDMDL
