MODEL 1
REMARK minimizedAffinity -3.16068387
REMARK minimizedRMSD -1
REMARK  0 active torsions:
REMARK  status: ('A' for Active; 'I' for Inactive)
ROOT
ATOM      1  C1  DEN d   1       1.500   3.513   0.414  0.00  0.00     0.130 A 
ATOM      2  C2  DEN d   1       2.960   3.538   0.372  0.00  0.00    -0.031 A 
ATOM      3  C3  DEN d   1       3.435   2.155   0.168  0.00  0.00     0.027 A 
ATOM      4  C4  DEN d   1       2.059  -0.011  -0.093  0.00  0.00     0.027 A 
ATOM      5  C5  DEN d   1       0.786  -0.536  -0.115  0.00  0.00    -0.003 A 
ATOM      6  C6  DEN d   1      -0.328   0.240   0.070  0.00  0.00     0.001 A 
ATOM      7  C7  DEN d   1      -0.192   1.592   0.240  0.00  0.00     0.017 A 
ATOM      8  C8  DEN d   1       1.089   2.128   0.271  0.00  0.00    -0.094 A 
ATOM      9  C9  DEN d   1       2.201   1.329   0.070  0.00  0.00    -0.072 A 
ENDROOT
TORSDOF 0
ENDMDL
