MODEL 1
REMARK minimizedAffinity -3.36605453
REMARK minimizedRMSD -1
REMARK  0 active torsions:
REMARK  status: ('A' for Active; 'I' for Inactive)
ROOT
ATOM      1  C1  DEN d   1       0.421   0.544  -0.945  0.00  0.00     0.130 A 
ATOM      2  C2  DEN d   1       1.455   0.182   0.020  0.00  0.00    -0.031 A 
ATOM      3  C3  DEN d   1       0.851  -0.721   1.020  0.00  0.00     0.027 A 
ATOM      4  C4  DEN d   1      -1.573  -1.591   1.166  0.00  0.00     0.027 A 
ATOM      5  C5  DEN d   1      -2.818  -1.549   0.578  0.00  0.00    -0.003 A 
ATOM      6  C6  DEN d   1      -3.077  -0.786  -0.530  0.00  0.00     0.001 A 
ATOM      7  C7  DEN d   1      -2.065  -0.068  -1.111  0.00  0.00     0.017 A 
ATOM      8  C8  DEN d   1      -0.809  -0.100  -0.520  0.00  0.00    -0.094 A 
ATOM      9  C9  DEN d   1      -0.564  -0.887   0.592  0.00  0.00    -0.072 A 
ENDROOT
TORSDOF 0
ENDMDL
