MODEL 1
REMARK minimizedAffinity 5.3675642
REMARK minimizedRMSD -1
REMARK  0 active torsions:
REMARK  status: ('A' for Active; 'I' for Inactive)
ROOT
ATOM      1  C   UNL d   1      -0.542   1.606   3.610  0.00  0.00     0.077 C 
ATOM      2  C1  UNL d   1      -0.218   0.457   2.702  0.00  0.00    -0.074 A 
ATOM      3  C2  UNL d   1      -0.828  -0.789   2.874  0.00  0.00    -0.005 A 
ATOM      4  C3  UNL d   1      -0.523  -1.846   2.016  0.00  0.00     0.006 A 
ATOM      5  C4  UNL d   1       0.393  -1.667   0.979  0.00  0.00    -0.005 A 
ATOM      6  C5  UNL d   1       1.013  -0.428   0.792  0.00  0.00    -0.074 A 
ATOM      7  C6  UNL d   1       1.994  -0.216  -0.324  0.00  0.00     0.077 C 
ATOM      8  C7  UNL d   1       0.696   0.631   1.654  0.00  0.00    -0.001 A 
ENDROOT
TORSDOF 0
ENDMDL
