MODEL 1
REMARK minimizedAffinity 3.08684015
REMARK minimizedRMSD -1
REMARK  0 active torsions:
REMARK  status: ('A' for Active; 'I' for Inactive)
ROOT
ATOM      1  C   UNL d   1       5.273   2.406   3.802  0.00  0.00     0.077 C 
ATOM      2  C1  UNL d   1       4.975   3.657   4.573  0.00  0.00    -0.074 A 
ATOM      3  C2  UNL d   1       6.000   4.536   4.939  0.00  0.00    -0.005 A 
ATOM      4  C3  UNL d   1       5.706   5.701   5.648  0.00  0.00     0.006 A 
ATOM      5  C4  UNL d   1       4.389   5.998   5.998  0.00  0.00    -0.005 A 
ATOM      6  C5  UNL d   1       3.351   5.131   5.640  0.00  0.00    -0.074 A 
ATOM      7  C6  UNL d   1       1.928   5.440   6.000  0.00  0.00     0.077 C 
ATOM      8  C7  UNL d   1       3.653   3.966   4.922  0.00  0.00    -0.001 A 
ENDROOT
TORSDOF 0
ENDMDL
