MODEL 1
REMARK minimizedAffinity 3.88711715
REMARK minimizedRMSD -1
REMARK  0 active torsions:
REMARK  status: ('A' for Active; 'I' for Inactive)
ROOT
ATOM      1  C   UNL d   1       5.287   2.651   3.438  0.00  0.00     0.077 C 
ATOM      2  C1  UNL d   1       4.994   3.814   4.338  0.00  0.00    -0.074 A 
ATOM      3  C2  UNL d   1       6.000   4.387   5.123  0.00  0.00    -0.005 A 
ATOM      4  C3  UNL d   1       5.714   5.474   5.948  0.00  0.00     0.006 A 
ATOM      5  C4  UNL d   1       4.422   6.000   5.997  0.00  0.00    -0.005 A 
ATOM      6  C5  UNL d   1       3.404   5.441   5.218  0.00  0.00    -0.074 A 
ATOM      7  C6  UNL d   1       2.012   5.999   5.251  0.00  0.00     0.077 C 
ATOM      8  C7  UNL d   1       3.700   4.352   4.386  0.00  0.00    -0.001 A 
ENDROOT
TORSDOF 0
ENDMDL
