MODEL 1
REMARK minimizedAffinity 2.86418605
REMARK minimizedRMSD -1
REMARK  0 active torsions:
REMARK  status: ('A' for Active; 'I' for Inactive)
ROOT
ATOM      1  C   UNL d   1       1.904   5.290   5.996  0.00  0.00     0.077 C 
ATOM      2  C1  UNL d   1       3.333   5.094   5.587  0.00  0.00    -0.074 A 
ATOM      3  C2  UNL d   1       4.325   5.996   5.985  0.00  0.00    -0.005 A 
ATOM      4  C3  UNL d   1       5.652   5.796   5.605  0.00  0.00     0.006 A 
ATOM      5  C4  UNL d   1       6.000   4.692   4.825  0.00  0.00    -0.005 A 
ATOM      6  C5  UNL d   1       5.022   3.779   4.418  0.00  0.00    -0.074 A 
ATOM      7  C6  UNL d   1       5.381   2.582   3.588  0.00  0.00     0.077 C 
ATOM      8  C7  UNL d   1       3.692   3.984   4.810  0.00  0.00    -0.001 A 
ENDROOT
TORSDOF 0
ENDMDL
