MODEL 1
REMARK minimizedAffinity 5.92966461
REMARK minimizedRMSD -1
REMARK  0 active torsions:
REMARK  status: ('A' for Active; 'I' for Inactive)
ROOT
ATOM      1  C   UNL d   1       5.215   3.095   2.928  0.00  0.00     0.077 C 
ATOM      2  C1  UNL d   1       4.947   4.104   4.005  0.00  0.00    -0.074 A 
ATOM      3  C2  UNL d   1       5.999   4.732   4.679  0.00  0.00    -0.005 A 
ATOM      4  C3  UNL d   1       5.735   5.676   5.671  0.00  0.00     0.006 A 
ATOM      5  C4  UNL d   1       4.418   6.000   5.999  0.00  0.00    -0.005 A 
ATOM      6  C5  UNL d   1       3.353   5.382   5.336  0.00  0.00    -0.074 A 
ATOM      7  C6  UNL d   1       1.932   5.726   5.669  0.00  0.00     0.077 C 
ATOM      8  C7  UNL d   1       3.627   4.440   4.335  0.00  0.00    -0.001 A 
ENDROOT
TORSDOF 0
ENDMDL
