MODEL 1
REMARK minimizedAffinity 6.81266451
REMARK minimizedRMSD -1
REMARK  0 active torsions:
REMARK  status: ('A' for Active; 'I' for Inactive)
ROOT
ATOM      1  C   UNL d   1      -0.592  -0.588   5.312  0.00  0.00     0.077 C 
ATOM      2  C1  UNL d   1       0.153  -0.783   4.025  0.00  0.00    -0.074 A 
ATOM      3  C2  UNL d   1       1.532  -1.019   4.021  0.00  0.00    -0.005 A 
ATOM      4  C3  UNL d   1       2.210  -1.207   2.816  0.00  0.00     0.006 A 
ATOM      5  C4  UNL d   1       1.517  -1.162   1.606  0.00  0.00    -0.005 A 
ATOM      6  C5  UNL d   1       0.138  -0.928   1.590  0.00  0.00    -0.074 A 
ATOM      7  C6  UNL d   1      -0.623  -0.885   0.299  0.00  0.00     0.077 C 
ATOM      8  C7  UNL d   1      -0.537  -0.746   2.805  0.00  0.00    -0.001 A 
ENDROOT
TORSDOF 0
ENDMDL
