MODEL 1
REMARK minimizedAffinity -2.04168487
REMARK minimizedRMSD -1
REMARK  0 active torsions:
REMARK  status: ('A' for Active; 'I' for Inactive)
ROOT
ATOM      1  C   UNL d   1       5.303   2.448   3.750  0.00  0.00     0.077 C 
ATOM      2  C1  UNL d   1       4.993   3.683   4.543  0.00  0.00    -0.074 A 
ATOM      3  C2  UNL d   1       5.991   4.338   5.272  0.00  0.00    -0.005 A 
ATOM      4  C3  UNL d   1       5.691   5.491   5.997  0.00  0.00     0.006 A 
ATOM      5  C4  UNL d   1       4.392   6.000   6.000  0.00  0.00    -0.005 A 
ATOM      6  C5  UNL d   1       3.381   5.359   5.276  0.00  0.00    -0.074 A 
ATOM      7  C6  UNL d   1       1.982   5.899   5.261  0.00  0.00     0.077 C 
ATOM      8  C7  UNL d   1       3.692   4.205   4.545  0.00  0.00    -0.001 A 
ENDROOT
TORSDOF 0
ENDMDL
