MODEL 1
REMARK minimizedAffinity 10.3308687
REMARK minimizedRMSD -1
REMARK  0 active torsions:
REMARK  status: ('A' for Active; 'I' for Inactive)
ROOT
ATOM      1  C   UNL d   1       4.893   2.786   3.098  0.00  0.00     0.077 C 
ATOM      2  C1  UNL d   1       4.829   3.887   4.115  0.00  0.00    -0.074 A 
ATOM      3  C2  UNL d   1       5.996   4.462   4.627  0.00  0.00    -0.005 A 
ATOM      4  C3  UNL d   1       5.921   5.491   5.565  0.00  0.00     0.006 A 
ATOM      5  C4  UNL d   1       4.679   5.956   6.000  0.00  0.00    -0.005 A 
ATOM      6  C5  UNL d   1       3.500   5.394   5.498  0.00  0.00    -0.074 A 
ATOM      7  C6  UNL d   1       2.157   5.888   5.947  0.00  0.00     0.077 C 
ATOM      8  C7  UNL d   1       3.585   4.364   4.550  0.00  0.00    -0.001 A 
ENDROOT
TORSDOF 0
ENDMDL
