MODEL 1
REMARK minimizedAffinity 4.85452032
REMARK minimizedRMSD -1
REMARK  0 active torsions:
REMARK  status: ('A' for Active; 'I' for Inactive)
ROOT
ATOM      1  C   UNL d   1      -1.126   2.069  -3.444  0.00  0.00     0.077 C 
ATOM      2  C1  UNL d   1      -1.662   0.919  -2.643  0.00  0.00    -0.074 A 
ATOM      3  C2  UNL d   1      -2.834   1.052  -1.891  0.00  0.00    -0.005 A 
ATOM      4  C3  UNL d   1      -3.326  -0.029  -1.159  0.00  0.00     0.006 A 
ATOM      5  C4  UNL d   1      -2.652  -1.251  -1.172  0.00  0.00    -0.005 A 
ATOM      6  C5  UNL d   1      -1.480  -1.402  -1.919  0.00  0.00    -0.074 A 
ATOM      7  C6  UNL d   1      -0.749  -2.712  -1.951  0.00  0.00     0.077 C 
ATOM      8  C7  UNL d   1      -0.996  -0.314  -2.657  0.00  0.00    -0.001 A 
ENDROOT
TORSDOF 0
ENDMDL
