MODEL 1
REMARK minimizedAffinity -4.83126688
REMARK minimizedRMSD -1
REMARK  0 active torsions:
REMARK  status: ('A' for Active; 'I' for Inactive)
ROOT
ATOM      1  C   UNL d   1       0.783  -1.855   1.922  0.00  0.00     0.077 C 
ATOM      2  C1  UNL d   1      -0.017  -1.059   0.935  0.00  0.00    -0.074 A 
ATOM      3  C2  UNL d   1       0.609  -0.180   0.045  0.00  0.00    -0.005 A 
ATOM      4  C3  UNL d   1      -0.147   0.548  -0.874  0.00  0.00     0.006 A 
ATOM      5  C4  UNL d   1      -1.534   0.404  -0.913  0.00  0.00    -0.005 A 
ATOM      6  C5  UNL d   1      -2.178  -0.471  -0.032  0.00  0.00    -0.074 A 
ATOM      7  C6  UNL d   1      -3.667  -0.645  -0.068  0.00  0.00     0.077 C 
ATOM      8  C7  UNL d   1      -1.410  -1.204   0.884  0.00  0.00    -0.001 A 
ENDROOT
TORSDOF 0
ENDMDL
