MODEL 1
REMARK minimizedAffinity -3.41498923
REMARK minimizedRMSD -1
REMARK  0 active torsions:
REMARK  status: ('A' for Active; 'I' for Inactive)
ROOT
ATOM      1  C   UNL d   1       1.245  -1.606   2.092  0.00  0.00     0.077 C 
ATOM      2  C1  UNL d   1       0.640  -1.031   0.846  0.00  0.00    -0.074 A 
ATOM      3  C2  UNL d   1       1.418  -0.310  -0.065  0.00  0.00    -0.005 A 
ATOM      4  C3  UNL d   1       0.843   0.211  -1.224  0.00  0.00     0.006 A 
ATOM      5  C4  UNL d   1      -0.514   0.017  -1.483  0.00  0.00    -0.005 A 
ATOM      6  C5  UNL d   1      -1.308  -0.702  -0.584  0.00  0.00    -0.074 A 
ATOM      7  C6  UNL d   1      -2.766  -0.928  -0.853  0.00  0.00     0.077 C 
ATOM      8  C7  UNL d   1      -0.721  -1.228   0.575  0.00  0.00    -0.001 A 
ENDROOT
TORSDOF 0
ENDMDL
