MODEL 1
REMARK minimizedAffinity 1.56903732
REMARK minimizedRMSD -1
REMARK  0 active torsions:
REMARK  status: ('A' for Active; 'I' for Inactive)
ROOT
ATOM      1  C   UNL d   1       5.994   1.141   1.214  0.00  0.00     0.077 C 
ATOM      2  C1  UNL d   1       5.722   0.620  -0.166  0.00  0.00    -0.074 A 
ATOM      3  C2  UNL d   1       5.202  -0.663  -0.361  0.00  0.00    -0.005 A 
ATOM      4  C3  UNL d   1       4.945  -1.130  -1.650  0.00  0.00     0.006 A 
ATOM      5  C4  UNL d   1       5.205  -0.319  -2.755  0.00  0.00    -0.005 A 
ATOM      6  C5  UNL d   1       5.724   0.968  -2.580  0.00  0.00    -0.074 A 
ATOM      7  C6  UNL d   1       6.000   1.856  -3.757  0.00  0.00     0.077 C 
ATOM      8  C7  UNL d   1       5.973   1.432  -1.281  0.00  0.00    -0.001 A 
ENDROOT
TORSDOF 0
ENDMDL
