MODEL 1
REMARK minimizedAffinity -1.70077407
REMARK minimizedRMSD -1
REMARK  0 active torsions:
REMARK  status: ('A' for Active; 'I' for Inactive)
ROOT
ATOM      1  C   UNL d   1      -3.344  -1.026   0.318  0.00  0.00     0.077 C 
ATOM      2  C1  UNL d   1      -1.874  -0.756   0.183  0.00  0.00    -0.074 A 
ATOM      3  C2  UNL d   1      -1.012  -0.911   1.273  0.00  0.00    -0.005 A 
ATOM      4  C3  UNL d   1       0.353  -0.666   1.130  0.00  0.00     0.006 A 
ATOM      5  C4  UNL d   1       0.870  -0.264  -0.102  0.00  0.00    -0.005 A 
ATOM      6  C5  UNL d   1       0.023  -0.105  -1.204  0.00  0.00    -0.074 A 
ATOM      7  C6  UNL d   1       0.563   0.317  -2.538  0.00  0.00     0.077 C 
ATOM      8  C7  UNL d   1      -1.347  -0.360  -1.054  0.00  0.00    -0.001 A 
ENDROOT
TORSDOF 0
ENDMDL
