MODEL 1
REMARK minimizedAffinity -2.66629267
REMARK minimizedRMSD -1
REMARK  0 active torsions:
REMARK  status: ('A' for Active; 'I' for Inactive)
ROOT
ATOM      1  C   UNL d   1      -2.723  -2.809  -1.731  0.00  0.00     0.077 C 
ATOM      2  C1  UNL d   1      -2.031  -1.814  -0.848  0.00  0.00    -0.074 A 
ATOM      3  C2  UNL d   1      -2.303  -1.758   0.523  0.00  0.00    -0.005 A 
ATOM      4  C3  UNL d   1      -1.644  -0.834   1.334  0.00  0.00     0.006 A 
ATOM      5  C4  UNL d   1      -0.708   0.042   0.783  0.00  0.00    -0.005 A 
ATOM      6  C5  UNL d   1      -0.422   0.000  -0.585  0.00  0.00    -0.074 A 
ATOM      7  C6  UNL d   1       0.588   0.928  -1.191  0.00  0.00     0.077 C 
ATOM      8  C7  UNL d   1      -1.083  -0.936  -1.392  0.00  0.00    -0.001 A 
ENDROOT
TORSDOF 0
ENDMDL
