MODEL 1
REMARK minimizedAffinity 1.7919873
REMARK minimizedRMSD -1
REMARK  0 active torsions:
REMARK  status: ('A' for Active; 'I' for Inactive)
ROOT
ATOM      1  C   UNL d   1      -0.136   1.601  -2.269  0.00  0.00     0.077 C 
ATOM      2  C1  UNL d   1      -0.765   0.527  -1.432  0.00  0.00    -0.074 A 
ATOM      3  C2  UNL d   1      -1.998  -0.030  -1.784  0.00  0.00    -0.005 A 
ATOM      4  C3  UNL d   1      -2.565  -1.035  -1.001  0.00  0.00     0.006 A 
ATOM      5  C4  UNL d   1      -1.906  -1.493   0.141  0.00  0.00    -0.005 A 
ATOM      6  C5  UNL d   1      -0.671  -0.949   0.508  0.00  0.00    -0.074 A 
ATOM      7  C6  UNL d   1       0.055  -1.436   1.726  0.00  0.00     0.077 C 
ATOM      8  C7  UNL d   1      -0.105   0.056  -0.288  0.00  0.00    -0.001 A 
ENDROOT
TORSDOF 0
ENDMDL
