MODEL 1
REMARK minimizedAffinity -5.95983267
REMARK minimizedRMSD -1
REMARK  0 active torsions:
REMARK  status: ('A' for Active; 'I' for Inactive)
ROOT
ATOM      1  O1  BZF d   1       3.730   1.364  -1.872  0.00  0.00    -0.204 OA
ATOM      2  C2  BZF d   1       4.365   0.245  -2.375  0.00  0.00     0.174 A 
ATOM      3  C3  BZF d   1       3.828  -0.881  -1.862  0.00  0.00    -0.012 A 
ATOM      4  C3A BZF d   1       2.733  -0.441  -1.053  0.00  0.00    -0.107 A 
ATOM      5  C4  BZF d   1       1.803  -1.095  -0.296  0.00  0.00     0.055 A 
ATOM      6  C5  BZF d   1       0.913  -0.368   0.429  0.00  0.00    -0.016 A 
ATOM      7  C6  BZF d   1       0.928   1.012   0.425  0.00  0.00     0.022 A 
ATOM      8  C7  BZF d   1       1.828   1.704  -0.315  0.00  0.00     0.029 A 
ATOM      9  C7A BZF d   1       2.707   0.972  -1.075  0.00  0.00     0.058 A 
ENDROOT
TORSDOF 0
ENDMDL
