MODEL 1
REMARK minimizedAffinity -4.2569375
REMARK minimizedRMSD -1
REMARK  0 active torsions:
REMARK  status: ('A' for Active; 'I' for Inactive)
ROOT
ATOM      1  O1  BZF d   1       1.070  -2.335   0.837  0.00  0.00    -0.204 OA
ATOM      2  C2  BZF d   1       0.300  -1.594   1.713  0.00  0.00     0.174 A 
ATOM      3  C3  BZF d   1       0.489  -0.273   1.516  0.00  0.00    -0.012 A 
ATOM      4  C3A BZF d   1       1.365  -0.182   0.388  0.00  0.00    -0.107 A 
ATOM      5  C4  BZF d   1       1.907   0.867  -0.298  0.00  0.00     0.055 A 
ATOM      6  C5  BZF d   1       2.783   0.615  -1.306  0.00  0.00    -0.016 A 
ATOM      7  C6  BZF d   1       3.143  -0.671  -1.651  0.00  0.00     0.022 A 
ATOM      8  C7  BZF d   1       2.628  -1.744  -1.003  0.00  0.00     0.029 A 
ATOM      9  C7A BZF d   1       1.717  -1.494  -0.005  0.00  0.00     0.058 A 
ENDROOT
TORSDOF 0
ENDMDL
