MODEL 1
REMARK minimizedAffinity -2.81287575
REMARK minimizedRMSD -1
REMARK  0 active torsions:
REMARK  status: ('A' for Active; 'I' for Inactive)
ROOT
ATOM      1  O1  BZF d   1       3.112  -2.233  -0.726  0.00  0.00    -0.204 OA
ATOM      2  C2  BZF d   1       4.134  -1.401  -1.139  0.00  0.00     0.174 A 
ATOM      3  C3  BZF d   1       3.800  -0.107  -0.961  0.00  0.00    -0.012 A 
ATOM      4  C3A BZF d   1       2.524  -0.133  -0.315  0.00  0.00    -0.107 A 
ATOM      5  C4  BZF d   1       1.680   0.841   0.136  0.00  0.00     0.055 A 
ATOM      6  C5  BZF d   1       0.475   0.483   0.654  0.00  0.00    -0.016 A 
ATOM      7  C6  BZF d   1       0.081  -0.837   0.731  0.00  0.00     0.022 A 
ATOM      8  C7  BZF d   1       0.887  -1.838   0.301  0.00  0.00     0.029 A 
ATOM      9  C7A BZF d   1       2.118  -1.482  -0.192  0.00  0.00     0.058 A 
ENDROOT
TORSDOF 0
ENDMDL
