MODEL 1
REMARK minimizedAffinity -5.23288774
REMARK minimizedRMSD -1
REMARK  0 active torsions:
REMARK  status: ('A' for Active; 'I' for Inactive)
ROOT
ATOM      1  O1  BZF d   1       3.785  -1.859  -0.986  0.00  0.00    -0.204 OA
ATOM      2  C2  BZF d   1       4.494  -0.778  -1.473  0.00  0.00     0.174 A 
ATOM      3  C3  BZF d   1       3.833   0.374  -1.238  0.00  0.00    -0.012 A 
ATOM      4  C3A BZF d   1       2.679  -0.003  -0.480  0.00  0.00    -0.107 A 
ATOM      5  C4  BZF d   1       1.644   0.701   0.066  0.00  0.00     0.055 A 
ATOM      6  C5  BZF d   1       0.639   0.025   0.683  0.00  0.00    -0.016 A 
ATOM      7  C6  BZF d   1       0.635  -1.352   0.768  0.00  0.00     0.022 A 
ATOM      8  C7  BZF d   1       1.643  -2.093   0.246  0.00  0.00     0.029 A 
ATOM      9  C7A BZF d   1       2.676  -1.411  -0.349  0.00  0.00     0.058 A 
ENDROOT
TORSDOF 0
ENDMDL
