MODEL 1
REMARK minimizedAffinity -2.31350708
REMARK minimizedRMSD -1
REMARK  0 active torsions:
REMARK  status: ('A' for Active; 'I' for Inactive)
ROOT
ATOM      1  O1  BZF d   1       3.829   0.300  -1.490  0.00  0.00    -0.204 OA
ATOM      2  C2  BZF d   1       4.255  -0.971  -1.827  0.00  0.00     0.174 A 
ATOM      3  C3  BZF d   1       3.470  -1.906  -1.254  0.00  0.00    -0.012 A 
ATOM      4  C3A BZF d   1       2.437  -1.173  -0.588  0.00  0.00    -0.107 A 
ATOM      5  C4  BZF d   1       1.348  -1.545   0.148  0.00  0.00     0.055 A 
ATOM      6  C5  BZF d   1       0.578  -0.582   0.721  0.00  0.00    -0.016 A 
ATOM      7  C6  BZF d   1       0.872   0.759   0.584  0.00  0.00     0.022 A 
ATOM      8  C7  BZF d   1       1.939   1.176  -0.141  0.00  0.00     0.029 A 
ATOM      9  C7A BZF d   1       2.699   0.207  -0.749  0.00  0.00     0.058 A 
ENDROOT
TORSDOF 0
ENDMDL
