MODEL 1
REMARK minimizedAffinity -2.07272649
REMARK minimizedRMSD -1
REMARK  0 active torsions:
REMARK  status: ('A' for Active; 'I' for Inactive)
ROOT
ATOM      1  O1  BZF d   1       3.656  -1.806  -1.639  0.00  0.00    -0.204 OA
ATOM      2  C2  BZF d   1       4.484  -0.786  -2.066  0.00  0.00     0.174 A 
ATOM      3  C3  BZF d   1       4.012   0.412  -1.665  0.00  0.00    -0.012 A 
ATOM      4  C3A BZF d   1       2.865   0.116  -0.864  0.00  0.00    -0.107 A 
ATOM      5  C4  BZF d   1       1.978   0.890  -0.171  0.00  0.00     0.055 A 
ATOM      6  C5  BZF d   1       0.925   0.295   0.448  0.00  0.00    -0.016 A 
ATOM      7  C6  BZF d   1       0.726  -1.069   0.393  0.00  0.00     0.022 A 
ATOM      8  C7  BZF d   1       1.582  -1.879  -0.278  0.00  0.00     0.029 A 
ATOM      9  C7A BZF d   1       2.665  -1.284  -0.877  0.00  0.00     0.058 A 
ENDROOT
TORSDOF 0
ENDMDL
