MODEL 1
REMARK minimizedAffinity -0.333433479
REMARK minimizedRMSD -1
REMARK  0 active torsions:
REMARK  status: ('A' for Active; 'I' for Inactive)
ROOT
ATOM      1  O1  BZF d   1       4.079   0.107  -1.672  0.00  0.00    -0.204 OA
ATOM      2  C2  BZF d   1       4.396  -1.206  -1.962  0.00  0.00     0.174 A 
ATOM      3  C3  BZF d   1       3.614  -2.053  -1.263  0.00  0.00    -0.012 A 
ATOM      4  C3A BZF d   1       2.692  -1.218  -0.557  0.00  0.00    -0.107 A 
ATOM      5  C4  BZF d   1       1.655  -1.475   0.295  0.00  0.00     0.055 A 
ATOM      6  C5  BZF d   1       1.000  -0.432   0.870  0.00  0.00    -0.016 A 
ATOM      7  C6  BZF d   1       1.358   0.877   0.622  0.00  0.00     0.022 A 
ATOM      8  C7  BZF d   1       2.376   1.181  -0.220  0.00  0.00     0.029 A 
ATOM      9  C7A BZF d   1       3.019   0.131  -0.829  0.00  0.00     0.058 A 
ENDROOT
TORSDOF 0
ENDMDL
