MODEL 1
REMARK minimizedAffinity -2.39602399
REMARK minimizedRMSD -1
REMARK  0 active torsions:
REMARK  status: ('A' for Active; 'I' for Inactive)
ROOT
ATOM      1  O1  BZF d   1       1.539  -2.044   0.867  0.00  0.00    -0.204 OA
ATOM      2  C2  BZF d   1       0.502  -1.469   1.576  0.00  0.00     0.174 A 
ATOM      3  C3  BZF d   1       0.435  -0.144   1.335  0.00  0.00    -0.012 A 
ATOM      4  C3A BZF d   1       1.438   0.111   0.347  0.00  0.00    -0.107 A 
ATOM      5  C4  BZF d   1       1.845   1.237  -0.309  0.00  0.00     0.055 A 
ATOM      6  C5  BZF d   1       2.901   1.160  -1.160  0.00  0.00    -0.016 A 
ATOM      7  C6  BZF d   1       3.575  -0.024  -1.376  0.00  0.00     0.022 A 
ATOM      8  C7  BZF d   1       3.205  -1.169  -0.752  0.00  0.00     0.029 A 
ATOM      9  C7A BZF d   1       2.117  -1.101   0.084  0.00  0.00     0.058 A 
ENDROOT
TORSDOF 0
ENDMDL
