MODEL 1
REMARK minimizedAffinity -1.75755847
REMARK minimizedRMSD -1
REMARK  0 active torsions:
REMARK  status: ('A' for Active; 'I' for Inactive)
ROOT
ATOM      1  O1  BZF d   1       1.983  -1.780   1.065  0.00  0.00    -0.204 OA
ATOM      2  C2  BZF d   1       0.839  -1.307   1.677  0.00  0.00     0.174 A 
ATOM      3  C3  BZF d   1       0.498  -0.098   1.186  0.00  0.00    -0.012 A 
ATOM      4  C3A BZF d   1       1.438   0.161   0.139  0.00  0.00    -0.107 A 
ATOM      5  C4  BZF d   1       1.608   1.197  -0.735  0.00  0.00     0.055 A 
ATOM      6  C5  BZF d   1       2.668   1.177  -1.585  0.00  0.00    -0.016 A 
ATOM      7  C6  BZF d   1       3.579   0.141  -1.584  0.00  0.00     0.022 A 
ATOM      8  C7  BZF d   1       3.449  -0.911  -0.740  0.00  0.00     0.029 A 
ATOM      9  C7A BZF d   1       2.361  -0.909   0.098  0.00  0.00     0.058 A 
ENDROOT
TORSDOF 0
ENDMDL
