MODEL 1
REMARK minimizedAffinity 5.50850821
REMARK minimizedRMSD -1
REMARK  0 active torsions:
REMARK  status: ('A' for Active; 'I' for Inactive)
ROOT
ATOM      1  O1  BZF d   1       2.017  -2.702  -0.663  0.00  0.00    -0.204 OA
ATOM      2  C2  BZF d   1       3.132  -2.367  -1.405  0.00  0.00     0.174 A 
ATOM      3  C3  BZF d   1       3.391  -1.047  -1.311  0.00  0.00    -0.012 A 
ATOM      4  C3A BZF d   1       2.427  -0.540  -0.383  0.00  0.00    -0.107 A 
ATOM      5  C4  BZF d   1       2.183   0.701   0.134  0.00  0.00     0.055 A 
ATOM      6  C5  BZF d   1       1.120   0.874   0.962  0.00  0.00    -0.016 A 
ATOM      7  C6  BZF d   1       0.278  -0.168   1.290  0.00  0.00     0.022 A 
ATOM      8  C7  BZF d   1       0.483  -1.418   0.807  0.00  0.00     0.029 A 
ATOM      9  C7A BZF d   1       1.576  -1.603  -0.004  0.00  0.00     0.058 A 
ENDROOT
TORSDOF 0
ENDMDL
