MODEL 1
REMARK minimizedAffinity 1.453601
REMARK minimizedRMSD -1
REMARK  0 active torsions:
REMARK  status: ('A' for Active; 'I' for Inactive)
ROOT
ATOM      1  O1  BZF d   1       1.883   0.835   0.386  0.00  0.00    -0.204 OA
ATOM      2  C2  BZF d   1       1.243  -0.130   1.139  0.00  0.00     0.174 A 
ATOM      3  C3  BZF d   1       1.489  -1.362   0.649  0.00  0.00    -0.012 A 
ATOM      4  C3A BZF d   1       2.411  -1.161  -0.427  0.00  0.00    -0.107 A 
ATOM      5  C4  BZF d   1       3.041  -2.007  -1.294  0.00  0.00     0.055 A 
ATOM      6  C5  BZF d   1       3.822  -1.486  -2.276  0.00  0.00    -0.016 A 
ATOM      7  C6  BZF d   1       3.992  -0.125  -2.423  0.00  0.00     0.022 A 
ATOM      8  C7  BZF d   1       3.392   0.754  -1.584  0.00  0.00     0.029 A 
ATOM      9  C7A BZF d   1       2.628   0.229  -0.570  0.00  0.00     0.058 A 
ENDROOT
TORSDOF 0
ENDMDL
