MODEL 1
REMARK minimizedAffinity -1.01052392
REMARK minimizedRMSD -1
REMARK  0 active torsions:
REMARK  status: ('A' for Active; 'I' for Inactive)
ROOT
ATOM      1  O1  BZF d   1       3.920  -1.845  -0.680  0.00  0.00    -0.204 OA
ATOM      2  C2  BZF d   1       4.441  -1.105  -1.724  0.00  0.00     0.174 A 
ATOM      3  C3  BZF d   1       3.675  -0.023  -1.973  0.00  0.00    -0.012 A 
ATOM      4  C3A BZF d   1       2.660  -0.041  -0.965  0.00  0.00    -0.107 A 
ATOM      5  C4  BZF d   1       1.610   0.783  -0.675  0.00  0.00     0.055 A 
ATOM      6  C5  BZF d   1       0.763   0.444   0.332  0.00  0.00    -0.016 A 
ATOM      7  C6  BZF d   1       0.932  -0.712   1.064  0.00  0.00     0.022 A 
ATOM      8  C7  BZF d   1       1.961  -1.559   0.817  0.00  0.00     0.029 A 
ATOM      9  C7A BZF d   1       2.838  -1.202  -0.178  0.00  0.00     0.058 A 
ENDROOT
TORSDOF 0
ENDMDL
