MODEL 1
REMARK minimizedAffinity -2.50419927
REMARK minimizedRMSD -1
REMARK  0 active torsions:
REMARK  status: ('A' for Active; 'I' for Inactive)
ROOT
ATOM      1  O1  BZF d   1       3.792   0.888  -1.851  0.00  0.00    -0.204 OA
ATOM      2  C2  BZF d   1       4.672  -0.077  -2.301  0.00  0.00     0.174 A 
ATOM      3  C3  BZF d   1       4.389  -1.276  -1.754  0.00  0.00    -0.012 A 
ATOM      4  C3A BZF d   1       3.205  -1.066  -0.979  0.00  0.00    -0.107 A 
ATOM      5  C4  BZF d   1       2.428  -1.885  -0.211  0.00  0.00     0.055 A 
ATOM      6  C5  BZF d   1       1.381  -1.353   0.472  0.00  0.00    -0.016 A 
ATOM      7  C6  BZF d   1       1.087  -0.006   0.416  0.00  0.00     0.022 A 
ATOM      8  C7  BZF d   1       1.826   0.845  -0.336  0.00  0.00     0.029 A 
ATOM      9  C7A BZF d   1       2.864   0.304  -1.055  0.00  0.00     0.058 A 
ENDROOT
TORSDOF 0
ENDMDL
