MODEL 1
REMARK minimizedAffinity -0.744398832
REMARK minimizedRMSD -1
REMARK  0 active torsions:
REMARK  status: ('A' for Active; 'I' for Inactive)
ROOT
ATOM      1  O1  BZF d   1       3.319  -0.726  -1.872  0.00  0.00    -0.204 OA
ATOM      2  C2  BZF d   1       3.116   0.510  -2.455  0.00  0.00     0.174 A 
ATOM      3  C3  BZF d   1       2.167   1.201  -1.791  0.00  0.00    -0.012 A 
ATOM      4  C3A BZF d   1       1.817   0.381  -0.672  0.00  0.00    -0.107 A 
ATOM      5  C4  BZF d   1       0.941   0.532   0.365  0.00  0.00     0.055 A 
ATOM      6  C5  BZF d   1       0.785  -0.487   1.251  0.00  0.00    -0.016 A 
ATOM      7  C6  BZF d   1       1.483  -1.670   1.127  0.00  0.00     0.022 A 
ATOM      8  C7  BZF d   1       2.367  -1.864   0.118  0.00  0.00     0.029 A 
ATOM      9  C7A BZF d   1       2.552  -0.824  -0.760  0.00  0.00     0.058 A 
ENDROOT
TORSDOF 0
ENDMDL
