MODEL 1
REMARK minimizedAffinity -1.37581027
REMARK minimizedRMSD -1
REMARK  0 active torsions:
REMARK  status: ('A' for Active; 'I' for Inactive)
ROOT
ATOM      1  O1  BZF d   1       4.322  -1.421  -1.381  0.00  0.00    -0.204 OA
ATOM      2  C2  BZF d   1       5.011  -0.331  -1.876  0.00  0.00     0.174 A 
ATOM      3  C3  BZF d   1       4.357   0.815  -1.599  0.00  0.00    -0.012 A 
ATOM      4  C3A BZF d   1       3.232   0.424  -0.805  0.00  0.00    -0.107 A 
ATOM      5  C4  BZF d   1       2.216   1.116  -0.211  0.00  0.00     0.055 A 
ATOM      6  C5  BZF d   1       1.236   0.428   0.432  0.00  0.00    -0.016 A 
ATOM      7  C6  BZF d   1       1.237  -0.950   0.494  0.00  0.00     0.022 A 
ATOM      8  C7  BZF d   1       2.227  -1.680  -0.076  0.00  0.00     0.029 A 
ATOM      9  C7A BZF d   1       3.237  -0.986  -0.697  0.00  0.00     0.058 A 
ENDROOT
TORSDOF 0
ENDMDL
