MODEL 1
REMARK minimizedAffinity -3.97991991
REMARK minimizedRMSD -1
REMARK  0 active torsions:
REMARK  status: ('A' for Active; 'I' for Inactive)
ROOT
ATOM      1  O1  BZF d   1       3.122   0.923  -1.775  0.00  0.00    -0.204 OA
ATOM      2  C2  BZF d   1       3.909   0.023  -2.467  0.00  0.00     0.174 A 
ATOM      3  C3  BZF d   1       3.765  -1.221  -1.967  0.00  0.00    -0.012 A 
ATOM      4  C3A BZF d   1       2.760  -1.106  -0.955  0.00  0.00    -0.107 A 
ATOM      5  C4  BZF d   1       2.170  -2.004  -0.112  0.00  0.00     0.055 A 
ATOM      6  C5  BZF d   1       1.275  -1.556   0.808  0.00  0.00    -0.016 A 
ATOM      7  C6  BZF d   1       0.951  -0.220   0.915  0.00  0.00     0.022 A 
ATOM      8  C7  BZF d   1       1.506   0.707   0.097  0.00  0.00     0.029 A 
ATOM      9  C7A BZF d   1       2.386   0.254  -0.855  0.00  0.00     0.058 A 
ENDROOT
TORSDOF 0
ENDMDL
