MODEL 1
REMARK minimizedAffinity -3.8367939
REMARK minimizedRMSD -1
REMARK  0 active torsions:
REMARK  status: ('A' for Active; 'I' for Inactive)
ROOT
ATOM      1  O1  BZF d   1       3.836   1.144  -1.559  0.00  0.00    -0.204 OA
ATOM      2  C2  BZF d   1       4.700   0.238  -2.141  0.00  0.00     0.174 A 
ATOM      3  C3  BZF d   1       4.334  -1.027  -1.851  0.00  0.00    -0.012 A 
ATOM      4  C3A BZF d   1       3.115  -0.905  -1.112  0.00  0.00    -0.107 A 
ATOM      5  C4  BZF d   1       2.258  -1.813  -0.558  0.00  0.00     0.055 A 
ATOM      6  C5  BZF d   1       1.195  -1.365   0.161  0.00  0.00    -0.016 A 
ATOM      7  C6  BZF d   1       0.963  -0.019   0.350  0.00  0.00     0.022 A 
ATOM      8  C7  BZF d   1       1.782   0.919  -0.184  0.00  0.00     0.029 A 
ATOM      9  C7A BZF d   1       2.838   0.470  -0.939  0.00  0.00     0.058 A 
ENDROOT
TORSDOF 0
ENDMDL
