MODEL 1
REMARK minimizedAffinity -4.42738152
REMARK minimizedRMSD -1
REMARK  0 active torsions:
REMARK  status: ('A' for Active; 'I' for Inactive)
ROOT
ATOM      1  O1  BZF d   1       3.308   1.110  -1.525  0.00  0.00    -0.204 OA
ATOM      2  C2  BZF d   1       4.289   0.344  -2.124  0.00  0.00     0.174 A 
ATOM      3  C3  BZF d   1       4.188  -0.946  -1.742  0.00  0.00    -0.012 A 
ATOM      4  C3A BZF d   1       3.017  -1.005  -0.921  0.00  0.00    -0.107 A 
ATOM      5  C4  BZF d   1       2.385  -2.018  -0.258  0.00  0.00     0.055 A 
ATOM      6  C5  BZF d   1       1.306  -1.729   0.515  0.00  0.00    -0.016 A 
ATOM      7  C6  BZF d   1       0.835  -0.439   0.652  0.00  0.00     0.022 A 
ATOM      8  C7  BZF d   1       1.426   0.598   0.010  0.00  0.00     0.029 A 
ATOM      9  C7A BZF d   1       2.497   0.304  -0.798  0.00  0.00     0.058 A 
ENDROOT
TORSDOF 0
ENDMDL
