MODEL 1
REMARK minimizedAffinity -5.31069374
REMARK minimizedRMSD -1
REMARK  1 active torsions:
REMARK  status: ('A' for Active; 'I' for Inactive)
REMARK    1  A    between atoms: C1_2  and  C2_3 
ROOT
ATOM      1  C2  UNL d   1      -0.267   0.347  -0.713  0.00  0.00    -0.081 A 
ATOM      2  C3  UNL d   1      -0.758  -0.162   0.496  0.00  0.00     0.006 A 
ATOM      3  C4  UNL d   1      -0.760  -1.538   0.736  0.00  0.00     0.002 A 
ATOM      4  C5  UNL d   1      -0.263  -2.427  -0.224  0.00  0.00    -0.080 A 
ATOM      5  C6  UNL d   1      -0.231  -3.904   0.034  0.00  0.00     0.076 C 
ATOM      6  C7  UNL d   1       0.212  -1.919  -1.438  0.00  0.00     0.002 A 
ATOM      7  C8  UNL d   1       0.213  -0.544  -1.679  0.00  0.00     0.006 A 
ENDROOT
BRANCH   1   8
ATOM      8  C1  UNL d   1      -0.204   1.835  -0.948  0.00  0.00     0.054 C 
ATOM      9  C   UNL d   1      -0.071   2.597   0.362  0.00  0.00     0.018 C 
ENDBRANCH   1   8
TORSDOF 1
ENDMDL
