MODEL 1
REMARK minimizedAffinity -4.79234838
REMARK minimizedRMSD -1
REMARK  1 active torsions:
REMARK  status: ('A' for Active; 'I' for Inactive)
REMARK    1  A    between atoms: C1_2  and  C2_3 
ROOT
ATOM      1  C2  UNL d   1      -0.143   1.858   0.381  0.00  0.00    -0.081 A 
ATOM      2  C3  UNL d   1      -1.433   1.611   0.866  0.00  0.00     0.006 A 
ATOM      3  C4  UNL d   1      -1.910   0.302   0.973  0.00  0.00     0.002 A 
ATOM      4  C5  UNL d   1      -1.104  -0.780   0.604  0.00  0.00    -0.080 A 
ATOM      5  C6  UNL d   1      -1.593  -2.191   0.742  0.00  0.00     0.076 C 
ATOM      6  C7  UNL d   1       0.178  -0.532   0.102  0.00  0.00     0.002 A 
ATOM      7  C8  UNL d   1       0.656   0.776  -0.005  0.00  0.00     0.006 A 
ENDROOT
BRANCH   1   8
ATOM      8  C1  UNL d   1       0.398   3.264   0.325  0.00  0.00     0.054 C 
ATOM      9  C   UNL d   1       1.919   3.274   0.377  0.00  0.00     0.018 C 
ENDBRANCH   1   8
TORSDOF 1
ENDMDL
