MODEL 1
REMARK minimizedAffinity -3.69885468
REMARK minimizedRMSD -1
REMARK  1 active torsions:
REMARK  status: ('A' for Active; 'I' for Inactive)
REMARK    1  A    between atoms: C1_2  and  C2_3 
ROOT
ATOM      1  C2  UNL d   1       0.389   1.884   0.019  0.00  0.00    -0.081 A 
ATOM      2  C3  UNL d   1       0.746   1.134   1.146  0.00  0.00     0.006 A 
ATOM      3  C4  UNL d   1       0.550  -0.249   1.168  0.00  0.00     0.002 A 
ATOM      4  C5  UNL d   1       0.001  -0.905   0.061  0.00  0.00    -0.080 A 
ATOM      5  C6  UNL d   1      -0.187  -2.394   0.060  0.00  0.00     0.076 C 
ATOM      6  C7  UNL d   1      -0.372  -0.154  -1.058  0.00  0.00     0.002 A 
ATOM      7  C8  UNL d   1      -0.177   1.229  -1.081  0.00  0.00     0.006 A 
ENDROOT
BRANCH   1   8
ATOM      8  C1  UNL d   1       0.659   3.366  -0.033  0.00  0.00     0.054 C 
ATOM      9  C   UNL d   1       2.153   3.657  -0.025  0.00  0.00     0.018 C 
ENDBRANCH   1   8
TORSDOF 1
ENDMDL
