MODEL 1
REMARK minimizedAffinity -3.35949659
REMARK minimizedRMSD -1
REMARK  1 active torsions:
REMARK  status: ('A' for Active; 'I' for Inactive)
REMARK    1  A    between atoms: C1_2  and  C2_3 
ROOT
ATOM      1  C2  UNL d   1      -0.208   0.586   0.196  0.00  0.00    -0.081 A 
ATOM      2  C3  UNL d   1      -0.539  -0.216   1.295  0.00  0.00     0.006 A 
ATOM      3  C4  UNL d   1      -0.409  -1.604   1.223  0.00  0.00     0.002 A 
ATOM      4  C5  UNL d   1       0.062  -2.214   0.055  0.00  0.00    -0.080 A 
ATOM      5  C6  UNL d   1       0.236  -3.701  -0.025  0.00  0.00     0.076 C 
ATOM      6  C7  UNL d   1       0.376  -1.414  -1.049  0.00  0.00     0.002 A 
ATOM      7  C8  UNL d   1       0.245  -0.025  -0.978  0.00  0.00     0.006 A 
ENDROOT
BRANCH   1   8
ATOM      8  C1  UNL d   1      -0.286   2.089   0.292  0.00  0.00     0.054 C 
ATOM      9  C   UNL d   1       1.062   2.690   0.661  0.00  0.00     0.018 C 
ENDBRANCH   1   8
TORSDOF 1
ENDMDL
