MODEL 1
REMARK minimizedAffinity -5.0347147
REMARK minimizedRMSD -1
REMARK  1 active torsions:
REMARK  status: ('A' for Active; 'I' for Inactive)
REMARK    1  A    between atoms: C1_2  and  C2_3 
ROOT
ATOM      1  C2  UNL d   1      -0.044   0.945   0.310  0.00  0.00    -0.081 A 
ATOM      2  C3  UNL d   1      -1.229   0.347   0.757  0.00  0.00     0.006 A 
ATOM      3  C4  UNL d   1      -1.357  -1.043   0.776  0.00  0.00     0.002 A 
ATOM      4  C5  UNL d   1      -0.301  -1.859   0.356  0.00  0.00    -0.080 A 
ATOM      5  C6  UNL d   1      -0.414  -3.354   0.400  0.00  0.00     0.076 C 
ATOM      6  C7  UNL d   1       0.876  -1.262  -0.107  0.00  0.00     0.002 A 
ATOM      7  C8  UNL d   1       1.005   0.129  -0.126  0.00  0.00     0.006 A 
ENDROOT
BRANCH   1   8
ATOM      8  C1  UNL d   1       0.121   2.443   0.350  0.00  0.00     0.054 C 
ATOM      9  C   UNL d   1      -0.030   2.979   1.766  0.00  0.00     0.018 C 
ENDBRANCH   1   8
TORSDOF 1
ENDMDL
