MODEL 1
REMARK minimizedAffinity -5.50552654
REMARK minimizedRMSD -1
REMARK  1 active torsions:
REMARK  status: ('A' for Active; 'I' for Inactive)
REMARK    1  A    between atoms: C1_2  and  C2_3 
ROOT
ATOM      1  C2  UNL d   1      -0.212   0.428  -0.042  0.00  0.00    -0.081 A 
ATOM      2  C3  UNL d   1      -0.542  -0.379   1.054  0.00  0.00     0.006 A 
ATOM      3  C4  UNL d   1      -0.585  -1.769   0.923  0.00  0.00     0.002 A 
ATOM      4  C5  UNL d   1      -0.291  -2.375  -0.303  0.00  0.00    -0.080 A 
ATOM      5  C6  UNL d   1      -0.304  -3.868  -0.450  0.00  0.00     0.076 C 
ATOM      6  C7  UNL d   1       0.021  -1.569  -1.403  0.00  0.00     0.002 A 
ATOM      7  C8  UNL d   1       0.064  -0.179  -1.272  0.00  0.00     0.006 A 
ENDROOT
BRANCH   1   8
ATOM      8  C1  UNL d   1      -0.101   1.923   0.113  0.00  0.00     0.054 C 
ATOM      9  C   UNL d   1       1.285   2.329   0.592  0.00  0.00     0.018 C 
ENDBRANCH   1   8
TORSDOF 1
ENDMDL
