MODEL 1
REMARK minimizedAffinity -2.02311254
REMARK minimizedRMSD -1
REMARK  1 active torsions:
REMARK  status: ('A' for Active; 'I' for Inactive)
REMARK    1  A    between atoms: C1_2  and  C2_3 
ROOT
ATOM      1  C2  UNL d   1       0.193   0.402   0.478  0.00  0.00    -0.081 A 
ATOM      2  C3  UNL d   1      -0.804  -0.254   1.211  0.00  0.00     0.006 A 
ATOM      3  C4  UNL d   1      -0.865  -1.650   1.232  0.00  0.00     0.002 A 
ATOM      4  C5  UNL d   1       0.073  -2.412   0.527  0.00  0.00    -0.080 A 
ATOM      5  C6  UNL d   1       0.037  -3.911   0.566  0.00  0.00     0.076 C 
ATOM      6  C7  UNL d   1       1.058  -1.756  -0.219  0.00  0.00     0.002 A 
ATOM      7  C8  UNL d   1       1.119  -0.361  -0.241  0.00  0.00     0.006 A 
ENDROOT
BRANCH   1   8
ATOM      8  C1  UNL d   1       0.300   1.905   0.505  0.00  0.00     0.054 C 
ATOM      9  C   UNL d   1       1.736   2.353   0.739  0.00  0.00     0.018 C 
ENDBRANCH   1   8
TORSDOF 1
ENDMDL
