MODEL 1
REMARK minimizedAffinity -3.05904436
REMARK minimizedRMSD -1
REMARK  1 active torsions:
REMARK  status: ('A' for Active; 'I' for Inactive)
REMARK    1  A    between atoms: C1_2  and  C2_3 
ROOT
ATOM      1  C2  UNL d   1      -0.380  -0.539   0.335  0.00  0.00    -0.081 A 
ATOM      2  C3  UNL d   1       0.851  -1.028  -0.119  0.00  0.00     0.006 A 
ATOM      3  C4  UNL d   1       1.113  -2.400  -0.116  0.00  0.00     0.002 A 
ATOM      4  C5  UNL d   1       0.146  -3.306   0.334  0.00  0.00    -0.080 A 
ATOM      5  C6  UNL d   1       0.403  -4.784   0.314  0.00  0.00     0.076 C 
ATOM      6  C7  UNL d   1      -1.077  -2.817   0.803  0.00  0.00     0.002 A 
ATOM      7  C8  UNL d   1      -1.340  -1.445   0.801  0.00  0.00     0.006 A 
ENDROOT
BRANCH   1   8
ATOM      8  C1  UNL d   1      -0.690   0.935   0.272  0.00  0.00     0.054 C 
ATOM      9  C   UNL d   1       0.533   1.740  -0.143  0.00  0.00     0.018 C 
ENDBRANCH   1   8
TORSDOF 1
ENDMDL
