MODEL 1
REMARK minimizedAffinity -2.79303813
REMARK minimizedRMSD -1
REMARK  1 active torsions:
REMARK  status: ('A' for Active; 'I' for Inactive)
REMARK    1  A    between atoms: C1_2  and  C2_3 
ROOT
ATOM      1  C2  UNL d   1      -0.124   1.443  -0.178  0.00  0.00    -0.081 A 
ATOM      2  C3  UNL d   1      -1.152   1.015   0.670  0.00  0.00     0.006 A 
ATOM      3  C4  UNL d   1      -1.472  -0.341   0.767  0.00  0.00     0.002 A 
ATOM      4  C5  UNL d   1      -0.764  -1.293   0.025  0.00  0.00    -0.080 A 
ATOM      5  C6  UNL d   1      -1.077  -2.755   0.143  0.00  0.00     0.076 C 
ATOM      6  C7  UNL d   1       0.252  -0.864  -0.836  0.00  0.00     0.002 A 
ATOM      7  C8  UNL d   1       0.572   0.492  -0.934  0.00  0.00     0.006 A 
ENDROOT
BRANCH   1   8
ATOM      8  C1  UNL d   1       0.267   2.898  -0.237  0.00  0.00     0.054 C 
ATOM      9  C   UNL d   1       1.753   3.083   0.033  0.00  0.00     0.018 C 
ENDBRANCH   1   8
TORSDOF 1
ENDMDL
