MODEL 1
REMARK minimizedAffinity -4.04201984
REMARK minimizedRMSD -1
REMARK  0 active torsions:
REMARK  status: ('A' for Active; 'I' for Inactive)
ROOT
ATOM      1  C1  BNZ d   1       0.168  -3.290   0.522  0.00  0.00     0.000 A 
ATOM      2  C2  BNZ d   1      -0.623  -2.224   0.860  0.00  0.00     0.000 A 
ATOM      3  C3  BNZ d   1      -0.162  -0.943   0.734  0.00  0.00     0.000 A 
ATOM      4  C4  BNZ d   1       1.100  -0.731   0.310  0.00  0.00     0.000 A 
ATOM      5  C5  BNZ d   1       1.913  -1.796  -0.027  0.00  0.00     0.000 A 
ATOM      6  C6  BNZ d   1       1.432  -3.082   0.064  0.00  0.00     0.000 A 
ENDROOT
TORSDOF 0
ENDMDL
