MODEL 1
REMARK minimizedAffinity -0.774605691
REMARK minimizedRMSD -1
REMARK  0 active torsions:
REMARK  status: ('A' for Active; 'I' for Inactive)
ROOT
ATOM      1  C1  BNZ d   1       1.084  -3.697   0.338  0.00  0.00     0.000 A 
ATOM      2  C2  BNZ d   1      -0.072  -3.018   0.615  0.00  0.00     0.000 A 
ATOM      3  C3  BNZ d   1      -0.071  -1.658   0.744  0.00  0.00     0.000 A 
ATOM      4  C4  BNZ d   1       1.091  -0.982   0.637  0.00  0.00     0.000 A 
ATOM      5  C5  BNZ d   1       2.267  -1.654   0.368  0.00  0.00     0.000 A 
ATOM      6  C6  BNZ d   1       2.256  -3.019   0.200  0.00  0.00     0.000 A 
ENDROOT
TORSDOF 0
ENDMDL
