MODEL 1
REMARK minimizedAffinity -2.82500458
REMARK minimizedRMSD -1
REMARK  0 active torsions:
REMARK  status: ('A' for Active; 'I' for Inactive)
ROOT
ATOM      1  C1  BNZ d   1       1.393  -1.545   0.598  0.00  0.00     0.000 A 
ATOM      2  C2  BNZ d   1       0.822  -2.788   0.526  0.00  0.00     0.000 A 
ATOM      3  C3  BNZ d   1       1.581  -3.892   0.256  0.00  0.00     0.000 A 
ATOM      4  C4  BNZ d   1       2.901  -3.748   0.020  0.00  0.00     0.000 A 
ATOM      5  C5  BNZ d   1       3.490  -2.500   0.080  0.00  0.00     0.000 A 
ATOM      6  C6  BNZ d   1       2.729  -1.396   0.390  0.00  0.00     0.000 A 
ENDROOT
TORSDOF 0
ENDMDL
