MODEL 1
REMARK minimizedAffinity -4.07248735
REMARK minimizedRMSD -1
REMARK  0 active torsions:
REMARK  status: ('A' for Active; 'I' for Inactive)
ROOT
ATOM      1  C1  BNZ d   1       4.885   6.000   2.208  0.00  0.00     0.000 A 
ATOM      2  C2  BNZ d   1       5.648   5.997   1.071  0.00  0.00     0.000 A 
ATOM      3  C3  BNZ d   1       5.194   5.409  -0.076  0.00  0.00     0.000 A 
ATOM      4  C4  BNZ d   1       3.995   4.791  -0.074  0.00  0.00     0.000 A 
ATOM      5  C5  BNZ d   1       3.218   4.777   1.067  0.00  0.00     0.000 A 
ATOM      6  C6  BNZ d   1       3.662   5.403   2.209  0.00  0.00     0.000 A 
ENDROOT
TORSDOF 0
ENDMDL
