MODEL 1
REMARK minimizedAffinity -3.78025937
REMARK minimizedRMSD -1
REMARK  0 active torsions:
REMARK  status: ('A' for Active; 'I' for Inactive)
ROOT
ATOM      1  C1  BNZ d   1       1.468  -3.768   0.244  0.00  0.00     0.000 A 
ATOM      2  C2  BNZ d   1       0.465  -2.843   0.364  0.00  0.00     0.000 A 
ATOM      3  C3  BNZ d   1       0.749  -1.507   0.420  0.00  0.00     0.000 A 
ATOM      4  C4  BNZ d   1       2.034  -1.100   0.396  0.00  0.00     0.000 A 
ATOM      5  C5  BNZ d   1       3.057  -2.021   0.284  0.00  0.00     0.000 A 
ATOM      6  C6  BNZ d   1       2.766  -3.363   0.189  0.00  0.00     0.000 A 
ENDROOT
TORSDOF 0
ENDMDL
