MODEL 1
REMARK minimizedAffinity -3.16950846
REMARK minimizedRMSD -1
REMARK  0 active torsions:
REMARK  status: ('A' for Active; 'I' for Inactive)
ROOT
ATOM      1  C1  BNZ d   1      -5.501  -3.737   5.314  0.00  0.00     0.000 A 
ATOM      2  C2  BNZ d   1      -5.536  -3.750   3.945  0.00  0.00     0.000 A 
ATOM      3  C3  BNZ d   1      -5.237  -4.887   3.248  0.00  0.00     0.000 A 
ATOM      4  C4  BNZ d   1      -4.864  -5.997   3.918  0.00  0.00     0.000 A 
ATOM      5  C5  BNZ d   1      -4.814  -5.997   5.297  0.00  0.00     0.000 A 
ATOM      6  C6  BNZ d   1      -5.153  -4.862   5.997  0.00  0.00     0.000 A 
ENDROOT
TORSDOF 0
ENDMDL
