MODEL 1
REMARK minimizedAffinity -1.76350355
REMARK minimizedRMSD -1
REMARK  0 active torsions:
REMARK  status: ('A' for Active; 'I' for Inactive)
ROOT
ATOM      1  C1  BNZ d   1       2.379  -2.496   0.387  0.00  0.00     0.000 A 
ATOM      2  C2  BNZ d   1       1.901  -1.248   0.687  0.00  0.00     0.000 A 
ATOM      3  C3  BNZ d   1       0.558  -1.020   0.795  0.00  0.00     0.000 A 
ATOM      4  C4  BNZ d   1      -0.307  -2.029   0.563  0.00  0.00     0.000 A 
ATOM      5  C5  BNZ d   1       0.159  -3.290   0.250  0.00  0.00     0.000 A 
ATOM      6  C6  BNZ d   1       1.513  -3.525   0.180  0.00  0.00     0.000 A 
ENDROOT
TORSDOF 0
ENDMDL
