MODEL 1
REMARK minimizedAffinity -2.43413186
REMARK minimizedRMSD -1
REMARK  0 active torsions:
REMARK  status: ('A' for Active; 'I' for Inactive)
ROOT
ATOM      1  C1  BNZ d   1       4.557   5.999   2.275  0.00  0.00     0.000 A 
ATOM      2  C2  BNZ d   1       5.615   5.998   1.405  0.00  0.00     0.000 A 
ATOM      3  C3  BNZ d   1       5.436   5.682   0.087  0.00  0.00     0.000 A 
ATOM      4  C4  BNZ d   1       4.210   5.330  -0.350  0.00  0.00     0.000 A 
ATOM      5  C5  BNZ d   1       3.135   5.317   0.517  0.00  0.00     0.000 A 
ATOM      6  C6  BNZ d   1       3.312   5.673   1.835  0.00  0.00     0.000 A 
ENDROOT
TORSDOF 0
ENDMDL
