MODEL 1
REMARK minimizedAffinity 0.434594095
REMARK minimizedRMSD -1
REMARK  0 active torsions:
REMARK  status: ('A' for Active; 'I' for Inactive)
ROOT
ATOM      1  C1  BNZ d   1       0.758  -1.673   0.140  0.00  0.00     0.000 A 
ATOM      2  C2  BNZ d   1      -0.593  -1.491   0.003  0.00  0.00     0.000 A 
ATOM      3  C3  BNZ d   1      -1.241  -0.512   0.703  0.00  0.00     0.000 A 
ATOM      4  C4  BNZ d   1      -0.547   0.257   1.567  0.00  0.00     0.000 A 
ATOM      5  C5  BNZ d   1       0.813   0.079   1.723  0.00  0.00     0.000 A 
ATOM      6  C6  BNZ d   1       1.470  -0.881   0.988  0.00  0.00     0.000 A 
ENDROOT
TORSDOF 0
ENDMDL
