MODEL 1
REMARK minimizedAffinity -1.53502524
REMARK minimizedRMSD -1
REMARK  0 active torsions:
REMARK  status: ('A' for Active; 'I' for Inactive)
ROOT
ATOM      1  C1  BNZ d   1       0.298  -4.028   0.042  0.00  0.00     0.000 A 
ATOM      2  C2  BNZ d   1      -0.267  -3.541   1.190  0.00  0.00     0.000 A 
ATOM      3  C3  BNZ d   1      -0.627  -2.226   1.290  0.00  0.00     0.000 A 
ATOM      4  C4  BNZ d   1      -0.385  -1.392   0.257  0.00  0.00     0.000 A 
ATOM      5  C5  BNZ d   1       0.193  -1.866  -0.903  0.00  0.00     0.000 A 
ATOM      6  C6  BNZ d   1       0.518  -3.199  -1.015  0.00  0.00     0.000 A 
ENDROOT
TORSDOF 0
ENDMDL
