MODEL 1
REMARK minimizedAffinity -1.87214541
REMARK minimizedRMSD -1
REMARK  0 active torsions:
REMARK  status: ('A' for Active; 'I' for Inactive)
ROOT
ATOM      1  C1  BNZ d   1       1.316  -0.546  -0.283  0.00  0.00     0.000 A 
ATOM      2  C2  BNZ d   1       1.626  -1.856  -0.538  0.00  0.00     0.000 A 
ATOM      3  C3  BNZ d   1       1.046  -2.865   0.179  0.00  0.00     0.000 A 
ATOM      4  C4  BNZ d   1       0.188  -2.563   1.174  0.00  0.00     0.000 A 
ATOM      5  C5  BNZ d   1      -0.128  -1.247   1.450  0.00  0.00     0.000 A 
ATOM      6  C6  BNZ d   1       0.428  -0.236   0.701  0.00  0.00     0.000 A 
ENDROOT
TORSDOF 0
ENDMDL
