MODEL 1
REMARK minimizedAffinity 1.40180862
REMARK minimizedRMSD -1
REMARK  0 active torsions:
REMARK  status: ('A' for Active; 'I' for Inactive)
ROOT
ATOM      1  C1  BNZ d   1       1.921  -2.278   0.774  0.00  0.00     0.000 A 
ATOM      2  C2  BNZ d   1       1.454  -1.058   1.184  0.00  0.00     0.000 A 
ATOM      3  C3  BNZ d   1       0.117  -0.775   1.157  0.00  0.00     0.000 A 
ATOM      4  C4  BNZ d   1      -0.746  -1.696   0.682  0.00  0.00     0.000 A 
ATOM      5  C5  BNZ d   1      -0.290  -2.927   0.256  0.00  0.00     0.000 A 
ATOM      6  C6  BNZ d   1       1.052  -3.223   0.322  0.00  0.00     0.000 A 
ENDROOT
TORSDOF 0
ENDMDL
