MODEL 1
REMARK minimizedAffinity -3.95952034
REMARK minimizedRMSD -1
REMARK  0 active torsions:
REMARK  status: ('A' for Active; 'I' for Inactive)
ROOT
ATOM      1  C1  BNZ d   1      -0.317  -1.355   0.880  0.00  0.00     0.000 A 
ATOM      2  C2  BNZ d   1      -0.145  -2.688   0.617  0.00  0.00     0.000 A 
ATOM      3  C3  BNZ d   1       1.004  -3.144   0.034  0.00  0.00     0.000 A 
ATOM      4  C4  BNZ d   1       1.962  -2.263  -0.320  0.00  0.00     0.000 A 
ATOM      5  C5  BNZ d   1       1.800  -0.915  -0.069  0.00  0.00     0.000 A 
ATOM      6  C6  BNZ d   1       0.658  -0.465   0.553  0.00  0.00     0.000 A 
ENDROOT
TORSDOF 0
ENDMDL
