MODEL 1
REMARK minimizedAffinity -3.52812743
REMARK minimizedRMSD -1
REMARK  0 active torsions:
REMARK  status: ('A' for Active; 'I' for Inactive)
ROOT
ATOM      1  C1  BNZ d   1      -1.300   0.512   0.600  0.00  0.00     0.000 A 
ATOM      2  C2  BNZ d   1      -1.084  -0.183  -0.560  0.00  0.00     0.000 A 
ATOM      3  C3  BNZ d   1       0.161  -0.652  -0.873  0.00  0.00     0.000 A 
ATOM      4  C4  BNZ d   1       1.195  -0.389  -0.048  0.00  0.00     0.000 A 
ATOM      5  C5  BNZ d   1       0.995   0.319   1.120  0.00  0.00     0.000 A 
ATOM      6  C6  BNZ d   1      -0.267   0.755   1.451  0.00  0.00     0.000 A 
ENDROOT
TORSDOF 0
ENDMDL
