MODEL 1
REMARK minimizedAffinity -5.17289352
REMARK minimizedRMSD -1
REMARK  0 active torsions:
REMARK  status: ('A' for Active; 'I' for Inactive)
ROOT
ATOM      1  C1  BNZ d   1       0.578   1.399   1.872  0.00  0.00     0.000 A 
ATOM      2  C2  BNZ d   1      -0.732   1.386   2.271  0.00  0.00     0.000 A 
ATOM      3  C3  BNZ d   1      -1.663   0.650   1.592  0.00  0.00     0.000 A 
ATOM      4  C4  BNZ d   1      -1.292  -0.038   0.493  0.00  0.00     0.000 A 
ATOM      5  C5  BNZ d   1       0.024  -0.027   0.073  0.00  0.00     0.000 A 
ATOM      6  C6  BNZ d   1       0.965   0.683   0.781  0.00  0.00     0.000 A 
ENDROOT
TORSDOF 0
ENDMDL
