MODEL 1
REMARK minimizedAffinity -4.10600948
REMARK minimizedRMSD -1
REMARK  0 active torsions:
REMARK  status: ('A' for Active; 'I' for Inactive)
ROOT
ATOM      1  C1  BNZ d   1       0.460   0.602   0.951  0.00  0.00     0.000 A 
ATOM      2  C2  BNZ d   1       0.522  -0.061  -0.245  0.00  0.00     0.000 A 
ATOM      3  C3  BNZ d   1      -0.611  -0.548  -0.834  0.00  0.00     0.000 A 
ATOM      4  C4  BNZ d   1      -1.797  -0.407  -0.208  0.00  0.00     0.000 A 
ATOM      5  C5  BNZ d   1      -1.874   0.251   1.003  0.00  0.00     0.000 A 
ATOM      6  C6  BNZ d   1      -0.737   0.775   1.574  0.00  0.00     0.000 A 
ENDROOT
TORSDOF 0
ENDMDL
