MODEL 1
REMARK minimizedAffinity -4.26882982
REMARK minimizedRMSD -1
REMARK  0 active torsions:
REMARK  status: ('A' for Active; 'I' for Inactive)
ROOT
ATOM      1  C1  BNZ d   1      -0.038   0.765   1.582  0.00  0.00     0.000 A 
ATOM      2  C2  BNZ d   1       0.945   0.100   0.898  0.00  0.00     0.000 A 
ATOM      3  C3  BNZ d   1       0.691  -0.465  -0.320  0.00  0.00     0.000 A 
ATOM      4  C4  BNZ d   1      -0.554  -0.401  -0.834  0.00  0.00     0.000 A 
ATOM      5  C5  BNZ d   1      -1.558   0.258  -0.153  0.00  0.00     0.000 A 
ATOM      6  C6  BNZ d   1      -1.289   0.860   1.055  0.00  0.00     0.000 A 
ENDROOT
TORSDOF 0
ENDMDL
