MODEL 1
REMARK minimizedAffinity -3.24958301
REMARK minimizedRMSD -1
REMARK  0 active torsions:
REMARK  status: ('A' for Active; 'I' for Inactive)
ROOT
ATOM      1  C1  BNZ d   1       0.825  -0.378  -0.249  0.00  0.00     0.000 A 
ATOM      2  C2  BNZ d   1       0.881   0.388   0.884  0.00  0.00     0.000 A 
ATOM      3  C3  BNZ d   1      -0.263   0.837   1.483  0.00  0.00     0.000 A 
ATOM      4  C4  BNZ d   1      -1.458   0.552   0.927  0.00  0.00     0.000 A 
ATOM      5  C5  BNZ d   1      -1.531  -0.212  -0.221  0.00  0.00     0.000 A 
ATOM      6  C6  BNZ d   1      -0.379  -0.694  -0.799  0.00  0.00     0.000 A 
ENDROOT
TORSDOF 0
ENDMDL
