MODEL 1
REMARK minimizedAffinity -3.35220337
REMARK minimizedRMSD -1
REMARK  0 active torsions:
REMARK  status: ('A' for Active; 'I' for Inactive)
ROOT
ATOM      1  C1  BNZ d   1       0.666  -0.281  -0.877  0.00  0.00     0.000 A 
ATOM      2  C2  BNZ d   1      -0.015   0.729  -0.252  0.00  0.00     0.000 A 
ATOM      3  C3  BNZ d   1       0.371   1.175   0.981  0.00  0.00     0.000 A 
ATOM      4  C4  BNZ d   1       1.412   0.585   1.604  0.00  0.00     0.000 A 
ATOM      5  C5  BNZ d   1       2.103  -0.441   0.991  0.00  0.00     0.000 A 
ATOM      6  C6  BNZ d   1       1.735  -0.861  -0.267  0.00  0.00     0.000 A 
ENDROOT
TORSDOF 0
ENDMDL
