MODEL 1
REMARK minimizedAffinity -3.68368173
REMARK minimizedRMSD -1
REMARK  0 active torsions:
REMARK  status: ('A' for Active; 'I' for Inactive)
ROOT
ATOM      1  C1  BNZ d   1      -2.109   1.152   1.446  0.00  0.00     0.000 A 
ATOM      2  C2  BNZ d   1      -2.135   0.965   0.090  0.00  0.00     0.000 A 
ATOM      3  C3  BNZ d   1      -1.017   0.558  -0.583  0.00  0.00     0.000 A 
ATOM      4  C4  BNZ d   1       0.135   0.376   0.095  0.00  0.00     0.000 A 
ATOM      5  C5  BNZ d   1       0.180   0.570   1.461  0.00  0.00     0.000 A 
ATOM      6  C6  BNZ d   1      -0.958   0.943   2.140  0.00  0.00     0.000 A 
ENDROOT
TORSDOF 0
ENDMDL
