MODEL 1
REMARK minimizedAffinity -4.82417297
REMARK minimizedRMSD -1
REMARK  0 active torsions:
REMARK  status: ('A' for Active; 'I' for Inactive)
ROOT
ATOM      1  C1  BNZ d   1       0.345  -0.029   0.762  0.00  0.00     0.000 A 
ATOM      2  C2  BNZ d   1       0.458   0.510   2.015  0.00  0.00     0.000 A 
ATOM      3  C3  BNZ d   1      -0.605   1.135   2.607  0.00  0.00     0.000 A 
ATOM      4  C4  BNZ d   1      -1.764   1.255   1.929  0.00  0.00     0.000 A 
ATOM      5  C5  BNZ d   1      -1.891   0.725   0.660  0.00  0.00     0.000 A 
ATOM      6  C6  BNZ d   1      -0.831   0.063   0.084  0.00  0.00     0.000 A 
ENDROOT
TORSDOF 0
ENDMDL
