MODEL 1
REMARK minimizedAffinity -2.59504652
REMARK minimizedRMSD -1
REMARK  0 active torsions:
REMARK  status: ('A' for Active; 'I' for Inactive)
ROOT
ATOM      1  C1  BNZ d   1      -1.979   0.790   1.204  0.00  0.00     0.000 A 
ATOM      2  C2  BNZ d   1      -1.508   0.005   0.185  0.00  0.00     0.000 A 
ATOM      3  C3  BNZ d   1      -0.189  -0.348   0.125  0.00  0.00     0.000 A 
ATOM      4  C4  BNZ d   1       0.665   0.118   1.060  0.00  0.00     0.000 A 
ATOM      5  C5  BNZ d   1       0.208   0.918   2.088  0.00  0.00     0.000 A 
ATOM      6  C6  BNZ d   1      -1.128   1.239   2.167  0.00  0.00     0.000 A 
ENDROOT
TORSDOF 0
ENDMDL
