MODEL 1
REMARK minimizedAffinity -3.89605498
REMARK minimizedRMSD -1
REMARK  0 active torsions:
REMARK  status: ('A' for Active; 'I' for Inactive)
ROOT
ATOM      1  C1  BNZ d   1      -1.902   0.935   1.456  0.00  0.00     0.000 A 
ATOM      2  C2  BNZ d   1      -1.896   0.262   0.263  0.00  0.00     0.000 A 
ATOM      3  C3  BNZ d   1      -0.734  -0.241  -0.252  0.00  0.00     0.000 A 
ATOM      4  C4  BNZ d   1       0.425  -0.035   0.405  0.00  0.00     0.000 A 
ATOM      5  C5  BNZ d   1       0.438   0.650   1.604  0.00  0.00     0.000 A 
ATOM      6  C6  BNZ d   1      -0.739   1.120   2.138  0.00  0.00     0.000 A 
ENDROOT
TORSDOF 0
ENDMDL
