MODEL 1
REMARK minimizedAffinity -3.68174887
REMARK minimizedRMSD -1
REMARK  0 active torsions:
REMARK  status: ('A' for Active; 'I' for Inactive)
ROOT
ATOM      1  C1  BNZ d   1      -1.533   0.406   0.564  0.00  0.00     0.000 A 
ATOM      2  C2  BNZ d   1      -1.875   0.650   1.868  0.00  0.00     0.000 A 
ATOM      3  C3  BNZ d   1      -1.142   1.510   2.635  0.00  0.00     0.000 A 
ATOM      4  C4  BNZ d   1      -0.045   2.095   2.112  0.00  0.00     0.000 A 
ATOM      5  C5  BNZ d   1       0.319   1.853   0.802  0.00  0.00     0.000 A 
ATOM      6  C6  BNZ d   1      -0.444   1.016   0.021  0.00  0.00     0.000 A 
ENDROOT
TORSDOF 0
ENDMDL
