MODEL 1
REMARK minimizedAffinity 0.0644566864
REMARK minimizedRMSD -1
REMARK  0 active torsions:
REMARK  status: ('A' for Active; 'I' for Inactive)
ROOT
ATOM      1  C   UNL d   1      -0.791   1.245  -1.231  0.00  0.00     0.172 C 
ATOM      2  N   UNL d   1       0.275   1.205  -0.257  0.00  0.00    -0.070 N 
ATOM      3  C1  UNL d   1       1.566   0.820  -0.503  0.00  0.00    -0.004 A 
ATOM      4  C2  UNL d   1       2.269   0.922   0.678  0.00  0.00    -0.047 A 
ATOM      5  C3  UNL d   1       1.369   1.384   1.668  0.00  0.00    -0.047 A 
ATOM      6  C4  UNL d   1       0.142   1.551   1.062  0.00  0.00    -0.004 A 
ENDROOT
TORSDOF 0
ENDMDL
