MODEL 1
REMARK minimizedAffinity 0.444140851
REMARK minimizedRMSD -1
REMARK  0 active torsions:
REMARK  status: ('A' for Active; 'I' for Inactive)
ROOT
ATOM      1  C   UNL d   1      -5.719  -0.612  -5.025  0.00  0.00     0.172 C 
ATOM      2  N   UNL d   1      -4.439  -0.021  -4.715  0.00  0.00    -0.070 N 
ATOM      3  C1  UNL d   1      -3.818   0.963  -5.437  0.00  0.00    -0.004 A 
ATOM      4  C2  UNL d   1      -2.622   1.251  -4.816  0.00  0.00    -0.047 A 
ATOM      5  C3  UNL d   1      -2.520   0.410  -3.682  0.00  0.00    -0.047 A 
ATOM      6  C4  UNL d   1      -3.658  -0.367  -3.644  0.00  0.00    -0.004 A 
ENDROOT
TORSDOF 0
ENDMDL
