MODEL 1
REMARK minimizedAffinity 2.24894023
REMARK minimizedRMSD -1
REMARK  0 active torsions:
REMARK  status: ('A' for Active; 'I' for Inactive)
ROOT
ATOM      1  C   UNL d   1       3.954  -0.326  -0.555  0.00  0.00     0.172 C 
ATOM      2  N   UNL d   1       4.675   0.925  -0.558  0.00  0.00    -0.070 N 
ATOM      3  C1  UNL d   1       5.367   1.450   0.500  0.00  0.00    -0.004 A 
ATOM      4  C2  UNL d   1       5.911   2.650   0.094  0.00  0.00    -0.047 A 
ATOM      5  C3  UNL d   1       5.532   2.853  -1.254  0.00  0.00    -0.047 A 
ATOM      6  C4  UNL d   1       4.767   1.770  -1.633  0.00  0.00    -0.004 A 
ENDROOT
TORSDOF 0
ENDMDL
