MODEL 1
REMARK minimizedAffinity 3.61431193
REMARK minimizedRMSD -1
REMARK  0 active torsions:
REMARK  status: ('A' for Active; 'I' for Inactive)
ROOT
ATOM      1  C   UNL d   1      -0.320  -4.234  -0.832  0.00  0.00     0.172 C 
ATOM      2  N   UNL d   1       0.727  -3.263  -0.613  0.00  0.00    -0.070 N 
ATOM      3  C1  UNL d   1       1.437  -3.102   0.547  0.00  0.00    -0.004 A 
ATOM      4  C2  UNL d   1       2.339  -2.079   0.352  0.00  0.00    -0.047 A 
ATOM      5  C3  UNL d   1       2.165  -1.608  -0.972  0.00  0.00    -0.047 A 
ATOM      6  C4  UNL d   1       1.161  -2.359  -1.546  0.00  0.00    -0.004 A 
ENDROOT
TORSDOF 0
ENDMDL
