MODEL 1
REMARK minimizedAffinity 2.41942716
REMARK minimizedRMSD -1
REMARK  0 active torsions:
REMARK  status: ('A' for Active; 'I' for Inactive)
ROOT
ATOM      1  C   UNL d   1       3.561  -0.961  -0.440  0.00  0.00     0.172 C 
ATOM      2  N   UNL d   1       2.502  -1.942  -0.449  0.00  0.00    -0.070 N 
ATOM      3  C1  UNL d   1       2.197  -2.797   0.576  0.00  0.00    -0.004 A 
ATOM      4  C2  UNL d   1       1.128  -3.570   0.177  0.00  0.00    -0.047 A 
ATOM      5  C3  UNL d   1       0.780  -3.167  -1.134  0.00  0.00    -0.047 A 
ATOM      6  C4  UNL d   1       1.646  -2.158  -1.497  0.00  0.00    -0.004 A 
ENDROOT
TORSDOF 0
ENDMDL
