MODEL 1
REMARK minimizedAffinity 2.58419394
REMARK minimizedRMSD -1
REMARK  0 active torsions:
REMARK  status: ('A' for Active; 'I' for Inactive)
ROOT
ATOM      1  C   UNL d   1       3.802   0.130  -0.650  0.00  0.00     0.172 C 
ATOM      2  N   UNL d   1       4.603   1.311  -0.432  0.00  0.00    -0.070 N 
ATOM      3  C1  UNL d   1       4.859   2.285  -1.360  0.00  0.00    -0.004 A 
ATOM      4  C2  UNL d   1       5.659   3.236  -0.764  0.00  0.00    -0.047 A 
ATOM      5  C3  UNL d   1       5.892   2.819   0.568  0.00  0.00    -0.047 A 
ATOM      6  C4  UNL d   1       5.227   1.625   0.747  0.00  0.00    -0.004 A 
ENDROOT
TORSDOF 0
ENDMDL
