MODEL 1
REMARK minimizedAffinity 3.33601952
REMARK minimizedRMSD -1
REMARK  0 active torsions:
REMARK  status: ('A' for Active; 'I' for Inactive)
ROOT
ATOM      1  C   UNL d   1      -1.846  -5.101   6.000  0.00  0.00     0.172 C 
ATOM      2  N   UNL d   1      -0.443  -5.046   5.662  0.00  0.00    -0.070 N 
ATOM      3  C1  UNL d   1       0.170  -4.042   4.960  0.00  0.00    -0.004 A 
ATOM      4  C2  UNL d   1       1.506  -4.360   4.848  0.00  0.00    -0.047 A 
ATOM      5  C3  UNL d   1       1.703  -5.598   5.505  0.00  0.00    -0.047 A 
ATOM      6  C4  UNL d   1       0.480  -6.000   5.999  0.00  0.00    -0.004 A 
ENDROOT
TORSDOF 0
ENDMDL
