MODEL 1
REMARK minimizedAffinity 6.32948208
REMARK minimizedRMSD -1
REMARK  0 active torsions:
REMARK  status: ('A' for Active; 'I' for Inactive)
ROOT
ATOM      1  C   UNL d   1       0.460   4.618   2.463  0.00  0.00     0.172 C 
ATOM      2  N   UNL d   1       0.110   3.361   1.846  0.00  0.00    -0.070 N 
ATOM      3  C1  UNL d   1       0.822   2.196   1.947  0.00  0.00    -0.004 A 
ATOM      4  C2  UNL d   1       0.160   1.231   1.219  0.00  0.00    -0.047 A 
ATOM      5  C3  UNL d   1      -0.991   1.838   0.661  0.00  0.00    -0.047 A 
ATOM      6  C4  UNL d   1      -0.997   3.156   1.065  0.00  0.00    -0.004 A 
ENDROOT
TORSDOF 0
ENDMDL
