MODEL 1
REMARK minimizedAffinity 6.58760262
REMARK minimizedRMSD -1
REMARK  0 active torsions:
REMARK  status: ('A' for Active; 'I' for Inactive)
ROOT
ATOM      1  C   UNL d   1       5.314   1.461  -2.270  0.00  0.00     0.172 C 
ATOM      2  N   UNL d   1       4.428   0.712  -1.410  0.00  0.00    -0.070 N 
ATOM      3  C1  UNL d   1       3.259   0.113  -1.797  0.00  0.00    -0.004 A 
ATOM      4  C2  UNL d   1       2.712  -0.499  -0.689  0.00  0.00    -0.047 A 
ATOM      5  C3  UNL d   1       3.582  -0.258   0.400  0.00  0.00    -0.047 A 
ATOM      6  C4  UNL d   1       4.636   0.494  -0.074  0.00  0.00    -0.004 A 
ENDROOT
TORSDOF 0
ENDMDL
