MODEL 1
REMARK minimizedAffinity -3.21640134
REMARK minimizedRMSD -1
REMARK  0 active torsions:
REMARK  status: ('A' for Active; 'I' for Inactive)
ROOT
ATOM      1  C4' PXY d   1      -1.502  -2.311   1.612  0.00  0.00     0.077 C 
ATOM      2  C1' PXY d   1       0.121   2.929  -0.211  0.00  0.00     0.077 C 
ATOM      3  C1  PXY d   1      -0.297   1.549   0.258  0.00  0.00    -0.082 A 
ATOM      4  C2  PXY d   1      -1.443   1.396   0.903  0.00  0.00     0.003 A 
ATOM      5  C3  PXY d   1      -1.821   0.161   1.362  0.00  0.00     0.003 A 
ATOM      6  C4  PXY d   1      -1.044  -0.939   1.112  0.00  0.00    -0.082 A 
ATOM      7  C5  PXY d   1       0.121  -0.793   0.446  0.00  0.00     0.003 A 
ATOM      8  C6  PXY d   1       0.507   0.476   0.024  0.00  0.00     0.003 A 
ENDROOT
TORSDOF 0
ENDMDL
