MODEL 1
REMARK minimizedAffinity -5.38499403
REMARK minimizedRMSD -1
REMARK  0 active torsions:
REMARK  status: ('A' for Active; 'I' for Inactive)
ROOT
ATOM      1  C4' PXY d   1      -1.000  -2.041   2.288  0.00  0.00     0.077 C 
ATOM      2  C1' PXY d   1      -0.140   2.640  -0.992  0.00  0.00     0.077 C 
ATOM      3  C1  PXY d   1      -0.357   1.406  -0.140  0.00  0.00    -0.082 A 
ATOM      4  C2  PXY d   1      -1.455   1.301   0.591  0.00  0.00     0.003 A 
ATOM      5  C3  PXY d   1      -1.653   0.206   1.392  0.00  0.00     0.003 A 
ATOM      6  C4  PXY d   1      -0.743  -0.817   1.405  0.00  0.00    -0.082 A 
ATOM      7  C5  PXY d   1       0.375  -0.722   0.654  0.00  0.00     0.003 A 
ATOM      8  C6  PXY d   1       0.577   0.417  -0.121  0.00  0.00     0.003 A 
ENDROOT
TORSDOF 0
ENDMDL
