MODEL 1
REMARK minimizedAffinity -5.06535625
REMARK minimizedRMSD -1
REMARK  0 active torsions:
REMARK  status: ('A' for Active; 'I' for Inactive)
ROOT
ATOM      1  C4' PXY d   1      -4.184  -1.172   3.729  0.00  0.00     0.077 C 
ATOM      2  C1' PXY d   1       0.170  -0.337   0.019  0.00  0.00     0.077 C 
ATOM      3  C1  PXY d   1      -0.968  -0.568   0.993  0.00  0.00    -0.082 A 
ATOM      4  C2  PXY d   1      -2.004   0.255   0.995  0.00  0.00     0.003 A 
ATOM      5  C3  PXY d   1      -3.028   0.079   1.891  0.00  0.00     0.003 A 
ATOM      6  C4  PXY d   1      -3.016  -0.982   2.757  0.00  0.00    -0.082 A 
ATOM      7  C5  PXY d   1      -1.968  -1.832   2.753  0.00  0.00     0.003 A 
ATOM      8  C6  PXY d   1      -0.919  -1.612   1.864  0.00  0.00     0.003 A 
ENDROOT
TORSDOF 0
ENDMDL
