MODEL 1
REMARK minimizedAffinity -1.17757714
REMARK minimizedRMSD -1
REMARK  0 active torsions:
REMARK  status: ('A' for Active; 'I' for Inactive)
ROOT
ATOM      1  C4' PXY d   1      -1.769  -2.327   3.161  0.00  0.00     0.077 C 
ATOM      2  C1' PXY d   1      -1.168  -3.774  -2.403  0.00  0.00     0.077 C 
ATOM      3  C1  PXY d   1      -1.315  -3.387  -0.945  0.00  0.00    -0.082 A 
ATOM      4  C2  PXY d   1      -2.014  -4.161  -0.130  0.00  0.00     0.003 A 
ATOM      5  C3  PXY d   1      -2.184  -3.810   1.184  0.00  0.00     0.003 A 
ATOM      6  C4  PXY d   1      -1.587  -2.683   1.683  0.00  0.00    -0.082 A 
ATOM      7  C5  PXY d   1      -0.862  -1.895   0.861  0.00  0.00     0.003 A 
ATOM      8  C6  PXY d   1      -0.737  -2.247  -0.480  0.00  0.00     0.003 A 
ENDROOT
TORSDOF 0
ENDMDL
