MODEL 1
REMARK minimizedAffinity -4.17522764
REMARK minimizedRMSD -1
REMARK  0 active torsions:
REMARK  status: ('A' for Active; 'I' for Inactive)
ROOT
ATOM      1  C4' PXY d   1      -2.022   2.360   0.755  0.00  0.00     0.077 C 
ATOM      2  C1' PXY d   1       3.612   1.199   0.181  0.00  0.00     0.077 C 
ATOM      3  C1  PXY d   1       2.132   1.492   0.325  0.00  0.00    -0.082 A 
ATOM      4  C2  PXY d   1       1.727   2.738   0.510  0.00  0.00     0.003 A 
ATOM      5  C3  PXY d   1       0.395   3.018   0.674  0.00  0.00     0.003 A 
ATOM      6  C4  PXY d   1      -0.538   2.018   0.595  0.00  0.00    -0.082 A 
ATOM      7  C5  PXY d   1      -0.133   0.745   0.396  0.00  0.00     0.003 A 
ATOM      8  C6  PXY d   1       1.227   0.477   0.273  0.00  0.00     0.003 A 
ENDROOT
TORSDOF 0
ENDMDL
