MODEL 1
REMARK minimizedAffinity -4.53412914
REMARK minimizedRMSD -1
REMARK  0 active torsions:
REMARK  status: ('A' for Active; 'I' for Inactive)
ROOT
ATOM      1  C4' PXY d   1      -1.045  -2.408   3.360  0.00  0.00     0.077 C 
ATOM      2  C1' PXY d   1      -0.017  -3.278  -2.261  0.00  0.00     0.077 C 
ATOM      3  C1  PXY d   1      -0.276  -3.042  -0.786  0.00  0.00    -0.082 A 
ATOM      4  C2  PXY d   1      -0.948  -3.942  -0.088  0.00  0.00     0.003 A 
ATOM      5  C3  PXY d   1      -1.219  -3.730   1.239  0.00  0.00     0.003 A 
ATOM      6  C4  PXY d   1      -0.751  -2.609   1.871  0.00  0.00    -0.082 A 
ATOM      7  C5  PXY d   1      -0.055  -1.691   1.168  0.00  0.00     0.003 A 
ATOM      8  C6  PXY d   1       0.174  -1.905  -0.188  0.00  0.00     0.003 A 
ENDROOT
TORSDOF 0
ENDMDL
