MODEL 1
REMARK minimizedAffinity -3.87017608
REMARK minimizedRMSD -1
REMARK  0 active torsions:
REMARK  status: ('A' for Active; 'I' for Inactive)
ROOT
ATOM      1  C4' PXY d   1      -3.077   2.190   0.881  0.00  0.00     0.077 C 
ATOM      2  C1' PXY d   1       2.536   1.190  -0.071  0.00  0.00     0.077 C 
ATOM      3  C1  PXY d   1       1.067   1.463   0.186  0.00  0.00    -0.082 A 
ATOM      4  C2  PXY d   1       0.193   0.473   0.101  0.00  0.00     0.003 A 
ATOM      5  C3  PXY d   1      -1.143   0.708   0.298  0.00  0.00     0.003 A 
ATOM      6  C4  PXY d   1      -1.583   1.959   0.639  0.00  0.00    -0.082 A 
ATOM      7  C5  PXY d   1      -0.696   2.972   0.738  0.00  0.00     0.003 A 
ATOM      8  C6  PXY d   1       0.650   2.721   0.494  0.00  0.00     0.003 A 
ENDROOT
TORSDOF 0
ENDMDL
