MODEL 1
REMARK minimizedAffinity -2.19820762
REMARK minimizedRMSD -1
REMARK  0 active torsions:
REMARK  status: ('A' for Active; 'I' for Inactive)
ROOT
ATOM      1  C4' PXY d   1      -0.003  -2.627  -0.800  0.00  0.00     0.077 C 
ATOM      2  C1' PXY d   1      -0.031   2.991   0.558  0.00  0.00     0.077 C 
ATOM      3  C1  PXY d   1      -0.011   1.518   0.203  0.00  0.00    -0.082 A 
ATOM      4  C2  PXY d   1      -1.000   1.002  -0.508  0.00  0.00     0.003 A 
ATOM      5  C3  PXY d   1      -1.014  -0.335  -0.811  0.00  0.00     0.003 A 
ATOM      6  C4  PXY d   1       0.023  -1.143  -0.427  0.00  0.00    -0.082 A 
ATOM      7  C5  PXY d   1       1.042  -0.622   0.290  0.00  0.00     0.003 A 
ATOM      8  C6  PXY d   1       1.016   0.729   0.622  0.00  0.00     0.003 A 
ENDROOT
TORSDOF 0
ENDMDL
