MODEL 1
REMARK minimizedAffinity -3.16950274
REMARK minimizedRMSD -1
REMARK  0 active torsions:
REMARK  status: ('A' for Active; 'I' for Inactive)
ROOT
ATOM      1  C4' PXY d   1      -0.543  -2.069  -0.001  0.00  0.00     0.077 C 
ATOM      2  C1' PXY d   1       0.307   3.515   1.230  0.00  0.00     0.077 C 
ATOM      3  C1  PXY d   1       0.096   2.050   0.902  0.00  0.00    -0.082 A 
ATOM      4  C2  PXY d   1      -1.133   1.584   0.748  0.00  0.00     0.003 A 
ATOM      5  C3  PXY d   1      -1.343   0.256   0.483  0.00  0.00     0.003 A 
ATOM      6  C4  PXY d   1      -0.282  -0.595   0.322  0.00  0.00    -0.082 A 
ATOM      7  C5  PXY d   1       0.975  -0.126   0.467  0.00  0.00     0.003 A 
ATOM      8  C6  PXY d   1       1.166   1.218   0.777  0.00  0.00     0.003 A 
ENDROOT
TORSDOF 0
ENDMDL
