MODEL 1
REMARK minimizedAffinity -2.30029774
REMARK minimizedRMSD -1
REMARK  0 active torsions:
REMARK  status: ('A' for Active; 'I' for Inactive)
ROOT
ATOM      1  C4' PXY d   1       1.810   0.574   0.946  0.00  0.00     0.077 C 
ATOM      2  C1' PXY d   1      -2.123  -2.714  -1.726  0.00  0.00     0.077 C 
ATOM      3  C1  PXY d   1      -1.101  -1.847  -1.017  0.00  0.00    -0.082 A 
ATOM      4  C2  PXY d   1       0.019  -1.515  -1.640  0.00  0.00     0.003 A 
ATOM      5  C3  PXY d   1       0.968  -0.758  -1.002  0.00  0.00     0.003 A 
ATOM      6  C4  PXY d   1       0.746  -0.292   0.266  0.00  0.00    -0.082 A 
ATOM      7  C5  PXY d   1      -0.399  -0.617   0.903  0.00  0.00     0.003 A 
ATOM      8  C6  PXY d   1      -1.332  -1.421   0.254  0.00  0.00     0.003 A 
ENDROOT
TORSDOF 0
ENDMDL
