MODEL 1
REMARK minimizedAffinity 0.974344432
REMARK minimizedRMSD -1
REMARK  0 active torsions:
REMARK  status: ('A' for Active; 'I' for Inactive)
ROOT
ATOM      1  C4' PXY d   1       3.433   5.999   3.012  0.00  0.00     0.077 C 
ATOM      2  C1' PXY d   1      -0.988   2.516   4.329  0.00  0.00     0.077 C 
ATOM      3  C1  PXY d   1       0.178   3.419   3.980  0.00  0.00    -0.082 A 
ATOM      4  C2  PXY d   1       0.297   4.594   4.576  0.00  0.00     0.003 A 
ATOM      5  C3  PXY d   1       1.328   5.437   4.249  0.00  0.00     0.003 A 
ATOM      6  C4  PXY d   1       2.277   5.051   3.341  0.00  0.00    -0.082 A 
ATOM      7  C5  PXY d   1       2.169   3.849   2.736  0.00  0.00     0.003 A 
ATOM      8  C6  PXY d   1       1.092   3.025   3.052  0.00  0.00     0.003 A 
ENDROOT
TORSDOF 0
ENDMDL
