MODEL 1
REMARK minimizedAffinity 10.5568008
REMARK minimizedRMSD -1
REMARK  0 active torsions:
REMARK  status: ('A' for Active; 'I' for Inactive)
ROOT
ATOM      1  C4' PXY d   1      -0.105  -0.004   0.319  0.00  0.00     0.077 C 
ATOM      2  C1' PXY d   1      -3.331  -4.609  -1.024  0.00  0.00     0.077 C 
ATOM      3  C1  PXY d   1      -2.489  -3.402  -0.659  0.00  0.00    -0.082 A 
ATOM      4  C2  PXY d   1      -2.187  -2.510  -1.589  0.00  0.00     0.003 A 
ATOM      5  C3  PXY d   1      -1.399  -1.430  -1.284  0.00  0.00     0.003 A 
ATOM      6  C4  PXY d   1      -0.961  -1.232  -0.002  0.00  0.00    -0.082 A 
ATOM      7  C5  PXY d   1      -1.273  -2.132   0.955  0.00  0.00     0.003 A 
ATOM      8  C6  PXY d   1      -2.039  -3.244   0.615  0.00  0.00     0.003 A 
ENDROOT
TORSDOF 0
ENDMDL
