MODEL 1
REMARK minimizedAffinity -3.22724366
REMARK minimizedRMSD -1
REMARK  0 active torsions:
REMARK  status: ('A' for Active; 'I' for Inactive)
ROOT
ATOM      1  C4' PXY d   1       0.298   3.422   3.349  0.00  0.00     0.077 C 
ATOM      2  C1' PXY d   1       0.419   2.809  -2.398  0.00  0.00     0.077 C 
ATOM      3  C1  PXY d   1       0.378   2.960  -0.890  0.00  0.00    -0.082 A 
ATOM      4  C2  PXY d   1       0.791   4.088  -0.335  0.00  0.00     0.003 A 
ATOM      5  C3  PXY d   1       0.790   4.231   1.029  0.00  0.00     0.003 A 
ATOM      6  C4  PXY d   1       0.313   3.228   1.830  0.00  0.00    -0.082 A 
ATOM      7  C5  PXY d   1      -0.120   2.078   1.270  0.00  0.00     0.003 A 
ATOM      8  C6  PXY d   1      -0.073   1.938  -0.113  0.00  0.00     0.003 A 
ENDROOT
TORSDOF 0
ENDMDL
