MODEL 1
REMARK minimizedAffinity 9.13484001
REMARK minimizedRMSD -1
REMARK  0 active torsions:
REMARK  status: ('A' for Active; 'I' for Inactive)
ROOT
ATOM      1  C4' PXY d   1      -3.669   1.505  -2.670  0.00  0.00     0.077 C 
ATOM      2  C1' PXY d   1      -2.206   5.998  -6.000  0.00  0.00     0.077 C 
ATOM      3  C1  PXY d   1      -2.595   4.814  -5.137  0.00  0.00    -0.082 A 
ATOM      4  C2  PXY d   1      -2.700   4.966  -3.827  0.00  0.00     0.003 A 
ATOM      5  C3  PXY d   1      -3.020   3.898  -3.028  0.00  0.00     0.003 A 
ATOM      6  C4  PXY d   1      -3.287   2.675  -3.581  0.00  0.00    -0.082 A 
ATOM      7  C5  PXY d   1      -3.193   2.514  -4.918  0.00  0.00     0.003 A 
ATOM      8  C6  PXY d   1      -2.827   3.601  -5.707  0.00  0.00     0.003 A 
ENDROOT
TORSDOF 0
ENDMDL
