MODEL 1
REMARK minimizedAffinity -1.12698507
REMARK minimizedRMSD -1
REMARK  0 active torsions:
REMARK  status: ('A' for Active; 'I' for Inactive)
ROOT
ATOM      1  C4' PXY d   1      -0.260   3.755  -4.052  0.00  0.00     0.077 C 
ATOM      2  C1' PXY d   1      -5.649   4.522  -5.999  0.00  0.00     0.077 C 
ATOM      3  C1  PXY d   1      -4.235   4.333  -5.484  0.00  0.00    -0.082 A 
ATOM      4  C2  PXY d   1      -3.474   3.380  -5.997  0.00  0.00     0.003 A 
ATOM      5  C3  PXY d   1      -2.205   3.174  -5.520  0.00  0.00     0.003 A 
ATOM      6  C4  PXY d   1      -1.690   3.988  -4.547  0.00  0.00    -0.082 A 
ATOM      7  C5  PXY d   1      -2.456   4.970  -4.027  0.00  0.00     0.003 A 
ATOM      8  C6  PXY d   1      -3.757   5.136  -4.495  0.00  0.00     0.003 A 
ENDROOT
TORSDOF 0
ENDMDL
