MODEL 1
REMARK minimizedAffinity 0.217461571
REMARK minimizedRMSD -1
REMARK  0 active torsions:
REMARK  status: ('A' for Active; 'I' for Inactive)
ROOT
ATOM      1  C4' PXY d   1      -1.465   3.001  -6.000  0.00  0.00     0.077 C 
ATOM      2  C1' PXY d   1       4.212   1.912  -5.980  0.00  0.00     0.077 C 
ATOM      3  C1  PXY d   1       2.721   2.186  -5.990  0.00  0.00    -0.082 A 
ATOM      4  C2  PXY d   1       2.285   3.435  -6.000  0.00  0.00     0.003 A 
ATOM      5  C3  PXY d   1       0.941   3.701  -5.977  0.00  0.00     0.003 A 
ATOM      6  C4  PXY d   1       0.032   2.677  -5.998  0.00  0.00    -0.082 A 
ATOM      7  C5  PXY d   1       0.468   1.400  -6.000  0.00  0.00     0.003 A 
ATOM      8  C6  PXY d   1       1.837   1.151  -5.981  0.00  0.00     0.003 A 
ENDROOT
TORSDOF 0
ENDMDL
