MODEL 1
REMARK minimizedAffinity -3.05460072
REMARK minimizedRMSD -1
REMARK  0 active torsions:
REMARK  status: ('A' for Active; 'I' for Inactive)
ROOT
ATOM      1  C4' PXY d   1       4.119   2.013  -3.414  0.00  0.00     0.077 C 
ATOM      2  C1' PXY d   1      -1.018   3.089  -5.837  0.00  0.00     0.077 C 
ATOM      3  C1  PXY d   1       0.334   2.802  -5.212  0.00  0.00    -0.082 A 
ATOM      4  C2  PXY d   1       0.435   2.682  -3.899  0.00  0.00     0.003 A 
ATOM      5  C3  PXY d   1       1.655   2.454  -3.315  0.00  0.00     0.003 A 
ATOM      6  C4  PXY d   1       2.773   2.294  -4.088  0.00  0.00    -0.082 A 
ATOM      7  C5  PXY d   1       2.676   2.404  -5.430  0.00  0.00     0.003 A 
ATOM      8  C6  PXY d   1       1.436   2.677  -6.000  0.00  0.00     0.003 A 
ENDROOT
TORSDOF 0
ENDMDL
