MODEL 1
REMARK minimizedAffinity -4.03948355
REMARK minimizedRMSD -1
REMARK  0 active torsions:
REMARK  status: ('A' for Active; 'I' for Inactive)
ROOT
ATOM      1  C4' PXY d   1      -0.639  -1.563  -1.348  0.00  0.00     0.077 C 
ATOM      2  C1' PXY d   1       0.375   3.788   0.588  0.00  0.00     0.077 C 
ATOM      3  C1  PXY d   1       0.122   2.382   0.081  0.00  0.00    -0.082 A 
ATOM      4  C2  PXY d   1      -0.970   2.127  -0.621  0.00  0.00     0.003 A 
ATOM      5  C3  PXY d   1      -1.230   0.855  -1.061  0.00  0.00     0.003 A 
ATOM      6  C4  PXY d   1      -0.338  -0.156  -0.824  0.00  0.00    -0.082 A 
ATOM      7  C5  PXY d   1       0.784   0.098  -0.117  0.00  0.00     0.003 A 
ATOM      8  C6  PXY d   1       1.009   1.388   0.356  0.00  0.00     0.003 A 
ENDROOT
TORSDOF 0
ENDMDL
