MODEL 1
REMARK minimizedAffinity -2.26366448
REMARK minimizedRMSD -1
REMARK  2 active torsions:
REMARK  status: ('A' for Active; 'I' for Inactive)
REMARK    1  A    between atoms: C2'_3  and  C1'_4 
REMARK    2  A    between atoms: C1'_4  and  C1_5 
ROOT
ATOM      1  C1  I4B d   1       0.434  -1.080   3.082  0.00  0.00    -0.075 A 
ATOM      2  C2  I4B d   1       0.371   0.243   2.723  0.00  0.00     0.003 A 
ATOM      3  C3  I4B d   1      -0.818   0.775   2.167  0.00  0.00     0.002 A 
ATOM      4  C4  I4B d   1      -1.895  -0.058   1.943  0.00  0.00    -0.004 A 
ATOM      5  C5  I4B d   1      -1.837  -1.394   2.329  0.00  0.00     0.002 A 
ATOM      6  C6  I4B d   1      -0.669  -1.906   2.914  0.00  0.00     0.003 A 
ENDROOT
BRANCH   1   7
ATOM      7  C1' I4B d   1       1.717  -1.616   3.635  0.00  0.00     0.060 C 
BRANCH   7   8
ATOM      8  C2' I4B d   1       1.799  -1.214   5.094  0.00  0.00    -0.013 C 
ATOM      9  C4' I4B d   1       1.654  -2.410   5.998  0.00  0.00     0.013 C 
ATOM     10  C3' I4B d   1       3.115  -0.528   5.311  0.00  0.00     0.013 C 
ENDBRANCH   7   8
ENDBRANCH   1   7
TORSDOF 2
ENDMDL
