MODEL 1
REMARK minimizedAffinity 1.00870156
REMARK minimizedRMSD -1
REMARK  2 active torsions:
REMARK  status: ('A' for Active; 'I' for Inactive)
REMARK    1  A    between atoms: C2'_3  and  C1'_4 
REMARK    2  A    between atoms: C1'_4  and  C1_5 
ROOT
ATOM      1  C1  I4B d   1      -1.725  -0.783   0.152  0.00  0.00    -0.075 A 
ATOM      2  C2  I4B d   1      -2.623  -0.069   0.906  0.00  0.00     0.003 A 
ATOM      3  C3  I4B d   1      -2.245   0.442   2.171  0.00  0.00     0.002 A 
ATOM      4  C4  I4B d   1      -0.983   0.175   2.662  0.00  0.00    -0.004 A 
ATOM      5  C5  I4B d   1      -0.066  -0.528   1.887  0.00  0.00     0.002 A 
ATOM      6  C6  I4B d   1      -0.435  -1.000   0.619  0.00  0.00     0.003 A 
ENDROOT
BRANCH   1   7
ATOM      7  C1' I4B d   1      -2.168  -1.337  -1.164  0.00  0.00     0.060 C 
BRANCH   7   8
ATOM      8  C2' I4B d   1      -0.974  -2.004  -1.816  0.00  0.00    -0.013 C 
ATOM      9  C4' I4B d   1      -1.099  -3.504  -1.778  0.00  0.00     0.013 C 
ATOM     10  C3' I4B d   1      -0.877  -1.504  -3.227  0.00  0.00     0.013 C 
ENDBRANCH   7   8
ENDBRANCH   1   7
TORSDOF 2
ENDMDL
