MODEL 1
REMARK minimizedAffinity 10.6652966
REMARK minimizedRMSD -1
REMARK  2 active torsions:
REMARK  status: ('A' for Active; 'I' for Inactive)
REMARK    1  A    between atoms: C2'_3  and  C1'_4 
REMARK    2  A    between atoms: C1'_4  and  C1_5 
ROOT
ATOM      1  C1  I4B d   1       1.695  -0.799  -5.111  0.00  0.00    -0.075 A 
ATOM      2  C2  I4B d   1       1.641  -1.396  -3.876  0.00  0.00     0.003 A 
ATOM      3  C3  I4B d   1       2.829  -1.839  -3.245  0.00  0.00     0.002 A 
ATOM      4  C4  I4B d   1       4.035  -1.711  -3.902  0.00  0.00    -0.004 A 
ATOM      5  C5  I4B d   1       4.092  -1.084  -5.144  0.00  0.00     0.002 A 
ATOM      6  C6  I4B d   1       2.916  -0.614  -5.747  0.00  0.00     0.003 A 
ENDROOT
BRANCH   1   7
ATOM      7  C1' I4B d   1       0.418  -0.373  -5.762  0.00  0.00     0.060 C 
BRANCH   7   8
ATOM      8  C2' I4B d   1      -0.718  -1.126  -5.099  0.00  0.00    -0.013 C 
ATOM      9  C4' I4B d   1      -1.994  -0.326  -5.132  0.00  0.00     0.013 C 
ATOM     10  C3' I4B d   1      -0.882  -2.436  -5.809  0.00  0.00     0.013 C 
ENDBRANCH   7   8
ENDBRANCH   1   7
TORSDOF 2
ENDMDL
