MODEL 1
REMARK minimizedAffinity 0.572434187
REMARK minimizedRMSD -1
REMARK  2 active torsions:
REMARK  status: ('A' for Active; 'I' for Inactive)
REMARK    1  A    between atoms: C2'_3  and  C1'_4 
REMARK    2  A    between atoms: C1'_4  and  C1_5 
ROOT
ATOM      1  C1  I4B d   1      -0.052  -1.052   2.522  0.00  0.00    -0.075 A 
ATOM      2  C2  I4B d   1      -0.946  -1.984   2.989  0.00  0.00     0.003 A 
ATOM      3  C3  I4B d   1      -2.321  -1.876   2.667  0.00  0.00     0.002 A 
ATOM      4  C4  I4B d   1      -2.762  -0.801   1.923  0.00  0.00    -0.004 A 
ATOM      5  C5  I4B d   1      -1.851   0.130   1.431  0.00  0.00     0.002 A 
ATOM      6  C6  I4B d   1      -0.486  -0.003   1.722  0.00  0.00     0.003 A 
ENDROOT
BRANCH   1   7
ATOM      7  C1' I4B d   1       1.387  -1.178   2.908  0.00  0.00     0.060 C 
BRANCH   7   8
ATOM      8  C2' I4B d   1       1.455  -1.322   4.415  0.00  0.00    -0.013 C 
ATOM      9  C4' I4B d   1       2.868  -1.165   4.915  0.00  0.00     0.013 C 
ATOM     10  C3' I4B d   1       0.550  -0.290   5.020  0.00  0.00     0.013 C 
ENDBRANCH   7   8
ENDBRANCH   1   7
TORSDOF 2
ENDMDL
