MODEL 1
REMARK minimizedAffinity 4.57876158
REMARK minimizedRMSD -1
REMARK  2 active torsions:
REMARK  status: ('A' for Active; 'I' for Inactive)
REMARK    1  A    between atoms: C2'_3  and  C1'_4 
REMARK    2  A    between atoms: C1'_4  and  C1_5 
ROOT
ATOM      1  C1  I4B d   1       0.592  -0.217  -5.592  0.00  0.00    -0.075 A 
ATOM      2  C2  I4B d   1      -0.252   0.620  -4.906  0.00  0.00     0.003 A 
ATOM      3  C3  I4B d   1      -1.545   0.178  -4.533  0.00  0.00     0.002 A 
ATOM      4  C4  I4B d   1      -1.967  -1.081  -4.908  0.00  0.00    -0.004 A 
ATOM      5  C5  I4B d   1      -1.101  -1.936  -5.583  0.00  0.00     0.002 A 
ATOM      6  C6  I4B d   1       0.191  -1.506  -5.917  0.00  0.00     0.003 A 
ENDROOT
BRANCH   1   7
ATOM      7  C1' I4B d   1       1.938   0.293  -6.000  0.00  0.00     0.060 C 
BRANCH   7   8
ATOM      8  C2' I4B d   1       2.983  -0.655  -5.448  0.00  0.00    -0.013 C 
ATOM      9  C4' I4B d   1       4.350  -0.340  -5.998  0.00  0.00     0.013 C 
ATOM     10  C3' I4B d   1       2.963  -0.547  -3.953  0.00  0.00     0.013 C 
ENDBRANCH   7   8
ENDBRANCH   1   7
TORSDOF 2
ENDMDL
