MODEL 1
REMARK minimizedAffinity 0.334276289
REMARK minimizedRMSD -1
REMARK  2 active torsions:
REMARK  status: ('A' for Active; 'I' for Inactive)
REMARK    1  A    between atoms: C2'_3  and  C1'_4 
REMARK    2  A    between atoms: C1'_4  and  C1_5 
ROOT
ATOM      1  C1  I4B d   1      -0.958  -1.105  -0.118  0.00  0.00    -0.075 A 
ATOM      2  C2  I4B d   1      -0.725  -0.611   1.141  0.00  0.00     0.003 A 
ATOM      3  C3  I4B d   1      -1.801  -0.145   1.934  0.00  0.00     0.002 A 
ATOM      4  C4  I4B d   1      -3.079  -0.144   1.414  0.00  0.00    -0.004 A 
ATOM      5  C5  I4B d   1      -3.317  -0.667   0.146  0.00  0.00     0.002 A 
ATOM      6  C6  I4B d   1      -2.252  -1.162  -0.621  0.00  0.00     0.003 A 
ENDROOT
BRANCH   1   7
ATOM      7  C1' I4B d   1       0.206  -1.559  -0.941  0.00  0.00     0.060 C 
BRANCH   7   8
ATOM      8  C2' I4B d   1      -0.336  -2.289  -2.153  0.00  0.00    -0.013 C 
ATOM      9  C4' I4B d   1       0.375  -1.862  -3.410  0.00  0.00     0.013 C 
ATOM     10  C3' I4B d   1      -0.179  -3.761  -1.915  0.00  0.00     0.013 C 
ENDBRANCH   7   8
ENDBRANCH   1   7
TORSDOF 2
ENDMDL
