MODEL 1
REMARK minimizedAffinity 3.92692232
REMARK minimizedRMSD -1
REMARK  0 active torsions:
REMARK  status: ('A' for Active; 'I' for Inactive)
ROOT
ATOM      1  C4' PXY d   1       0.894  -0.278   1.119  0.00  0.00     0.077 C 
ATOM      2  C1' PXY d   1       1.768  -3.249   6.000  0.00  0.00     0.077 C 
ATOM      3  C1  PXY d   1       1.548  -2.477   4.714  0.00  0.00    -0.082 A 
ATOM      4  C2  PXY d   1       1.006  -1.271   4.760  0.00  0.00     0.003 A 
ATOM      5  C3  PXY d   1       0.771  -0.572   3.604  0.00  0.00     0.003 A 
ATOM      6  C4  PXY d   1       1.143  -1.090   2.393  0.00  0.00    -0.082 A 
ATOM      7  C5  PXY d   1       1.707  -2.316   2.339  0.00  0.00     0.003 A 
ATOM      8  C6  PXY d   1       1.899  -3.026   3.520  0.00  0.00     0.003 A 
ENDROOT
TORSDOF 0
ENDMDL
