MODEL 1
REMARK minimizedAffinity 7.80720663
REMARK minimizedRMSD -1
REMARK  0 active torsions:
REMARK  status: ('A' for Active; 'I' for Inactive)
ROOT
ATOM      1  C4' PXY d   1       2.240  -3.541   6.000  0.00  0.00     0.077 C 
ATOM      2  C1' PXY d   1       1.039  -0.378   1.313  0.00  0.00     0.077 C 
ATOM      3  C1  PXY d   1       1.355  -1.218   2.535  0.00  0.00    -0.082 A 
ATOM      4  C2  PXY d   1       0.959  -0.810   3.729  0.00  0.00     0.003 A 
ATOM      5  C3  PXY d   1       1.264  -1.542   4.848  0.00  0.00     0.003 A 
ATOM      6  C4  PXY d   1       1.935  -2.730   4.738  0.00  0.00    -0.082 A 
ATOM      7  C5  PXY d   1       2.334  -3.158   3.521  0.00  0.00     0.003 A 
ATOM      8  C6  PXY d   1       2.050  -2.380   2.402  0.00  0.00     0.003 A 
ENDROOT
TORSDOF 0
ENDMDL
