MODEL 1
REMARK minimizedAffinity 2.221982
REMARK minimizedRMSD -1
REMARK  0 active torsions:
REMARK  status: ('A' for Active; 'I' for Inactive)
ROOT
ATOM      1  C4' PXY d   1      -6.000   5.856  -4.213  0.00  0.00     0.077 C 
ATOM      2  C1' PXY d   1      -4.725   0.293  -5.135  0.00  0.00     0.077 C 
ATOM      3  C1  PXY d   1      -5.066   1.749  -4.883  0.00  0.00    -0.082 A 
ATOM      4  C2  PXY d   1      -5.009   2.616  -5.880  0.00  0.00     0.003 A 
ATOM      5  C3  PXY d   1      -5.284   3.942  -5.663  0.00  0.00     0.003 A 
ATOM      6  C4  PXY d   1      -5.673   4.375  -4.423  0.00  0.00    -0.082 A 
ATOM      7  C5  PXY d   1      -5.744   3.494  -3.403  0.00  0.00     0.003 A 
ATOM      8  C6  PXY d   1      -5.421   2.160  -3.635  0.00  0.00     0.003 A 
ENDROOT
TORSDOF 0
ENDMDL
