MODEL 1
REMARK minimizedAffinity 4.16755772
REMARK minimizedRMSD -1
REMARK  0 active torsions:
REMARK  status: ('A' for Active; 'I' for Inactive)
ROOT
ATOM      1  C4' PXY d   1      -1.641   1.984   0.141  0.00  0.00     0.077 C 
ATOM      2  C1' PXY d   1      -2.762  -3.679  -0.162  0.00  0.00     0.077 C 
ATOM      3  C1  PXY d   1      -2.464  -2.195  -0.070  0.00  0.00    -0.082 A 
ATOM      4  C2  PXY d   1      -3.103  -1.350  -0.862  0.00  0.00     0.003 A 
ATOM      5  C3  PXY d   1      -2.823  -0.008  -0.814  0.00  0.00     0.003 A 
ATOM      6  C4  PXY d   1      -1.917   0.479   0.090  0.00  0.00    -0.082 A 
ATOM      7  C5  PXY d   1      -1.268  -0.377   0.908  0.00  0.00     0.003 A 
ATOM      8  C6  PXY d   1      -1.537  -1.739   0.815  0.00  0.00     0.003 A 
ENDROOT
TORSDOF 0
ENDMDL
