MODEL 1
REMARK minimizedAffinity 9.90544891
REMARK minimizedRMSD -1
REMARK  0 active torsions:
REMARK  status: ('A' for Active; 'I' for Inactive)
ROOT
ATOM      1  C4' PXY d   1       0.736  -0.018   1.502  0.00  0.00     0.077 C 
ATOM      2  C1' PXY d   1      -3.639  -3.038  -0.767  0.00  0.00     0.077 C 
ATOM      3  C1  PXY d   1      -2.497  -2.235  -0.177  0.00  0.00    -0.082 A 
ATOM      4  C2  PXY d   1      -1.350  -2.834   0.098  0.00  0.00     0.003 A 
ATOM      5  C3  PXY d   1      -0.317  -2.130   0.661  0.00  0.00     0.003 A 
ATOM      6  C4  PXY d   1      -0.441  -0.787   0.896  0.00  0.00    -0.082 A 
ATOM      7  C5  PXY d   1      -1.605  -0.166   0.609  0.00  0.00     0.003 A 
ATOM      8  C6  PXY d   1      -2.655  -0.907   0.075  0.00  0.00     0.003 A 
ENDROOT
TORSDOF 0
ENDMDL
