MODEL 1
REMARK minimizedAffinity 17.2427292
REMARK minimizedRMSD -1
REMARK  0 active torsions:
REMARK  status: ('A' for Active; 'I' for Inactive)
ROOT
ATOM      1  C4' PXY d   1       3.621  -2.182   0.187  0.00  0.00     0.077 C 
ATOM      2  C1' PXY d   1       5.817  -5.975  -3.582  0.00  0.00     0.077 C 
ATOM      3  C1  PXY d   1       5.232  -4.977  -2.602  0.00  0.00    -0.082 A 
ATOM      4  C2  PXY d   1       5.994  -4.479  -1.642  0.00  0.00     0.003 A 
ATOM      5  C3  PXY d   1       5.473  -3.600  -0.728  0.00  0.00     0.003 A 
ATOM      6  C4  PXY d   1       4.172  -3.185  -0.830  0.00  0.00    -0.082 A 
ATOM      7  C5  PXY d   1       3.391  -3.680  -1.813  0.00  0.00     0.003 A 
ATOM      8  C6  PXY d   1       3.928  -4.603  -2.706  0.00  0.00     0.003 A 
ENDROOT
TORSDOF 0
ENDMDL
