MODEL 1
REMARK minimizedAffinity 10.5339279
REMARK minimizedRMSD -1
REMARK  0 active torsions:
REMARK  status: ('A' for Active; 'I' for Inactive)
ROOT
ATOM      1  C4' PXY d   1       0.943   0.119   2.225  0.00  0.00     0.077 C 
ATOM      2  C1' PXY d   1      -2.871  -3.479  -0.209  0.00  0.00     0.077 C 
ATOM      3  C1  PXY d   1      -1.865  -2.545   0.434  0.00  0.00    -0.082 A 
ATOM      4  C2  PXY d   1      -2.209  -1.297   0.704  0.00  0.00     0.003 A 
ATOM      5  C3  PXY d   1      -1.301  -0.430   1.256  0.00  0.00     0.003 A 
ATOM      6  C4  PXY d   1      -0.044  -0.861   1.585  0.00  0.00    -0.082 A 
ATOM      7  C5  PXY d   1       0.312  -2.137   1.323  0.00  0.00     0.003 A 
ATOM      8  C6  PXY d   1      -0.611  -2.989   0.724  0.00  0.00     0.003 A 
ENDROOT
TORSDOF 0
ENDMDL
