MODEL 1
REMARK minimizedAffinity 15.6162329
REMARK minimizedRMSD -1
REMARK  0 active torsions:
REMARK  status: ('A' for Active; 'I' for Inactive)
ROOT
ATOM      1  C4' PXY d   1      -2.551   2.431  -0.152  0.00  0.00     0.077 C 
ATOM      2  C1' PXY d   1       1.374  -0.737   2.672  0.00  0.00     0.077 C 
ATOM      3  C1  PXY d   1       0.339   0.083   1.926  0.00  0.00    -0.082 A 
ATOM      4  C2  PXY d   1       0.590   1.351   1.643  0.00  0.00     0.003 A 
ATOM      5  C3  PXY d   1      -0.348   2.116   0.998  0.00  0.00     0.003 A 
ATOM      6  C4  PXY d   1      -1.532   1.563   0.591  0.00  0.00    -0.082 A 
ATOM      7  C5  PXY d   1      -1.791   0.267   0.866  0.00  0.00     0.003 A 
ATOM      8  C6  PXY d   1      -0.843  -0.482   1.559  0.00  0.00     0.003 A 
ENDROOT
TORSDOF 0
ENDMDL
