MODEL 1
REMARK minimizedAffinity -4.56301117
REMARK minimizedRMSD -1
REMARK  1 active torsions:
REMARK  status: ('A' for Active; 'I' for Inactive)
REMARK    1  A    between atoms: C1_2  and  C2_3 
ROOT
ATOM      1  C2  UNL d   1       0.343   0.786  -0.461  0.00  0.00    -0.073 A 
ATOM      2  C3  UNL d   1      -0.855   0.066  -0.535  0.00  0.00    -0.002 A 
ATOM      3  C4  UNL d   1      -1.278  -0.711   0.544  0.00  0.00     0.004 A 
ATOM      4  C5  UNL d   1      -0.512  -0.771   1.708  0.00  0.00    -0.004 A 
ATOM      5  C6  UNL d   1       0.681  -0.050   1.806  0.00  0.00    -0.075 A 
ATOM      6  C7  UNL d   1       1.517  -0.105   3.051  0.00  0.00     0.076 C 
ATOM      7  C8  UNL d   1       1.101   0.727   0.717  0.00  0.00     0.001 A 
ENDROOT
BRANCH   1   8
ATOM      8  C1  UNL d   1       0.801   1.632  -1.621  0.00  0.00     0.053 C 
ATOM      9  C   UNL d   1      -0.277   2.601  -2.081  0.00  0.00     0.018 C 
ENDBRANCH   1   8
TORSDOF 1
ENDMDL
