MODEL 1
REMARK minimizedAffinity -3.72319245
REMARK minimizedRMSD -1
REMARK  1 active torsions:
REMARK  status: ('A' for Active; 'I' for Inactive)
REMARK    1  A    between atoms: C1_2  and  C2_3 
ROOT
ATOM      1  C2  UNL d   1      -0.190   0.129  -0.351  0.00  0.00    -0.073 A 
ATOM      2  C3  UNL d   1      -1.491  -0.131   0.095  0.00  0.00    -0.002 A 
ATOM      3  C4  UNL d   1      -1.715  -0.559   1.405  0.00  0.00     0.004 A 
ATOM      4  C5  UNL d   1      -0.643  -0.724   2.282  0.00  0.00    -0.004 A 
ATOM      5  C6  UNL d   1       0.663  -0.459   1.859  0.00  0.00    -0.075 A 
ATOM      6  C7  UNL d   1       1.827  -0.634   2.789  0.00  0.00     0.076 C 
ATOM      7  C8  UNL d   1       0.880  -0.032   0.541  0.00  0.00     0.001 A 
ENDROOT
BRANCH   1   8
ATOM      8  C1  UNL d   1       0.056   0.597  -1.762  0.00  0.00     0.053 C 
ATOM      9  C   UNL d   1      -1.118   1.391  -2.312  0.00  0.00     0.018 C 
ENDBRANCH   1   8
TORSDOF 1
ENDMDL
