MODEL 1
REMARK minimizedAffinity -2.91556621
REMARK minimizedRMSD -1
REMARK  1 active torsions:
REMARK  status: ('A' for Active; 'I' for Inactive)
REMARK    1  A    between atoms: C1_2  and  C2_3 
ROOT
ATOM      1  C2  UNL d   1      -0.108  -0.070  -0.118  0.00  0.00    -0.073 A 
ATOM      2  C3  UNL d   1      -1.390  -0.427   0.313  0.00  0.00    -0.002 A 
ATOM      3  C4  UNL d   1      -1.618  -0.759   1.649  0.00  0.00     0.004 A 
ATOM      4  C5  UNL d   1      -0.568  -0.732   2.568  0.00  0.00    -0.004 A 
ATOM      5  C6  UNL d   1       0.718  -0.367   2.158  0.00  0.00    -0.075 A 
ATOM      6  C7  UNL d   1       1.858  -0.334   3.133  0.00  0.00     0.076 C 
ATOM      7  C8  UNL d   1       0.939  -0.037   0.814  0.00  0.00     0.001 A 
ENDROOT
BRANCH   1   8
ATOM      8  C1  UNL d   1       0.141   0.296  -1.559  0.00  0.00     0.053 C 
ATOM      9  C   UNL d   1      -0.490   1.630  -1.925  0.00  0.00     0.018 C 
ENDBRANCH   1   8
TORSDOF 1
ENDMDL
