MODEL 1
REMARK minimizedAffinity -5.34587908
REMARK minimizedRMSD -1
REMARK  1 active torsions:
REMARK  status: ('A' for Active; 'I' for Inactive)
REMARK    1  A    between atoms: C1_2  and  C2_3 
ROOT
ATOM      1  C2  UNL d   1       0.132   0.553  -0.750  0.00  0.00    -0.073 A 
ATOM      2  C3  UNL d   1      -1.019  -0.241  -0.689  0.00  0.00    -0.002 A 
ATOM      3  C4  UNL d   1      -1.291  -0.999   0.450  0.00  0.00     0.004 A 
ATOM      4  C5  UNL d   1      -0.422  -0.967   1.540  0.00  0.00    -0.004 A 
ATOM      5  C6  UNL d   1       0.728  -0.171   1.502  0.00  0.00    -0.075 A 
ATOM      6  C7  UNL d   1       1.675  -0.127   2.665  0.00  0.00     0.076 C 
ATOM      7  C8  UNL d   1       0.996   0.586   0.354  0.00  0.00     0.001 A 
ENDROOT
BRANCH   1   8
ATOM      8  C1  UNL d   1       0.428   1.379  -1.976  0.00  0.00     0.053 C 
ATOM      9  C   UNL d   1      -0.803   2.120  -2.474  0.00  0.00     0.018 C 
ENDBRANCH   1   8
TORSDOF 1
ENDMDL
