MODEL 1
REMARK minimizedAffinity -3.45964789
REMARK minimizedRMSD -1
REMARK  1 active torsions:
REMARK  status: ('A' for Active; 'I' for Inactive)
REMARK    1  A    between atoms: C1_2  and  C2_3 
ROOT
ATOM      1  C2  UNL d   1       1.229  -1.893   1.444  0.00  0.00    -0.073 A 
ATOM      2  C3  UNL d   1       0.305  -1.740   2.483  0.00  0.00    -0.002 A 
ATOM      3  C4  UNL d   1      -0.826  -0.941   2.309  0.00  0.00     0.004 A 
ATOM      4  C5  UNL d   1      -1.047  -0.293   1.094  0.00  0.00    -0.004 A 
ATOM      5  C6  UNL d   1      -0.141  -0.443   0.039  0.00  0.00    -0.075 A 
ATOM      6  C7  UNL d   1      -0.364   0.249  -1.274  0.00  0.00     0.076 C 
ATOM      7  C8  UNL d   1       0.993  -1.245   0.223  0.00  0.00     0.001 A 
ENDROOT
BRANCH   1   8
ATOM      8  C1  UNL d   1       2.448  -2.760   1.625  0.00  0.00     0.053 C 
ATOM      9  C   UNL d   1       3.219  -2.403   2.886  0.00  0.00     0.018 C 
ENDBRANCH   1   8
TORSDOF 1
ENDMDL
