MODEL 1
REMARK minimizedAffinity -4.05779505
REMARK minimizedRMSD -1
REMARK  1 active torsions:
REMARK  status: ('A' for Active; 'I' for Inactive)
REMARK    1  A    between atoms: C1_2  and  C2_3 
ROOT
ATOM      1  C2  UNL d   1      -0.004   0.224  -0.471  0.00  0.00    -0.073 A 
ATOM      2  C3  UNL d   1      -1.357   0.199  -0.114  0.00  0.00    -0.002 A 
ATOM      3  C4  UNL d   1      -1.743  -0.224   1.159  0.00  0.00     0.004 A 
ATOM      4  C5  UNL d   1      -0.781  -0.619   2.088  0.00  0.00    -0.004 A 
ATOM      5  C6  UNL d   1       0.577  -0.589   1.755  0.00  0.00    -0.075 A 
ATOM      6  C7  UNL d   1       1.623  -1.013   2.743  0.00  0.00     0.076 C 
ATOM      7  C8  UNL d   1       0.956  -0.166   0.474  0.00  0.00     0.001 A 
ENDROOT
BRANCH   1   8
ATOM      8  C1  UNL d   1       0.418   0.686  -1.842  0.00  0.00     0.053 C 
ATOM      9  C   UNL d   1      -0.193   2.031  -2.203  0.00  0.00     0.018 C 
ENDBRANCH   1   8
TORSDOF 1
ENDMDL
