MODEL 1
REMARK minimizedAffinity 4.20683146
REMARK minimizedRMSD -1
REMARK  0 active torsions:
REMARK  status: ('A' for Active; 'I' for Inactive)
ROOT
ATOM      1  C2' OXE d   1      -2.440  -5.712  -2.996  0.00  0.00     0.078 C 
ATOM      2  C1' OXE d   1      -0.015  -4.873  -1.856  0.00  0.00     0.078 C 
ATOM      3  C1  OXE d   1      -0.014  -5.243  -3.318  0.00  0.00    -0.078 A 
ATOM      4  C2  OXE d   1      -1.195  -5.697  -3.856  0.00  0.00    -0.078 A 
ATOM      5  C3  OXE d   1      -1.262  -6.000  -5.213  0.00  0.00     0.003 A 
ATOM      6  C4  OXE d   1      -0.104  -5.993  -6.000  0.00  0.00    -0.002 A 
ATOM      7  C5  OXE d   1       1.117  -5.572  -5.462  0.00  0.00    -0.002 A 
ATOM      8  C6  OXE d   1       1.170  -5.154  -4.136  0.00  0.00     0.003 A 
ENDROOT
TORSDOF 0
ENDMDL
