MODEL 1
REMARK minimizedAffinity 2.27137876
REMARK minimizedRMSD -1
REMARK  0 active torsions:
REMARK  status: ('A' for Active; 'I' for Inactive)
ROOT
ATOM      1  C2' OXE d   1      -1.814  -5.998  -5.985  0.00  0.00     0.078 C 
ATOM      2  C1' OXE d   1       0.900  -5.974  -5.270  0.00  0.00     0.078 C 
ATOM      3  C1  OXE d   1      -0.120  -5.977  -4.159  0.00  0.00    -0.078 A 
ATOM      4  C2  OXE d   1      -1.446  -5.942  -4.518  0.00  0.00    -0.078 A 
ATOM      5  C3  OXE d   1      -2.428  -5.998  -3.534  0.00  0.00     0.003 A 
ATOM      6  C4  OXE d   1      -2.079  -5.936  -2.179  0.00  0.00    -0.002 A 
ATOM      7  C5  OXE d   1      -0.735  -5.931  -1.792  0.00  0.00    -0.002 A 
ATOM      8  C6  OXE d   1       0.255  -5.995  -2.766  0.00  0.00     0.003 A 
ENDROOT
TORSDOF 0
ENDMDL
