MODEL 1
REMARK minimizedAffinity 3.48011923
REMARK minimizedRMSD -1
REMARK  0 active torsions:
REMARK  status: ('A' for Active; 'I' for Inactive)
ROOT
ATOM      1  C2' OXE d   1      -2.712  -4.386   0.426  0.00  0.00     0.078 C 
ATOM      2  C1' OXE d   1      -4.742  -5.974  -0.686  0.00  0.00     0.078 C 
ATOM      3  C1  OXE d   1      -4.862  -5.597   0.769  0.00  0.00    -0.078 A 
ATOM      4  C2  OXE d   1      -3.840  -4.858   1.317  0.00  0.00    -0.078 A 
ATOM      5  C3  OXE d   1      -3.927  -4.437   2.641  0.00  0.00     0.003 A 
ATOM      6  C4  OXE d   1      -4.969  -4.886   3.461  0.00  0.00    -0.002 A 
ATOM      7  C5  OXE d   1      -6.000  -5.672   2.933  0.00  0.00    -0.002 A 
ATOM      8  C6  OXE d   1      -5.983  -6.000   1.582  0.00  0.00     0.003 A 
ENDROOT
TORSDOF 0
ENDMDL
