MODEL 1
REMARK minimizedAffinity 3.97217178
REMARK minimizedRMSD -1
REMARK  0 active torsions:
REMARK  status: ('A' for Active; 'I' for Inactive)
ROOT
ATOM      1  C2' OXE d   1       1.379   5.751   1.645  0.00  0.00     0.078 C 
ATOM      2  C1' OXE d   1       0.685   3.619  -0.044  0.00  0.00     0.078 C 
ATOM      3  C1  OXE d   1       2.145   3.975   0.076  0.00  0.00    -0.078 A 
ATOM      4  C2  OXE d   1       2.471   5.050   0.868  0.00  0.00    -0.078 A 
ATOM      5  C3  OXE d   1       3.809   5.386   1.057  0.00  0.00     0.003 A 
ATOM      6  C4  OXE d   1       4.813   4.739   0.326  0.00  0.00    -0.002 A 
ATOM      7  C5  OXE d   1       4.498   3.667  -0.517  0.00  0.00    -0.002 A 
ATOM      8  C6  OXE d   1       3.177   3.247  -0.620  0.00  0.00     0.003 A 
ENDROOT
TORSDOF 0
ENDMDL
