MODEL 1
REMARK minimizedAffinity 1.74550164
REMARK minimizedRMSD -1
REMARK  0 active torsions:
REMARK  status: ('A' for Active; 'I' for Inactive)
ROOT
ATOM      1  C2' OXE d   1      -2.439  -5.953  -2.924  0.00  0.00     0.078 C 
ATOM      2  C1' OXE d   1       0.069  -5.995  -1.663  0.00  0.00     0.078 C 
ATOM      3  C1  OXE d   1       0.040  -5.973  -3.171  0.00  0.00    -0.078 A 
ATOM      4  C2  OXE d   1      -1.192  -6.000  -3.780  0.00  0.00    -0.078 A 
ATOM      5  C3  OXE d   1      -1.277  -5.926  -5.167  0.00  0.00     0.003 A 
ATOM      6  C4  OXE d   1      -0.118  -5.979  -5.952  0.00  0.00    -0.002 A 
ATOM      7  C5  OXE d   1       1.146  -5.992  -5.352  0.00  0.00    -0.002 A 
ATOM      8  C6  OXE d   1       1.242  -5.946  -3.966  0.00  0.00     0.003 A 
ENDROOT
TORSDOF 0
ENDMDL
