MODEL 1
REMARK minimizedAffinity -2.19295406
REMARK minimizedRMSD -1
REMARK  0 active torsions:
REMARK  status: ('A' for Active; 'I' for Inactive)
ROOT
ATOM      1  C2' OXE d   1      -2.372  -5.992  -2.573  0.00  0.00     0.078 C 
ATOM      2  C1' OXE d   1       0.308  -5.587  -1.843  0.00  0.00     0.078 C 
ATOM      3  C1  OXE d   1      -0.011  -5.698  -3.312  0.00  0.00    -0.078 A 
ATOM      4  C2  OXE d   1      -1.318  -5.943  -3.659  0.00  0.00    -0.078 A 
ATOM      5  C3  OXE d   1      -1.676  -6.000  -5.002  0.00  0.00     0.003 A 
ATOM      6  C4  OXE d   1      -0.694  -5.964  -6.000  0.00  0.00    -0.002 A 
ATOM      7  C5  OXE d   1       0.648  -5.755  -5.667  0.00  0.00    -0.002 A 
ATOM      8  C6  OXE d   1       1.000  -5.578  -4.333  0.00  0.00     0.003 A 
ENDROOT
TORSDOF 0
ENDMDL
