MODEL 1
REMARK minimizedAffinity 5.47282314
REMARK minimizedRMSD -1
REMARK  0 active torsions:
REMARK  status: ('A' for Active; 'I' for Inactive)
ROOT
ATOM      1  C2' OXE d   1       2.901  -0.911   1.126  0.00  0.00     0.078 C 
ATOM      2  C1' OXE d   1       1.550  -3.372   1.137  0.00  0.00     0.078 C 
ATOM      3  C1  OXE d   1       0.751  -2.132   0.819  0.00  0.00    -0.078 A 
ATOM      4  C2  OXE d   1       1.411  -0.927   0.862  0.00  0.00    -0.078 A 
ATOM      5  C3  OXE d   1       0.734   0.241   0.525  0.00  0.00     0.003 A 
ATOM      6  C4  OXE d   1      -0.647   0.218   0.292  0.00  0.00    -0.002 A 
ATOM      7  C5  OXE d   1      -1.345  -0.993   0.282  0.00  0.00    -0.002 A 
ATOM      8  C6  OXE d   1      -0.654  -2.180   0.501  0.00  0.00     0.003 A 
ENDROOT
TORSDOF 0
ENDMDL
