MODEL 1
REMARK minimizedAffinity 4.3279295
REMARK minimizedRMSD -1
REMARK  0 active torsions:
REMARK  status: ('A' for Active; 'I' for Inactive)
ROOT
ATOM      1  C2' OXE d   1       1.758  -5.922  -5.804  0.00  0.00     0.078 C 
ATOM      2  C1' OXE d   1       1.972  -5.896  -3.005  0.00  0.00     0.078 C 
ATOM      3  C1  OXE d   1       0.588  -5.940  -3.605  0.00  0.00    -0.078 A 
ATOM      4  C2  OXE d   1       0.492  -5.905  -4.975  0.00  0.00    -0.078 A 
ATOM      5  C3  OXE d   1      -0.758  -5.999  -5.581  0.00  0.00     0.003 A 
ATOM      6  C4  OXE d   1      -1.924  -5.973  -4.807  0.00  0.00    -0.002 A 
ATOM      7  C5  OXE d   1      -1.850  -5.969  -3.410  0.00  0.00    -0.002 A 
ATOM      8  C6  OXE d   1      -0.603  -5.995  -2.794  0.00  0.00     0.003 A 
ENDROOT
TORSDOF 0
ENDMDL
