MODEL 1
REMARK minimizedAffinity 1.16296053
REMARK minimizedRMSD -1
REMARK  0 active torsions:
REMARK  status: ('A' for Active; 'I' for Inactive)
ROOT
ATOM      1  C2' OXE d   1      -1.260  -1.883   0.158  0.00  0.00     0.078 C 
ATOM      2  C1' OXE d   1       0.953  -3.217   1.254  0.00  0.00     0.078 C 
ATOM      3  C1  OXE d   1       1.194  -1.884   0.590  0.00  0.00    -0.078 A 
ATOM      4  C2  OXE d   1       0.113  -1.260   0.015  0.00  0.00    -0.078 A 
ATOM      5  C3  OXE d   1       0.269  -0.003  -0.562  0.00  0.00     0.003 A 
ATOM      6  C4  OXE d   1       1.543   0.561  -0.699  0.00  0.00    -0.002 A 
ATOM      7  C5  OXE d   1       2.663  -0.077  -0.156  0.00  0.00    -0.002 A 
ATOM      8  C6  OXE d   1       2.500  -1.277   0.528  0.00  0.00     0.003 A 
ENDROOT
TORSDOF 0
ENDMDL
