MODEL 1
REMARK minimizedAffinity 0.690636516
REMARK minimizedRMSD -1
REMARK  0 active torsions:
REMARK  status: ('A' for Active; 'I' for Inactive)
ROOT
ATOM      1  C2' OXE d   1      -1.742  -2.502   1.472  0.00  0.00     0.078 C 
ATOM      2  C1' OXE d   1       0.492  -3.336  -0.010  0.00  0.00     0.078 C 
ATOM      3  C1  OXE d   1       0.430  -1.891   0.416  0.00  0.00    -0.078 A 
ATOM      4  C2  OXE d   1      -0.689  -1.481   1.101  0.00  0.00    -0.078 A 
ATOM      5  C3  OXE d   1      -0.772  -0.171   1.565  0.00  0.00     0.003 A 
ATOM      6  C4  OXE d   1       0.202   0.770   1.208  0.00  0.00    -0.002 A 
ATOM      7  C5  OXE d   1       1.330   0.383   0.478  0.00  0.00    -0.002 A 
ATOM      8  C6  OXE d   1       1.480  -0.950   0.111  0.00  0.00     0.003 A 
ENDROOT
TORSDOF 0
ENDMDL
