MODEL 1
REMARK minimizedAffinity 5.02408504
REMARK minimizedRMSD -1
REMARK  0 active torsions:
REMARK  status: ('A' for Active; 'I' for Inactive)
ROOT
ATOM      1  C2' OXE d   1       0.966  -5.609  -5.482  0.00  0.00     0.078 C 
ATOM      2  C1' OXE d   1      -1.799  -5.980  -5.794  0.00  0.00     0.078 C 
ATOM      3  C1  OXE d   1      -1.254  -5.908  -4.390  0.00  0.00    -0.078 A 
ATOM      4  C2  OXE d   1       0.106  -5.773  -4.247  0.00  0.00    -0.078 A 
ATOM      5  C3  OXE d   1       0.656  -5.646  -2.974  0.00  0.00     0.003 A 
ATOM      6  C4  OXE d   1      -0.144  -5.809  -1.837  0.00  0.00    -0.002 A 
ATOM      7  C5  OXE d   1      -1.526  -5.987  -1.961  0.00  0.00    -0.002 A 
ATOM      8  C6  OXE d   1      -2.101  -5.996  -3.227  0.00  0.00     0.003 A 
ENDROOT
TORSDOF 0
ENDMDL
