MODEL 1
REMARK minimizedAffinity -1.92709124
REMARK minimizedRMSD -1
REMARK  0 active torsions:
REMARK  status: ('A' for Active; 'I' for Inactive)
ROOT
ATOM      1  C2' OXE d   1       1.583  -3.561   0.601  0.00  0.00     0.078 C 
ATOM      2  C1' OXE d   1       2.901  -1.094   0.361  0.00  0.00     0.078 C 
ATOM      3  C1  OXE d   1       1.420  -1.076   0.643  0.00  0.00    -0.078 A 
ATOM      4  C2  OXE d   1       0.774  -2.287   0.712  0.00  0.00    -0.078 A 
ATOM      5  C3  OXE d   1      -0.582  -2.328   1.025  0.00  0.00     0.003 A 
ATOM      6  C4  OXE d   1      -1.325  -1.145   1.116  0.00  0.00    -0.002 A 
ATOM      7  C5  OXE d   1      -0.694   0.099   1.008  0.00  0.00    -0.002 A 
ATOM      8  C6  OXE d   1       0.682   0.151   0.815  0.00  0.00     0.003 A 
ENDROOT
TORSDOF 0
ENDMDL
