MODEL 1
REMARK minimizedAffinity -4.25651407
REMARK minimizedRMSD -1
REMARK  0 active torsions:
REMARK  status: ('A' for Active; 'I' for Inactive)
ROOT
ATOM      1  C2' OXE d   1       1.491  -5.958  -3.371  0.00  0.00     0.078 C 
ATOM      2  C1' OXE d   1       0.562  -5.634  -6.000  0.00  0.00     0.078 C 
ATOM      3  C1  OXE d   1      -0.464  -5.742  -4.899  0.00  0.00    -0.078 A 
ATOM      4  C2  OXE d   1      -0.001  -5.947  -3.622  0.00  0.00    -0.078 A 
ATOM      5  C3  OXE d   1      -0.903  -6.000  -2.562  0.00  0.00     0.003 A 
ATOM      6  C4  OXE d   1      -2.282  -6.000  -2.804  0.00  0.00    -0.002 A 
ATOM      7  C5  OXE d   1      -2.775  -5.831  -4.102  0.00  0.00    -0.002 A 
ATOM      8  C6  OXE d   1      -1.881  -5.659  -5.154  0.00  0.00     0.003 A 
ENDROOT
TORSDOF 0
ENDMDL
