MODEL 1
REMARK minimizedAffinity 1.13427305
REMARK minimizedRMSD -1
REMARK  0 active torsions:
REMARK  status: ('A' for Active; 'I' for Inactive)
ROOT
ATOM      1  C2' OXE d   1      -2.842  -5.998  -2.992  0.00  0.00     0.078 C 
ATOM      2  C1' OXE d   1      -0.403  -5.826  -1.612  0.00  0.00     0.078 C 
ATOM      3  C1  OXE d   1      -0.357  -5.868  -3.119  0.00  0.00    -0.078 A 
ATOM      4  C2  OXE d   1      -1.552  -5.999  -3.785  0.00  0.00    -0.078 A 
ATOM      5  C3  OXE d   1      -1.571  -5.988  -5.176  0.00  0.00     0.003 A 
ATOM      6  C4  OXE d   1      -0.373  -5.999  -5.901  0.00  0.00    -0.002 A 
ATOM      7  C5  OXE d   1       0.857  -5.905  -5.241  0.00  0.00    -0.002 A 
ATOM      8  C6  OXE d   1       0.881  -5.796  -3.855  0.00  0.00     0.003 A 
ENDROOT
TORSDOF 0
ENDMDL
