MODEL 1
REMARK minimizedAffinity 5.76062346
REMARK minimizedRMSD -1
REMARK  0 active torsions:
REMARK  status: ('A' for Active; 'I' for Inactive)
ROOT
ATOM      1  C2' OXE d   1       0.944   0.804   0.394  0.00  0.00     0.078 C 
ATOM      2  C1' OXE d   1       3.424  -0.496   0.598  0.00  0.00     0.078 C 
ATOM      3  C1  OXE d   1       2.179  -1.346   0.633  0.00  0.00    -0.078 A 
ATOM      4  C2  OXE d   1       0.969  -0.698   0.580  0.00  0.00    -0.078 A 
ATOM      5  C3  OXE d   1      -0.209  -1.439   0.553  0.00  0.00     0.003 A 
ATOM      6  C4  OXE d   1      -0.178  -2.827   0.735  0.00  0.00    -0.002 A 
ATOM      7  C5  OXE d   1       1.043  -3.503   0.831  0.00  0.00    -0.002 A 
ATOM      8  C6  OXE d   1       2.229  -2.784   0.739  0.00  0.00     0.003 A 
ENDROOT
TORSDOF 0
ENDMDL
