MODEL 1
REMARK minimizedAffinity 3.06042314
REMARK minimizedRMSD -1
REMARK  0 active torsions:
REMARK  status: ('A' for Active; 'I' for Inactive)
ROOT
ATOM      1  C2' OXE d   1      -2.307  -6.000  -2.359  0.00  0.00     0.078 C 
ATOM      2  C1' OXE d   1       0.465  -5.694  -2.038  0.00  0.00     0.078 C 
ATOM      3  C1  OXE d   1      -0.076  -5.775  -3.444  0.00  0.00    -0.078 A 
ATOM      4  C2  OXE d   1      -1.428  -5.972  -3.591  0.00  0.00    -0.078 A 
ATOM      5  C3  OXE d   1      -1.986  -5.999  -4.866  0.00  0.00     0.003 A 
ATOM      6  C4  OXE d   1      -1.164  -5.983  -5.999  0.00  0.00    -0.002 A 
ATOM      7  C5  OXE d   1       0.220  -5.823  -5.871  0.00  0.00    -0.002 A 
ATOM      8  C6  OXE d   1       0.774  -5.676  -4.605  0.00  0.00     0.003 A 
ENDROOT
TORSDOF 0
ENDMDL
