MODEL 1
REMARK minimizedAffinity 3.8303709
REMARK minimizedRMSD -1
REMARK  0 active torsions:
REMARK  status: ('A' for Active; 'I' for Inactive)
ROOT
ATOM      1  C2' OXE d   1      -0.690  -5.990  -2.061  0.00  0.00     0.078 C 
ATOM      2  C1' OXE d   1      -2.347  -5.984  -4.327  0.00  0.00     0.078 C 
ATOM      3  C1  OXE d   1      -0.854  -5.978  -4.547  0.00  0.00    -0.078 A 
ATOM      4  C2  OXE d   1      -0.052  -5.934  -3.433  0.00  0.00    -0.078 A 
ATOM      5  C3  OXE d   1       1.332  -5.982  -3.577  0.00  0.00     0.003 A 
ATOM      6  C4  OXE d   1       1.914  -5.920  -4.849  0.00  0.00    -0.002 A 
ATOM      7  C5  OXE d   1       1.114  -5.924  -5.997  0.00  0.00    -0.002 A 
ATOM      8  C6  OXE d   1      -0.268  -5.996  -5.864  0.00  0.00     0.003 A 
ENDROOT
TORSDOF 0
ENDMDL
