MODEL 1
REMARK minimizedAffinity 0.110642292
REMARK minimizedRMSD -1
REMARK  0 active torsions:
REMARK  status: ('A' for Active; 'I' for Inactive)
ROOT
ATOM      1  C2' OXE d   1       2.264   1.583  -0.097  0.00  0.00     0.078 C 
ATOM      2  C1' OXE d   1       4.171  -0.278   0.788  0.00  0.00     0.078 C 
ATOM      3  C1  OXE d   1       2.757  -0.762   0.585  0.00  0.00    -0.078 A 
ATOM      4  C2  OXE d   1       1.821   0.166   0.197  0.00  0.00    -0.078 A 
ATOM      5  C3  OXE d   1       0.513  -0.239  -0.057  0.00  0.00     0.003 A 
ATOM      6  C4  OXE d   1       0.109  -1.549   0.227  0.00  0.00    -0.002 A 
ATOM      7  C5  OXE d   1       1.038  -2.500   0.661  0.00  0.00    -0.002 A 
ATOM      8  C6  OXE d   1       2.372  -2.135   0.804  0.00  0.00     0.003 A 
ENDROOT
TORSDOF 0
ENDMDL
