MODEL 1
REMARK minimizedAffinity 14.3078775
REMARK minimizedRMSD -1
REMARK  3 active torsions:
REMARK  status: ('A' for Active; 'I' for Inactive)
REMARK    1  A    between atoms: C3'_2  and  C2'_3 
REMARK    2  A    between atoms: C2'_3  and  C1'_4 
REMARK    3  A    between atoms: C1'_4  and  C1_5 
ROOT
ATOM      1  C1  N4B d   1      -0.816   0.942  -0.032  0.00  0.00    -0.075 A 
ATOM      2  C2  N4B d   1      -0.023   0.330   0.964  0.00  0.00     0.002 A 
ATOM      3  C3  N4B d   1      -0.556   0.074   2.204  0.00  0.00     0.002 A 
ATOM      4  C4  N4B d   1      -1.866   0.437   2.476  0.00  0.00    -0.004 A 
ATOM      5  C5  N4B d   1      -2.633   1.004   1.501  0.00  0.00     0.002 A 
ATOM      6  C6  N4B d   1      -2.112   1.264   0.249  0.00  0.00     0.002 A 
ENDROOT
BRANCH   1   7
ATOM      7  C1' N4B d   1      -0.252   1.320  -1.374  0.00  0.00     0.057 C 
BRANCH   7   8
ATOM      8  C2' N4B d   1       1.263   1.146  -1.348  0.00  0.00     0.009 C 
BRANCH   8   9
ATOM      9  C3' N4B d   1       1.854   1.093  -2.747  0.00  0.00     0.004 C 
ATOM     10  C4' N4B d   1       2.138  -0.307  -3.204  0.00  0.00     0.003 C 
ENDBRANCH   8   9
ENDBRANCH   7   8
ENDBRANCH   1   7
TORSDOF 3
ENDMDL
