MODEL 1
REMARK minimizedAffinity 4.90477943
REMARK minimizedRMSD -1
REMARK  3 active torsions:
REMARK  status: ('A' for Active; 'I' for Inactive)
REMARK    1  A    between atoms: C3'_2  and  C2'_3 
REMARK    2  A    between atoms: C2'_3  and  C1'_4 
REMARK    3  A    between atoms: C1'_4  and  C1_5 
ROOT
ATOM      1  C1  N4B d   1      -0.562   0.152   2.680  0.00  0.00    -0.075 A 
ATOM      2  C2  N4B d   1      -0.420   0.820   1.444  0.00  0.00     0.002 A 
ATOM      3  C3  N4B d   1      -1.522   1.354   0.821  0.00  0.00     0.002 A 
ATOM      4  C4  N4B d   1      -2.773   1.215   1.404  0.00  0.00    -0.004 A 
ATOM      5  C5  N4B d   1      -2.898   0.590   2.610  0.00  0.00     0.002 A 
ATOM      6  C6  N4B d   1      -1.799   0.053   3.249  0.00  0.00     0.002 A 
ENDROOT
BRANCH   1   7
ATOM      7  C1' N4B d   1       0.600  -0.523   3.356  0.00  0.00     0.057 C 
BRANCH   7   8
ATOM      8  C2' N4B d   1       1.883   0.231   3.017  0.00  0.00     0.009 C 
BRANCH   8   9
ATOM      9  C3' N4B d   1       3.123  -0.578   3.356  0.00  0.00     0.004 C 
ATOM     10  C4' N4B d   1       4.236  -0.374   2.371  0.00  0.00     0.003 C 
ENDBRANCH   8   9
ENDBRANCH   7   8
ENDBRANCH   1   7
TORSDOF 3
ENDMDL
