MODEL 1
REMARK minimizedAffinity 5.9329505
REMARK minimizedRMSD -1
REMARK  3 active torsions:
REMARK  status: ('A' for Active; 'I' for Inactive)
REMARK    1  A    between atoms: C3'_2  and  C2'_3 
REMARK    2  A    between atoms: C2'_3  and  C1'_4 
REMARK    3  A    between atoms: C1'_4  and  C1_5 
ROOT
ATOM      1  C1  N4B d   1       2.867   2.912  -3.121  0.00  0.00    -0.075 A 
ATOM      2  C2  N4B d   1       3.628   3.285  -4.251  0.00  0.00     0.002 A 
ATOM      3  C3  N4B d   1       3.569   4.573  -4.723  0.00  0.00     0.002 A 
ATOM      4  C4  N4B d   1       2.745   5.496  -4.097  0.00  0.00    -0.004 A 
ATOM      5  C5  N4B d   1       2.032   5.135  -2.991  0.00  0.00     0.002 A 
ATOM      6  C6  N4B d   1       2.085   3.845  -2.503  0.00  0.00     0.002 A 
ENDROOT
BRANCH   1   7
ATOM      7  C1' N4B d   1       2.833   1.494  -2.620  0.00  0.00     0.057 C 
BRANCH   7   8
ATOM      8  C2' N4B d   1       1.467   0.887  -2.927  0.00  0.00     0.009 C 
BRANCH   8   9
ATOM      9  C3' N4B d   1       1.570  -0.288  -3.885  0.00  0.00     0.004 C 
ATOM     10  C4' N4B d   1       2.749  -0.185  -4.806  0.00  0.00     0.003 C 
ENDBRANCH   8   9
ENDBRANCH   7   8
ENDBRANCH   1   7
TORSDOF 3
ENDMDL
