MODEL 1
REMARK minimizedAffinity 4.77639961
REMARK minimizedRMSD -1
REMARK  3 active torsions:
REMARK  status: ('A' for Active; 'I' for Inactive)
REMARK    1  A    between atoms: C3'_2  and  C2'_3 
REMARK    2  A    between atoms: C2'_3  and  C1'_4 
REMARK    3  A    between atoms: C1'_4  and  C1_5 
ROOT
ATOM      1  C1  N4B d   1      -1.843   0.961   2.218  0.00  0.00    -0.075 A 
ATOM      2  C2  N4B d   1      -2.627   2.135   2.245  0.00  0.00     0.002 A 
ATOM      3  C3  N4B d   1      -2.072   3.322   2.657  0.00  0.00     0.002 A 
ATOM      4  C4  N4B d   1      -0.746   3.355   3.063  0.00  0.00    -0.004 A 
ATOM      5  C5  N4B d   1       0.011   2.222   3.009  0.00  0.00     0.002 A 
ATOM      6  C6  N4B d   1      -0.532   1.023   2.593  0.00  0.00     0.002 A 
ENDROOT
BRANCH   1   7
ATOM      7  C1' N4B d   1      -2.428  -0.377   1.856  0.00  0.00     0.057 C 
BRANCH   7   8
ATOM      8  C2' N4B d   1      -3.896  -0.196   1.479  0.00  0.00     0.009 C 
BRANCH   8   9
ATOM      9  C3' N4B d   1      -4.521  -1.491   0.991  0.00  0.00     0.004 C 
ATOM     10  C4' N4B d   1      -6.000  -1.549   1.232  0.00  0.00     0.003 C 
ENDBRANCH   8   9
ENDBRANCH   7   8
ENDBRANCH   1   7
TORSDOF 3
ENDMDL
