MODEL 1
REMARK minimizedAffinity 6.64948416
REMARK minimizedRMSD -1
REMARK  3 active torsions:
REMARK  status: ('A' for Active; 'I' for Inactive)
REMARK    1  A    between atoms: C3'_2  and  C2'_3 
REMARK    2  A    between atoms: C2'_3  and  C1'_4 
REMARK    3  A    between atoms: C1'_4  and  C1_5 
ROOT
ATOM      1  C1  N4B d   1       3.734   1.531  -5.463  0.00  0.00    -0.075 A 
ATOM      2  C2  N4B d   1       2.768   1.114  -4.521  0.00  0.00     0.002 A 
ATOM      3  C3  N4B d   1       2.686  -0.209  -4.162  0.00  0.00     0.002 A 
ATOM      4  C4  N4B d   1       3.542  -1.132  -4.743  0.00  0.00    -0.004 A 
ATOM      5  C5  N4B d   1       4.490  -0.717  -5.633  0.00  0.00     0.002 A 
ATOM      6  C6  N4B d   1       4.587   0.610  -6.000  0.00  0.00     0.002 A 
ENDROOT
BRANCH   1   7
ATOM      7  C1' N4B d   1       3.806   2.953  -5.950  0.00  0.00     0.057 C 
BRANCH   7   8
ATOM      8  C2' N4B d   1       4.460   3.818  -4.877  0.00  0.00     0.009 C 
BRANCH   8   9
ATOM      9  C3' N4B d   1       3.701   5.115  -4.652  0.00  0.00     0.004 C 
ATOM     10  C4' N4B d   1       2.931   5.122  -3.366  0.00  0.00     0.003 C 
ENDBRANCH   8   9
ENDBRANCH   7   8
ENDBRANCH   1   7
TORSDOF 3
ENDMDL
