MODEL 1
REMARK minimizedAffinity -4.31814528
REMARK minimizedRMSD -1
REMARK  1 active torsions:
REMARK  status: ('A' for Active; 'I' for Inactive)
REMARK    1  A    between atoms: C1_2  and  C2_3 
ROOT
ATOM      1  C2  UNL d   1      -0.011  -1.193  -0.291  0.00  0.00    -0.076 A 
ATOM      2  C3  UNL d   1      -0.744  -2.390  -0.204  0.00  0.00     0.004 A 
ATOM      3  C4  UNL d   1      -0.554  -3.416  -1.128  0.00  0.00    -0.003 A 
ATOM      4  C5  UNL d   1       0.372  -3.262  -2.154  0.00  0.00     0.000 A 
ATOM      5  C6  UNL d   1       1.120  -2.089  -2.245  0.00  0.00     0.000 A 
ATOM      6  C7  UNL d   1       0.953  -1.052  -1.312  0.00  0.00    -0.073 A 
ATOM      7  C8  UNL d   1       1.783   0.194  -1.461  0.00  0.00     0.078 C 
ENDROOT
BRANCH   1   8
ATOM      8  C1  UNL d   1      -0.279  -0.105   0.724  0.00  0.00     0.053 C 
ATOM      9  C   UNL d   1      -1.510   0.721   0.381  0.00  0.00     0.018 C 
ENDBRANCH   1   8
TORSDOF 1
ENDMDL
