MODEL 1
REMARK minimizedAffinity -5.15327263
REMARK minimizedRMSD -1
REMARK  1 active torsions:
REMARK  status: ('A' for Active; 'I' for Inactive)
REMARK    1  A    between atoms: C1_2  and  C2_3 
ROOT
ATOM      1  C2  UNL d   1       0.270  -0.101  -0.034  0.00  0.00    -0.076 A 
ATOM      2  C3  UNL d   1       0.044  -0.906   1.096  0.00  0.00     0.004 A 
ATOM      3  C4  UNL d   1      -0.739  -0.452   2.156  0.00  0.00    -0.003 A 
ATOM      4  C5  UNL d   1      -1.308   0.816   2.103  0.00  0.00     0.000 A 
ATOM      5  C6  UNL d   1      -1.109   1.621   0.982  0.00  0.00     0.000 A 
ATOM      6  C7  UNL d   1      -0.336   1.171  -0.102  0.00  0.00    -0.073 A 
ATOM      7  C8  UNL d   1      -0.149   2.084  -1.283  0.00  0.00     0.078 C 
ENDROOT
BRANCH   1   8
ATOM      8  C1  UNL d   1       1.150  -0.638  -1.140  0.00  0.00     0.053 C 
ATOM      9  C   UNL d   1       0.518  -1.813  -1.870  0.00  0.00     0.018 C 
ENDBRANCH   1   8
TORSDOF 1
ENDMDL
