MODEL 1
REMARK minimizedAffinity -4.21888161
REMARK minimizedRMSD -1
REMARK  1 active torsions:
REMARK  status: ('A' for Active; 'I' for Inactive)
REMARK    1  A    between atoms: C1_2  and  C2_3 
ROOT
ATOM      1  C2  UNL d   1       0.354  -0.302   0.255  0.00  0.00    -0.076 A 
ATOM      2  C3  UNL d   1      -0.130  -1.159   1.259  0.00  0.00     0.004 A 
ATOM      3  C4  UNL d   1      -1.127  -0.742   2.139  0.00  0.00    -0.003 A 
ATOM      4  C5  UNL d   1      -1.657   0.539   2.030  0.00  0.00     0.000 A 
ATOM      5  C6  UNL d   1      -1.201   1.396   1.029  0.00  0.00     0.000 A 
ATOM      6  C7  UNL d   1      -0.208   0.986   0.123  0.00  0.00    -0.073 A 
ATOM      7  C8  UNL d   1       0.250   1.954  -0.933  0.00  0.00     0.078 C 
ENDROOT
BRANCH   1   8
ATOM      8  C1  UNL d   1       1.455  -0.799  -0.653  0.00  0.00     0.053 C 
ATOM      9  C   UNL d   1       1.098  -2.109  -1.339  0.00  0.00     0.018 C 
ENDBRANCH   1   8
TORSDOF 1
ENDMDL
