MODEL 1
REMARK minimizedAffinity -4.70831585
REMARK minimizedRMSD -1
REMARK  1 active torsions:
REMARK  status: ('A' for Active; 'I' for Inactive)
REMARK    1  A    between atoms: C1_2  and  C2_3 
ROOT
ATOM      1  C2  UNL d   1      -0.767   0.844   0.577  0.00  0.00    -0.076 A 
ATOM      2  C3  UNL d   1      -0.212   1.109  -0.687  0.00  0.00     0.004 A 
ATOM      3  C4  UNL d   1       0.913   0.421  -1.135  0.00  0.00    -0.003 A 
ATOM      4  C5  UNL d   1       1.502  -0.546  -0.326  0.00  0.00     0.000 A 
ATOM      5  C6  UNL d   1       0.954  -0.834   0.923  0.00  0.00     0.000 A 
ATOM      6  C7  UNL d   1      -0.190  -0.160   1.383  0.00  0.00    -0.073 A 
ATOM      7  C8  UNL d   1      -0.735  -0.507   2.741  0.00  0.00     0.078 C 
ENDROOT
BRANCH   1   8
ATOM      8  C1  UNL d   1      -1.973   1.642   1.021  0.00  0.00     0.053 C 
ATOM      9  C   UNL d   1      -3.112   1.583   0.016  0.00  0.00     0.018 C 
ENDBRANCH   1   8
TORSDOF 1
ENDMDL
