MODEL 1
REMARK minimizedAffinity -4.63064575
REMARK minimizedRMSD -1
REMARK  1 active torsions:
REMARK  status: ('A' for Active; 'I' for Inactive)
REMARK    1  A    between atoms: C1_2  and  C2_3 
ROOT
ATOM      1  C2  UNL d   1      -0.266   0.208   0.216  0.00  0.00    -0.076 A 
ATOM      2  C3  UNL d   1      -0.646   1.333  -0.536  0.00  0.00     0.004 A 
ATOM      3  C4  UNL d   1      -1.623   2.211  -0.068  0.00  0.00    -0.003 A 
ATOM      4  C5  UNL d   1      -2.234   1.979   1.159  0.00  0.00     0.000 A 
ATOM      5  C6  UNL d   1      -1.856   0.877   1.926  0.00  0.00     0.000 A 
ATOM      6  C7  UNL d   1      -0.862  -0.009   1.477  0.00  0.00    -0.073 A 
ATOM      7  C8  UNL d   1      -0.498  -1.184   2.342  0.00  0.00     0.078 C 
ENDROOT
BRANCH   1   8
ATOM      8  C1  UNL d   1       0.779  -0.725  -0.354  0.00  0.00     0.053 C 
ATOM      9  C   UNL d   1       0.198  -1.707  -1.359  0.00  0.00     0.018 C 
ENDBRANCH   1   8
TORSDOF 1
ENDMDL
