MODEL 1
REMARK minimizedAffinity -3.34965062
REMARK minimizedRMSD -1
REMARK  1 active torsions:
REMARK  status: ('A' for Active; 'I' for Inactive)
REMARK    1  A    between atoms: C1_2  and  C2_3 
ROOT
ATOM      1  C2  UNL d   1       0.578  -2.030  -1.461  0.00  0.00    -0.076 A 
ATOM      2  C3  UNL d   1      -0.263  -1.708  -2.541  0.00  0.00     0.004 A 
ATOM      3  C4  UNL d   1      -0.584  -2.658  -3.509  0.00  0.00    -0.003 A 
ATOM      4  C5  UNL d   1      -0.070  -3.946  -3.413  0.00  0.00     0.000 A 
ATOM      5  C6  UNL d   1       0.752  -4.288  -2.339  0.00  0.00     0.000 A 
ATOM      6  C7  UNL d   1       1.072  -3.347  -1.346  0.00  0.00    -0.073 A 
ATOM      7  C8  UNL d   1       1.968  -3.769  -0.213  0.00  0.00     0.078 C 
ENDROOT
BRANCH   1   8
ATOM      8  C1  UNL d   1       0.913  -0.951  -0.457  0.00  0.00     0.053 C 
ATOM      9  C   UNL d   1      -0.320  -0.207   0.032  0.00  0.00     0.018 C 
ENDBRANCH   1   8
TORSDOF 1
ENDMDL
