MODEL 1
REMARK minimizedAffinity -3.7063756
REMARK minimizedRMSD -1
REMARK  1 active torsions:
REMARK  status: ('A' for Active; 'I' for Inactive)
REMARK    1  A    between atoms: C1_2  and  C2_3 
ROOT
ATOM      1  C2  UNL d   1      -0.983   1.075   0.211  0.00  0.00    -0.076 A 
ATOM      2  C3  UNL d   1      -0.409   1.869  -0.797  0.00  0.00     0.004 A 
ATOM      3  C4  UNL d   1       0.677   1.410  -1.540  0.00  0.00    -0.003 A 
ATOM      4  C5  UNL d   1       1.207   0.150  -1.288  0.00  0.00     0.000 A 
ATOM      5  C6  UNL d   1       0.638  -0.658  -0.304  0.00  0.00     0.000 A 
ATOM      6  C7  UNL d   1      -0.467  -0.217   0.443  0.00  0.00    -0.073 A 
ATOM      7  C8  UNL d   1      -1.037  -1.128   1.496  0.00  0.00     0.078 C 
ENDROOT
BRANCH   1   8
ATOM      8  C1  UNL d   1      -2.143   1.637   1.002  0.00  0.00     0.053 C 
ATOM      9  C   UNL d   1      -1.700   2.282   2.306  0.00  0.00     0.018 C 
ENDBRANCH   1   8
TORSDOF 1
ENDMDL
