MODEL 1
REMARK minimizedAffinity -0.617592752
REMARK minimizedRMSD -1
REMARK  1 active torsions:
REMARK  status: ('A' for Active; 'I' for Inactive)
REMARK    1  A    between atoms: C1_2  and  C2_3 
ROOT
ATOM      1  C2  UNL d   1      -0.568   0.927   0.376  0.00  0.00    -0.076 A 
ATOM      2  C3  UNL d   1      -0.251  -0.282   1.019  0.00  0.00     0.004 A 
ATOM      3  C4  UNL d   1       0.669  -1.170   0.464  0.00  0.00    -0.003 A 
ATOM      4  C5  UNL d   1       1.288  -0.863  -0.742  0.00  0.00     0.000 A 
ATOM      5  C6  UNL d   1       0.999   0.340  -1.385  0.00  0.00     0.000 A 
ATOM      6  C7  UNL d   1       0.086   1.254  -0.831  0.00  0.00    -0.073 A 
ATOM      7  C8  UNL d   1      -0.193   2.534  -1.570  0.00  0.00     0.078 C 
ENDROOT
BRANCH   1   8
ATOM      8  C1  UNL d   1      -1.594   1.838   1.012  0.00  0.00     0.053 C 
ATOM      9  C   UNL d   1      -1.253   2.184   2.453  0.00  0.00     0.018 C 
ENDBRANCH   1   8
TORSDOF 1
ENDMDL
