MODEL 1
REMARK minimizedAffinity -0.491257727
REMARK minimizedRMSD -1
REMARK  1 active torsions:
REMARK  status: ('A' for Active; 'I' for Inactive)
REMARK    1  A    between atoms: C1_2  and  C2_3 
ROOT
ATOM      1  C2  UNL d   1      -0.364   0.884   0.419  0.00  0.00    -0.076 A 
ATOM      2  C3  UNL d   1      -0.060  -0.352   1.016  0.00  0.00     0.004 A 
ATOM      3  C4  UNL d   1       0.775  -1.269   0.381  0.00  0.00    -0.003 A 
ATOM      4  C5  UNL d   1       1.320  -0.965  -0.862  0.00  0.00     0.000 A 
ATOM      5  C6  UNL d   1       1.043   0.264  -1.461  0.00  0.00     0.000 A 
ATOM      6  C7  UNL d   1       0.216   1.206  -0.826  0.00  0.00    -0.073 A 
ATOM      7  C8  UNL d   1      -0.054   2.513  -1.520  0.00  0.00     0.078 C 
ENDROOT
BRANCH   1   8
ATOM      8  C1  UNL d   1      -1.298   1.828   1.144  0.00  0.00     0.053 C 
ATOM      9  C   UNL d   1      -0.910   2.027   2.600  0.00  0.00     0.018 C 
ENDBRANCH   1   8
TORSDOF 1
ENDMDL
