MODEL 1
REMARK minimizedAffinity -4.89951563
REMARK minimizedRMSD -1
REMARK  1 active torsions:
REMARK  status: ('A' for Active; 'I' for Inactive)
REMARK    1  A    between atoms: C1_2  and  C2_3 
ROOT
ATOM      1  C2  UNL d   1       0.093   0.499   0.033  0.00  0.00    -0.076 A 
ATOM      2  C3  UNL d   1      -0.362  -0.161   1.188  0.00  0.00     0.004 A 
ATOM      3  C4  UNL d   1      -1.360   0.395   1.986  0.00  0.00    -0.003 A 
ATOM      4  C5  UNL d   1      -1.920   1.620   1.642  0.00  0.00     0.000 A 
ATOM      5  C6  UNL d   1      -1.494   2.280   0.490  0.00  0.00     0.000 A 
ATOM      6  C7  UNL d   1      -0.500   1.726  -0.334  0.00  0.00    -0.073 A 
ATOM      7  C8  UNL d   1      -0.073   2.484  -1.561  0.00  0.00     0.078 C 
ENDROOT
BRANCH   1   8
ATOM      8  C1  UNL d   1       1.198  -0.139  -0.779  0.00  0.00     0.053 C 
ATOM      9  C   UNL d   1       0.820  -1.521  -1.291  0.00  0.00     0.018 C 
ENDBRANCH   1   8
TORSDOF 1
ENDMDL
