MODEL 1
REMARK minimizedAffinity -3.82476211
REMARK minimizedRMSD -1
REMARK  1 active torsions:
REMARK  status: ('A' for Active; 'I' for Inactive)
REMARK    1  A    between atoms: C1_2  and  C2_3 
ROOT
ATOM      1  C2  UNL d   1      -0.341   1.128  -0.252  0.00  0.00    -0.076 A 
ATOM      2  C3  UNL d   1       0.703   0.232  -0.540  0.00  0.00     0.004 A 
ATOM      3  C4  UNL d   1       0.936  -0.881   0.266  0.00  0.00    -0.003 A 
ATOM      4  C5  UNL d   1       0.128  -1.117   1.372  0.00  0.00     0.000 A 
ATOM      5  C6  UNL d   1      -0.924  -0.248   1.663  0.00  0.00     0.000 A 
ATOM      6  C7  UNL d   1      -1.182   0.870   0.851  0.00  0.00    -0.073 A 
ATOM      7  C8  UNL d   1      -2.326   1.777   1.215  0.00  0.00     0.078 C 
ENDROOT
BRANCH   1   8
ATOM      8  C1  UNL d   1      -0.528   2.333  -1.146  0.00  0.00     0.053 C 
ATOM      9  C   UNL d   1       0.772   2.791  -1.788  0.00  0.00     0.018 C 
ENDBRANCH   1   8
TORSDOF 1
ENDMDL
