MODEL 1
REMARK minimizedAffinity -4.96770525
REMARK minimizedRMSD -1
REMARK  1 active torsions:
REMARK  status: ('A' for Active; 'I' for Inactive)
REMARK    1  A    between atoms: C1_2  and  C2_3 
ROOT
ATOM      1  C2  UNL d   1       0.205   0.395   0.054  0.00  0.00    -0.076 A 
ATOM      2  C3  UNL d   1      -0.217  -0.421   1.119  0.00  0.00     0.004 A 
ATOM      3  C4  UNL d   1      -1.267  -0.031   1.948  0.00  0.00    -0.003 A 
ATOM      4  C5  UNL d   1      -1.913   1.179   1.726  0.00  0.00     0.000 A 
ATOM      5  C6  UNL d   1      -1.520   1.993   0.664  0.00  0.00     0.000 A 
ATOM      6  C7  UNL d   1      -0.474   1.607  -0.192  0.00  0.00    -0.073 A 
ATOM      7  C8  UNL d   1      -0.087   2.526  -1.318  0.00  0.00     0.078 C 
ENDROOT
BRANCH   1   8
ATOM      8  C1  UNL d   1       1.367  -0.067  -0.795  0.00  0.00     0.053 C 
ATOM      9  C   UNL d   1       1.135  -1.441  -1.404  0.00  0.00     0.018 C 
ENDBRANCH   1   8
TORSDOF 1
ENDMDL
