MODEL 1
REMARK minimizedAffinity -5.73145628
REMARK minimizedRMSD -1
REMARK  1 active torsions:
REMARK  status: ('A' for Active; 'I' for Inactive)
REMARK    1  A    between atoms: C1_2  and  C2_3 
ROOT
ATOM      1  C2  UNL d   1      -0.023   0.120   0.170  0.00  0.00    -0.076 A 
ATOM      2  C3  UNL d   1      -0.476   1.182  -0.632  0.00  0.00     0.004 A 
ATOM      3  C4  UNL d   1      -1.199   2.239  -0.081  0.00  0.00    -0.003 A 
ATOM      4  C5  UNL d   1      -1.479   2.251   1.281  0.00  0.00     0.000 A 
ATOM      5  C6  UNL d   1      -1.022   1.215   2.094  0.00  0.00     0.000 A 
ATOM      6  C7  UNL d   1      -0.278   0.150   1.557  0.00  0.00    -0.073 A 
ATOM      7  C8  UNL d   1       0.185  -0.945   2.479  0.00  0.00     0.078 C 
ENDROOT
BRANCH   1   8
ATOM      8  C1  UNL d   1       0.733  -1.012  -0.488  0.00  0.00     0.053 C 
ATOM      9  C   UNL d   1      -0.038  -1.634  -1.643  0.00  0.00     0.018 C 
ENDBRANCH   1   8
TORSDOF 1
ENDMDL
