MODEL 1
REMARK minimizedAffinity -6.64934874
REMARK minimizedRMSD -1
REMARK  1 active torsions:
REMARK  status: ('A' for Active; 'I' for Inactive)
REMARK    1  A    between atoms: C1_2  and  C2_3 
ROOT
ATOM      1  C2  UNL d   1       0.195   1.165  -0.038  0.00  0.00    -0.076 A 
ATOM      2  C3  UNL d   1      -0.616   0.449   0.860  0.00  0.00     0.004 A 
ATOM      3  C4  UNL d   1      -1.742   1.036   1.434  0.00  0.00    -0.003 A 
ATOM      4  C5  UNL d   1      -2.076   2.349   1.119  0.00  0.00     0.000 A 
ATOM      5  C6  UNL d   1      -1.293   3.068   0.216  0.00  0.00     0.000 A 
ATOM      6  C7  UNL d   1      -0.164   2.485  -0.384  0.00  0.00    -0.073 A 
ATOM      7  C8  UNL d   1       0.648   3.309  -1.346  0.00  0.00     0.078 C 
ENDROOT
BRANCH   1   8
ATOM      8  C1  UNL d   1       1.419   0.485  -0.609  0.00  0.00     0.053 C 
ATOM      9  C   UNL d   1       1.202  -1.001  -0.848  0.00  0.00     0.018 C 
ENDBRANCH   1   8
TORSDOF 1
ENDMDL
