MODEL 1
REMARK minimizedAffinity -4.81909752
REMARK minimizedRMSD -1
REMARK  1 active torsions:
REMARK  status: ('A' for Active; 'I' for Inactive)
REMARK    1  A    between atoms: C1_2  and  C2_3 
ROOT
ATOM      1  C2  UNL d   1       0.101  -0.054   0.044  0.00  0.00    -0.076 A 
ATOM      2  C3  UNL d   1      -0.401   1.045  -0.673  0.00  0.00     0.004 A 
ATOM      3  C4  UNL d   1      -1.216   1.993  -0.056  0.00  0.00    -0.003 A 
ATOM      4  C5  UNL d   1      -1.541   1.856   1.289  0.00  0.00     0.000 A 
ATOM      5  C6  UNL d   1      -1.038   0.781   2.020  0.00  0.00     0.000 A 
ATOM      6  C7  UNL d   1      -0.201  -0.174   1.417  0.00  0.00    -0.073 A 
ATOM      7  C8  UNL d   1       0.309  -1.317   2.252  0.00  0.00     0.078 C 
ENDROOT
BRANCH   1   8
ATOM      8  C1  UNL d   1       0.958  -1.064  -0.685  0.00  0.00     0.053 C 
ATOM      9  C   UNL d   1       0.159  -1.904  -1.670  0.00  0.00     0.018 C 
ENDBRANCH   1   8
TORSDOF 1
ENDMDL
