MODEL 1
REMARK minimizedAffinity -5.94200277
REMARK minimizedRMSD -1
REMARK  1 active torsions:
REMARK  status: ('A' for Active; 'I' for Inactive)
REMARK    1  A    between atoms: C1_2  and  C2_3 
ROOT
ATOM      1  C2  UNL d   1      -0.984   1.634  -0.848  0.00  0.00    -0.076 A 
ATOM      2  C3  UNL d   1      -1.940   2.653  -0.693  0.00  0.00     0.004 A 
ATOM      3  C4  UNL d   1      -1.693   3.944  -1.155  0.00  0.00    -0.003 A 
ATOM      4  C5  UNL d   1      -0.487   4.238  -1.781  0.00  0.00     0.000 A 
ATOM      5  C6  UNL d   1       0.466   3.235  -1.959  0.00  0.00     0.000 A 
ATOM      6  C7  UNL d   1       0.226   1.924  -1.513  0.00  0.00    -0.073 A 
ATOM      7  C8  UNL d   1       1.291   0.883  -1.726  0.00  0.00     0.078 C 
ENDROOT
BRANCH   1   8
ATOM      8  C1  UNL d   1      -1.296   0.259  -0.302  0.00  0.00     0.053 C 
ATOM      9  C   UNL d   1      -0.939   0.121   1.170  0.00  0.00     0.018 C 
ENDBRANCH   1   8
TORSDOF 1
ENDMDL
