MODEL 1
REMARK minimizedAffinity 0.902726471
REMARK minimizedRMSD -1
REMARK  0 active torsions:
REMARK  status: ('A' for Active; 'I' for Inactive)
ROOT
ATOM      1  C   UNL d   1      -6.000  -3.258  -2.368  0.00  0.00     0.023 A 
ATOM      2  C1  UNL d   1      -5.509  -4.536  -2.104  0.00  0.00     0.003 A 
ATOM      3  C2  UNL d   1      -5.015  -5.325  -3.145  0.00  0.00     0.048 A 
ATOM      4  C3  UNL d   1      -5.014  -4.828  -4.448  0.00  0.00     0.023 A 
ATOM      5  C4  UNL d   1      -5.503  -3.548  -4.717  0.00  0.00     0.048 A 
ATOM      6  C5  UNL d   1      -5.996  -2.764  -3.673  0.00  0.00     0.003 A 
ATOM      7  I   UNL d   1      -4.278  -5.999  -6.000  0.00  0.00    -0.146 I 
ENDROOT
TORSDOF 0
ENDMDL
