MODEL 1
REMARK minimizedAffinity 0.767436445
REMARK minimizedRMSD -1
REMARK  0 active torsions:
REMARK  status: ('A' for Active; 'I' for Inactive)
ROOT
ATOM      1  C   UNL d   1      -4.575  -4.163  -5.998  0.00  0.00     0.023 A 
ATOM      2  C1  UNL d   1      -5.064  -5.467  -5.920  0.00  0.00     0.003 A 
ATOM      3  C2  UNL d   1      -5.473  -5.988  -4.691  0.00  0.00     0.048 A 
ATOM      4  C3  UNL d   1      -5.391  -5.199  -3.544  0.00  0.00     0.023 A 
ATOM      5  C4  UNL d   1      -4.904  -3.894  -3.617  0.00  0.00     0.048 A 
ATOM      6  C5  UNL d   1      -4.495  -3.377  -4.849  0.00  0.00     0.003 A 
ATOM      7  I   UNL d   1      -5.999  -5.973  -1.713  0.00  0.00    -0.146 I 
ENDROOT
TORSDOF 0
ENDMDL
