MODEL 1
REMARK minimizedAffinity 2.49231553
REMARK minimizedRMSD -1
REMARK  0 active torsions:
REMARK  status: ('A' for Active; 'I' for Inactive)
ROOT
ATOM      1  C   UNL d   1       1.245  -1.019   3.011  0.00  0.00     0.023 A 
ATOM      2  C1  UNL d   1       1.466  -1.472   1.711  0.00  0.00     0.003 A 
ATOM      3  C2  UNL d   1       1.780  -2.813   1.481  0.00  0.00     0.048 A 
ATOM      4  C3  UNL d   1       1.870  -3.696   2.556  0.00  0.00     0.023 A 
ATOM      5  C4  UNL d   1       1.649  -3.247   3.859  0.00  0.00     0.048 A 
ATOM      6  C5  UNL d   1       1.336  -1.905   4.084  0.00  0.00     0.003 A 
ATOM      7  I   UNL d   1       2.336  -5.693   2.217  0.00  0.00    -0.146 I 
ENDROOT
TORSDOF 0
ENDMDL
