MODEL 1
REMARK minimizedAffinity 10.2103014
REMARK minimizedRMSD -1
REMARK  0 active torsions:
REMARK  status: ('A' for Active; 'I' for Inactive)
ROOT
ATOM      1  C   UNL d   1      -4.844  -3.805  -1.614  0.00  0.00     0.023 A 
ATOM      2  C1  UNL d   1      -6.000  -3.793  -2.395  0.00  0.00     0.003 A 
ATOM      3  C2  UNL d   1      -6.000  -4.396  -3.654  0.00  0.00     0.048 A 
ATOM      4  C3  UNL d   1      -4.841  -5.011  -4.126  0.00  0.00     0.023 A 
ATOM      5  C4  UNL d   1      -3.682  -5.027  -3.348  0.00  0.00     0.048 A 
ATOM      6  C5  UNL d   1      -3.686  -4.421  -2.090  0.00  0.00     0.003 A 
ATOM      7  I   UNL d   1      -4.838  -5.910  -6.000  0.00  0.00    -0.146 I 
ENDROOT
TORSDOF 0
ENDMDL
