MODEL 1
REMARK minimizedAffinity 2.16335797
REMARK minimizedRMSD -1
REMARK  0 active torsions:
REMARK  status: ('A' for Active; 'I' for Inactive)
ROOT
ATOM      1  C   UNL d   1      -3.761  -5.131  -6.000  0.00  0.00     0.023 A 
ATOM      2  C1  UNL d   1      -4.622  -4.034  -5.948  0.00  0.00     0.003 A 
ATOM      3  C2  UNL d   1      -5.265  -3.705  -4.754  0.00  0.00     0.048 A 
ATOM      4  C3  UNL d   1      -5.043  -4.476  -3.613  0.00  0.00     0.023 A 
ATOM      5  C4  UNL d   1      -4.182  -5.574  -3.659  0.00  0.00     0.048 A 
ATOM      6  C5  UNL d   1      -3.541  -5.900  -4.857  0.00  0.00     0.003 A 
ATOM      7  I   UNL d   1      -5.999  -3.988  -1.834  0.00  0.00    -0.146 I 
ENDROOT
TORSDOF 0
ENDMDL
