MODEL 1
REMARK minimizedAffinity 1.90152526
REMARK minimizedRMSD -1
REMARK  0 active torsions:
REMARK  status: ('A' for Active; 'I' for Inactive)
ROOT
ATOM      1  C   UNL d   1      -4.516  -5.938  -5.954  0.00  0.00     0.023 A 
ATOM      2  C1  UNL d   1      -3.740  -6.000  -4.797  0.00  0.00     0.003 A 
ATOM      3  C2  UNL d   1      -4.083  -5.231  -3.683  0.00  0.00     0.048 A 
ATOM      4  C3  UNL d   1      -5.203  -4.402  -3.733  0.00  0.00     0.023 A 
ATOM      5  C4  UNL d   1      -5.983  -4.338  -4.888  0.00  0.00     0.048 A 
ATOM      6  C5  UNL d   1      -5.636  -5.108  -6.000  0.00  0.00     0.003 A 
ATOM      7  I   UNL d   1      -5.716  -3.257  -2.076  0.00  0.00    -0.146 I 
ENDROOT
TORSDOF 0
ENDMDL
