MODEL 1
REMARK minimizedAffinity 1.96792424
REMARK minimizedRMSD -1
REMARK  0 active torsions:
REMARK  status: ('A' for Active; 'I' for Inactive)
ROOT
ATOM      1  C   UNL d   1      -5.289  -4.121  -6.000  0.00  0.00     0.023 A 
ATOM      2  C1  UNL d   1      -5.262  -3.202  -4.950  0.00  0.00     0.003 A 
ATOM      3  C2  UNL d   1      -5.034  -3.639  -3.644  0.00  0.00     0.048 A 
ATOM      4  C3  UNL d   1      -4.831  -4.996  -3.394  0.00  0.00     0.023 A 
ATOM      5  C4  UNL d   1      -4.856  -5.919  -4.442  0.00  0.00     0.048 A 
ATOM      6  C5  UNL d   1      -5.086  -5.477  -5.746  0.00  0.00     0.003 A 
ATOM      7  I   UNL d   1      -4.491  -5.650  -1.451  0.00  0.00    -0.146 I 
ENDROOT
TORSDOF 0
ENDMDL
