MODEL 1
REMARK minimizedAffinity 6.78241301
REMARK minimizedRMSD -1
REMARK  0 active torsions:
REMARK  status: ('A' for Active; 'I' for Inactive)
ROOT
ATOM      1  C   UNL d   1       4.488  -5.996  -5.901  0.00  0.00     0.023 A 
ATOM      2  C1  UNL d   1       3.251  -5.971  -5.257  0.00  0.00     0.003 A 
ATOM      3  C2  UNL d   1       3.189  -5.948  -3.862  0.00  0.00     0.048 A 
ATOM      4  C3  UNL d   1       4.367  -5.950  -3.117  0.00  0.00     0.023 A 
ATOM      5  C4  UNL d   1       5.608  -5.974  -3.757  0.00  0.00     0.048 A 
ATOM      6  C5  UNL d   1       5.665  -5.998  -5.152  0.00  0.00     0.003 A 
ATOM      7  I   UNL d   1       4.277  -5.916  -1.041  0.00  0.00    -0.146 I 
ENDROOT
TORSDOF 0
ENDMDL
