MODEL 1
REMARK minimizedAffinity 9.56537819
REMARK minimizedRMSD -1
REMARK  1 active torsions:
REMARK  status: ('A' for Active; 'I' for Inactive)
REMARK    1  A    between atoms: C3_4  and  O_7 
ROOT
ATOM      1  C   UNL d   1       5.305   5.999   2.910  0.00  0.00    -0.033 A 
ATOM      2  C1  UNL d   1       4.625   4.936   2.313  0.00  0.00     0.039 A 
ATOM      3  C2  UNL d   1       4.634   3.675   2.911  0.00  0.00    -0.080 A 
ATOM      4  C3  UNL d   1       5.323   3.490   4.106  0.00  0.00     0.150 A 
ATOM      5  C4  UNL d   1       5.999   4.545   4.710  0.00  0.00    -0.007 A 
ATOM      6  C5  UNL d   1       5.991   5.804   4.110  0.00  0.00     0.039 A 
ENDROOT
BRANCH   4   7
ATOM      7  O   UNL d   1       5.364   2.276   4.726  0.00  0.00    -0.526 OA
ATOM      8  H5  UNL d   1       4.877   1.636   4.180  0.00  0.00     0.418 HD
ENDBRANCH   4   7
TORSDOF 1
ENDMDL
