MODEL 1
REMARK minimizedAffinity 8.33649254
REMARK minimizedRMSD -1
REMARK  1 active torsions:
REMARK  status: ('A' for Active; 'I' for Inactive)
REMARK    1  A    between atoms: C3_4  and  O_7 
ROOT
ATOM      1  C   UNL d   1       4.276  -1.778   5.669  0.00  0.00    -0.033 A 
ATOM      2  C1  UNL d   1       3.294  -2.769   5.611  0.00  0.00     0.039 A 
ATOM      3  C2  UNL d   1       3.650  -4.115   5.722  0.00  0.00    -0.080 A 
ATOM      4  C3  UNL d   1       4.989  -4.456   5.891  0.00  0.00     0.150 A 
ATOM      5  C4  UNL d   1       5.972  -3.473   5.953  0.00  0.00    -0.007 A 
ATOM      6  C5  UNL d   1       5.615  -2.130   5.841  0.00  0.00     0.039 A 
ENDROOT
BRANCH   4   7
ATOM      7  O   UNL d   1       5.386  -5.755   6.000  0.00  0.00    -0.526 OA
ATOM      8  H5  UNL d   1       4.603  -6.324   5.910  0.00  0.00     0.418 HD
ENDBRANCH   4   7
TORSDOF 1
ENDMDL
