MODEL 1
REMARK minimizedAffinity 5.89110518
REMARK minimizedRMSD -1
REMARK  1 active torsions:
REMARK  status: ('A' for Active; 'I' for Inactive)
REMARK    1  A    between atoms: C3_4  and  O_7 
ROOT
ATOM      1  C   UNL d   1       0.068  -1.468  -5.241  0.00  0.00    -0.033 A 
ATOM      2  C1  UNL d   1       1.125  -2.013  -5.975  0.00  0.00     0.039 A 
ATOM      3  C2  UNL d   1       2.364  -1.370  -5.999  0.00  0.00    -0.080 A 
ATOM      4  C3  UNL d   1       2.534  -0.187  -5.285  0.00  0.00     0.150 A 
ATOM      5  C4  UNL d   1       1.488   0.359  -4.550  0.00  0.00    -0.007 A 
ATOM      6  C5  UNL d   1       0.250  -0.283  -4.528  0.00  0.00     0.039 A 
ENDROOT
BRANCH   4   7
ATOM      7  O   UNL d   1       3.724   0.478  -5.283  0.00  0.00    -0.526 OA
ATOM      8  H5  UNL d   1       4.346  -0.000  -5.856  0.00  0.00     0.418 HD
ENDBRANCH   4   7
TORSDOF 1
ENDMDL
