MODEL 1
REMARK minimizedAffinity -0.106493771
REMARK minimizedRMSD -1
REMARK  1 active torsions:
REMARK  status: ('A' for Active; 'I' for Inactive)
REMARK    1  A    between atoms: C3_4  and  O_7 
ROOT
ATOM      1  C   UNL d   1       0.517   1.461   2.721  0.00  0.00    -0.033 A 
ATOM      2  C1  UNL d   1      -0.299   0.357   2.977  0.00  0.00     0.039 A 
ATOM      3  C2  UNL d   1       0.261  -0.833   3.447  0.00  0.00    -0.080 A 
ATOM      4  C3  UNL d   1       1.635  -0.905   3.656  0.00  0.00     0.150 A 
ATOM      5  C4  UNL d   1       2.453   0.192   3.407  0.00  0.00    -0.007 A 
ATOM      6  C5  UNL d   1       1.893   1.379   2.938  0.00  0.00     0.039 A 
ENDROOT
BRANCH   4   7
ATOM      7  O   UNL d   1       2.228  -2.047   4.108  0.00  0.00    -0.526 OA
ATOM      8  H5  UNL d   1       1.544  -2.729   4.209  0.00  0.00     0.418 HD
ENDBRANCH   4   7
TORSDOF 1
ENDMDL
