MODEL 1
REMARK minimizedAffinity 7.86622381
REMARK minimizedRMSD -1
REMARK  1 active torsions:
REMARK  status: ('A' for Active; 'I' for Inactive)
REMARK    1  A    between atoms: C3_4  and  O_7 
ROOT
ATOM      1  C   UNL d   1       0.750  -0.360  -5.745  0.00  0.00    -0.033 A 
ATOM      2  C1  UNL d   1       2.038   0.174  -5.663  0.00  0.00     0.039 A 
ATOM      3  C2  UNL d   1       3.119  -0.651  -5.348  0.00  0.00    -0.080 A 
ATOM      4  C3  UNL d   1       2.900  -2.007  -5.118  0.00  0.00     0.150 A 
ATOM      5  C4  UNL d   1       1.621  -2.546  -5.202  0.00  0.00    -0.007 A 
ATOM      6  C5  UNL d   1       0.542  -1.721  -5.516  0.00  0.00     0.039 A 
ENDROOT
BRANCH   4   7
ATOM      7  O   UNL d   1       3.923  -2.850  -4.802  0.00  0.00    -0.526 OA
ATOM      8  H5  UNL d   1       4.744  -2.333  -4.752  0.00  0.00     0.418 HD
ENDBRANCH   4   7
TORSDOF 1
ENDMDL
