MODEL 1
REMARK minimizedAffinity 7.16261482
REMARK minimizedRMSD -1
REMARK  1 active torsions:
REMARK  status: ('A' for Active; 'I' for Inactive)
REMARK    1  A    between atoms: C3_4  and  O_7 
ROOT
ATOM      1  C   UNL d   1      -0.778  -0.653   3.075  0.00  0.00    -0.033 A 
ATOM      2  C1  UNL d   1       0.232  -1.549   3.434  0.00  0.00     0.039 A 
ATOM      3  C2  UNL d   1       1.525  -1.083   3.680  0.00  0.00    -0.080 A 
ATOM      4  C3  UNL d   1       1.795   0.278   3.566  0.00  0.00     0.150 A 
ATOM      5  C4  UNL d   1       0.793   1.176   3.212  0.00  0.00    -0.007 A 
ATOM      6  C5  UNL d   1      -0.498   0.709   2.966  0.00  0.00     0.039 A 
ENDROOT
BRANCH   4   7
ATOM      7  O   UNL d   1       3.043   0.778   3.791  0.00  0.00    -0.526 OA
ATOM      8  H5  UNL d   1       3.638   0.039   3.998  0.00  0.00     0.418 HD
ENDBRANCH   4   7
TORSDOF 1
ENDMDL
