MODEL 1
REMARK minimizedAffinity 11.1752977
REMARK minimizedRMSD -1
REMARK  1 active torsions:
REMARK  status: ('A' for Active; 'I' for Inactive)
REMARK    1  A    between atoms: C3_4  and  O_7 
ROOT
ATOM      1  C   UNL d   1       0.396   0.788   2.181  0.00  0.00    -0.033 A 
ATOM      2  C1  UNL d   1      -0.641   0.020   2.715  0.00  0.00     0.039 A 
ATOM      3  C2  UNL d   1      -0.351  -1.103   3.493  0.00  0.00    -0.080 A 
ATOM      4  C3  UNL d   1       0.977  -1.446   3.729  0.00  0.00     0.150 A 
ATOM      5  C4  UNL d   1       2.015  -0.683   3.204  0.00  0.00    -0.007 A 
ATOM      6  C5  UNL d   1       1.724   0.437   2.427  0.00  0.00     0.039 A 
ENDROOT
BRANCH   4   7
ATOM      7  O   UNL d   1       1.309  -2.536   4.478  0.00  0.00    -0.526 OA
ATOM      8  H5  UNL d   1       0.491  -2.983   4.751  0.00  0.00     0.418 HD
ENDBRANCH   4   7
TORSDOF 1
ENDMDL
