MODEL 1
REMARK minimizedAffinity 0.0128966542
REMARK minimizedRMSD -1
REMARK  0 active torsions:
REMARK  status: ('A' for Active; 'I' for Inactive)
ROOT
ATOM      1  C4' PXY d   1      -1.145  -0.375   2.250  0.00  0.00     0.077 C 
ATOM      2  C1' PXY d   1       3.081  -2.926   5.259  0.00  0.00     0.077 C 
ATOM      3  C1  PXY d   1       1.979  -2.246   4.470  0.00  0.00    -0.082 A 
ATOM      4  C2  PXY d   1       0.757  -2.752   4.483  0.00  0.00     0.003 A 
ATOM      5  C3  PXY d   1      -0.244  -2.168   3.750  0.00  0.00     0.003 A 
ATOM      6  C4  PXY d   1      -0.004  -1.023   3.039  0.00  0.00    -0.082 A 
ATOM      7  C5  PXY d   1       1.238  -0.494   3.030  0.00  0.00     0.003 A 
ATOM      8  C6  PXY d   1       2.250  -1.125   3.747  0.00  0.00     0.003 A 
ENDROOT
TORSDOF 0
ENDMDL
