MODEL 1
REMARK minimizedAffinity 2.63879585
REMARK minimizedRMSD -1
REMARK  0 active torsions:
REMARK  status: ('A' for Active; 'I' for Inactive)
ROOT
ATOM      1  C4' PXY d   1       0.452  -1.011   2.862  0.00  0.00     0.077 C 
ATOM      2  C1' PXY d   1      -3.566   0.528  -0.998  0.00  0.00     0.077 C 
ATOM      3  C1  PXY d   1      -2.506   0.135   0.012  0.00  0.00    -0.082 A 
ATOM      4  C2  PXY d   1      -2.333  -1.141   0.317  0.00  0.00     0.003 A 
ATOM      5  C3  PXY d   1      -1.401  -1.510   1.251  0.00  0.00     0.003 A 
ATOM      6  C4  PXY d   1      -0.600  -0.569   1.841  0.00  0.00    -0.082 A 
ATOM      7  C5  PXY d   1      -0.763   0.734   1.527  0.00  0.00     0.003 A 
ATOM      8  C6  PXY d   1      -1.743   1.092   0.606  0.00  0.00     0.003 A 
ENDROOT
TORSDOF 0
ENDMDL
