MODEL 1
REMARK minimizedAffinity 7.35553026
REMARK minimizedRMSD -1
REMARK  0 active torsions:
REMARK  status: ('A' for Active; 'I' for Inactive)
ROOT
ATOM      1  C4' PXY d   1       1.599  -2.708   4.317  0.00  0.00     0.077 C 
ATOM      2  C1' PXY d   1      -0.972   1.000   0.703  0.00  0.00     0.077 C 
ATOM      3  C1  PXY d   1      -0.286   0.030   1.645  0.00  0.00    -0.082 A 
ATOM      4  C2  PXY d   1      -0.994  -0.918   2.237  0.00  0.00     0.003 A 
ATOM      5  C3  PXY d   1      -0.396  -1.784   3.116  0.00  0.00     0.003 A 
ATOM      6  C4  PXY d   1       0.951  -1.712   3.351  0.00  0.00    -0.082 A 
ATOM      7  C5  PXY d   1       1.682  -0.754   2.743  0.00  0.00     0.003 A 
ATOM      8  C6  PXY d   1       1.048   0.141   1.885  0.00  0.00     0.003 A 
ENDROOT
TORSDOF 0
ENDMDL
