MODEL 1
REMARK minimizedAffinity 1.01245201
REMARK minimizedRMSD -1
REMARK  0 active torsions:
REMARK  status: ('A' for Active; 'I' for Inactive)
ROOT
ATOM      1  C4' PXY d   1      -0.808   1.036   1.508  0.00  0.00     0.077 C 
ATOM      2  C1' PXY d   1       2.313  -1.563   5.621  0.00  0.00     0.077 C 
ATOM      3  C1  PXY d   1       1.503  -0.886   4.534  0.00  0.00    -0.082 A 
ATOM      4  C2  PXY d   1       0.751   0.160   4.834  0.00  0.00     0.003 A 
ATOM      5  C3  PXY d   1      -0.013   0.765   3.869  0.00  0.00     0.003 A 
ATOM      6  C4  PXY d   1       0.034   0.327   2.572  0.00  0.00    -0.082 A 
ATOM      7  C5  PXY d   1       0.807  -0.733   2.256  0.00  0.00     0.003 A 
ATOM      8  C6  PXY d   1       1.543  -1.359   3.258  0.00  0.00     0.003 A 
ENDROOT
TORSDOF 0
ENDMDL
