MODEL 1
REMARK minimizedAffinity 5.96019125
REMARK minimizedRMSD -1
REMARK  0 active torsions:
REMARK  status: ('A' for Active; 'I' for Inactive)
ROOT
ATOM      1  C4' PXY d   1       1.557  -1.516   4.677  0.00  0.00     0.077 C 
ATOM      2  C1' PXY d   1      -1.241   0.455   0.019  0.00  0.00     0.077 C 
ATOM      3  C1  PXY d   1      -0.498  -0.067   1.233  0.00  0.00    -0.082 A 
ATOM      4  C2  PXY d   1      -1.157  -0.287   2.359  0.00  0.00     0.003 A 
ATOM      5  C3  PXY d   1      -0.495  -0.729   3.475  0.00  0.00     0.003 A 
ATOM      6  C4  PXY d   1       0.846  -0.998   3.424  0.00  0.00    -0.082 A 
ATOM      7  C5  PXY d   1       1.524  -0.787   2.276  0.00  0.00     0.003 A 
ATOM      8  C6  PXY d   1       0.841  -0.299   1.165  0.00  0.00     0.003 A 
ENDROOT
TORSDOF 0
ENDMDL
