MODEL 1
REMARK minimizedAffinity 4.47023296
REMARK minimizedRMSD -1
REMARK  0 active torsions:
REMARK  status: ('A' for Active; 'I' for Inactive)
ROOT
ATOM      1  C4' PXY d   1       2.082  -2.761   5.072  0.00  0.00     0.077 C 
ATOM      2  C1' PXY d   1      -0.633   0.457   1.111  0.00  0.00     0.077 C 
ATOM      3  C1  PXY d   1       0.090  -0.383   2.145  0.00  0.00    -0.082 A 
ATOM      4  C2  PXY d   1      -0.514  -1.435   2.672  0.00  0.00     0.003 A 
ATOM      5  C3  PXY d   1       0.114  -2.187   3.632  0.00  0.00     0.003 A 
ATOM      6  C4  PXY d   1       1.393  -1.890   4.018  0.00  0.00    -0.082 A 
ATOM      7  C5  PXY d   1       2.021  -0.824   3.476  0.00  0.00     0.003 A 
ATOM      8  C6  PXY d   1       1.351  -0.050   2.534  0.00  0.00     0.003 A 
ENDROOT
TORSDOF 0
ENDMDL
