MODEL 1
REMARK minimizedAffinity 3.55304646
REMARK minimizedRMSD -1
REMARK  0 active torsions:
REMARK  status: ('A' for Active; 'I' for Inactive)
ROOT
ATOM      1  C4' PXY d   1      -2.339   0.212  -0.518  0.00  0.00     0.077 C 
ATOM      2  C1' PXY d   1       0.975  -1.315   3.965  0.00  0.00     0.077 C 
ATOM      3  C1  PXY d   1       0.110  -0.902   2.791  0.00  0.00    -0.082 A 
ATOM      4  C2  PXY d   1      -0.949  -1.628   2.472  0.00  0.00     0.003 A 
ATOM      5  C3  PXY d   1      -1.724  -1.287   1.393  0.00  0.00     0.003 A 
ATOM      6  C4  PXY d   1      -1.442  -0.161   0.666  0.00  0.00    -0.082 A 
ATOM      7  C5  PXY d   1      -0.369   0.590   0.992  0.00  0.00     0.003 A 
ATOM      8  C6  PXY d   1       0.428   0.203   2.065  0.00  0.00     0.003 A 
ENDROOT
TORSDOF 0
ENDMDL
