MODEL 1
REMARK minimizedAffinity 3.20048428
REMARK minimizedRMSD -1
REMARK  0 active torsions:
REMARK  status: ('A' for Active; 'I' for Inactive)
ROOT
ATOM      1  C4' PXY d   1      -1.158   0.567   1.257  0.00  0.00     0.077 C 
ATOM      2  C1' PXY d   1       2.863  -1.810   4.663  0.00  0.00     0.077 C 
ATOM      3  C1  PXY d   1       1.817  -1.185   3.760  0.00  0.00    -0.082 A 
ATOM      4  C2  PXY d   1       0.752  -0.610   4.294  0.00  0.00     0.003 A 
ATOM      5  C3  PXY d   1      -0.219  -0.068   3.492  0.00  0.00     0.003 A 
ATOM      6  C4  PXY d   1      -0.072  -0.068   2.130  0.00  0.00    -0.082 A 
ATOM      7  C5  PXY d   1       1.017  -0.644   1.579  0.00  0.00     0.003 A 
ATOM      8  C6  PXY d   1       1.971  -1.225   2.409  0.00  0.00     0.003 A 
ENDROOT
TORSDOF 0
ENDMDL
