MODEL 1
REMARK minimizedAffinity -0.976915658
REMARK minimizedRMSD -1
REMARK  0 active torsions:
REMARK  status: ('A' for Active; 'I' for Inactive)
ROOT
ATOM      1  C   UNL d   1       1.402  -0.605   1.193  0.00  0.00     0.124 A 
ATOM      2  C1  UNL d   1       0.318  -1.446   0.981  0.00  0.00     0.062 A 
ATOM      3  C2  UNL d   1      -0.774  -1.006   0.239  0.00  0.00     0.162 A 
ATOM      4  C3  UNL d   1      -0.787   0.282  -0.298  0.00  0.00    -0.034 A 
ATOM      5  C4  UNL d   1       0.306   1.122  -0.079  0.00  0.00     0.162 A 
ATOM      6  C5  UNL d   1       1.395   0.677   0.663  0.00  0.00     0.062 A 
ATOM      7  F   UNL d   1       2.442   1.490   0.867  0.00  0.00    -0.097 F 
ATOM      8  F1  UNL d   1       0.326   2.365  -0.581  0.00  0.00    -0.096 F 
ATOM      9  I   UNL d   1      -2.418   0.944  -1.408  0.00  0.00    -0.060 I 
ATOM     10  F2  UNL d   1      -1.808  -1.839   0.049  0.00  0.00    -0.096 F 
ATOM     11  F3  UNL d   1       0.322  -2.685   1.493  0.00  0.00    -0.097 F 
ATOM     12  F4  UNL d   1       2.451  -1.031   1.909  0.00  0.00    -0.092 F 
ENDROOT
TORSDOF 0
ENDMDL
