MODEL 1
REMARK minimizedAffinity 2.73757052
REMARK minimizedRMSD -1
REMARK  0 active torsions:
REMARK  status: ('A' for Active; 'I' for Inactive)
ROOT
ATOM      1  C   UNL d   1       2.163  -0.234   0.634  0.00  0.00     0.124 A 
ATOM      2  C1  UNL d   1       1.363  -1.308   0.267  0.00  0.00     0.062 A 
ATOM      3  C2  UNL d   1       0.086  -1.087  -0.240  0.00  0.00     0.162 A 
ATOM      4  C3  UNL d   1      -0.400   0.212  -0.383  0.00  0.00    -0.034 A 
ATOM      5  C4  UNL d   1       0.410   1.287  -0.011  0.00  0.00     0.162 A 
ATOM      6  C5  UNL d   1       1.686   1.061   0.495  0.00  0.00     0.062 A 
ATOM      7  F   UNL d   1       2.458   2.099   0.849  0.00  0.00    -0.097 F 
ATOM      8  F1  UNL d   1      -0.026   2.549  -0.136  0.00  0.00    -0.096 F 
ATOM      9  I   UNL d   1      -2.310   0.546  -1.140  0.00  0.00    -0.060 I 
ATOM     10  F2  UNL d   1      -0.665  -2.143  -0.586  0.00  0.00    -0.096 F 
ATOM     11  F3  UNL d   1       1.822  -2.560   0.401  0.00  0.00    -0.097 F 
ATOM     12  F4  UNL d   1       3.392  -0.449   1.122  0.00  0.00    -0.092 F 
ENDROOT
TORSDOF 0
ENDMDL
