MODEL 1
REMARK minimizedAffinity 8.50163269
REMARK minimizedRMSD -1
REMARK  0 active torsions:
REMARK  status: ('A' for Active; 'I' for Inactive)
ROOT
ATOM      1  C   UNL d   1       1.228   0.762  -0.507  0.00  0.00     0.124 A 
ATOM      2  C1  UNL d   1       1.837   1.918  -0.975  0.00  0.00     0.062 A 
ATOM      3  C2  UNL d   1       1.412   3.164  -0.523  0.00  0.00     0.162 A 
ATOM      4  C3  UNL d   1       0.372   3.261   0.402  0.00  0.00    -0.034 A 
ATOM      5  C4  UNL d   1      -0.236   2.093   0.867  0.00  0.00     0.162 A 
ATOM      6  C5  UNL d   1       0.193   0.850   0.413  0.00  0.00     0.062 A 
ATOM      7  F   UNL d   1      -0.397  -0.266   0.865  0.00  0.00    -0.097 F 
ATOM      8  F1  UNL d   1      -1.238   2.150   1.756  0.00  0.00    -0.096 F 
ATOM      9  I   UNL d   1      -0.266   5.122   1.079  0.00  0.00    -0.060 I 
ATOM     10  F2  UNL d   1       2.018   4.265  -0.992  0.00  0.00    -0.096 F 
ATOM     11  F3  UNL d   1       2.837   1.835  -1.864  0.00  0.00    -0.097 F 
ATOM     12  F4  UNL d   1       1.638  -0.436  -0.944  0.00  0.00    -0.092 F 
ENDROOT
TORSDOF 0
ENDMDL
