MODEL 1
REMARK minimizedAffinity 15.4168377
REMARK minimizedRMSD -1
REMARK  0 active torsions:
REMARK  status: ('A' for Active; 'I' for Inactive)
ROOT
ATOM      1  C   UNL d   1       0.762   3.369   0.040  0.00  0.00     0.124 A 
ATOM      2  C1  UNL d   1       0.361   3.155   1.351  0.00  0.00     0.062 A 
ATOM      3  C2  UNL d   1       0.490   1.893   1.925  0.00  0.00     0.162 A 
ATOM      4  C3  UNL d   1       1.023   0.836   1.188  0.00  0.00    -0.034 A 
ATOM      5  C4  UNL d   1       1.423   1.059  -0.130  0.00  0.00     0.162 A 
ATOM      6  C5  UNL d   1       1.292   2.321  -0.699  0.00  0.00     0.062 A 
ATOM      7  F   UNL d   1       1.680   2.527  -1.967  0.00  0.00    -0.097 F 
ATOM      8  F1  UNL d   1       1.940   0.065  -0.867  0.00  0.00    -0.096 F 
ATOM      9  I   UNL d   1       1.217  -1.052   2.043  0.00  0.00    -0.060 I 
ATOM     10  F2  UNL d   1       0.094   1.715   3.194  0.00  0.00    -0.096 F 
ATOM     11  F3  UNL d   1      -0.153   4.165   2.067  0.00  0.00    -0.097 F 
ATOM     12  F4  UNL d   1       0.636   4.584  -0.510  0.00  0.00    -0.092 F 
ENDROOT
TORSDOF 0
ENDMDL
