MODEL 1
REMARK minimizedAffinity 3.22781992
REMARK minimizedRMSD -1
REMARK  0 active torsions:
REMARK  status: ('A' for Active; 'I' for Inactive)
ROOT
ATOM      1  C   UNL d   1       1.264   0.064   1.201  0.00  0.00     0.124 A 
ATOM      2  C1  UNL d   1       0.132  -0.724   1.356  0.00  0.00     0.062 A 
ATOM      3  C2  UNL d   1      -0.875  -0.700   0.395  0.00  0.00     0.162 A 
ATOM      4  C3  UNL d   1      -0.753   0.114  -0.731  0.00  0.00    -0.034 A 
ATOM      5  C4  UNL d   1       0.389   0.903  -0.880  0.00  0.00     0.162 A 
ATOM      6  C5  UNL d   1       1.392   0.876   0.083  0.00  0.00     0.062 A 
ATOM      7  F   UNL d   1       2.485   1.637  -0.069  0.00  0.00    -0.097 F 
ATOM      8  F1  UNL d   1       0.538   1.697  -1.951  0.00  0.00    -0.096 F 
ATOM      9  I   UNL d   1      -2.256   0.152  -2.171  0.00  0.00    -0.060 I 
ATOM     10  F2  UNL d   1      -1.958  -1.471   0.572  0.00  0.00    -0.096 F 
ATOM     11  F3  UNL d   1       0.006  -1.509   2.436  0.00  0.00    -0.097 F 
ATOM     12  F4  UNL d   1       2.231   0.040   2.128  0.00  0.00    -0.092 F 
ENDROOT
TORSDOF 0
ENDMDL
