MODEL 1
REMARK minimizedAffinity -3.90658236
REMARK minimizedRMSD -1
REMARK  0 active torsions:
REMARK  status: ('A' for Active; 'I' for Inactive)
ROOT
ATOM      1  C   UNL d   1       2.706  -0.981   1.485  0.00  0.00     0.124 A 
ATOM      2  C1  UNL d   1       2.496   0.159   0.722  0.00  0.00     0.062 A 
ATOM      3  C2  UNL d   1       1.236   0.425   0.194  0.00  0.00     0.162 A 
ATOM      4  C3  UNL d   1       0.176  -0.450   0.427  0.00  0.00    -0.034 A 
ATOM      5  C4  UNL d   1       0.395  -1.595   1.195  0.00  0.00     0.162 A 
ATOM      6  C5  UNL d   1       1.656  -1.857   1.721  0.00  0.00     0.062 A 
ATOM      7  F   UNL d   1       1.856  -2.959   2.457  0.00  0.00    -0.097 F 
ATOM      8  F1  UNL d   1      -0.603  -2.458   1.438  0.00  0.00    -0.096 F 
ATOM      9  I   UNL d   1      -1.710  -0.055  -0.362  0.00  0.00    -0.060 I 
ATOM     10  F2  UNL d   1       1.062   1.535  -0.540  0.00  0.00    -0.096 F 
ATOM     11  F3  UNL d   1       3.509   1.006   0.493  0.00  0.00    -0.097 F 
ATOM     12  F4  UNL d   1       3.919  -1.236   1.992  0.00  0.00    -0.092 F 
ENDROOT
TORSDOF 0
ENDMDL
