MODEL 1
REMARK minimizedAffinity -5.0540781
REMARK minimizedRMSD -1
REMARK  0 active torsions:
REMARK  status: ('A' for Active; 'I' for Inactive)
ROOT
ATOM      1  C   UNL d   1       2.833  -0.766   1.202  0.00  0.00     0.124 A 
ATOM      2  C1  UNL d   1       2.277   0.448   0.822  0.00  0.00     0.062 A 
ATOM      3  C2  UNL d   1       0.902   0.559   0.636  0.00  0.00     0.162 A 
ATOM      4  C3  UNL d   1       0.073  -0.546   0.830  0.00  0.00    -0.034 A 
ATOM      5  C4  UNL d   1       0.641  -1.763   1.211  0.00  0.00     0.162 A 
ATOM      6  C5  UNL d   1       2.015  -1.870   1.396  0.00  0.00     0.062 A 
ATOM      7  F   UNL d   1       2.551  -3.043   1.762  0.00  0.00    -0.097 F 
ATOM      8  F1  UNL d   1      -0.127  -2.846   1.406  0.00  0.00    -0.096 F 
ATOM      9  I   UNL d   1      -1.983  -0.383   0.553  0.00  0.00    -0.060 I 
ATOM     10  F2  UNL d   1       0.391   1.744   0.269  0.00  0.00    -0.096 F 
ATOM     11  F3  UNL d   1       3.065   1.516   0.633  0.00  0.00    -0.097 F 
ATOM     12  F4  UNL d   1       4.157  -0.871   1.379  0.00  0.00    -0.092 F 
ENDROOT
TORSDOF 0
ENDMDL
