MODEL 1
REMARK minimizedAffinity 2.69070101
REMARK minimizedRMSD -1
REMARK  0 active torsions:
REMARK  status: ('A' for Active; 'I' for Inactive)
ROOT
ATOM      1  C   UNL d   1       0.691  -0.706   1.646  0.00  0.00     0.124 A 
ATOM      2  C1  UNL d   1       0.777   0.616   1.232  0.00  0.00     0.062 A 
ATOM      3  C2  UNL d   1      -0.191   1.150   0.387  0.00  0.00     0.162 A 
ATOM      4  C3  UNL d   1      -1.256   0.362  -0.049  0.00  0.00    -0.034 A 
ATOM      5  C4  UNL d   1      -1.336  -0.967   0.370  0.00  0.00     0.162 A 
ATOM      6  C5  UNL d   1      -0.365  -1.496   1.215  0.00  0.00     0.062 A 
ATOM      7  F   UNL d   1      -0.450  -2.774   1.613  0.00  0.00    -0.097 F 
ATOM      8  F1  UNL d   1      -2.346  -1.753  -0.030  0.00  0.00    -0.096 F 
ATOM      9  I   UNL d   1      -2.707   1.156  -1.313  0.00  0.00    -0.060 I 
ATOM     10  F2  UNL d   1      -0.083   2.431   0.004  0.00  0.00    -0.096 F 
ATOM     11  F3  UNL d   1       1.797   1.382   1.647  0.00  0.00    -0.097 F 
ATOM     12  F4  UNL d   1       1.625  -1.217   2.458  0.00  0.00    -0.092 F 
ENDROOT
TORSDOF 0
ENDMDL
