MODEL 1
REMARK minimizedAffinity -3.20079541
REMARK minimizedRMSD -1
REMARK  0 active torsions:
REMARK  status: ('A' for Active; 'I' for Inactive)
ROOT
ATOM      1  C   UNL d   1      -2.272   0.484  -2.468  0.00  0.00     0.124 A 
ATOM      2  C1  UNL d   1      -2.703   0.073  -1.214  0.00  0.00     0.062 A 
ATOM      3  C2  UNL d   1      -1.778  -0.305  -0.245  0.00  0.00     0.162 A 
ATOM      4  C3  UNL d   1      -0.412  -0.271  -0.525  0.00  0.00    -0.034 A 
ATOM      5  C4  UNL d   1       0.014   0.143  -1.788  0.00  0.00     0.162 A 
ATOM      6  C5  UNL d   1      -0.914   0.519  -2.753  0.00  0.00     0.062 A 
ATOM      7  F   UNL d   1      -0.496   0.916  -3.964  0.00  0.00    -0.097 F 
ATOM      8  F1  UNL d   1       1.320   0.187  -2.091  0.00  0.00    -0.096 F 
ATOM      9  I   UNL d   1       0.974  -0.835   0.922  0.00  0.00    -0.060 I 
ATOM     10  F2  UNL d   1      -2.223  -0.698   0.958  0.00  0.00    -0.096 F 
ATOM     11  F3  UNL d   1      -4.014   0.037  -0.936  0.00  0.00    -0.097 F 
ATOM     12  F4  UNL d   1      -3.164   0.846  -3.399  0.00  0.00    -0.092 F 
ENDROOT
TORSDOF 0
ENDMDL
