MODEL 1
REMARK minimizedAffinity 4.28044081
REMARK minimizedRMSD -1
REMARK  1 active torsions:
REMARK  status: ('A' for Active; 'I' for Inactive)
REMARK    1  A    between atoms: C3_4  and  O_7 
ROOT
ATOM      1  C   UNL d   1      -2.610   2.416  -0.373  0.00  0.00    -0.033 A 
ATOM      2  C1  UNL d   1      -2.054   3.421   0.421  0.00  0.00     0.039 A 
ATOM      3  C2  UNL d   1      -0.813   3.969   0.089  0.00  0.00    -0.080 A 
ATOM      4  C3  UNL d   1      -0.141   3.504  -1.037  0.00  0.00     0.150 A 
ATOM      5  C4  UNL d   1      -0.691   2.506  -1.835  0.00  0.00    -0.007 A 
ATOM      6  C5  UNL d   1      -1.929   1.960  -1.502  0.00  0.00     0.039 A 
ENDROOT
BRANCH   4   7
ATOM      7  O   UNL d   1       1.075   4.005  -1.398  0.00  0.00    -0.526 OA
ATOM      8  H5  UNL d   1       1.343   4.667  -0.739  0.00  0.00     0.418 HD
ENDBRANCH   4   7
TORSDOF 1
ENDMDL
