MODEL 1
REMARK minimizedAffinity 3.23066282
REMARK minimizedRMSD -1
REMARK  1 active torsions:
REMARK  status: ('A' for Active; 'I' for Inactive)
REMARK    1  A    between atoms: C3_4  and  O_7 
ROOT
ATOM      1  C   UNL d   1      -0.230   2.610  -0.438  0.00  0.00    -0.033 A 
ATOM      2  C1  UNL d   1      -1.198   1.669  -0.080  0.00  0.00     0.039 A 
ATOM      3  C2  UNL d   1      -2.205   1.322  -0.983  0.00  0.00    -0.080 A 
ATOM      4  C3  UNL d   1      -2.232   1.921  -2.240  0.00  0.00     0.150 A 
ATOM      5  C4  UNL d   1      -1.268   2.856  -2.605  0.00  0.00    -0.007 A 
ATOM      6  C5  UNL d   1      -0.265   3.202  -1.701  0.00  0.00     0.039 A 
ENDROOT
BRANCH   4   7
ATOM      7  O   UNL d   1      -3.197   1.618  -3.153  0.00  0.00    -0.526 OA
ATOM      8  H5  UNL d   1      -3.811   0.979  -2.752  0.00  0.00     0.418 HD
ENDBRANCH   4   7
TORSDOF 1
ENDMDL
