MODEL 1
REMARK minimizedAffinity 1.04624224
REMARK minimizedRMSD -1
REMARK  1 active torsions:
REMARK  status: ('A' for Active; 'I' for Inactive)
REMARK    1  A    between atoms: C3_4  and  O_7 
ROOT
ATOM      1  C   UNL d   1      -4.276   5.963  -3.623  0.00  0.00    -0.033 A 
ATOM      2  C1  UNL d   1      -3.355   4.921  -3.748  0.00  0.00     0.039 A 
ATOM      3  C2  UNL d   1      -3.658   3.810  -4.537  0.00  0.00    -0.080 A 
ATOM      4  C3  UNL d   1      -4.883   3.754  -5.196  0.00  0.00     0.150 A 
ATOM      5  C4  UNL d   1      -5.804   4.790  -5.079  0.00  0.00    -0.007 A 
ATOM      6  C5  UNL d   1      -5.500   5.898  -4.290  0.00  0.00     0.039 A 
ENDROOT
BRANCH   4   7
ATOM      7  O   UNL d   1      -5.226   2.688  -5.973  0.00  0.00    -0.526 OA
ATOM      8  H5  UNL d   1      -4.505   2.036  -5.937  0.00  0.00     0.418 HD
ENDBRANCH   4   7
TORSDOF 1
ENDMDL
