MODEL 1
REMARK minimizedAffinity 4.41618347
REMARK minimizedRMSD -1
REMARK  1 active torsions:
REMARK  status: ('A' for Active; 'I' for Inactive)
REMARK    1  A    between atoms: C3_4  and  O_7 
ROOT
ATOM      1  C   UNL d   1      -0.436   3.052  -1.654  0.00  0.00    -0.033 A 
ATOM      2  C1  UNL d   1       0.012   4.059  -0.796  0.00  0.00     0.039 A 
ATOM      3  C2  UNL d   1       0.191   3.793   0.563  0.00  0.00    -0.080 A 
ATOM      4  C3  UNL d   1      -0.080   2.517   1.050  0.00  0.00     0.150 A 
ATOM      5  C4  UNL d   1      -0.523   1.508   0.201  0.00  0.00    -0.007 A 
ATOM      6  C5  UNL d   1      -0.702   1.776  -1.155  0.00  0.00     0.039 A 
ENDROOT
BRANCH   4   7
ATOM      7  O   UNL d   1       0.076   2.211   2.370  0.00  0.00    -0.526 OA
ATOM      8  H5  UNL d   1       0.359   3.012   2.840  0.00  0.00     0.418 HD
ENDBRANCH   4   7
TORSDOF 1
ENDMDL
