MODEL 1
REMARK minimizedAffinity 4.36784554
REMARK minimizedRMSD -1
REMARK  1 active torsions:
REMARK  status: ('A' for Active; 'I' for Inactive)
REMARK    1  A    between atoms: C3_4  and  O_7 
ROOT
ATOM      1  C   UNL d   1      -0.379   2.980   0.637  0.00  0.00    -0.033 A 
ATOM      2  C1  UNL d   1       0.365   2.833  -0.535  0.00  0.00     0.039 A 
ATOM      3  C2  UNL d   1       0.356   3.842  -1.501  0.00  0.00    -0.080 A 
ATOM      4  C3  UNL d   1      -0.399   4.991  -1.282  0.00  0.00     0.150 A 
ATOM      5  C4  UNL d   1      -1.139   5.146  -0.114  0.00  0.00    -0.007 A 
ATOM      6  C5  UNL d   1      -1.129   4.137   0.849  0.00  0.00     0.039 A 
ENDROOT
BRANCH   4   7
ATOM      7  O   UNL d   1      -0.442   6.000  -2.197  0.00  0.00    -0.526 OA
ATOM      8  H5  UNL d   1       0.094   5.742  -2.966  0.00  0.00     0.418 HD
ENDBRANCH   4   7
TORSDOF 1
ENDMDL
