MODEL 1
REMARK minimizedAffinity -0.0151391067
REMARK minimizedRMSD -1
REMARK  1 active torsions:
REMARK  status: ('A' for Active; 'I' for Inactive)
REMARK    1  A    between atoms: C3_4  and  O_7 
ROOT
ATOM      1  C   UNL d   1      -5.411  -0.103   3.512  0.00  0.00    -0.033 A 
ATOM      2  C1  UNL d   1      -5.798   0.088   4.840  0.00  0.00     0.039 A 
ATOM      3  C2  UNL d   1      -5.999  -1.012   5.675  0.00  0.00    -0.080 A 
ATOM      4  C3  UNL d   1      -5.810  -2.296   5.172  0.00  0.00     0.150 A 
ATOM      5  C4  UNL d   1      -5.420  -2.494   3.851  0.00  0.00    -0.007 A 
ATOM      6  C5  UNL d   1      -5.221  -1.394   3.018  0.00  0.00     0.039 A 
ENDROOT
BRANCH   4   7
ATOM      7  O   UNL d   1      -5.999  -3.401   5.948  0.00  0.00    -0.526 OA
ATOM      8  H5  UNL d   1      -6.294  -3.112   6.828  0.00  0.00     0.418 HD
ENDBRANCH   4   7
TORSDOF 1
ENDMDL
