MODEL 1
REMARK minimizedAffinity 5.26918173
REMARK minimizedRMSD -1
REMARK  1 active torsions:
REMARK  status: ('A' for Active; 'I' for Inactive)
REMARK    1  A    between atoms: N_2  and  C1_3 
ROOT
ATOM      1  C1  UNL d   1      -2.354  -5.914  -5.225  0.00  0.00     0.143 A 
ATOM      2  C2  UNL d   1      -1.219  -5.615  -5.986  0.00  0.00    -0.057 A 
ATOM      3  C3  UNL d   1       0.035  -5.447  -5.386  0.00  0.00     0.033 A 
ATOM      4  C4  UNL d   1       0.170  -5.546  -4.005  0.00  0.00    -0.042 A 
ATOM      5  C5  UNL d   1      -0.949  -5.817  -3.226  0.00  0.00     0.033 A 
ATOM      6  C6  UNL d   1      -2.197  -5.991  -3.832  0.00  0.00    -0.057 A 
ENDROOT
BRANCH   1   7
ATOM      7  N   UNL d   1      -3.645  -5.996  -5.752  0.00  0.00    -0.732 N 
ATOM      8  C   UNL d   1      -4.802  -5.815  -4.901  0.00  0.00     0.284 C 
ATOM      9  H3  UNL d   1      -3.723  -5.545  -6.661  0.00  0.00     0.395 HD
ENDBRANCH   1   7
TORSDOF 1
ENDMDL
