MODEL 1
REMARK minimizedAffinity 1.68582475
REMARK minimizedRMSD -1
REMARK  1 active torsions:
REMARK  status: ('A' for Active; 'I' for Inactive)
REMARK    1  A    between atoms: N_2  and  C1_3 
ROOT
ATOM      1  C1  UNL d   1       3.572   4.500  -2.854  0.00  0.00     0.143 A 
ATOM      2  C2  UNL d   1       4.031   4.128  -4.122  0.00  0.00    -0.057 A 
ATOM      3  C3  UNL d   1       5.240   4.619  -4.629  0.00  0.00     0.033 A 
ATOM      4  C4  UNL d   1       6.000   5.516  -3.886  0.00  0.00    -0.042 A 
ATOM      5  C5  UNL d   1       5.551   5.919  -2.634  0.00  0.00     0.033 A 
ATOM      6  C6  UNL d   1       4.345   5.421  -2.130  0.00  0.00    -0.057 A 
ENDROOT
BRANCH   1   7
ATOM      7  N   UNL d   1       2.330   4.124  -2.335  0.00  0.00    -0.732 N 
ATOM      8  C   UNL d   1       2.098   4.122  -0.907  0.00  0.00     0.284 C 
ATOM      9  H3  UNL d   1       1.554   4.490  -2.882  0.00  0.00     0.395 HD
ENDBRANCH   1   7
TORSDOF 1
ENDMDL
