MODEL 1
REMARK minimizedAffinity 3.93507791
REMARK minimizedRMSD -1
REMARK  1 active torsions:
REMARK  status: ('A' for Active; 'I' for Inactive)
REMARK    1  A    between atoms: N_2  and  C1_3 
ROOT
ATOM      1  C1  UNL d   1       4.865  -2.508   5.116  0.00  0.00     0.143 A 
ATOM      2  C2  UNL d   1       4.566  -2.960   3.826  0.00  0.00    -0.057 A 
ATOM      3  C3  UNL d   1       3.514  -2.406   3.088  0.00  0.00     0.033 A 
ATOM      4  C4  UNL d   1       2.720  -1.406   3.639  0.00  0.00    -0.042 A 
ATOM      5  C5  UNL d   1       2.983  -0.958   4.929  0.00  0.00     0.033 A 
ATOM      6  C6  UNL d   1       4.039  -1.511   5.659  0.00  0.00    -0.057 A 
ENDROOT
BRANCH   1   7
ATOM      7  N   UNL d   1       5.835  -3.086   5.939  0.00  0.00    -0.732 N 
ATOM      8  C   UNL d   1       5.992  -4.524   5.994  0.00  0.00     0.284 C 
ATOM      9  H3  UNL d   1       6.712  -2.572   5.924  0.00  0.00     0.395 HD
ENDBRANCH   1   7
TORSDOF 1
ENDMDL
