MODEL 1
REMARK minimizedAffinity -1.72734749
REMARK minimizedRMSD -1
REMARK  1 active torsions:
REMARK  status: ('A' for Active; 'I' for Inactive)
REMARK    1  A    between atoms: N_2  and  C1_3 
ROOT
ATOM      1  C1  UNL d   1       4.056  -3.165   3.552  0.00  0.00     0.143 A 
ATOM      2  C2  UNL d   1       5.101  -4.073   3.756  0.00  0.00    -0.057 A 
ATOM      3  C3  UNL d   1       5.794  -4.122   4.971  0.00  0.00     0.033 A 
ATOM      4  C4  UNL d   1       5.471  -3.241   5.999  0.00  0.00    -0.042 A 
ATOM      5  C5  UNL d   1       4.452  -2.314   5.810  0.00  0.00     0.033 A 
ATOM      6  C6  UNL d   1       3.760  -2.274   4.596  0.00  0.00    -0.057 A 
ENDROOT
BRANCH   1   7
ATOM      7  N   UNL d   1       3.395  -3.001   2.333  0.00  0.00    -0.732 N 
ATOM      8  C   UNL d   1       4.136  -2.975   1.090  0.00  0.00     0.284 C 
ATOM      9  H3  UNL d   1       2.526  -3.528   2.287  0.00  0.00     0.395 HD
ENDBRANCH   1   7
TORSDOF 1
ENDMDL
