MODEL 1
REMARK minimizedAffinity 14.9274044
REMARK minimizedRMSD -1
REMARK  1 active torsions:
REMARK  status: ('A' for Active; 'I' for Inactive)
REMARK    1  A    between atoms: N_2  and  C1_3 
ROOT
ATOM      1  C1  UNL d   1      -3.320  -5.664  -5.010  0.00  0.00     0.143 A 
ATOM      2  C2  UNL d   1      -4.366  -5.929  -5.900  0.00  0.00    -0.057 A 
ATOM      3  C3  UNL d   1      -5.694  -5.994  -5.462  0.00  0.00     0.033 A 
ATOM      4  C4  UNL d   1      -5.998  -5.823  -4.116  0.00  0.00    -0.042 A 
ATOM      5  C5  UNL d   1      -4.972  -5.583  -3.209  0.00  0.00     0.033 A 
ATOM      6  C6  UNL d   1      -3.648  -5.513  -3.653  0.00  0.00    -0.057 A 
ENDROOT
BRANCH   1   7
ATOM      7  N   UNL d   1      -1.970  -5.685  -5.367  0.00  0.00    -0.732 N 
ATOM      8  C   UNL d   1      -1.329  -4.500  -5.897  0.00  0.00     0.284 C 
ATOM      9  H3  UNL d   1      -1.400  -6.203  -4.702  0.00  0.00     0.395 HD
ENDBRANCH   1   7
TORSDOF 1
ENDMDL
