MODEL 1
REMARK minimizedAffinity 1.18656361
REMARK minimizedRMSD -1
REMARK  1 active torsions:
REMARK  status: ('A' for Active; 'I' for Inactive)
REMARK    1  A    between atoms: N_2  and  C1_3 
ROOT
ATOM      1  C1  UNL d   1      -1.510  -2.753  -0.599  0.00  0.00     0.143 A 
ATOM      2  C2  UNL d   1      -0.553  -1.735  -0.668  0.00  0.00    -0.057 A 
ATOM      3  C3  UNL d   1       0.227  -1.548  -1.815  0.00  0.00     0.033 A 
ATOM      4  C4  UNL d   1       0.083  -2.398  -2.907  0.00  0.00    -0.042 A 
ATOM      5  C5  UNL d   1      -0.844  -3.432  -2.851  0.00  0.00     0.033 A 
ATOM      6  C6  UNL d   1      -1.625  -3.610  -1.705  0.00  0.00    -0.057 A 
ENDROOT
BRANCH   1   7
ATOM      7  N   UNL d   1      -2.246  -3.052   0.550  0.00  0.00    -0.732 N 
ATOM      8  C   UNL d   1      -1.771  -2.649   1.856  0.00  0.00     0.284 C 
ATOM      9  H3  UNL d   1      -3.247  -2.924   0.414  0.00  0.00     0.395 HD
ENDBRANCH   1   7
TORSDOF 1
ENDMDL
