MODEL 1
REMARK minimizedAffinity 3.49792576
REMARK minimizedRMSD -1
REMARK  1 active torsions:
REMARK  status: ('A' for Active; 'I' for Inactive)
REMARK    1  A    between atoms: N_2  and  C1_3 
ROOT
ATOM      1  C1  UNL d   1      -0.380  -2.770  -3.538  0.00  0.00     0.143 A 
ATOM      2  C2  UNL d   1      -0.160  -4.150  -3.580  0.00  0.00    -0.057 A 
ATOM      3  C3  UNL d   1      -0.077  -4.835  -4.799  0.00  0.00     0.033 A 
ATOM      4  C4  UNL d   1      -0.242  -4.153  -6.000  0.00  0.00    -0.042 A 
ATOM      5  C5  UNL d   1      -0.486  -2.784  -5.981  0.00  0.00     0.033 A 
ATOM      6  C6  UNL d   1      -0.562  -2.105  -4.761  0.00  0.00    -0.057 A 
ENDROOT
BRANCH   1   7
ATOM      7  N   UNL d   1      -0.571  -2.048  -2.357  0.00  0.00    -0.732 N 
ATOM      8  C   UNL d   1       0.150  -2.402  -1.153  0.00  0.00     0.284 C 
ATOM      9  H3  UNL d   1      -0.641  -1.047  -2.520  0.00  0.00     0.395 HD
ENDBRANCH   1   7
TORSDOF 1
ENDMDL
