MODEL 1
REMARK minimizedAffinity 3.97336316
REMARK minimizedRMSD -1
REMARK  1 active torsions:
REMARK  status: ('A' for Active; 'I' for Inactive)
REMARK    1  A    between atoms: N_2  and  C1_3 
ROOT
ATOM      1  C1  UNL d   1       1.388  -2.585  -2.913  0.00  0.00     0.143 A 
ATOM      2  C2  UNL d   1       0.511  -3.501  -3.504  0.00  0.00    -0.057 A 
ATOM      3  C3  UNL d   1      -0.805  -3.645  -3.047  0.00  0.00     0.033 A 
ATOM      4  C4  UNL d   1      -1.259  -2.893  -1.968  0.00  0.00    -0.042 A 
ATOM      5  C5  UNL d   1      -0.396  -1.995  -1.349  0.00  0.00     0.033 A 
ATOM      6  C6  UNL d   1       0.914  -1.851  -1.815  0.00  0.00    -0.057 A 
ENDROOT
BRANCH   1   7
ATOM      7  N   UNL d   1       2.736  -2.466  -3.258  0.00  0.00    -0.732 N 
ATOM      8  C   UNL d   1       3.755  -2.379  -2.234  0.00  0.00     0.284 C 
ATOM      9  H3  UNL d   1       2.989  -3.057  -4.047  0.00  0.00     0.395 HD
ENDBRANCH   1   7
TORSDOF 1
ENDMDL
