MODEL 1
REMARK minimizedAffinity 1.8633157
REMARK minimizedRMSD -1
REMARK  1 active torsions:
REMARK  status: ('A' for Active; 'I' for Inactive)
REMARK    1  A    between atoms: N_2  and  C1_3 
ROOT
ATOM      1  C1  UNL d   1      -2.185  -1.807   1.588  0.00  0.00     0.143 A 
ATOM      2  C2  UNL d   1      -3.466  -2.302   1.322  0.00  0.00    -0.057 A 
ATOM      3  C3  UNL d   1      -3.791  -2.842   0.071  0.00  0.00     0.033 A 
ATOM      4  C4  UNL d   1      -2.845  -2.870  -0.948  0.00  0.00    -0.042 A 
ATOM      5  C5  UNL d   1      -1.573  -2.361  -0.714  0.00  0.00     0.033 A 
ATOM      6  C6  UNL d   1      -1.252  -1.829   0.539  0.00  0.00    -0.057 A 
ENDROOT
BRANCH   1   7
ATOM      7  N   UNL d   1      -1.829  -1.168   2.778  0.00  0.00    -0.732 N 
ATOM      8  C   UNL d   1      -1.907   0.272   2.893  0.00  0.00     0.284 C 
ATOM      9  H3  UNL d   1      -2.157  -1.670   3.601  0.00  0.00     0.395 HD
ENDBRANCH   1   7
TORSDOF 1
ENDMDL
