MODEL 1
REMARK minimizedAffinity 1.47562349
REMARK minimizedRMSD -1
REMARK  1 active torsions:
REMARK  status: ('A' for Active; 'I' for Inactive)
REMARK    1  A    between atoms: N_2  and  C1_3 
ROOT
ATOM      1  C1  UNL d   1       3.251   5.382  -3.441  0.00  0.00     0.143 A 
ATOM      2  C2  UNL d   1       3.707   5.998  -4.612  0.00  0.00    -0.057 A 
ATOM      3  C3  UNL d   1       5.064   5.990  -4.956  0.00  0.00     0.033 A 
ATOM      4  C4  UNL d   1       5.996   5.388  -4.117  0.00  0.00    -0.042 A 
ATOM      5  C5  UNL d   1       5.569   4.791  -2.937  0.00  0.00     0.033 A 
ATOM      6  C6  UNL d   1       4.212   4.797  -2.602  0.00  0.00    -0.057 A 
ENDROOT
BRANCH   1   7
ATOM      7  N   UNL d   1       1.929   5.442  -2.995  0.00  0.00    -0.732 N 
ATOM      8  C   UNL d   1       1.599   5.126  -1.622  0.00  0.00     0.284 C 
ATOM      9  H3  UNL d   1       1.429   6.245  -3.368  0.00  0.00     0.395 HD
ENDBRANCH   1   7
TORSDOF 1
ENDMDL
