MODEL 1
REMARK minimizedAffinity 4.24144697
REMARK minimizedRMSD -1
REMARK  1 active torsions:
REMARK  status: ('A' for Active; 'I' for Inactive)
REMARK    1  A    between atoms: N_2  and  C1_3 
ROOT
ATOM      1  C1  UNL d   1       1.099  -1.995  -1.965  0.00  0.00     0.143 A 
ATOM      2  C2  UNL d   1       1.855  -2.058  -3.141  0.00  0.00    -0.057 A 
ATOM      3  C3  UNL d   1       3.255  -2.066  -3.104  0.00  0.00     0.033 A 
ATOM      4  C4  UNL d   1       3.925  -1.980  -1.889  0.00  0.00    -0.042 A 
ATOM      5  C5  UNL d   1       3.194  -1.892  -0.709  0.00  0.00     0.033 A 
ATOM      6  C6  UNL d   1       1.797  -1.891  -0.752  0.00  0.00    -0.057 A 
ENDROOT
BRANCH   1   7
ATOM      7  N   UNL d   1      -0.294  -1.885  -1.941  0.00  0.00    -0.732 N 
ATOM      8  C   UNL d   1      -1.096  -2.840  -1.208  0.00  0.00     0.284 C 
ATOM      9  H3  UNL d   1      -0.605  -0.921  -1.847  0.00  0.00     0.395 HD
ENDBRANCH   1   7
TORSDOF 1
ENDMDL
