MODEL 1
REMARK minimizedAffinity 5.28438091
REMARK minimizedRMSD -1
REMARK  1 active torsions:
REMARK  status: ('A' for Active; 'I' for Inactive)
REMARK    1  A    between atoms: N_2  and  C1_3 
ROOT
ATOM      1  C1  UNL d   1       1.491  -2.140  -2.849  0.00  0.00     0.143 A 
ATOM      2  C2  UNL d   1       0.710  -3.146  -3.427  0.00  0.00    -0.057 A 
ATOM      3  C3  UNL d   1      -0.544  -3.484  -2.902  0.00  0.00     0.033 A 
ATOM      4  C4  UNL d   1      -1.027  -2.838  -1.769  0.00  0.00    -0.042 A 
ATOM      5  C5  UNL d   1      -0.257  -1.852  -1.163  0.00  0.00     0.033 A 
ATOM      6  C6  UNL d   1       0.991  -1.514  -1.696  0.00  0.00    -0.057 A 
ENDROOT
BRANCH   1   7
ATOM      7  N   UNL d   1       2.787  -1.826  -3.264  0.00  0.00    -0.732 N 
ATOM      8  C   UNL d   1       3.838  -1.601  -2.295  0.00  0.00     0.284 C 
ATOM      9  H3  UNL d   1       3.078  -2.370  -4.074  0.00  0.00     0.395 HD
ENDBRANCH   1   7
TORSDOF 1
ENDMDL
