MODEL 1
REMARK minimizedAffinity 4.5644412
REMARK minimizedRMSD -1
REMARK  1 active torsions:
REMARK  status: ('A' for Active; 'I' for Inactive)
REMARK    1  A    between atoms: N_2  and  C1_3 
ROOT
ATOM      1  C1  UNL d   1      -1.126  -2.343  -1.032  0.00  0.00     0.143 A 
ATOM      2  C2  UNL d   1      -0.517  -2.675   0.184  0.00  0.00    -0.057 A 
ATOM      3  C3  UNL d   1      -1.279  -3.009   1.310  0.00  0.00     0.033 A 
ATOM      4  C4  UNL d   1      -2.668  -2.990   1.248  0.00  0.00    -0.042 A 
ATOM      5  C5  UNL d   1      -3.295  -2.639   0.057  0.00  0.00     0.033 A 
ATOM      6  C6  UNL d   1      -2.529  -2.312  -1.066  0.00  0.00    -0.057 A 
ENDROOT
BRANCH   1   7
ATOM      7  N   UNL d   1      -0.425  -1.906  -2.159  0.00  0.00    -0.732 N 
ATOM      8  C   UNL d   1       0.638  -2.709  -2.723  0.00  0.00     0.284 C 
ATOM      9  H3  UNL d   1      -1.033  -1.475  -2.851  0.00  0.00     0.395 HD
ENDBRANCH   1   7
TORSDOF 1
ENDMDL
