MODEL 1
REMARK minimizedAffinity 2.1855371
REMARK minimizedRMSD -1
REMARK  1 active torsions:
REMARK  status: ('A' for Active; 'I' for Inactive)
REMARK    1  A    between atoms: N_2  and  C1_3 
ROOT
ATOM      1  C1  UNL d   1       5.429   5.275  -3.407  0.00  0.00     0.143 A 
ATOM      2  C2  UNL d   1       4.450   5.950  -4.143  0.00  0.00    -0.057 A 
ATOM      3  C3  UNL d   1       4.005   5.463  -5.378  0.00  0.00     0.033 A 
ATOM      4  C4  UNL d   1       4.554   4.304  -5.914  0.00  0.00    -0.042 A 
ATOM      5  C5  UNL d   1       5.547   3.629  -5.212  0.00  0.00     0.033 A 
ATOM      6  C6  UNL d   1       5.983   4.117  -3.976  0.00  0.00    -0.057 A 
ENDROOT
BRANCH   1   7
ATOM      7  N   UNL d   1       5.984   5.760  -2.220  0.00  0.00    -0.732 N 
ATOM      8  C   UNL d   1       5.247   5.685  -0.977  0.00  0.00     0.284 C 
ATOM      9  H3  UNL d   1       6.972   5.534  -2.132  0.00  0.00     0.395 HD
ENDBRANCH   1   7
TORSDOF 1
ENDMDL
