MODEL 1
REMARK minimizedAffinity 6.7292304
REMARK minimizedRMSD -1
REMARK  1 active torsions:
REMARK  status: ('A' for Active; 'I' for Inactive)
REMARK    1  A    between atoms: C1_2  and  C2_3 
ROOT
ATOM      1  C2  UNL d   1       2.006  -1.442  -1.294  0.00  0.00    -0.073 A 
ATOM      2  C3  UNL d   1       2.972  -2.182  -0.604  0.00  0.00    -0.002 A 
ATOM      3  C4  UNL d   1       2.891  -3.574  -0.554  0.00  0.00     0.004 A 
ATOM      4  C5  UNL d   1       1.848  -4.240  -1.198  0.00  0.00    -0.004 A 
ATOM      5  C6  UNL d   1       0.879  -3.519  -1.903  0.00  0.00    -0.075 A 
ATOM      6  C7  UNL d   1      -0.250  -4.220  -2.600  0.00  0.00     0.076 C 
ATOM      7  C8  UNL d   1       0.966  -2.121  -1.946  0.00  0.00     0.001 A 
ENDROOT
BRANCH   1   8
ATOM      8  C1  UNL d   1       2.093   0.061  -1.356  0.00  0.00     0.053 C 
ATOM      9  C   UNL d   1       3.153   0.610  -0.414  0.00  0.00     0.018 C 
ENDBRANCH   1   8
TORSDOF 1
ENDMDL
