MODEL 1
REMARK minimizedAffinity 6.60189199
REMARK minimizedRMSD -1
REMARK  1 active torsions:
REMARK  status: ('A' for Active; 'I' for Inactive)
REMARK    1  A    between atoms: C1_2  and  C2_3 
ROOT
ATOM      1  C2  UNL d   1       3.246  -3.425  -1.449  0.00  0.00    -0.073 A 
ATOM      2  C3  UNL d   1       2.487  -3.893  -2.527  0.00  0.00    -0.002 A 
ATOM      3  C4  UNL d   1       1.374  -3.176  -2.970  0.00  0.00     0.004 A 
ATOM      4  C5  UNL d   1       1.014  -1.983  -2.344  0.00  0.00    -0.004 A 
ATOM      5  C6  UNL d   1       1.766  -1.493  -1.273  0.00  0.00    -0.075 A 
ATOM      6  C7  UNL d   1       1.390  -0.212  -0.588  0.00  0.00     0.076 C 
ATOM      7  C8  UNL d   1       2.881  -2.219  -0.832  0.00  0.00     0.001 A 
ENDROOT
BRANCH   1   8
ATOM      8  C1  UNL d   1       4.452  -4.191  -0.971  0.00  0.00     0.053 C 
ATOM      9  C   UNL d   1       5.034  -5.076  -2.063  0.00  0.00     0.018 C 
ENDBRANCH   1   8
TORSDOF 1
ENDMDL
