MODEL 1
REMARK minimizedAffinity 10.5398693
REMARK minimizedRMSD -1
REMARK  1 active torsions:
REMARK  status: ('A' for Active; 'I' for Inactive)
REMARK    1  A    between atoms: C1_2  and  C2_3 
ROOT
ATOM      1  C2  UNL d   1       4.456  -4.136  -4.544  0.00  0.00    -0.073 A 
ATOM      2  C3  UNL d   1       4.087  -3.714  -5.826  0.00  0.00    -0.002 A 
ATOM      3  C4  UNL d   1       3.005  -2.849  -6.000  0.00  0.00     0.004 A 
ATOM      4  C5  UNL d   1       2.288  -2.392  -4.894  0.00  0.00    -0.004 A 
ATOM      5  C6  UNL d   1       2.649  -2.792  -3.604  0.00  0.00    -0.075 A 
ATOM      6  C7  UNL d   1       1.886  -2.311  -2.405  0.00  0.00     0.076 C 
ATOM      7  C8  UNL d   1       3.734  -3.664  -3.438  0.00  0.00     0.001 A 
ENDROOT
BRANCH   1   8
ATOM      8  C1  UNL d   1       5.626  -5.065  -4.351  0.00  0.00     0.053 C 
ATOM      9  C   UNL d   1       5.965  -5.258  -2.882  0.00  0.00     0.018 C 
ENDBRANCH   1   8
TORSDOF 1
ENDMDL
