MODEL 1
REMARK minimizedAffinity 6.43454456
REMARK minimizedRMSD -1
REMARK  1 active torsions:
REMARK  status: ('A' for Active; 'I' for Inactive)
REMARK    1  A    between atoms: C1_2  and  C2_3 
ROOT
ATOM      1  C2  UNL d   1       2.718  -0.901  -1.387  0.00  0.00    -0.073 A 
ATOM      2  C3  UNL d   1       3.793  -1.781  -1.222  0.00  0.00    -0.002 A 
ATOM      3  C4  UNL d   1       3.566  -3.145  -1.034  0.00  0.00     0.004 A 
ATOM      4  C5  UNL d   1       2.263  -3.643  -1.017  0.00  0.00    -0.004 A 
ATOM      5  C6  UNL d   1       1.176  -2.781  -1.192  0.00  0.00    -0.075 A 
ATOM      6  C7  UNL d   1      -0.232  -3.301  -1.174  0.00  0.00     0.076 C 
ATOM      7  C8  UNL d   1       1.412  -1.412  -1.377  0.00  0.00     0.001 A 
ENDROOT
BRANCH   1   8
ATOM      8  C1  UNL d   1       2.959   0.572  -1.596  0.00  0.00     0.053 C 
ATOM      9  C   UNL d   1       4.359   0.986  -1.169  0.00  0.00     0.018 C 
ENDBRANCH   1   8
TORSDOF 1
ENDMDL
