MODEL 1
REMARK minimizedAffinity 5.60918713
REMARK minimizedRMSD -1
REMARK  1 active torsions:
REMARK  status: ('A' for Active; 'I' for Inactive)
REMARK    1  A    between atoms: C1_2  and  C2_3 
ROOT
ATOM      1  C2  UNL d   1       2.501  -3.541  -0.873  0.00  0.00    -0.073 A 
ATOM      2  C3  UNL d   1       1.181  -3.752  -1.286  0.00  0.00    -0.002 A 
ATOM      3  C4  UNL d   1       0.326  -2.669  -1.496  0.00  0.00     0.004 A 
ATOM      4  C5  UNL d   1       0.784  -1.366  -1.303  0.00  0.00    -0.004 A 
ATOM      5  C6  UNL d   1       2.103  -1.134  -0.902  0.00  0.00    -0.075 A 
ATOM      6  C7  UNL d   1       2.611   0.262  -0.688  0.00  0.00     0.076 C 
ATOM      7  C8  UNL d   1       2.955  -2.226  -0.691  0.00  0.00     0.001 A 
ENDROOT
BRANCH   1   8
ATOM      8  C1  UNL d   1       3.429  -4.707  -0.652  0.00  0.00     0.053 C 
ATOM      9  C   UNL d   1       2.671  -5.995  -0.376  0.00  0.00     0.018 C 
ENDBRANCH   1   8
TORSDOF 1
ENDMDL
