MODEL 1
REMARK minimizedAffinity 9.29568386
REMARK minimizedRMSD -1
REMARK  1 active torsions:
REMARK  status: ('A' for Active; 'I' for Inactive)
REMARK    1  A    between atoms: C1_2  and  C2_3 
ROOT
ATOM      1  C2  UNL d   1       0.269  -3.020  -1.567  0.00  0.00    -0.073 A 
ATOM      2  C3  UNL d   1       1.075  -1.883  -1.445  0.00  0.00    -0.002 A 
ATOM      3  C4  UNL d   1       2.354  -1.980  -0.895  0.00  0.00     0.004 A 
ATOM      4  C5  UNL d   1       2.841  -3.215  -0.467  0.00  0.00    -0.004 A 
ATOM      5  C6  UNL d   1       2.055  -4.365  -0.591  0.00  0.00    -0.075 A 
ATOM      6  C7  UNL d   1       2.565  -5.701  -0.133  0.00  0.00     0.076 C 
ATOM      7  C8  UNL d   1       0.771  -4.259  -1.142  0.00  0.00     0.001 A 
ENDROOT
BRANCH   1   8
ATOM      8  C1  UNL d   1      -1.110  -2.921  -2.166  0.00  0.00     0.053 C 
ATOM      9  C   UNL d   1      -1.670  -4.285  -2.537  0.00  0.00     0.018 C 
ENDBRANCH   1   8
TORSDOF 1
ENDMDL
