MODEL 1
REMARK minimizedAffinity 4.54692888
REMARK minimizedRMSD -1
REMARK  0 active torsions:
REMARK  status: ('A' for Active; 'I' for Inactive)
ROOT
ATOM      1  C   UNL d   1       2.105  -3.319  -4.150  0.00  0.00    -0.002 A 
ATOM      2  C1  UNL d   1       2.886  -4.319  -3.587  0.00  0.00     0.010 A 
ATOM      3  C2  UNL d   1       3.065  -4.385  -2.204  0.00  0.00     0.041 A 
ATOM      4  C3  UNL d   1       2.440  -3.421  -1.388  0.00  0.00    -0.075 A 
ATOM      5  S   UNL d   1       2.517  -3.305   0.330  0.00  0.00     0.015 SA
ATOM      6  C4  UNL d   1       1.515  -1.927   0.357  0.00  0.00     0.022 A 
ATOM      7  C5  UNL d   1       1.122  -1.550  -0.906  0.00  0.00     0.026 A 
ATOM      8  C6  UNL d   1       1.648  -2.406  -1.932  0.00  0.00    -0.082 A 
ATOM      9  C7  UNL d   1       1.486  -2.365  -3.338  0.00  0.00     0.045 A 
ENDROOT
TORSDOF 0
ENDMDL
