MODEL 1
REMARK minimizedAffinity 13.7652454
REMARK minimizedRMSD -1
REMARK  0 active torsions:
REMARK  status: ('A' for Active; 'I' for Inactive)
ROOT
ATOM      1  C   UNL d   1       2.268   0.869  -1.687  0.00  0.00    -0.002 A 
ATOM      2  C1  UNL d   1       1.607   0.178  -2.693  0.00  0.00     0.010 A 
ATOM      3  C2  UNL d   1       1.668  -1.216  -2.756  0.00  0.00     0.041 A 
ATOM      4  C3  UNL d   1       2.410  -1.910  -1.780  0.00  0.00    -0.075 A 
ATOM      5  S   UNL d   1       2.625  -3.616  -1.657  0.00  0.00     0.015 SA
ATOM      6  C4  UNL d   1       3.599  -3.468  -0.266  0.00  0.00     0.022 A 
ATOM      7  C5  UNL d   1       3.766  -2.156   0.109  0.00  0.00     0.026 A 
ATOM      8  C6  UNL d   1       3.083  -1.236  -0.757  0.00  0.00    -0.082 A 
ATOM      9  C7  UNL d   1       3.003   0.177  -0.721  0.00  0.00     0.045 A 
ENDROOT
TORSDOF 0
ENDMDL
