MODEL 1
REMARK minimizedAffinity 0.993846059
REMARK minimizedRMSD -1
REMARK  0 active torsions:
REMARK  status: ('A' for Active; 'I' for Inactive)
ROOT
ATOM      1  C   UNL d   1       1.922  -4.255  -4.205  0.00  0.00    -0.002 A 
ATOM      2  C1  UNL d   1       2.972  -5.156  -4.313  0.00  0.00     0.010 A 
ATOM      3  C2  UNL d   1       3.872  -5.326  -3.259  0.00  0.00     0.041 A 
ATOM      4  C3  UNL d   1       3.696  -4.571  -2.083  0.00  0.00    -0.075 A 
ATOM      5  S   UNL d   1       4.673  -4.614  -0.664  0.00  0.00     0.015 SA
ATOM      6  C4  UNL d   1       3.719  -3.438   0.119  0.00  0.00     0.022 A 
ATOM      7  C5  UNL d   1       2.676  -3.012  -0.669  0.00  0.00     0.026 A 
ATOM      8  C6  UNL d   1       2.645  -3.658  -1.951  0.00  0.00    -0.082 A 
ATOM      9  C7  UNL d   1       1.750  -3.507  -3.037  0.00  0.00     0.045 A 
ENDROOT
TORSDOF 0
ENDMDL
