MODEL 1
REMARK minimizedAffinity 2.9971199
REMARK minimizedRMSD -1
REMARK  0 active torsions:
REMARK  status: ('A' for Active; 'I' for Inactive)
ROOT
ATOM      1  C   UNL d   1       3.217  -3.572  -4.580  0.00  0.00    -0.002 A 
ATOM      2  C1  UNL d   1       2.193  -2.681  -4.294  0.00  0.00     0.010 A 
ATOM      3  C2  UNL d   1       1.799  -2.451  -2.974  0.00  0.00     0.041 A 
ATOM      4  C3  UNL d   1       2.460  -3.138  -1.936  0.00  0.00    -0.075 A 
ATOM      5  S   UNL d   1       2.148  -3.015  -0.245  0.00  0.00     0.015 SA
ATOM      6  C4  UNL d   1       3.367  -4.142   0.138  0.00  0.00     0.022 A 
ATOM      7  C5  UNL d   1       4.007  -4.611  -0.985  0.00  0.00     0.026 A 
ATOM      8  C6  UNL d   1       3.495  -4.040  -2.199  0.00  0.00    -0.082 A 
ATOM      9  C7  UNL d   1       3.870  -4.252  -3.548  0.00  0.00     0.045 A 
ENDROOT
TORSDOF 0
ENDMDL
