MODEL 1
REMARK minimizedAffinity 3.08894515
REMARK minimizedRMSD -1
REMARK  0 active torsions:
REMARK  status: ('A' for Active; 'I' for Inactive)
ROOT
ATOM      1  C   UNL d   1       0.964   1.872   3.897  0.00  0.00    -0.002 A 
ATOM      2  C1  UNL d   1       0.997   2.056   5.272  0.00  0.00     0.010 A 
ATOM      3  C2  UNL d   1      -0.187   2.188   6.000  0.00  0.00     0.041 A 
ATOM      4  C3  UNL d   1      -1.418   2.130   5.316  0.00  0.00    -0.075 A 
ATOM      5  S   UNL d   1      -2.994   2.267   6.000  0.00  0.00     0.015 SA
ATOM      6  C4  UNL d   1      -3.749   2.084   4.483  0.00  0.00     0.022 A 
ATOM      7  C5  UNL d   1      -2.836   1.922   3.468  0.00  0.00     0.026 A 
ATOM      8  C6  UNL d   1      -1.477   1.946   3.932  0.00  0.00    -0.082 A 
ATOM      9  C7  UNL d   1      -0.259   1.816   3.222  0.00  0.00     0.045 A 
ENDROOT
TORSDOF 0
ENDMDL
