MODEL 1
REMARK minimizedAffinity 13.4904594
REMARK minimizedRMSD -1
REMARK  0 active torsions:
REMARK  status: ('A' for Active; 'I' for Inactive)
ROOT
ATOM      1  C   UNL d   1       2.984  -4.716  -4.421  0.00  0.00    -0.002 A 
ATOM      2  C1  UNL d   1       2.032  -3.852  -3.898  0.00  0.00     0.010 A 
ATOM      3  C2  UNL d   1       2.096  -3.449  -2.563  0.00  0.00     0.041 A 
ATOM      4  C3  UNL d   1       3.143  -3.933  -1.754  0.00  0.00    -0.075 A 
ATOM      5  S   UNL d   1       3.423  -3.575  -0.091  0.00  0.00     0.015 SA
ATOM      6  C4  UNL d   1       4.813  -4.559  -0.036  0.00  0.00     0.022 A 
ATOM      7  C5  UNL d   1       5.072  -5.155  -1.248  0.00  0.00     0.026 A 
ATOM      8  C6  UNL d   1       4.114  -4.803  -2.258  0.00  0.00    -0.082 A 
ATOM      9  C7  UNL d   1       4.022  -5.194  -3.616  0.00  0.00     0.045 A 
ENDROOT
TORSDOF 0
ENDMDL
