MODEL 1
REMARK minimizedAffinity 7.86075926
REMARK minimizedRMSD -1
REMARK  0 active torsions:
REMARK  status: ('A' for Active; 'I' for Inactive)
ROOT
ATOM      1  C   UNL d   1      -3.605   1.887   3.920  0.00  0.00    -0.002 A 
ATOM      2  C1  UNL d   1      -3.561   2.180   5.276  0.00  0.00     0.010 A 
ATOM      3  C2  UNL d   1      -2.372   2.043   5.994  0.00  0.00     0.041 A 
ATOM      4  C3  UNL d   1      -1.215   1.604   5.320  0.00  0.00    -0.075 A 
ATOM      5  S   UNL d   1       0.353   1.363   5.995  0.00  0.00     0.015 SA
ATOM      6  C4  UNL d   1       1.002   0.866   4.499  0.00  0.00     0.022 A 
ATOM      7  C5  UNL d   1       0.059   0.877   3.499  0.00  0.00     0.026 A 
ATOM      8  C6  UNL d   1      -1.234   1.303   3.955  0.00  0.00    -0.082 A 
ATOM      9  C7  UNL d   1      -2.456   1.452   3.255  0.00  0.00     0.045 A 
ENDROOT
TORSDOF 0
ENDMDL
