MODEL 1
REMARK minimizedAffinity 24.9867115
REMARK minimizedRMSD -1
REMARK  0 active torsions:
REMARK  status: ('A' for Active; 'I' for Inactive)
ROOT
ATOM      1  C   UNL d   1       3.442   1.456  -0.344  0.00  0.00    -0.002 A 
ATOM      2  C1  UNL d   1       3.861   0.134  -0.286  0.00  0.00     0.010 A 
ATOM      3  C2  UNL d   1       3.406  -0.797  -1.221  0.00  0.00     0.041 A 
ATOM      4  C3  UNL d   1       2.516  -0.374  -2.228  0.00  0.00    -0.075 A 
ATOM      5  S   UNL d   1       1.829  -1.338  -3.481  0.00  0.00     0.015 SA
ATOM      6  C4  UNL d   1       0.964  -0.018  -4.124  0.00  0.00     0.022 A 
ATOM      7  C5  UNL d   1       1.182   1.138  -3.413  0.00  0.00     0.026 A 
ATOM      8  C6  UNL d   1       2.081   0.952  -2.308  0.00  0.00    -0.082 A 
ATOM      9  C7  UNL d   1       2.559   1.872  -1.344  0.00  0.00     0.045 A 
ENDROOT
TORSDOF 0
ENDMDL
