MODEL 1
REMARK minimizedAffinity 17.9471836
REMARK minimizedRMSD -1
REMARK  0 active torsions:
REMARK  status: ('A' for Active; 'I' for Inactive)
ROOT
ATOM      1  C   UNL d   1       2.368  -2.356  -0.582  0.00  0.00    -0.002 A 
ATOM      2  C1  UNL d   1       1.784  -1.188  -1.050  0.00  0.00     0.010 A 
ATOM      3  C2  UNL d   1       0.663  -1.238  -1.881  0.00  0.00     0.041 A 
ATOM      4  C3  UNL d   1       0.132  -2.494  -2.234  0.00  0.00    -0.075 A 
ATOM      5  S   UNL d   1      -1.236  -2.800  -3.238  0.00  0.00     0.015 SA
ATOM      6  C4  UNL d   1      -1.077  -4.489  -3.067  0.00  0.00     0.022 A 
ATOM      7  C5  UNL d   1      -0.012  -4.828  -2.268  0.00  0.00     0.026 A 
ATOM      8  C6  UNL d   1       0.702  -3.685  -1.774  0.00  0.00    -0.082 A 
ATOM      9  C7  UNL d   1       1.839  -3.600  -0.934  0.00  0.00     0.045 A 
ENDROOT
TORSDOF 0
ENDMDL
