MODEL 1
REMARK minimizedAffinity 26.2997913
REMARK minimizedRMSD -1
REMARK  0 active torsions:
REMARK  status: ('A' for Active; 'I' for Inactive)
ROOT
ATOM      1  C   UNL d   1      -4.170   2.875   5.252  0.00  0.00    -0.002 A 
ATOM      2  C1  UNL d   1      -4.634   2.730   3.952  0.00  0.00     0.010 A 
ATOM      3  C2  UNL d   1      -4.738   1.464   3.373  0.00  0.00     0.041 A 
ATOM      4  C3  UNL d   1      -4.365   0.336   4.129  0.00  0.00    -0.075 A 
ATOM      5  S   UNL d   1      -4.408  -1.313   3.627  0.00  0.00     0.015 SA
ATOM      6  C4  UNL d   1      -3.813  -1.863   5.126  0.00  0.00     0.022 A 
ATOM      7  C5  UNL d   1      -3.581  -0.828   6.000  0.00  0.00     0.026 A 
ATOM      8  C6  UNL d   1      -3.896   0.456   5.440  0.00  0.00    -0.082 A 
ATOM      9  C7  UNL d   1      -3.801   1.754   5.999  0.00  0.00     0.045 A 
ENDROOT
TORSDOF 0
ENDMDL
