MODEL 1
REMARK minimizedAffinity 0.749839485
REMARK minimizedRMSD -1
REMARK  2 active torsions:
REMARK  status: ('A' for Active; 'I' for Inactive)
REMARK    1  A    between atoms: C1_2  and  C2_3 
REMARK    2  A    between atoms: C2_3  and  C3_4 
ROOT
ATOM      1  C3  UNL d   1      -0.829   0.799  -1.312  0.00  0.00    -0.075 A 
ATOM      2  C4  UNL d   1      -0.167   1.767  -0.542  0.00  0.00     0.002 A 
ATOM      3  C5  UNL d   1       0.357   1.441   0.709  0.00  0.00     0.002 A 
ATOM      4  C6  UNL d   1       0.218   0.148   1.210  0.00  0.00    -0.004 A 
ATOM      5  C7  UNL d   1      -0.452  -0.817   0.461  0.00  0.00     0.002 A 
ATOM      6  C8  UNL d   1      -0.973  -0.494  -0.793  0.00  0.00     0.002 A 
ENDROOT
BRANCH   1   7
ATOM      7  C2  UNL d   1      -1.372   1.139  -2.679  0.00  0.00     0.056 C 
BRANCH   7   8
ATOM      8  C1  UNL d   1      -2.759   0.552  -2.962  0.00  0.00     0.007 C 
ATOM      9  C   UNL d   1      -2.723  -0.650  -3.897  0.00  0.00     0.009 C 
ENDBRANCH   7   8
ENDBRANCH   1   7
TORSDOF 2
ENDMDL
