MODEL 1
REMARK minimizedAffinity -2.9337914
REMARK minimizedRMSD -1
REMARK  2 active torsions:
REMARK  status: ('A' for Active; 'I' for Inactive)
REMARK    1  A    between atoms: C1_2  and  C2_3 
REMARK    2  A    between atoms: C2_3  and  C3_4 
ROOT
ATOM      1  C3  UNL d   1      -0.294   0.410  -0.125  0.00  0.00    -0.075 A 
ATOM      2  C4  UNL d   1       0.307   1.653   0.122  0.00  0.00     0.002 A 
ATOM      3  C5  UNL d   1       1.608   1.724   0.620  0.00  0.00     0.002 A 
ATOM      4  C6  UNL d   1       2.320   0.557   0.887  0.00  0.00    -0.004 A 
ATOM      5  C7  UNL d   1       1.727  -0.684   0.661  0.00  0.00     0.002 A 
ATOM      6  C8  UNL d   1       0.427  -0.758   0.158  0.00  0.00     0.002 A 
ENDROOT
BRANCH   1   7
ATOM      7  C2  UNL d   1      -1.691   0.326  -0.692  0.00  0.00     0.056 C 
BRANCH   7   8
ATOM      8  C1  UNL d   1      -1.820  -0.613  -1.896  0.00  0.00     0.007 C 
ATOM      9  C   UNL d   1      -2.611  -0.007  -3.048  0.00  0.00     0.009 C 
ENDBRANCH   7   8
ENDBRANCH   1   7
TORSDOF 2
ENDMDL
