MODEL 1
REMARK minimizedAffinity -4.72640944
REMARK minimizedRMSD -1
REMARK  2 active torsions:
REMARK  status: ('A' for Active; 'I' for Inactive)
REMARK    1  A    between atoms: C1_2  and  C2_3 
REMARK    2  A    between atoms: C2_3  and  C3_4 
ROOT
ATOM      1  C3  UNL d   1       0.069   0.024  -0.073  0.00  0.00    -0.075 A 
ATOM      2  C4  UNL d   1       0.761   1.164   0.361  0.00  0.00     0.002 A 
ATOM      3  C5  UNL d   1       2.078   1.065   0.811  0.00  0.00     0.002 A 
ATOM      4  C6  UNL d   1       2.715  -0.174   0.843  0.00  0.00    -0.004 A 
ATOM      5  C7  UNL d   1       2.031  -1.316   0.431  0.00  0.00     0.002 A 
ATOM      6  C8  UNL d   1       0.715  -1.219  -0.024  0.00  0.00     0.002 A 
ENDROOT
BRANCH   1   7
ATOM      7  C2  UNL d   1      -1.346   0.128  -0.589  0.00  0.00     0.056 C 
BRANCH   7   8
ATOM      8  C1  UNL d   1      -1.548  -0.475  -1.983  0.00  0.00     0.007 C 
ATOM      9  C   UNL d   1      -2.694   0.167  -2.754  0.00  0.00     0.009 C 
ENDBRANCH   7   8
ENDBRANCH   1   7
TORSDOF 2
ENDMDL
