MODEL 1
REMARK minimizedAffinity -3.47649717
REMARK minimizedRMSD -1
REMARK  2 active torsions:
REMARK  status: ('A' for Active; 'I' for Inactive)
REMARK    1  A    between atoms: C1_2  and  C2_3 
REMARK    2  A    between atoms: C2_3  and  C3_4 
ROOT
ATOM      1  C3  UNL d   1      -0.229   0.079   0.148  0.00  0.00    -0.075 A 
ATOM      2  C4  UNL d   1       0.362  -1.101   0.622  0.00  0.00     0.002 A 
ATOM      3  C5  UNL d   1       1.684  -1.103   1.065  0.00  0.00     0.002 A 
ATOM      4  C6  UNL d   1       2.435   0.070   1.031  0.00  0.00    -0.004 A 
ATOM      5  C7  UNL d   1       1.864   1.244   0.546  0.00  0.00     0.002 A 
ATOM      6  C8  UNL d   1       0.540   1.250   0.106  0.00  0.00     0.002 A 
ENDROOT
BRANCH   1   7
ATOM      7  C2  UNL d   1      -1.669   0.094  -0.306  0.00  0.00     0.056 C 
BRANCH   7   8
ATOM      8  C1  UNL d   1      -1.865  -0.298  -1.774  0.00  0.00     0.007 C 
ATOM      9  C   UNL d   1      -3.013   0.444  -2.445  0.00  0.00     0.009 C 
ENDBRANCH   7   8
ENDBRANCH   1   7
TORSDOF 2
ENDMDL
