MODEL 1
REMARK minimizedAffinity -2.65716958
REMARK minimizedRMSD -1
REMARK  2 active torsions:
REMARK  status: ('A' for Active; 'I' for Inactive)
REMARK    1  A    between atoms: C1_2  and  C2_3 
REMARK    2  A    between atoms: C2_3  and  C3_4 
ROOT
ATOM      1  C3  UNL d   1       0.291   0.245   0.180  0.00  0.00    -0.075 A 
ATOM      2  C4  UNL d   1       1.037   1.418   0.364  0.00  0.00     0.002 A 
ATOM      3  C5  UNL d   1       2.405   1.352   0.631  0.00  0.00     0.002 A 
ATOM      4  C6  UNL d   1       3.041   0.117   0.728  0.00  0.00    -0.004 A 
ATOM      5  C7  UNL d   1       2.306  -1.055   0.563  0.00  0.00     0.002 A 
ATOM      6  C8  UNL d   1       0.938  -0.993   0.291  0.00  0.00     0.002 A 
ENDROOT
BRANCH   1   7
ATOM      7  C2  UNL d   1      -1.184   0.310  -0.138  0.00  0.00     0.056 C 
BRANCH   7   8
ATOM      8  C1  UNL d   1      -1.554  -0.281  -1.503  0.00  0.00     0.007 C 
ATOM      9  C   UNL d   1      -2.254   0.714  -2.419  0.00  0.00     0.009 C 
ENDBRANCH   7   8
ENDBRANCH   1   7
TORSDOF 2
ENDMDL
