MODEL 1
REMARK minimizedAffinity -0.754204988
REMARK minimizedRMSD -1
REMARK  0 active torsions:
REMARK  status: ('A' for Active; 'I' for Inactive)
ROOT
ATOM      1  C   UNL d   1       2.244  -0.090   2.020  0.00  0.00     0.078 C 
ATOM      2  C1  UNL d   1       2.098  -1.445   2.644  0.00  0.00    -0.077 A 
ATOM      3  C2  UNL d   1       2.952  -2.497   2.291  0.00  0.00    -0.001 A 
ATOM      4  C3  UNL d   1       2.798  -3.756   2.874  0.00  0.00     0.003 A 
ATOM      5  C4  UNL d   1       1.791  -3.975   3.812  0.00  0.00    -0.005 A 
ATOM      6  C5  UNL d   1       0.935  -2.934   4.168  0.00  0.00     0.003 A 
ATOM      7  C6  UNL d   1       1.088  -1.675   3.586  0.00  0.00    -0.001 A 
ENDROOT
TORSDOF 0
ENDMDL
