MODEL 1
REMARK minimizedAffinity 0.184767798
REMARK minimizedRMSD -1
REMARK  0 active torsions:
REMARK  status: ('A' for Active; 'I' for Inactive)
ROOT
ATOM      1  C   UNL d   1       5.914  -5.997  -5.906  0.00  0.00     0.078 C 
ATOM      2  C1  UNL d   1       4.591  -5.990  -5.199  0.00  0.00    -0.077 A 
ATOM      3  C2  UNL d   1       4.520  -5.993  -3.801  0.00  0.00    -0.001 A 
ATOM      4  C3  UNL d   1       3.282  -5.997  -3.157  0.00  0.00     0.003 A 
ATOM      5  C4  UNL d   1       2.105  -5.998  -3.903  0.00  0.00    -0.005 A 
ATOM      6  C5  UNL d   1       2.165  -5.997  -5.295  0.00  0.00     0.003 A 
ATOM      7  C6  UNL d   1       3.403  -5.994  -5.941  0.00  0.00    -0.001 A 
ENDROOT
TORSDOF 0
ENDMDL
