MODEL 1
REMARK minimizedAffinity 5.06077957
REMARK minimizedRMSD -1
REMARK  0 active torsions:
REMARK  status: ('A' for Active; 'I' for Inactive)
ROOT
ATOM      1  C   UNL d   1       2.479  -4.808   1.481  0.00  0.00     0.078 C 
ATOM      2  C1  UNL d   1       2.117  -3.399   1.845  0.00  0.00    -0.077 A 
ATOM      3  C2  UNL d   1       2.934  -2.326   1.470  0.00  0.00    -0.001 A 
ATOM      4  C3  UNL d   1       2.590  -1.020   1.824  0.00  0.00     0.003 A 
ATOM      5  C4  UNL d   1       1.430  -0.776   2.555  0.00  0.00    -0.005 A 
ATOM      6  C5  UNL d   1       0.611  -1.838   2.934  0.00  0.00     0.003 A 
ATOM      7  C6  UNL d   1       0.954  -3.144   2.581  0.00  0.00    -0.001 A 
ENDROOT
TORSDOF 0
ENDMDL
