MODEL 1
REMARK minimizedAffinity -2.35801005
REMARK minimizedRMSD -1
REMARK  0 active torsions:
REMARK  status: ('A' for Active; 'I' for Inactive)
ROOT
ATOM      1  C   UNL d   1       5.239  -5.949  -1.903  0.00  0.00     0.078 C 
ATOM      2  C1  UNL d   1       4.789  -5.974  -3.334  0.00  0.00    -0.077 A 
ATOM      3  C2  UNL d   1       5.718  -5.978  -4.382  0.00  0.00    -0.001 A 
ATOM      4  C3  UNL d   1       5.285  -5.991  -5.709  0.00  0.00     0.003 A 
ATOM      5  C4  UNL d   1       3.922  -5.998  -6.000  0.00  0.00    -0.005 A 
ATOM      6  C5  UNL d   1       2.991  -5.992  -4.964  0.00  0.00     0.003 A 
ATOM      7  C6  UNL d   1       3.422  -5.979  -3.636  0.00  0.00    -0.001 A 
ENDROOT
TORSDOF 0
ENDMDL
