MODEL 1
REMARK minimizedAffinity 4.84746647
REMARK minimizedRMSD -1
REMARK  0 active torsions:
REMARK  status: ('A' for Active; 'I' for Inactive)
ROOT
ATOM      1  C   UNL d   1       5.567  -3.142   3.668  0.00  0.00     0.078 C 
ATOM      2  C1  UNL d   1       4.074  -3.013   3.607  0.00  0.00    -0.077 A 
ATOM      3  C2  UNL d   1       3.458  -2.228   2.625  0.00  0.00    -0.001 A 
ATOM      4  C3  UNL d   1       2.068  -2.110   2.585  0.00  0.00     0.003 A 
ATOM      5  C4  UNL d   1       1.282  -2.772   3.527  0.00  0.00    -0.005 A 
ATOM      6  C5  UNL d   1       1.887  -3.554   4.509  0.00  0.00     0.003 A 
ATOM      7  C6  UNL d   1       3.277  -3.673   4.550  0.00  0.00    -0.001 A 
ENDROOT
TORSDOF 0
ENDMDL
