MODEL 1
REMARK minimizedAffinity 3.9449234
REMARK minimizedRMSD -1
REMARK  0 active torsions:
REMARK  status: ('A' for Active; 'I' for Inactive)
ROOT
ATOM      1  C   UNL d   1      -3.661  -1.785  -5.697  0.00  0.00     0.078 C 
ATOM      2  C1  UNL d   1      -3.525  -0.629  -4.751  0.00  0.00    -0.077 A 
ATOM      3  C2  UNL d   1      -3.083  -0.822  -3.436  0.00  0.00    -0.001 A 
ATOM      4  C3  UNL d   1      -2.971   0.262  -2.564  0.00  0.00     0.003 A 
ATOM      5  C4  UNL d   1      -3.298   1.545  -2.996  0.00  0.00    -0.005 A 
ATOM      6  C5  UNL d   1      -3.740   1.746  -4.302  0.00  0.00     0.003 A 
ATOM      7  C6  UNL d   1      -3.854   0.664  -5.176  0.00  0.00    -0.001 A 
ENDROOT
TORSDOF 0
ENDMDL
