MODEL 1
REMARK minimizedAffinity 5.33956528
REMARK minimizedRMSD -1
REMARK  0 active torsions:
REMARK  status: ('A' for Active; 'I' for Inactive)
ROOT
ATOM      1  C   UNL d   1       3.778  -5.970  -1.368  0.00  0.00     0.078 C 
ATOM      2  C1  UNL d   1       3.713  -5.973  -2.866  0.00  0.00    -0.077 A 
ATOM      3  C2  UNL d   1       2.482  -5.977  -3.534  0.00  0.00    -0.001 A 
ATOM      4  C3  UNL d   1       2.436  -5.990  -4.929  0.00  0.00     0.003 A 
ATOM      5  C4  UNL d   1       3.617  -5.998  -5.668  0.00  0.00    -0.005 A 
ATOM      6  C5  UNL d   1       4.847  -5.996  -5.012  0.00  0.00     0.003 A 
ATOM      7  C6  UNL d   1       4.895  -5.984  -3.617  0.00  0.00    -0.001 A 
ENDROOT
TORSDOF 0
ENDMDL
