MODEL 1
REMARK minimizedAffinity 7.15970325
REMARK minimizedRMSD -1
REMARK  0 active torsions:
REMARK  status: ('A' for Active; 'I' for Inactive)
ROOT
ATOM      1  C   UNL d   1      -4.566   1.607  -5.347  0.00  0.00     0.078 C 
ATOM      2  C1  UNL d   1      -4.061   0.775  -4.206  0.00  0.00    -0.077 A 
ATOM      3  C2  UNL d   1      -3.436   1.369  -3.102  0.00  0.00    -0.001 A 
ATOM      4  C3  UNL d   1      -2.962   0.582  -2.052  0.00  0.00     0.003 A 
ATOM      5  C4  UNL d   1      -3.107  -0.804  -2.095  0.00  0.00    -0.005 A 
ATOM      6  C5  UNL d   1      -3.726  -1.403  -3.190  0.00  0.00     0.003 A 
ATOM      7  C6  UNL d   1      -4.200  -0.618  -4.241  0.00  0.00    -0.001 A 
ENDROOT
TORSDOF 0
ENDMDL
