MODEL 1
REMARK minimizedAffinity 1.92505717
REMARK minimizedRMSD -1
REMARK  0 active torsions:
REMARK  status: ('A' for Active; 'I' for Inactive)
ROOT
ATOM      1  C   UNL d   1       2.006  -0.918   2.308  0.00  0.00     0.078 C 
ATOM      2  C1  UNL d   1       2.179  -2.147   3.149  0.00  0.00    -0.077 A 
ATOM      3  C2  UNL d   1       2.961  -2.123   4.310  0.00  0.00    -0.001 A 
ATOM      4  C3  UNL d   1       3.121  -3.278   5.078  0.00  0.00     0.003 A 
ATOM      5  C4  UNL d   1       2.502  -4.465   4.692  0.00  0.00    -0.005 A 
ATOM      6  C5  UNL d   1       1.723  -4.499   3.538  0.00  0.00     0.003 A 
ATOM      7  C6  UNL d   1       1.562  -3.346   2.769  0.00  0.00    -0.001 A 
ENDROOT
TORSDOF 0
ENDMDL
