MODEL 1
REMARK minimizedAffinity 1.00018239
REMARK minimizedRMSD -1
REMARK  0 active torsions:
REMARK  status: ('A' for Active; 'I' for Inactive)
ROOT
ATOM      1  C   UNL d   1       5.152  -5.991  -5.974  0.00  0.00     0.078 C 
ATOM      2  C1  UNL d   1       3.971  -5.987  -5.050  0.00  0.00    -0.077 A 
ATOM      3  C2  UNL d   1       4.143  -5.993  -3.660  0.00  0.00    -0.001 A 
ATOM      4  C3  UNL d   1       3.034  -5.999  -2.812  0.00  0.00     0.003 A 
ATOM      5  C4  UNL d   1       1.746  -5.999  -3.344  0.00  0.00    -0.005 A 
ATOM      6  C5  UNL d   1       1.566  -5.995  -4.726  0.00  0.00     0.003 A 
ATOM      7  C6  UNL d   1       2.673  -5.989  -5.575  0.00  0.00    -0.001 A 
ENDROOT
TORSDOF 0
ENDMDL
