MODEL 1
REMARK minimizedAffinity 0.518070638
REMARK minimizedRMSD -1
REMARK  0 active torsions:
REMARK  status: ('A' for Active; 'I' for Inactive)
ROOT
ATOM      1  C   UNL d   1       1.568  -5.973  -4.662  0.00  0.00     0.078 C 
ATOM      2  C1  UNL d   1       3.067  -5.987  -4.670  0.00  0.00    -0.077 A 
ATOM      3  C2  UNL d   1       3.795  -5.978  -3.474  0.00  0.00    -0.001 A 
ATOM      4  C3  UNL d   1       5.191  -5.981  -3.497  0.00  0.00     0.003 A 
ATOM      5  C4  UNL d   1       5.871  -5.992  -4.713  0.00  0.00    -0.005 A 
ATOM      6  C5  UNL d   1       5.155  -5.998  -5.909  0.00  0.00     0.003 A 
ATOM      7  C6  UNL d   1       3.759  -5.996  -5.888  0.00  0.00    -0.001 A 
ENDROOT
TORSDOF 0
ENDMDL
