MODEL 1
REMARK minimizedAffinity -2.71748161
REMARK minimizedRMSD -1
REMARK  0 active torsions:
REMARK  status: ('A' for Active; 'I' for Inactive)
ROOT
ATOM      1  C   UNL d   1       1.772  -3.250  -0.056  0.00  0.00     0.077 C 
ATOM      2  C1  UNL d   1       1.413  -1.849  -0.454  0.00  0.00    -0.074 A 
ATOM      3  C2  UNL d   1       0.905  -1.571  -1.727  0.00  0.00    -0.005 A 
ATOM      4  C3  UNL d   1       0.567  -0.264  -2.079  0.00  0.00     0.006 A 
ATOM      5  C4  UNL d   1       0.732   0.775  -1.164  0.00  0.00    -0.005 A 
ATOM      6  C5  UNL d   1       1.237   0.516   0.114  0.00  0.00    -0.074 A 
ATOM      7  C6  UNL d   1       1.412   1.621   1.114  0.00  0.00     0.077 C 
ATOM      8  C7  UNL d   1       1.569  -0.800   0.463  0.00  0.00    -0.001 A 
ENDROOT
TORSDOF 0
ENDMDL
