MODEL 1
REMARK minimizedAffinity -1.7218256
REMARK minimizedRMSD -1
REMARK  0 active torsions:
REMARK  status: ('A' for Active; 'I' for Inactive)
ROOT
ATOM      1  C   UNL d   1       1.074  -2.466   0.651  0.00  0.00     0.077 C 
ATOM      2  C1  UNL d   1       1.115  -1.347  -0.346  0.00  0.00    -0.074 A 
ATOM      3  C2  UNL d   1       0.415  -1.433  -1.554  0.00  0.00    -0.005 A 
ATOM      4  C3  UNL d   1       0.455  -0.380  -2.467  0.00  0.00     0.006 A 
ATOM      5  C4  UNL d   1       1.195   0.769  -2.183  0.00  0.00    -0.005 A 
ATOM      6  C5  UNL d   1       1.900   0.874  -0.980  0.00  0.00    -0.074 A 
ATOM      7  C6  UNL d   1       2.692   2.105  -0.655  0.00  0.00     0.077 C 
ATOM      8  C7  UNL d   1       1.849  -0.186  -0.065  0.00  0.00    -0.001 A 
ENDROOT
TORSDOF 0
ENDMDL
