MODEL 1
REMARK minimizedAffinity -2.89170504
REMARK minimizedRMSD -1
REMARK  0 active torsions:
REMARK  status: ('A' for Active; 'I' for Inactive)
ROOT
ATOM      1  C   UNL d   1       1.267   1.105   2.097  0.00  0.00     0.077 C 
ATOM      2  C1  UNL d   1       1.368   1.245   0.607  0.00  0.00    -0.074 A 
ATOM      3  C2  UNL d   1       1.050   0.178  -0.239  0.00  0.00    -0.005 A 
ATOM      4  C3  UNL d   1       1.140   0.326  -1.623  0.00  0.00     0.006 A 
ATOM      5  C4  UNL d   1       1.549   1.541  -2.174  0.00  0.00    -0.005 A 
ATOM      6  C5  UNL d   1       1.871   2.619  -1.344  0.00  0.00    -0.074 A 
ATOM      7  C6  UNL d   1       2.303   3.935  -1.921  0.00  0.00     0.077 C 
ATOM      8  C7  UNL d   1       1.771   2.465   0.045  0.00  0.00    -0.001 A 
ENDROOT
TORSDOF 0
ENDMDL
