MODEL 1
REMARK minimizedAffinity -5.68576241
REMARK minimizedRMSD -1
REMARK  0 active torsions:
REMARK  status: ('A' for Active; 'I' for Inactive)
ROOT
ATOM      1  C   UNL d   1       0.729   0.171  -3.264  0.00  0.00     0.077 C 
ATOM      2  C1  UNL d   1       1.040   0.976  -2.037  0.00  0.00    -0.074 A 
ATOM      3  C2  UNL d   1       1.055   0.382  -0.771  0.00  0.00    -0.005 A 
ATOM      4  C3  UNL d   1       1.355   1.142   0.359  0.00  0.00     0.006 A 
ATOM      5  C4  UNL d   1       1.642   2.502   0.235  0.00  0.00    -0.005 A 
ATOM      6  C5  UNL d   1       1.632   3.114  -1.022  0.00  0.00    -0.074 A 
ATOM      7  C6  UNL d   1       1.948   4.572  -1.174  0.00  0.00     0.077 C 
ATOM      8  C7  UNL d   1       1.337   2.342  -2.154  0.00  0.00    -0.001 A 
ENDROOT
TORSDOF 0
ENDMDL
