MODEL 1
REMARK minimizedAffinity 6.93251944
REMARK minimizedRMSD -1
REMARK  0 active torsions:
REMARK  status: ('A' for Active; 'I' for Inactive)
ROOT
ATOM      1  C   UNL d   1      -1.851   1.834  -2.370  0.00  0.00     0.077 C 
ATOM      2  C1  UNL d   1      -0.417   1.677  -1.958  0.00  0.00    -0.074 A 
ATOM      3  C2  UNL d   1       0.569   2.541  -2.444  0.00  0.00    -0.005 A 
ATOM      4  C3  UNL d   1       1.897   2.389  -2.045  0.00  0.00     0.006 A 
ATOM      5  C4  UNL d   1       2.251   1.372  -1.157  0.00  0.00    -0.005 A 
ATOM      6  C5  UNL d   1       1.278   0.499  -0.660  0.00  0.00    -0.074 A 
ATOM      7  C6  UNL d   1       1.640  -0.593   0.303  0.00  0.00     0.077 C 
ATOM      8  C7  UNL d   1      -0.055   0.663  -1.061  0.00  0.00    -0.001 A 
ENDROOT
TORSDOF 0
ENDMDL
