MODEL 1
REMARK minimizedAffinity -1.87492132
REMARK minimizedRMSD -1
REMARK  0 active torsions:
REMARK  status: ('A' for Active; 'I' for Inactive)
ROOT
ATOM      1  C   UNL d   1       2.513   4.519  -1.205  0.00  0.00     0.077 C 
ATOM      2  C1  UNL d   1       2.019   3.149  -0.848  0.00  0.00    -0.074 A 
ATOM      3  C2  UNL d   1       1.750   2.805   0.481  0.00  0.00    -0.005 A 
ATOM      4  C3  UNL d   1       1.281   1.530   0.798  0.00  0.00     0.006 A 
ATOM      5  C4  UNL d   1       1.077   0.587  -0.210  0.00  0.00    -0.005 A 
ATOM      6  C5  UNL d   1       1.339   0.912  -1.545  0.00  0.00    -0.074 A 
ATOM      7  C6  UNL d   1       1.116  -0.087  -2.641  0.00  0.00     0.077 C 
ATOM      8  C7  UNL d   1       1.803   2.198  -1.855  0.00  0.00    -0.001 A 
ENDROOT
TORSDOF 0
ENDMDL
