MODEL 1
REMARK minimizedAffinity 6.66650581
REMARK minimizedRMSD -1
REMARK  0 active torsions:
REMARK  status: ('A' for Active; 'I' for Inactive)
ROOT
ATOM      1  C   UNL d   1       1.934  -2.973   0.054  0.00  0.00     0.077 C 
ATOM      2  C1  UNL d   1       1.617  -1.564  -0.351  0.00  0.00    -0.074 A 
ATOM      3  C2  UNL d   1       1.016  -1.288  -1.583  0.00  0.00    -0.005 A 
ATOM      4  C3  UNL d   1       0.719   0.026  -1.943  0.00  0.00     0.006 A 
ATOM      5  C4  UNL d   1       1.020   1.077  -1.075  0.00  0.00    -0.005 A 
ATOM      6  C5  UNL d   1       1.620   0.820   0.162  0.00  0.00    -0.074 A 
ATOM      7  C6  UNL d   1       1.940   1.937   1.111  0.00  0.00     0.077 C 
ATOM      8  C7  UNL d   1       1.909  -0.504   0.519  0.00  0.00    -0.001 A 
ENDROOT
TORSDOF 0
ENDMDL
