MODEL 1
REMARK minimizedAffinity 2.21305299
REMARK minimizedRMSD -1
REMARK  0 active torsions:
REMARK  status: ('A' for Active; 'I' for Inactive)
ROOT
ATOM      1  C   UNL d   1       1.907   1.501   1.814  0.00  0.00     0.077 C 
ATOM      2  C1  UNL d   1       1.643   1.328   0.348  0.00  0.00    -0.074 A 
ATOM      3  C2  UNL d   1       1.994   2.325  -0.568  0.00  0.00    -0.005 A 
ATOM      4  C3  UNL d   1       1.752   2.145  -1.930  0.00  0.00     0.006 A 
ATOM      5  C4  UNL d   1       1.156   0.970  -2.389  0.00  0.00    -0.005 A 
ATOM      6  C5  UNL d   1       0.799  -0.039  -1.488  0.00  0.00    -0.074 A 
ATOM      7  C6  UNL d   1       0.168  -1.312  -1.965  0.00  0.00     0.077 C 
ATOM      8  C7  UNL d   1       1.053   0.146  -0.122  0.00  0.00    -0.001 A 
ENDROOT
TORSDOF 0
ENDMDL
