MODEL 1
REMARK minimizedAffinity -3.13454485
REMARK minimizedRMSD -1
REMARK  0 active torsions:
REMARK  status: ('A' for Active; 'I' for Inactive)
ROOT
ATOM      1  C   UNL d   1       1.787   3.702  -1.836  0.00  0.00     0.077 C 
ATOM      2  C1  UNL d   1       1.504   2.381  -1.184  0.00  0.00    -0.074 A 
ATOM      3  C2  UNL d   1       1.316   1.226  -1.951  0.00  0.00    -0.005 A 
ATOM      4  C3  UNL d   1       1.063   0.003  -1.330  0.00  0.00     0.006 A 
ATOM      5  C4  UNL d   1       0.996  -0.078   0.061  0.00  0.00    -0.005 A 
ATOM      6  C5  UNL d   1       1.183   1.065   0.844  0.00  0.00    -0.074 A 
ATOM      7  C6  UNL d   1       1.124   0.993   2.341  0.00  0.00     0.077 C 
ATOM      8  C7  UNL d   1       1.443   2.289   0.213  0.00  0.00    -0.001 A 
ENDROOT
TORSDOF 0
ENDMDL
