MODEL 1
REMARK minimizedAffinity 7.785501
REMARK minimizedRMSD -1
REMARK  0 active torsions:
REMARK  status: ('A' for Active; 'I' for Inactive)
ROOT
ATOM      1  C   UNL d   1      -2.078   1.201   5.016  0.00  0.00     0.077 C 
ATOM      2  C1  UNL d   1      -2.367   2.161   3.900  0.00  0.00    -0.074 A 
ATOM      3  C2  UNL d   1      -3.234   1.813   2.859  0.00  0.00    -0.005 A 
ATOM      4  C3  UNL d   1      -3.500   2.719   1.833  0.00  0.00     0.006 A 
ATOM      5  C4  UNL d   1      -2.903   3.981   1.838  0.00  0.00    -0.005 A 
ATOM      6  C5  UNL d   1      -2.035   4.347   2.871  0.00  0.00    -0.074 A 
ATOM      7  C6  UNL d   1      -1.393   5.702   2.896  0.00  0.00     0.077 C 
ATOM      8  C7  UNL d   1      -1.777   3.433   3.902  0.00  0.00    -0.001 A 
ENDROOT
TORSDOF 0
ENDMDL
