MODEL 1
REMARK minimizedAffinity -4.77517891
REMARK minimizedRMSD -1
REMARK  0 active torsions:
REMARK  status: ('A' for Active; 'I' for Inactive)
ROOT
ATOM      1  C   UNL d   1      -1.256   0.418   1.349  0.00  0.00     0.077 C 
ATOM      2  C1  UNL d   1      -0.052   0.658   0.487  0.00  0.00    -0.074 A 
ATOM      3  C2  UNL d   1       1.013   1.442   0.942  0.00  0.00    -0.005 A 
ATOM      4  C3  UNL d   1       2.130   1.649   0.133  0.00  0.00     0.006 A 
ATOM      5  C4  UNL d   1       2.194   1.074  -1.137  0.00  0.00    -0.005 A 
ATOM      6  C5  UNL d   1       1.139   0.287  -1.609  0.00  0.00    -0.074 A 
ATOM      7  C6  UNL d   1       1.195  -0.346  -2.968  0.00  0.00     0.077 C 
ATOM      8  C7  UNL d   1       0.022   0.078  -0.787  0.00  0.00    -0.001 A 
ENDROOT
TORSDOF 0
ENDMDL
