MODEL 1
REMARK minimizedAffinity 9.83879471
REMARK minimizedRMSD -1
REMARK  0 active torsions:
REMARK  status: ('A' for Active; 'I' for Inactive)
ROOT
ATOM      1  C   UNL d   1       1.681  -2.091  -5.430  0.00  0.00     0.077 C 
ATOM      2  C1  UNL d   1       3.180  -2.090  -5.422  0.00  0.00    -0.074 A 
ATOM      3  C2  UNL d   1       3.902  -1.040  -6.000  0.00  0.00    -0.005 A 
ATOM      4  C3  UNL d   1       5.297  -1.049  -5.976  0.00  0.00     0.006 A 
ATOM      5  C4  UNL d   1       5.983  -2.105  -5.376  0.00  0.00    -0.005 A 
ATOM      6  C5  UNL d   1       5.278  -3.163  -4.793  0.00  0.00    -0.074 A 
ATOM      7  C6  UNL d   1       6.000  -4.302  -4.135  0.00  0.00     0.077 C 
ATOM      8  C7  UNL d   1       3.877  -3.144  -4.814  0.00  0.00    -0.001 A 
ENDROOT
TORSDOF 0
ENDMDL
