MODEL 1
REMARK minimizedAffinity -2.28025365
REMARK minimizedRMSD -1
REMARK  0 active torsions:
REMARK  status: ('A' for Active; 'I' for Inactive)
ROOT
ATOM      1  C   UNL d   1       1.991   4.774  -1.486  0.00  0.00     0.077 C 
ATOM      2  C1  UNL d   1       1.848   3.298  -1.263  0.00  0.00    -0.074 A 
ATOM      3  C2  UNL d   1       1.887   2.401  -2.335  0.00  0.00    -0.005 A 
ATOM      4  C3  UNL d   1       1.761   1.030  -2.111  0.00  0.00     0.006 A 
ATOM      5  C4  UNL d   1       1.596   0.543  -0.814  0.00  0.00    -0.005 A 
ATOM      6  C5  UNL d   1       1.556   1.424   0.271  0.00  0.00    -0.074 A 
ATOM      7  C6  UNL d   1       1.389   0.915   1.672  0.00  0.00     0.077 C 
ATOM      8  C7  UNL d   1       1.690   2.799   0.038  0.00  0.00    -0.001 A 
ENDROOT
TORSDOF 0
ENDMDL
