MODEL 1
REMARK minimizedAffinity 2.08988833
REMARK minimizedRMSD -1
REMARK  0 active torsions:
REMARK  status: ('A' for Active; 'I' for Inactive)
ROOT
ATOM      1  C   UNL d   1       2.495   4.157  -1.759  0.00  0.00     0.077 C 
ATOM      2  C1  UNL d   1       1.967   2.760  -1.899  0.00  0.00    -0.074 A 
ATOM      3  C2  UNL d   1       1.356   2.338  -3.084  0.00  0.00    -0.005 A 
ATOM      4  C3  UNL d   1       0.878   1.033  -3.203  0.00  0.00     0.006 A 
ATOM      5  C4  UNL d   1       1.006   0.138  -2.139  0.00  0.00    -0.005 A 
ATOM      6  C5  UNL d   1       1.614   0.542  -0.947  0.00  0.00    -0.074 A 
ATOM      7  C6  UNL d   1       1.769  -0.409   0.202  0.00  0.00     0.077 C 
ATOM      8  C7  UNL d   1       2.098   1.853  -0.838  0.00  0.00    -0.001 A 
ENDROOT
TORSDOF 0
ENDMDL
