MODEL 1
REMARK minimizedAffinity 4.54040909
REMARK minimizedRMSD -1
REMARK  0 active torsions:
REMARK  status: ('A' for Active; 'I' for Inactive)
ROOT
ATOM      1  C   UNL d   1       1.664   0.580   2.349  0.00  0.00     0.077 C 
ATOM      2  C1  UNL d   1       1.539   0.879   0.884  0.00  0.00    -0.074 A 
ATOM      3  C2  UNL d   1       1.029  -0.075  -0.003  0.00  0.00    -0.005 A 
ATOM      4  C3  UNL d   1       0.910   0.221  -1.361  0.00  0.00     0.006 A 
ATOM      5  C4  UNL d   1       1.299   1.471  -1.845  0.00  0.00    -0.005 A 
ATOM      6  C5  UNL d   1       1.810   2.437  -0.972  0.00  0.00    -0.074 A 
ATOM      7  C6  UNL d   1       2.223   3.789  -1.474  0.00  0.00     0.077 C 
ATOM      8  C7  UNL d   1       1.920   2.135   0.392  0.00  0.00    -0.001 A 
ENDROOT
TORSDOF 0
ENDMDL
