MODEL 1
REMARK minimizedAffinity 1.068753
REMARK minimizedRMSD -1
REMARK  0 active torsions:
REMARK  status: ('A' for Active; 'I' for Inactive)
ROOT
ATOM      1  C   UNL d   1       1.513   1.504   1.110  0.00  0.00     0.077 C 
ATOM      2  C1  UNL d   1       1.068   0.466   0.123  0.00  0.00    -0.074 A 
ATOM      3  C2  UNL d   1       0.563   0.833  -1.128  0.00  0.00    -0.005 A 
ATOM      4  C3  UNL d   1       0.162  -0.145  -2.039  0.00  0.00     0.006 A 
ATOM      5  C4  UNL d   1       0.262  -1.497  -1.708  0.00  0.00    -0.005 A 
ATOM      6  C5  UNL d   1       0.766  -1.883  -0.462  0.00  0.00    -0.074 A 
ATOM      7  C6  UNL d   1       0.889  -3.332  -0.094  0.00  0.00     0.077 C 
ATOM      8  C7  UNL d   1       1.173  -0.895   0.445  0.00  0.00    -0.001 A 
ENDROOT
TORSDOF 0
ENDMDL
