MODEL 1
REMARK minimizedAffinity 2.93222904
REMARK minimizedRMSD -1
REMARK  0 active torsions:
REMARK  status: ('A' for Active; 'I' for Inactive)
ROOT
ATOM      1  C   UNL d   1       1.615   2.122   1.057  0.00  0.00     0.077 C 
ATOM      2  C1  UNL d   1       1.257   1.196  -0.067  0.00  0.00    -0.074 A 
ATOM      3  C2  UNL d   1       0.832   1.696  -1.303  0.00  0.00    -0.005 A 
ATOM      4  C3  UNL d   1       0.512   0.823  -2.342  0.00  0.00     0.006 A 
ATOM      5  C4  UNL d   1       0.612  -0.557  -2.157  0.00  0.00    -0.005 A 
ATOM      6  C5  UNL d   1       1.036  -1.075  -0.929  0.00  0.00    -0.074 A 
ATOM      7  C6  UNL d   1       1.159  -2.555  -0.717  0.00  0.00     0.077 C 
ATOM      8  C7  UNL d   1       1.363  -0.191   0.108  0.00  0.00    -0.001 A 
ENDROOT
TORSDOF 0
ENDMDL
