MODEL 1
REMARK minimizedAffinity -0.838329554
REMARK minimizedRMSD -1
REMARK  0 active torsions:
REMARK  status: ('A' for Active; 'I' for Inactive)
ROOT
ATOM      1  C   UNL d   1       3.630   0.719   0.874  0.00  0.00     0.078 C 
ATOM      2  C1  UNL d   1       2.741   0.104   1.913  0.00  0.00    -0.077 A 
ATOM      3  C2  UNL d   1       2.137   0.889   2.902  0.00  0.00    -0.001 A 
ATOM      4  C3  UNL d   1       1.319   0.302   3.868  0.00  0.00     0.003 A 
ATOM      5  C4  UNL d   1       1.099  -1.074   3.856  0.00  0.00    -0.005 A 
ATOM      6  C5  UNL d   1       1.697  -1.864   2.877  0.00  0.00     0.003 A 
ATOM      7  C6  UNL d   1       2.515  -1.279   1.910  0.00  0.00    -0.001 A 
ENDROOT
TORSDOF 0
ENDMDL
