MODEL 1
REMARK minimizedAffinity -1.03977776
REMARK minimizedRMSD -1
REMARK  0 active torsions:
REMARK  status: ('A' for Active; 'I' for Inactive)
ROOT
ATOM      1  C   UNL d   1       2.943  -5.928   2.174  0.00  0.00     0.078 C 
ATOM      2  C1  UNL d   1       3.496  -5.960   0.781  0.00  0.00    -0.077 A 
ATOM      3  C2  UNL d   1       4.878  -5.980   0.553  0.00  0.00    -0.001 A 
ATOM      4  C3  UNL d   1       5.378  -6.000  -0.749  0.00  0.00     0.003 A 
ATOM      5  C4  UNL d   1       4.505  -6.000  -1.835  0.00  0.00    -0.005 A 
ATOM      6  C5  UNL d   1       3.128  -5.978  -1.619  0.00  0.00     0.003 A 
ATOM      7  C6  UNL d   1       2.626  -5.958  -0.317  0.00  0.00    -0.001 A 
ENDROOT
TORSDOF 0
ENDMDL
