MODEL 1
REMARK minimizedAffinity -0.685695767
REMARK minimizedRMSD -1
REMARK  0 active torsions:
REMARK  status: ('A' for Active; 'I' for Inactive)
ROOT
ATOM      1  C   UNL d   1       2.694   0.019   2.181  0.00  0.00     0.078 C 
ATOM      2  C1  UNL d   1       2.374  -1.273   2.871  0.00  0.00    -0.077 A 
ATOM      3  C2  UNL d   1       3.044  -1.651   4.041  0.00  0.00    -0.001 A 
ATOM      4  C3  UNL d   1       2.743  -2.861   4.668  0.00  0.00     0.003 A 
ATOM      5  C4  UNL d   1       1.772  -3.704   4.131  0.00  0.00    -0.005 A 
ATOM      6  C5  UNL d   1       1.102  -3.338   2.966  0.00  0.00     0.003 A 
ATOM      7  C6  UNL d   1       1.402  -2.128   2.338  0.00  0.00    -0.001 A 
ENDROOT
TORSDOF 0
ENDMDL
