MODEL 1
REMARK minimizedAffinity 2.38339758
REMARK minimizedRMSD -1
REMARK  0 active torsions:
REMARK  status: ('A' for Active; 'I' for Inactive)
ROOT
ATOM      1  C   UNL d   1       2.283  -5.951   1.467  0.00  0.00     0.078 C 
ATOM      2  C1  UNL d   1       3.301  -5.953   0.366  0.00  0.00    -0.077 A 
ATOM      3  C2  UNL d   1       4.671  -5.991   0.651  0.00  0.00    -0.001 A 
ATOM      4  C3  UNL d   1       5.608  -5.983  -0.383  0.00  0.00     0.003 A 
ATOM      5  C4  UNL d   1       5.184  -5.936  -1.710  0.00  0.00    -0.005 A 
ATOM      6  C5  UNL d   1       3.823  -5.896  -2.003  0.00  0.00     0.003 A 
ATOM      7  C6  UNL d   1       2.885  -5.903  -0.970  0.00  0.00    -0.001 A 
ENDROOT
TORSDOF 0
ENDMDL
