MODEL 1
REMARK minimizedAffinity 0.350974709
REMARK minimizedRMSD -1
REMARK  0 active torsions:
REMARK  status: ('A' for Active; 'I' for Inactive)
ROOT
ATOM      1  C   UNL d   1       5.649  -5.904  -6.000  0.00  0.00     0.078 C 
ATOM      2  C1  UNL d   1       4.535  -5.945  -4.997  0.00  0.00    -0.077 A 
ATOM      3  C2  UNL d   1       3.196  -5.957  -5.406  0.00  0.00    -0.001 A 
ATOM      4  C3  UNL d   1       2.169  -5.985  -4.460  0.00  0.00     0.003 A 
ATOM      5  C4  UNL d   1       2.471  -6.000  -3.100  0.00  0.00    -0.005 A 
ATOM      6  C5  UNL d   1       3.801  -5.986  -2.683  0.00  0.00     0.003 A 
ATOM      7  C6  UNL d   1       4.829  -5.958  -3.627  0.00  0.00    -0.001 A 
ENDROOT
TORSDOF 0
ENDMDL
