MODEL 1
REMARK minimizedAffinity 2.37754297
REMARK minimizedRMSD -1
REMARK  0 active torsions:
REMARK  status: ('A' for Active; 'I' for Inactive)
ROOT
ATOM      1  C   UNL d   1       3.401  -6.000  -1.759  0.00  0.00     0.078 C 
ATOM      2  C1  UNL d   1       3.140  -5.951  -3.235  0.00  0.00    -0.077 A 
ATOM      3  C2  UNL d   1       1.833  -5.947  -3.736  0.00  0.00    -0.001 A 
ATOM      4  C3  UNL d   1       1.605  -5.911  -5.113  0.00  0.00     0.003 A 
ATOM      5  C4  UNL d   1       2.679  -5.880  -6.000  0.00  0.00    -0.005 A 
ATOM      6  C5  UNL d   1       3.984  -5.886  -5.510  0.00  0.00     0.003 A 
ATOM      7  C6  UNL d   1       4.214  -5.922  -4.134  0.00  0.00    -0.001 A 
ENDROOT
TORSDOF 0
ENDMDL
