MODEL 1
REMARK minimizedAffinity 5.02060604
REMARK minimizedRMSD -1
REMARK  0 active torsions:
REMARK  status: ('A' for Active; 'I' for Inactive)
ROOT
ATOM      1  C   UNL d   1       1.887  -0.795   2.259  0.00  0.00     0.078 C 
ATOM      2  C1  UNL d   1       2.090  -2.107   2.955  0.00  0.00    -0.077 A 
ATOM      3  C2  UNL d   1       1.118  -3.113   2.894  0.00  0.00    -0.001 A 
ATOM      4  C3  UNL d   1       1.316  -4.327   3.555  0.00  0.00     0.003 A 
ATOM      5  C4  UNL d   1       2.484  -4.545   4.282  0.00  0.00    -0.005 A 
ATOM      6  C5  UNL d   1       3.457  -3.549   4.350  0.00  0.00     0.003 A 
ATOM      7  C6  UNL d   1       3.260  -2.335   3.690  0.00  0.00    -0.001 A 
ENDROOT
TORSDOF 0
ENDMDL
