MODEL 1
REMARK minimizedAffinity 12.7138882
REMARK minimizedRMSD -1
REMARK  2 active torsions:
REMARK  status: ('A' for Active; 'I' for Inactive)
REMARK    1  A    between atoms: C1_2  and  C2_3 
REMARK    2  A    between atoms: C2_3  and  C3_4 
ROOT
ATOM      1  C3  UNL d   1       2.617  -2.490  -0.804  0.00  0.00    -0.075 A 
ATOM      2  C4  UNL d   1       1.890  -2.829  -1.955  0.00  0.00     0.002 A 
ATOM      3  C5  UNL d   1       1.165  -1.858  -2.646  0.00  0.00     0.002 A 
ATOM      4  C6  UNL d   1       1.148  -0.542  -2.191  0.00  0.00    -0.004 A 
ATOM      5  C7  UNL d   1       1.852  -0.197  -1.040  0.00  0.00     0.002 A 
ATOM      6  C8  UNL d   1       2.583  -1.166  -0.349  0.00  0.00     0.002 A 
ENDROOT
BRANCH   1   7
ATOM      7  C2  UNL d   1       3.427  -3.530  -0.069  0.00  0.00     0.056 C 
BRANCH   7   8
ATOM      8  C1  UNL d   1       2.844  -4.945  -0.145  0.00  0.00     0.007 C 
ATOM      9  C   UNL d   1       3.874  -5.999  -0.529  0.00  0.00     0.009 C 
ENDBRANCH   7   8
ENDBRANCH   1   7
TORSDOF 2
ENDMDL
