MODEL 1
REMARK minimizedAffinity 10.4394121
REMARK minimizedRMSD -1
REMARK  2 active torsions:
REMARK  status: ('A' for Active; 'I' for Inactive)
REMARK    1  A    between atoms: C1_2  and  C2_3 
REMARK    2  A    between atoms: C2_3  and  C3_4 
ROOT
ATOM      1  C3  UNL d   1       1.748  -2.798  -2.354  0.00  0.00    -0.075 A 
ATOM      2  C4  UNL d   1       2.212  -2.536  -1.057  0.00  0.00     0.002 A 
ATOM      3  C5  UNL d   1       2.300  -1.225  -0.587  0.00  0.00     0.002 A 
ATOM      4  C6  UNL d   1       1.937  -0.161  -1.410  0.00  0.00    -0.004 A 
ATOM      5  C7  UNL d   1       1.491  -0.409  -2.707  0.00  0.00     0.002 A 
ATOM      6  C8  UNL d   1       1.398  -1.720  -3.178  0.00  0.00     0.002 A 
ENDROOT
BRANCH   1   7
ATOM      7  C2  UNL d   1       1.622  -4.216  -2.858  0.00  0.00     0.056 C 
BRANCH   7   8
ATOM      8  C1  UNL d   1       0.231  -4.565  -3.397  0.00  0.00     0.007 C 
ATOM      9  C   UNL d   1       0.127  -5.995  -3.910  0.00  0.00     0.009 C 
ENDBRANCH   7   8
ENDBRANCH   1   7
TORSDOF 2
ENDMDL
