MODEL 1
REMARK minimizedAffinity 9.47839546
REMARK minimizedRMSD -1
REMARK  2 active torsions:
REMARK  status: ('A' for Active; 'I' for Inactive)
REMARK    1  A    between atoms: C1_2  and  C2_3 
REMARK    2  A    between atoms: C2_3  and  C3_4 
ROOT
ATOM      1  C3  UNL d   1       2.149  -1.276  -1.176  0.00  0.00    -0.075 A 
ATOM      2  C4  UNL d   1       1.554  -0.844  -2.370  0.00  0.00     0.002 A 
ATOM      3  C5  UNL d   1       1.653   0.490  -2.769  0.00  0.00     0.002 A 
ATOM      4  C6  UNL d   1       2.338   1.408  -1.976  0.00  0.00    -0.004 A 
ATOM      5  C7  UNL d   1       2.919   0.993  -0.779  0.00  0.00     0.002 A 
ATOM      6  C8  UNL d   1       2.825  -0.342  -0.380  0.00  0.00     0.002 A 
ENDROOT
BRANCH   1   7
ATOM      7  C2  UNL d   1       2.070  -2.724  -0.754  0.00  0.00     0.056 C 
BRANCH   7   8
ATOM      8  C1  UNL d   1       3.423  -3.340  -0.382  0.00  0.00     0.007 C 
ATOM      9  C   UNL d   1       3.356  -4.844  -0.154  0.00  0.00     0.009 C 
ENDBRANCH   7   8
ENDBRANCH   1   7
TORSDOF 2
ENDMDL
