MODEL 1
REMARK minimizedAffinity 17.2208061
REMARK minimizedRMSD -1
REMARK  2 active torsions:
REMARK  status: ('A' for Active; 'I' for Inactive)
REMARK    1  A    between atoms: C1_2  and  C2_3 
REMARK    2  A    between atoms: C2_3  and  C3_4 
ROOT
ATOM      1  C3  UNL d   1       1.894   2.939   0.836  0.00  0.00    -0.075 A 
ATOM      2  C4  UNL d   1       2.451   2.039   1.756  0.00  0.00     0.002 A 
ATOM      3  C5  UNL d   1       3.565   1.272   1.412  0.00  0.00     0.002 A 
ATOM      4  C6  UNL d   1       4.128   1.388   0.143  0.00  0.00    -0.004 A 
ATOM      5  C7  UNL d   1       3.573   2.267  -0.785  0.00  0.00     0.002 A 
ATOM      6  C8  UNL d   1       2.461   3.038  -0.441  0.00  0.00     0.002 A 
ENDROOT
BRANCH   1   7
ATOM      7  C2  UNL d   1       0.706   3.792   1.213  0.00  0.00     0.056 C 
BRANCH   7   8
ATOM      8  C1  UNL d   1       0.895   5.285   0.926  0.00  0.00     0.007 C 
ATOM      9  C   UNL d   1       0.850   5.622  -0.558  0.00  0.00     0.009 C 
ENDBRANCH   7   8
ENDBRANCH   1   7
TORSDOF 2
ENDMDL
