MODEL 1
REMARK minimizedAffinity 13.3204947
REMARK minimizedRMSD -1
REMARK  2 active torsions:
REMARK  status: ('A' for Active; 'I' for Inactive)
REMARK    1  A    between atoms: C1_2  and  C2_3 
REMARK    2  A    between atoms: C2_3  and  C3_4 
ROOT
ATOM      1  C3  UNL d   1      -2.475  -3.589  -4.418  0.00  0.00    -0.075 A 
ATOM      2  C4  UNL d   1      -3.215  -4.492  -3.641  0.00  0.00     0.002 A 
ATOM      3  C5  UNL d   1      -2.623  -5.148  -2.562  0.00  0.00     0.002 A 
ATOM      4  C6  UNL d   1      -1.285  -4.918  -2.252  0.00  0.00    -0.004 A 
ATOM      5  C7  UNL d   1      -0.536  -4.036  -3.027  0.00  0.00     0.002 A 
ATOM      6  C8  UNL d   1      -1.126  -3.374  -4.105  0.00  0.00     0.002 A 
ENDROOT
BRANCH   1   7
ATOM      7  C2  UNL d   1      -3.118  -2.853  -5.570  0.00  0.00     0.056 C 
BRANCH   7   8
ATOM      8  C1  UNL d   1      -4.545  -3.313  -5.885  0.00  0.00     0.007 C 
ATOM      9  C   UNL d   1      -5.535  -2.161  -5.998  0.00  0.00     0.009 C 
ENDBRANCH   7   8
ENDBRANCH   1   7
TORSDOF 2
ENDMDL
