MODEL 1
REMARK minimizedAffinity 7.94158316
REMARK minimizedRMSD -1
REMARK  2 active torsions:
REMARK  status: ('A' for Active; 'I' for Inactive)
REMARK    1  A    between atoms: C1_2  and  C2_3 
REMARK    2  A    between atoms: C2_3  and  C3_4 
ROOT
ATOM      1  C3  UNL d   1       2.127  -3.042  -1.301  0.00  0.00    -0.075 A 
ATOM      2  C4  UNL d   1       2.102  -1.653  -1.492  0.00  0.00     0.002 A 
ATOM      3  C5  UNL d   1       1.385  -1.098  -2.552  0.00  0.00     0.002 A 
ATOM      4  C6  UNL d   1       0.696  -1.922  -3.439  0.00  0.00    -0.004 A 
ATOM      5  C7  UNL d   1       0.728  -3.304  -3.268  0.00  0.00     0.002 A 
ATOM      6  C8  UNL d   1       1.440  -3.863  -2.205  0.00  0.00     0.002 A 
ENDROOT
BRANCH   1   7
ATOM      7  C2  UNL d   1       2.877  -3.648  -0.138  0.00  0.00     0.056 C 
BRANCH   7   8
ATOM      8  C1  UNL d   1       3.997  -4.608  -0.550  0.00  0.00     0.007 C 
ATOM      9  C   UNL d   1       3.490  -5.988  -0.948  0.00  0.00     0.009 C 
ENDBRANCH   7   8
ENDBRANCH   1   7
TORSDOF 2
ENDMDL
