MODEL 1
REMARK minimizedAffinity 0.389084071
REMARK minimizedRMSD -1
REMARK  2 active torsions:
REMARK  status: ('A' for Active; 'I' for Inactive)
REMARK    1  A    between atoms: C1_2  and  C2_3 
REMARK    2  A    between atoms: C2_3  and  C3_4 
ROOT
ATOM      1  C3  UNL d   1       2.359  -2.039  -2.355  0.00  0.00    -0.075 A 
ATOM      2  C4  UNL d   1       2.055  -0.679  -2.198  0.00  0.00     0.002 A 
ATOM      3  C5  UNL d   1       2.408  -0.005  -1.028  0.00  0.00     0.002 A 
ATOM      4  C6  UNL d   1       3.060  -0.682   0.000  0.00  0.00    -0.004 A 
ATOM      5  C7  UNL d   1       3.352  -2.037  -0.139  0.00  0.00     0.002 A 
ATOM      6  C8  UNL d   1       3.004  -2.713  -1.309  0.00  0.00     0.002 A 
ENDROOT
BRANCH   1   7
ATOM      7  C2  UNL d   1       2.006  -2.767  -3.630  0.00  0.00     0.056 C 
BRANCH   7   8
ATOM      8  C1  UNL d   1       3.176  -2.914  -4.609  0.00  0.00     0.007 C 
ATOM      9  C   UNL d   1       2.949  -2.187  -5.928  0.00  0.00     0.009 C 
ENDBRANCH   7   8
ENDBRANCH   1   7
TORSDOF 2
ENDMDL
