MODEL 1
REMARK minimizedAffinity 9.05244541
REMARK minimizedRMSD -1
REMARK  2 active torsions:
REMARK  status: ('A' for Active; 'I' for Inactive)
REMARK    1  A    between atoms: C1_2  and  C2_3 
REMARK    2  A    between atoms: C2_3  and  C3_4 
ROOT
ATOM      1  C3  UNL d   1       2.189   2.455  -1.695  0.00  0.00    -0.075 A 
ATOM      2  C4  UNL d   1       1.664   1.815  -2.827  0.00  0.00     0.002 A 
ATOM      3  C5  UNL d   1       1.554   0.425  -2.868  0.00  0.00     0.002 A 
ATOM      4  C6  UNL d   1       1.976  -0.342  -1.784  0.00  0.00    -0.004 A 
ATOM      5  C7  UNL d   1       2.514   0.282  -0.661  0.00  0.00     0.002 A 
ATOM      6  C8  UNL d   1       2.622   1.673  -0.616  0.00  0.00     0.002 A 
ENDROOT
BRANCH   1   7
ATOM      7  C2  UNL d   1       2.284   3.961  -1.633  0.00  0.00     0.056 C 
BRANCH   7   8
ATOM      8  C1  UNL d   1       0.960   4.656  -1.297  0.00  0.00     0.007 C 
ATOM      9  C   UNL d   1       0.851   5.067   0.165  0.00  0.00     0.009 C 
ENDBRANCH   7   8
ENDBRANCH   1   7
TORSDOF 2
ENDMDL
