MODEL 1
REMARK minimizedAffinity 13.4105749
REMARK minimizedRMSD -1
REMARK  2 active torsions:
REMARK  status: ('A' for Active; 'I' for Inactive)
REMARK    1  A    between atoms: C1_2  and  C2_3 
REMARK    2  A    between atoms: C2_3  and  C3_4 
ROOT
ATOM      1  C3  UNL d   1       1.529  -5.796  -1.001  0.00  0.00    -0.075 A 
ATOM      2  C4  UNL d   1       0.509  -5.404  -0.122  0.00  0.00     0.002 A 
ATOM      3  C5  UNL d   1       0.780  -5.199   1.231  0.00  0.00     0.002 A 
ATOM      4  C6  UNL d   1       2.068  -5.393   1.724  0.00  0.00    -0.004 A 
ATOM      5  C7  UNL d   1       3.086  -5.798   0.863  0.00  0.00     0.002 A 
ATOM      6  C8  UNL d   1       2.818  -6.000  -0.492  0.00  0.00     0.002 A 
ENDROOT
BRANCH   1   7
ATOM      7  C2  UNL d   1       1.248  -5.990  -2.472  0.00  0.00     0.056 C 
BRANCH   7   8
ATOM      8  C1  UNL d   1       0.278  -4.963  -3.063  0.00  0.00     0.007 C 
ATOM      9  C   UNL d   1      -1.127  -5.513  -3.269  0.00  0.00     0.009 C 
ENDBRANCH   7   8
ENDBRANCH   1   7
TORSDOF 2
ENDMDL
