MODEL 1
REMARK minimizedAffinity 15.5292511
REMARK minimizedRMSD -1
REMARK  2 active torsions:
REMARK  status: ('A' for Active; 'I' for Inactive)
REMARK    1  A    between atoms: C1_2  and  C2_3 
REMARK    2  A    between atoms: C2_3  and  C3_4 
ROOT
ATOM      1  C3  UNL d   1       1.793   3.606  -1.189  0.00  0.00    -0.075 A 
ATOM      2  C4  UNL d   1       1.415   3.621   0.162  0.00  0.00     0.002 A 
ATOM      3  C5  UNL d   1       1.012   4.809   0.772  0.00  0.00     0.002 A 
ATOM      4  C6  UNL d   1       0.993   5.997   0.044  0.00  0.00    -0.004 A 
ATOM      5  C7  UNL d   1       1.383   5.997  -1.293  0.00  0.00     0.002 A 
ATOM      6  C8  UNL d   1       1.782   4.809  -1.907  0.00  0.00     0.002 A 
ENDROOT
BRANCH   1   7
ATOM      7  C2  UNL d   1       2.202   2.318  -1.863  0.00  0.00     0.056 C 
BRANCH   7   8
ATOM      8  C1  UNL d   1       2.500   1.172  -0.890  0.00  0.00     0.007 C 
ATOM      9  C   UNL d   1       2.205  -0.203  -1.473  0.00  0.00     0.009 C 
ENDBRANCH   7   8
ENDBRANCH   1   7
TORSDOF 2
ENDMDL
