MODEL 1
REMARK minimizedAffinity 6.28081656
REMARK minimizedRMSD -1
REMARK  2 active torsions:
REMARK  status: ('A' for Active; 'I' for Inactive)
REMARK    1  A    between atoms: C1_2  and  C2_3 
REMARK    2  A    between atoms: C2_3  and  C3_4 
ROOT
ATOM      1  C3  UNL d   1      -0.568   2.894  -4.551  0.00  0.00    -0.075 A 
ATOM      2  C4  UNL d   1      -1.342   2.402  -5.612  0.00  0.00     0.002 A 
ATOM      3  C5  UNL d   1      -2.511   3.057  -6.000  0.00  0.00     0.002 A 
ATOM      4  C6  UNL d   1      -2.926   4.204  -5.327  0.00  0.00    -0.004 A 
ATOM      5  C7  UNL d   1      -2.174   4.693  -4.262  0.00  0.00     0.002 A 
ATOM      6  C8  UNL d   1      -1.002   4.042  -3.874  0.00  0.00     0.002 A 
ENDROOT
BRANCH   1   7
ATOM      7  C2  UNL d   1       0.714   2.207  -4.146  0.00  0.00     0.056 C 
BRANCH   7   8
ATOM      8  C1  UNL d   1       1.485   2.930  -3.037  0.00  0.00     0.007 C 
ATOM      9  C   UNL d   1       2.445   2.020  -2.282  0.00  0.00     0.009 C 
ENDBRANCH   7   8
ENDBRANCH   1   7
TORSDOF 2
ENDMDL
