MODEL 1
REMARK minimizedAffinity 5.78665733
REMARK minimizedRMSD -1
REMARK  2 active torsions:
REMARK  status: ('A' for Active; 'I' for Inactive)
REMARK    1  A    between atoms: C1_2  and  C2_3 
REMARK    2  A    between atoms: C2_3  and  C3_4 
ROOT
ATOM      1  C3  UNL d   1       2.744   3.401  -0.376  0.00  0.00    -0.075 A 
ATOM      2  C4  UNL d   1       2.651   2.638   0.797  0.00  0.00     0.002 A 
ATOM      3  C5  UNL d   1       3.798   2.108   1.389  0.00  0.00     0.002 A 
ATOM      4  C6  UNL d   1       5.048   2.325   0.813  0.00  0.00    -0.004 A 
ATOM      5  C7  UNL d   1       5.149   3.069  -0.361  0.00  0.00     0.002 A 
ATOM      6  C8  UNL d   1       4.004   3.604  -0.954  0.00  0.00     0.002 A 
ENDROOT
BRANCH   1   7
ATOM      7  C2  UNL d   1       1.510   4.002  -1.005  0.00  0.00     0.056 C 
BRANCH   7   8
ATOM      8  C1  UNL d   1       1.065   5.323  -0.369  0.00  0.00     0.007 C 
ATOM      9  C   UNL d   1       0.684   5.183   1.099  0.00  0.00     0.009 C 
ENDBRANCH   7   8
ENDBRANCH   1   7
TORSDOF 2
ENDMDL
