MODEL 1
REMARK minimizedAffinity 4.29925156
REMARK minimizedRMSD -1
REMARK  2 active torsions:
REMARK  status: ('A' for Active; 'I' for Inactive)
REMARK    1  A    between atoms: C1_2  and  C2_3 
REMARK    2  A    between atoms: C2_3  and  C3_4 
ROOT
ATOM      1  C3  UNL d   1       1.638  -4.308  -2.570  0.00  0.00    -0.075 A 
ATOM      2  C4  UNL d   1       2.726  -5.020  -2.046  0.00  0.00     0.002 A 
ATOM      3  C5  UNL d   1       3.538  -4.453  -1.064  0.00  0.00     0.002 A 
ATOM      4  C6  UNL d   1       3.279  -3.165  -0.600  0.00  0.00    -0.004 A 
ATOM      5  C7  UNL d   1       2.210  -2.441  -1.125  0.00  0.00     0.002 A 
ATOM      6  C8  UNL d   1       1.394  -3.008  -2.105  0.00  0.00     0.002 A 
ENDROOT
BRANCH   1   7
ATOM      7  C2  UNL d   1       0.738  -4.928  -3.612  0.00  0.00     0.056 C 
BRANCH   7   8
ATOM      8  C1  UNL d   1      -0.614  -5.400  -3.067  0.00  0.00     0.007 C 
ATOM      9  C   UNL d   1      -1.750  -4.426  -3.353  0.00  0.00     0.009 C 
ENDBRANCH   7   8
ENDBRANCH   1   7
TORSDOF 2
ENDMDL
