MODEL 1
REMARK minimizedAffinity 2.99456811
REMARK minimizedRMSD -1
REMARK  2 active torsions:
REMARK  status: ('A' for Active; 'I' for Inactive)
REMARK    1  A    between atoms: C1_2  and  C2_3 
REMARK    2  A    between atoms: C2_3  and  C3_4 
ROOT
ATOM      1  C3  UNL d   1      -3.031  -4.073  -5.797  0.00  0.00    -0.075 A 
ATOM      2  C4  UNL d   1      -3.378  -2.714  -5.811  0.00  0.00     0.002 A 
ATOM      3  C5  UNL d   1      -4.715  -2.326  -5.905  0.00  0.00     0.002 A 
ATOM      4  C6  UNL d   1      -5.718  -3.288  -5.996  0.00  0.00    -0.004 A 
ATOM      5  C7  UNL d   1      -5.383  -4.641  -5.999  0.00  0.00     0.002 A 
ATOM      6  C8  UNL d   1      -4.047  -5.032  -5.901  0.00  0.00     0.002 A 
ENDROOT
BRANCH   1   7
ATOM      7  C2  UNL d   1      -1.588  -4.500  -5.666  0.00  0.00     0.056 C 
BRANCH   7   8
ATOM      8  C1  UNL d   1      -1.140  -4.746  -4.222  0.00  0.00     0.007 C 
ATOM      9  C   UNL d   1      -2.253  -5.278  -3.329  0.00  0.00     0.009 C 
ENDBRANCH   7   8
ENDBRANCH   1   7
TORSDOF 2
ENDMDL
