MODEL 1
REMARK minimizedAffinity 13.9487419
REMARK minimizedRMSD -1
REMARK  2 active torsions:
REMARK  status: ('A' for Active; 'I' for Inactive)
REMARK    1  A    between atoms: C1_2  and  C2_3 
REMARK    2  A    between atoms: C2_3  and  C3_4 
ROOT
ATOM      1  C3  UNL d   1       3.530   0.987  -0.754  0.00  0.00    -0.075 A 
ATOM      2  C4  UNL d   1       4.781   1.480  -1.155  0.00  0.00     0.002 A 
ATOM      3  C5  UNL d   1       5.422   2.472  -0.412  0.00  0.00     0.002 A 
ATOM      4  C6  UNL d   1       4.818   2.991   0.731  0.00  0.00    -0.004 A 
ATOM      5  C7  UNL d   1       3.568   2.521   1.129  0.00  0.00     0.002 A 
ATOM      6  C8  UNL d   1       2.927   1.525   0.390  0.00  0.00     0.002 A 
ENDROOT
BRANCH   1   7
ATOM      7  C2  UNL d   1       2.845  -0.107  -1.537  0.00  0.00     0.056 C 
BRANCH   7   8
ATOM      8  C1  UNL d   1       2.211  -1.195  -0.663  0.00  0.00     0.007 C 
ATOM      9  C   UNL d   1       2.987  -2.505  -0.679  0.00  0.00     0.009 C 
ENDBRANCH   7   8
ENDBRANCH   1   7
TORSDOF 2
ENDMDL
