MODEL 1
REMARK minimizedAffinity 19.4034348
REMARK minimizedRMSD -1
REMARK  2 active torsions:
REMARK  status: ('A' for Active; 'I' for Inactive)
REMARK    1  A    between atoms: C1_2  and  C2_3 
REMARK    2  A    between atoms: C2_3  and  C3_4 
ROOT
ATOM      1  C3  UNL d   1       1.869   3.537  -0.996  0.00  0.00    -0.075 A 
ATOM      2  C4  UNL d   1       1.604   3.814   0.353  0.00  0.00     0.002 A 
ATOM      3  C5  UNL d   1       0.906   4.966   0.716  0.00  0.00     0.002 A 
ATOM      4  C6  UNL d   1       0.473   5.859  -0.262  0.00  0.00    -0.004 A 
ATOM      5  C7  UNL d   1       0.745   5.602  -1.604  0.00  0.00     0.002 A 
ATOM      6  C8  UNL d   1       1.440   4.448  -1.970  0.00  0.00     0.002 A 
ENDROOT
BRANCH   1   7
ATOM      7  C2  UNL d   1       2.598   2.277  -1.397  0.00  0.00     0.056 C 
BRANCH   7   8
ATOM      8  C1  UNL d   1       2.915   1.340  -0.227  0.00  0.00     0.007 C 
ATOM      9  C   UNL d   1       4.364   1.423   0.234  0.00  0.00     0.009 C 
ENDBRANCH   7   8
ENDBRANCH   1   7
TORSDOF 2
ENDMDL
