MODEL 1
REMARK minimizedAffinity 8.08693218
REMARK minimizedRMSD -1
REMARK  0 active torsions:
REMARK  status: ('A' for Active; 'I' for Inactive)
ROOT
ATOM      1  C   UNL d   1       4.056   3.029  -0.021  0.00  0.00    -0.002 A 
ATOM      2  C1  UNL d   1       5.325   2.601  -0.384  0.00  0.00     0.010 A 
ATOM      3  C2  UNL d   1       5.998   1.646   0.380  0.00  0.00     0.041 A 
ATOM      4  C3  UNL d   1       5.367   1.122   1.526  0.00  0.00    -0.075 A 
ATOM      5  S   UNL d   1       6.000  -0.058   2.612  0.00  0.00     0.015 SA
ATOM      6  C4  UNL d   1       4.600  -0.022   3.584  0.00  0.00     0.022 A 
ATOM      7  C5  UNL d   1       3.663   0.863   3.106  0.00  0.00     0.026 A 
ATOM      8  C6  UNL d   1       4.089   1.537   1.911  0.00  0.00    -0.082 A 
ATOM      9  C7  UNL d   1       3.434   2.507   1.116  0.00  0.00     0.045 A 
ENDROOT
TORSDOF 0
ENDMDL
