MODEL 1
REMARK minimizedAffinity 25.5828648
REMARK minimizedRMSD -1
REMARK  0 active torsions:
REMARK  status: ('A' for Active; 'I' for Inactive)
ROOT
ATOM      1  C   UNL d   1      -0.313  -3.751   0.600  0.00  0.00    -0.002 A 
ATOM      2  C1  UNL d   1      -0.784  -2.494   0.955  0.00  0.00     0.010 A 
ATOM      3  C2  UNL d   1      -1.204  -1.591  -0.023  0.00  0.00     0.041 A 
ATOM      4  C3  UNL d   1      -1.144  -1.975  -1.377  0.00  0.00    -0.075 A 
ATOM      5  S   UNL d   1      -1.605  -1.034  -2.746  0.00  0.00     0.015 SA
ATOM      6  C4  UNL d   1      -1.189  -2.278  -3.834  0.00  0.00     0.022 A 
ATOM      7  C5  UNL d   1      -0.708  -3.391  -3.186  0.00  0.00     0.026 A 
ATOM      8  C6  UNL d   1      -0.675  -3.235  -1.759  0.00  0.00    -0.082 A 
ATOM      9  C7  UNL d   1      -0.255  -4.128  -0.744  0.00  0.00     0.045 A 
ENDROOT
TORSDOF 0
ENDMDL
