MODEL 1
REMARK minimizedAffinity 15.9747324
REMARK minimizedRMSD -1
REMARK  0 active torsions:
REMARK  status: ('A' for Active; 'I' for Inactive)
ROOT
ATOM      1  C   UNL d   1       4.616   1.819  -3.425  0.00  0.00    -0.002 A 
ATOM      2  C1  UNL d   1       5.846   2.256  -2.953  0.00  0.00     0.010 A 
ATOM      3  C2  UNL d   1       5.997   2.648  -1.621  0.00  0.00     0.041 A 
ATOM      4  C3  UNL d   1       4.880   2.591  -0.764  0.00  0.00    -0.075 A 
ATOM      5  S   UNL d   1       4.829   3.021   0.905  0.00  0.00     0.015 SA
ATOM      6  C4  UNL d   1       3.174   2.634   1.031  0.00  0.00     0.022 A 
ATOM      7  C5  UNL d   1       2.657   2.187  -0.162  0.00  0.00     0.026 A 
ATOM      8  C6  UNL d   1       3.632   2.154  -1.216  0.00  0.00    -0.082 A 
ATOM      9  C7  UNL d   1       3.511   1.765  -2.572  0.00  0.00     0.045 A 
ENDROOT
TORSDOF 0
ENDMDL
