MODEL 1
REMARK minimizedAffinity 23.3197117
REMARK minimizedRMSD -1
REMARK  0 active torsions:
REMARK  status: ('A' for Active; 'I' for Inactive)
ROOT
ATOM      1  C   UNL d   1      -1.866   2.017  -5.425  0.00  0.00    -0.002 A 
ATOM      2  C1  UNL d   1      -1.395   2.961  -4.524  0.00  0.00     0.010 A 
ATOM      3  C2  UNL d   1      -2.197   4.037  -4.139  0.00  0.00     0.041 A 
ATOM      4  C3  UNL d   1      -3.494   4.148  -4.679  0.00  0.00    -0.075 A 
ATOM      5  S   UNL d   1      -4.654   5.381  -4.352  0.00  0.00     0.015 SA
ATOM      6  C4  UNL d   1      -5.802   4.683  -5.401  0.00  0.00     0.022 A 
ATOM      7  C5  UNL d   1      -5.328   3.537  -5.995  0.00  0.00     0.026 A 
ATOM      8  C6  UNL d   1      -3.990   3.210  -5.588  0.00  0.00    -0.082 A 
ATOM      9  C7  UNL d   1      -3.152   2.131  -5.959  0.00  0.00     0.045 A 
ENDROOT
TORSDOF 0
ENDMDL
