MODEL 1
REMARK minimizedAffinity 8.75607395
REMARK minimizedRMSD -1
REMARK  0 active torsions:
REMARK  status: ('A' for Active; 'I' for Inactive)
ROOT
ATOM      1  C   UNL d   1      -3.898   5.595  -3.624  0.00  0.00    -0.002 A 
ATOM      2  C1  UNL d   1      -5.228   5.993  -3.601  0.00  0.00     0.010 A 
ATOM      3  C2  UNL d   1      -5.952   5.982  -2.407  0.00  0.00     0.041 A 
ATOM      4  C3  UNL d   1      -5.311   5.561  -1.225  0.00  0.00    -0.075 A 
ATOM      5  S   UNL d   1      -6.000   5.466   0.353  0.00  0.00     0.015 SA
ATOM      6  C4  UNL d   1      -4.545   4.895   1.034  0.00  0.00     0.022 A 
ATOM      7  C5  UNL d   1      -3.549   4.774   0.095  0.00  0.00     0.026 A 
ATOM      8  C6  UNL d   1      -3.973   5.156  -1.223  0.00  0.00    -0.082 A 
ATOM      9  C7  UNL d   1      -3.266   5.178  -2.449  0.00  0.00     0.045 A 
ENDROOT
TORSDOF 0
ENDMDL
