MODEL 1
REMARK minimizedAffinity 13.3145113
REMARK minimizedRMSD -1
REMARK  0 active torsions:
REMARK  status: ('A' for Active; 'I' for Inactive)
ROOT
ATOM      1  C   UNL d   1       5.615   3.106  -0.430  0.00  0.00    -0.002 A 
ATOM      2  C1  UNL d   1       4.883   4.032   0.301  0.00  0.00     0.010 A 
ATOM      3  C2  UNL d   1       4.519   3.765   1.623  0.00  0.00     0.041 A 
ATOM      4  C3  UNL d   1       4.909   2.542   2.204  0.00  0.00    -0.075 A 
ATOM      5  S   UNL d   1       4.577   2.001   3.806  0.00  0.00     0.015 SA
ATOM      6  C4  UNL d   1       5.400   0.529   3.559  0.00  0.00     0.022 A 
ATOM      7  C5  UNL d   1       5.921   0.436   2.290  0.00  0.00     0.026 A 
ATOM      8  C6  UNL d   1       5.647   1.595   1.488  0.00  0.00    -0.082 A 
ATOM      9  C7  UNL d   1       6.000   1.894   0.150  0.00  0.00     0.045 A 
ENDROOT
TORSDOF 0
ENDMDL
