MODEL 1
REMARK minimizedAffinity 19.0582027
REMARK minimizedRMSD -1
REMARK  0 active torsions:
REMARK  status: ('A' for Active; 'I' for Inactive)
ROOT
ATOM      1  C   UNL d   1       4.421   1.105   3.560  0.00  0.00    -0.002 A 
ATOM      2  C1  UNL d   1       5.443   0.346   3.008  0.00  0.00     0.010 A 
ATOM      3  C2  UNL d   1       5.987   0.682   1.767  0.00  0.00     0.041 A 
ATOM      4  C3  UNL d   1       5.483   1.807   1.084  0.00  0.00    -0.075 A 
ATOM      5  S   UNL d   1       5.996   2.409  -0.448  0.00  0.00     0.015 SA
ATOM      6  C4  UNL d   1       4.872   3.688  -0.405  0.00  0.00     0.022 A 
ATOM      7  C5  UNL d   1       4.115   3.672   0.742  0.00  0.00     0.026 A 
ATOM      8  C6  UNL d   1       4.455   2.587   1.620  0.00  0.00    -0.082 A 
ATOM      9  C7  UNL d   1       3.924   2.220   2.880  0.00  0.00     0.045 A 
ENDROOT
TORSDOF 0
ENDMDL
