MODEL 1
REMARK minimizedAffinity 9.14822292
REMARK minimizedRMSD -1
REMARK  0 active torsions:
REMARK  status: ('A' for Active; 'I' for Inactive)
ROOT
ATOM      1  C   UNL d   1      -1.529  -2.231   0.033  0.00  0.00    -0.002 A 
ATOM      2  C1  UNL d   1      -2.138  -1.721   1.171  0.00  0.00     0.010 A 
ATOM      3  C2  UNL d   1      -2.174  -2.464   2.352  0.00  0.00     0.041 A 
ATOM      4  C3  UNL d   1      -1.580  -3.741   2.371  0.00  0.00    -0.075 A 
ATOM      5  S   UNL d   1      -1.502  -4.831   3.705  0.00  0.00     0.015 SA
ATOM      6  C4  UNL d   1      -0.657  -6.000   2.796  0.00  0.00     0.022 A 
ATOM      7  C5  UNL d   1      -0.432  -5.585   1.505  0.00  0.00     0.026 A 
ATOM      8  C6  UNL d   1      -0.960  -4.277   1.239  0.00  0.00    -0.082 A 
ATOM      9  C7  UNL d   1      -0.941  -3.498   0.056  0.00  0.00     0.045 A 
ENDROOT
TORSDOF 0
ENDMDL
