MODEL 1
REMARK minimizedAffinity 14.0579119
REMARK minimizedRMSD -1
REMARK  0 active torsions:
REMARK  status: ('A' for Active; 'I' for Inactive)
ROOT
ATOM      1  C   UNL d   1       5.610   3.079  -0.669  0.00  0.00    -0.002 A 
ATOM      2  C1  UNL d   1       4.836   4.019  -0.002  0.00  0.00     0.010 A 
ATOM      3  C2  UNL d   1       4.436   3.802   1.318  0.00  0.00     0.041 A 
ATOM      4  C3  UNL d   1       4.832   2.614   1.964  0.00  0.00    -0.075 A 
ATOM      5  S   UNL d   1       4.461   2.136   3.578  0.00  0.00     0.015 SA
ATOM      6  C4  UNL d   1       5.320   0.673   3.421  0.00  0.00     0.022 A 
ATOM      7  C5  UNL d   1       5.883   0.536   2.174  0.00  0.00     0.026 A 
ATOM      8  C6  UNL d   1       5.611   1.653   1.314  0.00  0.00    -0.082 A 
ATOM      9  C7  UNL d   1       6.000   1.902  -0.025  0.00  0.00     0.045 A 
ENDROOT
TORSDOF 0
ENDMDL
