MODEL 1
REMARK minimizedAffinity 12.695878
REMARK minimizedRMSD -1
REMARK  0 active torsions:
REMARK  status: ('A' for Active; 'I' for Inactive)
ROOT
ATOM      1  C   UNL d   1      -1.764  -3.221  -0.809  0.00  0.00    -0.002 A 
ATOM      2  C1  UNL d   1      -1.825  -1.839  -0.909  0.00  0.00     0.010 A 
ATOM      3  C2  UNL d   1      -1.904  -1.046   0.238  0.00  0.00     0.041 A 
ATOM      4  C3  UNL d   1      -1.920  -1.673   1.499  0.00  0.00    -0.075 A 
ATOM      5  S   UNL d   1      -2.011  -0.905   3.040  0.00  0.00     0.015 SA
ATOM      6  C4  UNL d   1      -1.970  -2.395   3.868  0.00  0.00     0.022 A 
ATOM      7  C5  UNL d   1      -1.890  -3.462   3.005  0.00  0.00     0.026 A 
ATOM      8  C6  UNL d   1      -1.859  -3.064   1.626  0.00  0.00    -0.082 A 
ATOM      9  C7  UNL d   1      -1.780  -3.839   0.444  0.00  0.00     0.045 A 
ENDROOT
TORSDOF 0
ENDMDL
