MODEL 1
REMARK minimizedAffinity 23.2077045
REMARK minimizedRMSD -1
REMARK  0 active torsions:
REMARK  status: ('A' for Active; 'I' for Inactive)
ROOT
ATOM      1  C   UNL d   1       4.751   1.712   1.800  0.00  0.00    -0.002 A 
ATOM      2  C1  UNL d   1       5.566   1.304   0.753  0.00  0.00     0.010 A 
ATOM      3  C2  UNL d   1       5.997   2.219  -0.210  0.00  0.00     0.041 A 
ATOM      4  C3  UNL d   1       5.593   3.564  -0.101  0.00  0.00    -0.075 A 
ATOM      5  S   UNL d   1       5.998   4.860  -1.163  0.00  0.00     0.015 SA
ATOM      6  C4  UNL d   1       5.100   5.986  -0.252  0.00  0.00     0.022 A 
ATOM      7  C5  UNL d   1       4.499   5.404   0.839  0.00  0.00     0.026 A 
ATOM      8  C6  UNL d   1       4.773   3.999   0.944  0.00  0.00    -0.082 A 
ATOM      9  C7  UNL d   1       4.352   3.047   1.904  0.00  0.00     0.045 A 
ENDROOT
TORSDOF 0
ENDMDL
