MODEL 1
REMARK minimizedAffinity 19.9184761
REMARK minimizedRMSD -1
REMARK  0 active torsions:
REMARK  status: ('A' for Active; 'I' for Inactive)
ROOT
ATOM      1  C   UNL d   1       5.798   4.708  -0.752  0.00  0.00    -0.002 A 
ATOM      2  C1  UNL d   1       5.063   5.561   0.060  0.00  0.00     0.010 A 
ATOM      3  C2  UNL d   1       4.509   5.100   1.256  0.00  0.00     0.041 A 
ATOM      4  C3  UNL d   1       4.710   3.756   1.627  0.00  0.00    -0.075 A 
ATOM      5  S   UNL d   1       4.127   2.972   3.048  0.00  0.00     0.015 SA
ATOM      6  C4  UNL d   1       4.840   1.487   2.610  0.00  0.00     0.022 A 
ATOM      7  C5  UNL d   1       5.510   1.569   1.413  0.00  0.00     0.026 A 
ATOM      8  C6  UNL d   1       5.447   2.879   0.827  0.00  0.00    -0.082 A 
ATOM      9  C7  UNL d   1       5.994   3.376  -0.381  0.00  0.00     0.045 A 
ENDROOT
TORSDOF 0
ENDMDL
