MODEL 1
REMARK minimizedAffinity 7.14722586
REMARK minimizedRMSD -1
REMARK  0 active torsions:
REMARK  status: ('A' for Active; 'I' for Inactive)
ROOT
ATOM      1  C   UNL d   1      -2.333  -3.683   2.956  0.00  0.00    -0.002 A 
ATOM      2  C1  UNL d   1      -1.190  -4.291   2.457  0.00  0.00     0.010 A 
ATOM      3  C2  UNL d   1      -0.671  -3.917   1.216  0.00  0.00     0.041 A 
ATOM      4  C3  UNL d   1      -1.324  -2.909   0.480  0.00  0.00    -0.075 A 
ATOM      5  S   UNL d   1      -0.868  -2.288  -1.063  0.00  0.00     0.015 SA
ATOM      6  C4  UNL d   1      -2.179  -1.199  -1.095  0.00  0.00     0.022 A 
ATOM      7  C5  UNL d   1      -2.956  -1.295   0.036  0.00  0.00     0.026 A 
ATOM      8  C6  UNL d   1      -2.476  -2.281   0.962  0.00  0.00    -0.082 A 
ATOM      9  C7  UNL d   1      -2.979  -2.684   2.222  0.00  0.00     0.045 A 
ENDROOT
TORSDOF 0
ENDMDL
