MODEL 1
REMARK minimizedAffinity 18.453146
REMARK minimizedRMSD -1
REMARK  0 active torsions:
REMARK  status: ('A' for Active; 'I' for Inactive)
ROOT
ATOM      1  C   UNL d   1      -5.021   1.769   6.000  0.00  0.00    -0.002 A 
ATOM      2  C1  UNL d   1      -5.913   0.741   5.729  0.00  0.00     0.010 A 
ATOM      3  C2  UNL d   1      -5.448  -0.535   5.406  0.00  0.00     0.041 A 
ATOM      4  C3  UNL d   1      -4.059  -0.764   5.362  0.00  0.00    -0.075 A 
ATOM      5  S   UNL d   1      -3.261  -2.246   4.992  0.00  0.00     0.015 SA
ATOM      6  C4  UNL d   1      -1.717  -1.550   5.186  0.00  0.00     0.022 A 
ATOM      7  C5  UNL d   1      -1.791  -0.220   5.525  0.00  0.00     0.026 A 
ATOM      8  C6  UNL d   1      -3.141   0.255   5.633  0.00  0.00    -0.082 A 
ATOM      9  C7  UNL d   1      -3.644   1.539   5.956  0.00  0.00     0.045 A 
ENDROOT
TORSDOF 0
ENDMDL
