MODEL 1
REMARK minimizedAffinity 21.5004177
REMARK minimizedRMSD -1
REMARK  0 active torsions:
REMARK  status: ('A' for Active; 'I' for Inactive)
ROOT
ATOM      1  C   UNL d   1      -1.951  -1.588  -2.164  0.00  0.00    -0.002 A 
ATOM      2  C1  UNL d   1      -1.893  -1.035  -0.893  0.00  0.00     0.010 A 
ATOM      3  C2  UNL d   1      -0.771  -0.312  -0.483  0.00  0.00     0.041 A 
ATOM      4  C3  UNL d   1       0.301  -0.150  -1.382  0.00  0.00    -0.075 A 
ATOM      5  S   UNL d   1       1.776   0.697  -1.100  0.00  0.00     0.015 SA
ATOM      6  C4  UNL d   1       2.364   0.345  -2.661  0.00  0.00     0.022 A 
ATOM      7  C5  UNL d   1       1.469  -0.399  -3.393  0.00  0.00     0.026 A 
ATOM      8  C6  UNL d   1       0.266  -0.697  -2.668  0.00  0.00    -0.082 A 
ATOM      9  C7  UNL d   1      -0.885  -1.425  -3.054  0.00  0.00     0.045 A 
ENDROOT
TORSDOF 0
ENDMDL
