MODEL 1
REMARK minimizedAffinity 14.132122
REMARK minimizedRMSD -1
REMARK  0 active torsions:
REMARK  status: ('A' for Active; 'I' for Inactive)
ROOT
ATOM      1  C   UNL d   1      -2.521  -1.677   1.281  0.00  0.00    -0.002 A 
ATOM      2  C1  UNL d   1      -2.449  -1.077   0.032  0.00  0.00     0.010 A 
ATOM      3  C2  UNL d   1      -1.782  -1.706  -1.021  0.00  0.00     0.041 A 
ATOM      4  C3  UNL d   1      -1.184  -2.962  -0.796  0.00  0.00    -0.075 A 
ATOM      5  S   UNL d   1      -0.315  -3.919  -1.936  0.00  0.00     0.015 SA
ATOM      6  C4  UNL d   1      -0.020  -5.148  -0.793  0.00  0.00     0.022 A 
ATOM      7  C5  UNL d   1      -0.564  -4.851   0.435  0.00  0.00     0.026 A 
ATOM      8  C6  UNL d   1      -1.244  -3.586   0.453  0.00  0.00    -0.082 A 
ATOM      9  C7  UNL d   1      -1.927  -2.922   1.500  0.00  0.00     0.045 A 
ENDROOT
TORSDOF 0
ENDMDL
