MODEL 1
REMARK minimizedAffinity 0.250487179
REMARK minimizedRMSD -1
REMARK  0 active torsions:
REMARK  status: ('A' for Active; 'I' for Inactive)
ROOT
ATOM      1  C   UNL d   1      -5.999   0.100  -4.959  0.00  0.00     0.172 C 
ATOM      2  N   UNL d   1      -5.946   1.392  -4.317  0.00  0.00    -0.070 N 
ATOM      3  C1  UNL d   1      -5.959   1.614  -2.966  0.00  0.00    -0.004 A 
ATOM      4  C2  UNL d   1      -5.894   2.975  -2.761  0.00  0.00    -0.047 A 
ATOM      5  C3  UNL d   1      -5.842   3.593  -4.033  0.00  0.00    -0.047 A 
ATOM      6  C4  UNL d   1      -5.875   2.590  -4.978  0.00  0.00    -0.004 A 
ENDROOT
TORSDOF 0
ENDMDL
