MODEL 1
REMARK minimizedAffinity -0.398394078
REMARK minimizedRMSD -1
REMARK  0 active torsions:
REMARK  status: ('A' for Active; 'I' for Inactive)
ROOT
ATOM      1  C   UNL d   1      -5.999   0.788  -5.071  0.00  0.00     0.172 C 
ATOM      2  N   UNL d   1      -5.997   1.900  -4.150  0.00  0.00    -0.070 N 
ATOM      3  C1  UNL d   1      -5.991   3.224  -4.497  0.00  0.00    -0.004 A 
ATOM      4  C2  UNL d   1      -5.991   3.966  -3.336  0.00  0.00    -0.047 A 
ATOM      5  C3  UNL d   1      -5.996   3.055  -2.252  0.00  0.00    -0.047 A 
ATOM      6  C4  UNL d   1      -6.000   1.783  -2.785  0.00  0.00    -0.004 A 
ENDROOT
TORSDOF 0
ENDMDL
