MODEL 1
REMARK minimizedAffinity 0.0568788648
REMARK minimizedRMSD -1
REMARK  0 active torsions:
REMARK  status: ('A' for Active; 'I' for Inactive)
ROOT
ATOM      1  C   UNL d   1      -5.997   0.799  -4.886  0.00  0.00     0.172 C 
ATOM      2  N   UNL d   1      -5.994   1.804  -3.850  0.00  0.00    -0.070 N 
ATOM      3  C1  UNL d   1      -5.996   1.561  -2.502  0.00  0.00    -0.004 A 
ATOM      4  C2  UNL d   1      -5.991   2.778  -1.854  0.00  0.00    -0.047 A 
ATOM      5  C3  UNL d   1      -5.987   3.786  -2.847  0.00  0.00    -0.047 A 
ATOM      6  C4  UNL d   1      -5.988   3.156  -4.073  0.00  0.00    -0.004 A 
ENDROOT
TORSDOF 0
ENDMDL
