MODEL 1
REMARK minimizedAffinity 0.0925732553
REMARK minimizedRMSD -1
REMARK  0 active torsions:
REMARK  status: ('A' for Active; 'I' for Inactive)
ROOT
ATOM      1  C   UNL d   1      -5.739   2.554  -1.138  0.00  0.00     0.172 C 
ATOM      2  N   UNL d   1      -5.816   2.377  -2.569  0.00  0.00    -0.070 N 
ATOM      3  C1  UNL d   1      -5.745   3.377  -3.502  0.00  0.00    -0.004 A 
ATOM      4  C2  UNL d   1      -5.857   2.799  -4.749  0.00  0.00    -0.047 A 
ATOM      5  C3  UNL d   1      -6.000   1.404  -4.558  0.00  0.00    -0.047 A 
ATOM      6  C4  UNL d   1      -5.971   1.171  -3.199  0.00  0.00    -0.004 A 
ENDROOT
TORSDOF 0
ENDMDL
