MODEL 1
REMARK minimizedAffinity 0.380778581
REMARK minimizedRMSD -1
REMARK  0 active torsions:
REMARK  status: ('A' for Active; 'I' for Inactive)
ROOT
ATOM      1  C   UNL d   1      -5.403   2.623  -0.164  0.00  0.00     0.172 C 
ATOM      2  N   UNL d   1      -5.550   2.814  -1.587  0.00  0.00    -0.070 N 
ATOM      3  C1  UNL d   1      -5.267   3.965  -2.272  0.00  0.00    -0.004 A 
ATOM      4  C2  UNL d   1      -5.537   3.742  -3.605  0.00  0.00    -0.047 A 
ATOM      5  C3  UNL d   1      -6.000   2.410  -3.725  0.00  0.00    -0.047 A 
ATOM      6  C4  UNL d   1      -5.998   1.858  -2.461  0.00  0.00    -0.004 A 
ENDROOT
TORSDOF 0
ENDMDL
