MODEL 1
REMARK minimizedAffinity -1.91458368
REMARK minimizedRMSD -1
REMARK  0 active torsions:
REMARK  status: ('A' for Active; 'I' for Inactive)
ROOT
ATOM      1  C   UNL d   1      -6.000   1.934  -0.913  0.00  0.00     0.172 C 
ATOM      2  N   UNL d   1      -5.998   2.422  -2.272  0.00  0.00    -0.070 N 
ATOM      3  C1  UNL d   1      -5.995   1.644  -3.399  0.00  0.00    -0.004 A 
ATOM      4  C2  UNL d   1      -5.995   2.484  -4.492  0.00  0.00    -0.047 A 
ATOM      5  C3  UNL d   1      -5.996   3.813  -4.004  0.00  0.00    -0.047 A 
ATOM      6  C4  UNL d   1      -5.998   3.745  -2.627  0.00  0.00    -0.004 A 
ENDROOT
TORSDOF 0
ENDMDL
