MODEL 1
REMARK minimizedAffinity 4.15756798
REMARK minimizedRMSD -1
REMARK  0 active torsions:
REMARK  status: ('A' for Active; 'I' for Inactive)
ROOT
ATOM      1  C   UNL d   1      -5.716   0.751  -4.875  0.00  0.00     0.172 C 
ATOM      2  N   UNL d   1      -5.439   1.985  -4.179  0.00  0.00    -0.070 N 
ATOM      3  C1  UNL d   1      -5.024   3.154  -4.760  0.00  0.00    -0.004 A 
ATOM      4  C2  UNL d   1      -4.871   4.091  -3.761  0.00  0.00    -0.047 A 
ATOM      5  C3  UNL d   1      -5.205   3.463  -2.537  0.00  0.00    -0.047 A 
ATOM      6  C4  UNL d   1      -5.553   2.160  -2.825  0.00  0.00    -0.004 A 
ENDROOT
TORSDOF 0
ENDMDL
