MODEL 1
REMARK minimizedAffinity 6.09346962
REMARK minimizedRMSD -1
REMARK  0 active torsions:
REMARK  status: ('A' for Active; 'I' for Inactive)
ROOT
ATOM      1  C   UNL d   1      -2.318   4.906  -2.114  0.00  0.00     0.172 C 
ATOM      2  N   UNL d   1      -1.270   4.554  -1.184  0.00  0.00    -0.070 N 
ATOM      3  C1  UNL d   1      -0.633   5.419  -0.336  0.00  0.00    -0.004 A 
ATOM      4  C2  UNL d   1       0.296   4.697   0.382  0.00  0.00    -0.047 A 
ATOM      5  C3  UNL d   1       0.215   3.353  -0.051  0.00  0.00    -0.047 A 
ATOM      6  C4  UNL d   1      -0.763   3.292  -1.021  0.00  0.00    -0.004 A 
ENDROOT
TORSDOF 0
ENDMDL
