MODEL 1
REMARK minimizedAffinity -1.15081882
REMARK minimizedRMSD -1
REMARK  0 active torsions:
REMARK  status: ('A' for Active; 'I' for Inactive)
ROOT
ATOM      1  C   UNL d   1       1.565  -4.496  -0.257  0.00  0.00     0.172 C 
ATOM      2  N   UNL d   1       2.933  -4.085  -0.471  0.00  0.00    -0.070 N 
ATOM      3  C1  UNL d   1       3.426  -2.822  -0.278  0.00  0.00    -0.004 A 
ATOM      4  C2  UNL d   1       4.768  -2.841  -0.589  0.00  0.00    -0.047 A 
ATOM      5  C3  UNL d   1       5.093  -4.160  -0.985  0.00  0.00    -0.047 A 
ATOM      6  C4  UNL d   1       3.938  -4.909  -0.903  0.00  0.00    -0.004 A 
ENDROOT
TORSDOF 0
ENDMDL
