MODEL 1
REMARK minimizedAffinity -1.09800005
REMARK minimizedRMSD -1
REMARK  0 active torsions:
REMARK  status: ('A' for Active; 'I' for Inactive)
ROOT
ATOM      1  C   UNL d   1      -0.887  -2.166   0.836  0.00  0.00     0.023 A 
ATOM      2  C1  UNL d   1      -0.652  -1.705  -0.459  0.00  0.00     0.003 A 
ATOM      3  C2  UNL d   1      -0.227  -0.391  -0.667  0.00  0.00     0.048 A 
ATOM      4  C3  UNL d   1      -0.038   0.455   0.424  0.00  0.00     0.023 A 
ATOM      5  C4  UNL d   1      -0.271  -0.002   1.722  0.00  0.00     0.048 A 
ATOM      6  C5  UNL d   1      -0.697  -1.316   1.925  0.00  0.00     0.003 A 
ATOM      7  I   UNL d   1       0.595   2.411   0.117  0.00  0.00    -0.146 I 
ENDROOT
TORSDOF 0
ENDMDL
