MODEL 1
REMARK minimizedAffinity -1.09916222
REMARK minimizedRMSD -1
REMARK  0 active torsions:
REMARK  status: ('A' for Active; 'I' for Inactive)
ROOT
ATOM      1  C   UNL d   1       0.283   2.582   0.026  0.00  0.00     0.023 A 
ATOM      2  C1  UNL d   1       0.951   1.840   1.001  0.00  0.00     0.003 A 
ATOM      3  C2  UNL d   1       0.585   0.515   1.243  0.00  0.00     0.048 A 
ATOM      4  C3  UNL d   1      -0.449  -0.063   0.506  0.00  0.00     0.023 A 
ATOM      5  C4  UNL d   1      -1.118   0.675  -0.471  0.00  0.00     0.048 A 
ATOM      6  C5  UNL d   1      -0.750   2.001  -0.709  0.00  0.00     0.003 A 
ATOM      7  I   UNL d   1      -0.995  -2.036   0.864  0.00  0.00    -0.146 I 
ENDROOT
TORSDOF 0
ENDMDL
