MODEL 1
REMARK minimizedAffinity 6.40896034
REMARK minimizedRMSD -1
REMARK  0 active torsions:
REMARK  status: ('A' for Active; 'I' for Inactive)
ROOT
ATOM      1  C   UNL d   1      -1.152   1.744   1.613  0.00  0.00     0.023 A 
ATOM      2  C1  UNL d   1      -2.093   0.977   2.299  0.00  0.00     0.003 A 
ATOM      3  C2  UNL d   1      -2.277  -0.367   1.966  0.00  0.00     0.048 A 
ATOM      4  C3  UNL d   1      -1.516  -0.937   0.946  0.00  0.00     0.023 A 
ATOM      5  C4  UNL d   1      -0.572  -0.173   0.257  0.00  0.00     0.048 A 
ATOM      6  C5  UNL d   1      -0.392   1.170   0.593  0.00  0.00     0.003 A 
ATOM      7  I   UNL d   1      -1.788  -2.936   0.448  0.00  0.00    -0.146 I 
ENDROOT
TORSDOF 0
ENDMDL
