MODEL 1
REMARK minimizedAffinity 2.51254869
REMARK minimizedRMSD -1
REMARK  0 active torsions:
REMARK  status: ('A' for Active; 'I' for Inactive)
ROOT
ATOM      1  C   UNL d   1      -0.240  -5.154   0.904  0.00  0.00     0.023 A 
ATOM      2  C1  UNL d   1      -0.466  -5.950  -0.218  0.00  0.00     0.003 A 
ATOM      3  C2  UNL d   1      -1.498  -5.635  -1.103  0.00  0.00     0.048 A 
ATOM      4  C3  UNL d   1      -2.300  -4.520  -0.861  0.00  0.00     0.023 A 
ATOM      5  C4  UNL d   1      -2.077  -3.719   0.260  0.00  0.00     0.048 A 
ATOM      6  C5  UNL d   1      -1.044  -4.039   1.143  0.00  0.00     0.003 A 
ATOM      7  I   UNL d   1      -3.837  -4.048  -2.178  0.00  0.00    -0.146 I 
ENDROOT
TORSDOF 0
ENDMDL
