MODEL 1
REMARK minimizedAffinity -0.108382903
REMARK minimizedRMSD -1
REMARK  0 active torsions:
REMARK  status: ('A' for Active; 'I' for Inactive)
ROOT
ATOM      1  C   UNL d   1       0.045  -0.627  -1.996  0.00  0.00     0.023 A 
ATOM      2  C1  UNL d   1       1.058   0.263  -2.355  0.00  0.00     0.003 A 
ATOM      3  C2  UNL d   1       1.432   1.286  -1.482  0.00  0.00     0.048 A 
ATOM      4  C3  UNL d   1       0.791   1.413  -0.250  0.00  0.00     0.023 A 
ATOM      5  C4  UNL d   1      -0.222   0.525   0.114  0.00  0.00     0.048 A 
ATOM      6  C5  UNL d   1      -0.594  -0.496  -0.763  0.00  0.00     0.003 A 
ATOM      7  I   UNL d   1       1.347   2.935   1.052  0.00  0.00    -0.146 I 
ENDROOT
TORSDOF 0
ENDMDL
