MODEL 1
REMARK minimizedAffinity -2.9876101
REMARK minimizedRMSD -1
REMARK  0 active torsions:
REMARK  status: ('A' for Active; 'I' for Inactive)
ROOT
ATOM      1  C   UNL d   1      -0.692  -0.952   1.115  0.00  0.00     0.023 A 
ATOM      2  C1  UNL d   1       0.503  -0.748   1.804  0.00  0.00     0.003 A 
ATOM      3  C2  UNL d   1       1.277   0.385   1.543  0.00  0.00     0.048 A 
ATOM      4  C3  UNL d   1       0.847   1.311   0.592  0.00  0.00     0.023 A 
ATOM      5  C4  UNL d   1      -0.349   1.112  -0.099  0.00  0.00     0.048 A 
ATOM      6  C5  UNL d   1      -1.118  -0.023   0.165  0.00  0.00     0.003 A 
ATOM      7  I   UNL d   1       1.996   2.999   0.203  0.00  0.00    -0.146 I 
ENDROOT
TORSDOF 0
ENDMDL
