MODEL 1
REMARK minimizedAffinity -2.024575
REMARK minimizedRMSD -1
REMARK  0 active torsions:
REMARK  status: ('A' for Active; 'I' for Inactive)
ROOT
ATOM      1  C   UNL d   1      -0.472  -0.999   0.688  0.00  0.00     0.023 A 
ATOM      2  C1  UNL d   1       0.100  -0.498   1.857  0.00  0.00     0.003 A 
ATOM      3  C2  UNL d   1       0.670   0.777   1.867  0.00  0.00     0.048 A 
ATOM      4  C3  UNL d   1       0.663   1.546   0.704  0.00  0.00     0.023 A 
ATOM      5  C4  UNL d   1       0.090   1.050  -0.468  0.00  0.00     0.048 A 
ATOM      6  C5  UNL d   1      -0.477  -0.226  -0.474  0.00  0.00     0.003 A 
ATOM      7  I   UNL d   1       1.510   3.444   0.716  0.00  0.00    -0.146 I 
ENDROOT
TORSDOF 0
ENDMDL
