MODEL 1
REMARK minimizedAffinity -2.61058736
REMARK minimizedRMSD -1
REMARK  0 active torsions:
REMARK  status: ('A' for Active; 'I' for Inactive)
ROOT
ATOM      1  C   UNL d   1      -0.364  -0.500   0.724  0.00  0.00     0.023 A 
ATOM      2  C1  UNL d   1       0.557  -0.019   1.655  0.00  0.00     0.003 A 
ATOM      3  C2  UNL d   1       1.336   1.101   1.355  0.00  0.00     0.048 A 
ATOM      4  C3  UNL d   1       1.186   1.736   0.123  0.00  0.00     0.023 A 
ATOM      5  C4  UNL d   1       0.265   1.260  -0.811  0.00  0.00     0.048 A 
ATOM      6  C5  UNL d   1      -0.510   0.139  -0.507  0.00  0.00     0.003 A 
ATOM      7  I   UNL d   1       2.343   3.404  -0.325  0.00  0.00    -0.146 I 
ENDROOT
TORSDOF 0
ENDMDL
