MODEL 1
REMARK minimizedAffinity -1.79159963
REMARK minimizedRMSD -1
REMARK  0 active torsions:
REMARK  status: ('A' for Active; 'I' for Inactive)
ROOT
ATOM      1  C   UNL d   1      -1.039  -1.828   0.208  0.00  0.00     0.023 A 
ATOM      2  C1  UNL d   1      -0.579  -1.307   1.417  0.00  0.00     0.003 A 
ATOM      3  C2  UNL d   1       0.123  -0.101   1.438  0.00  0.00     0.048 A 
ATOM      4  C3  UNL d   1       0.362   0.581   0.245  0.00  0.00     0.023 A 
ATOM      5  C4  UNL d   1      -0.096   0.064  -0.968  0.00  0.00     0.048 A 
ATOM      6  C5  UNL d   1      -0.798  -1.143  -0.984  0.00  0.00     0.003 A 
ATOM      7  I   UNL d   1       1.407   2.377   0.272  0.00  0.00    -0.146 I 
ENDROOT
TORSDOF 0
ENDMDL
