MODEL 1
REMARK minimizedAffinity -2.97199678
REMARK minimizedRMSD -1
REMARK  0 active torsions:
REMARK  status: ('A' for Active; 'I' for Inactive)
ROOT
ATOM      1  C   UNL d   1      -0.176  -0.747   0.289  0.00  0.00     0.023 A 
ATOM      2  C1  UNL d   1      -0.201   0.152  -0.777  0.00  0.00     0.003 A 
ATOM      3  C2  UNL d   1       0.383   1.413  -0.643  0.00  0.00     0.048 A 
ATOM      4  C3  UNL d   1       0.993   1.768   0.560  0.00  0.00     0.023 A 
ATOM      5  C4  UNL d   1       1.021   0.872   1.629  0.00  0.00     0.048 A 
ATOM      6  C5  UNL d   1       0.434  -0.387   1.491  0.00  0.00     0.003 A 
ATOM      7  I   UNL d   1       1.864   3.644   0.761  0.00  0.00    -0.146 I 
ENDROOT
TORSDOF 0
ENDMDL
