MODEL 1
REMARK minimizedAffinity -1.90486467
REMARK minimizedRMSD -1
REMARK  0 active torsions:
REMARK  status: ('A' for Active; 'I' for Inactive)
ROOT
ATOM      1  C   UNL d   1      -0.348  -0.443   1.273  0.00  0.00     0.023 A 
ATOM      2  C1  UNL d   1       0.144  -0.091   0.017  0.00  0.00     0.003 A 
ATOM      3  C2  UNL d   1       0.010  -0.971  -1.059  0.00  0.00     0.048 A 
ATOM      4  C3  UNL d   1      -0.617  -2.203  -0.871  0.00  0.00     0.023 A 
ATOM      5  C4  UNL d   1      -1.112  -2.559   0.385  0.00  0.00     0.048 A 
ATOM      6  C5  UNL d   1      -0.975  -1.676   1.457  0.00  0.00     0.003 A 
ATOM      7  I   UNL d   1      -0.817  -3.515  -2.470  0.00  0.00    -0.146 I 
ENDROOT
TORSDOF 0
ENDMDL
