MODEL 1
REMARK minimizedAffinity -2.28616977
REMARK minimizedRMSD -1
REMARK  0 active torsions:
REMARK  status: ('A' for Active; 'I' for Inactive)
ROOT
ATOM      1  C   UNL d   1      -0.816  -2.707   0.075  0.00  0.00     0.023 A 
ATOM      2  C1  UNL d   1      -1.022  -1.850   1.155  0.00  0.00     0.003 A 
ATOM      3  C2  UNL d   1      -0.690  -0.498   1.050  0.00  0.00     0.048 A 
ATOM      4  C3  UNL d   1      -0.152  -0.010  -0.140  0.00  0.00     0.023 A 
ATOM      5  C4  UNL d   1       0.056  -0.863  -1.225  0.00  0.00     0.048 A 
ATOM      6  C5  UNL d   1      -0.277  -2.215  -1.114  0.00  0.00     0.003 A 
ATOM      7  I   UNL d   1       0.344   2.002  -0.301  0.00  0.00    -0.146 I 
ENDROOT
TORSDOF 0
ENDMDL
