MODEL 1
REMARK minimizedAffinity 4.77499533
REMARK minimizedRMSD -1
REMARK  0 active torsions:
REMARK  status: ('A' for Active; 'I' for Inactive)
ROOT
ATOM      1  C   UNL d   1      -4.495  -0.000  -5.999  0.00  0.00     0.020 A 
ATOM      2  C1  UNL d   1      -4.733   1.369  -5.883  0.00  0.00     0.020 A 
ATOM      3  C2  UNL d   1      -4.219   2.076  -4.794  0.00  0.00     0.034 A 
ATOM      4  C3  UNL d   1      -3.466   1.416  -3.818  0.00  0.00     0.017 A 
ATOM      5  C4  UNL d   1      -3.228   0.041  -3.935  0.00  0.00     0.017 A 
ATOM      6  C5  UNL d   1      -3.744  -0.662  -5.027  0.00  0.00     0.034 A 
ATOM      7 Cl   UNL d   1      -2.306  -0.843  -2.770  0.00  0.00    -0.070 Cl
ATOM      8 Cl1  UNL d   1      -2.861   2.354  -2.499  0.00  0.00    -0.070 Cl
ENDROOT
TORSDOF 0
ENDMDL
