MODEL 1
REMARK minimizedAffinity -3.27148247
REMARK minimizedRMSD -1
REMARK  0 active torsions:
REMARK  status: ('A' for Active; 'I' for Inactive)
ROOT
ATOM      1  C   UNL d   1      -3.515  -1.815  -4.195  0.00  0.00     0.020 A 
ATOM      2  C1  UNL d   1      -3.748  -1.627  -2.833  0.00  0.00     0.020 A 
ATOM      3  C2  UNL d   1      -3.339  -0.445  -2.211  0.00  0.00     0.034 A 
ATOM      4  C3  UNL d   1      -2.695   0.553  -2.951  0.00  0.00     0.017 A 
ATOM      5  C4  UNL d   1      -2.461   0.363  -4.318  0.00  0.00     0.017 A 
ATOM      6  C5  UNL d   1      -2.873  -0.822  -4.936  0.00  0.00     0.034 A 
ATOM      7 Cl   UNL d   1      -1.672   1.549  -5.297  0.00  0.00    -0.070 Cl
ATOM      8 Cl1  UNL d   1      -2.216   1.989  -2.118  0.00  0.00    -0.070 Cl
ENDROOT
TORSDOF 0
ENDMDL
