MODEL 1
REMARK minimizedAffinity 2.07478738
REMARK minimizedRMSD -1
REMARK  0 active torsions:
REMARK  status: ('A' for Active; 'I' for Inactive)
ROOT
ATOM      1  C   UNL d   1       5.393  -5.100   2.909  0.00  0.00     0.020 A 
ATOM      2  C1  UNL d   1       4.578  -4.137   3.504  0.00  0.00     0.020 A 
ATOM      3  C2  UNL d   1       3.651  -3.434   2.732  0.00  0.00     0.034 A 
ATOM      4  C3  UNL d   1       3.536  -3.691   1.361  0.00  0.00     0.017 A 
ATOM      5  C4  UNL d   1       4.355  -4.658   0.765  0.00  0.00     0.017 A 
ATOM      6  C5  UNL d   1       5.281  -5.359   1.542  0.00  0.00     0.034 A 
ATOM      7 Cl   UNL d   1       4.271  -5.031  -0.921  0.00  0.00    -0.070 Cl
ATOM      8 Cl1  UNL d   1       2.368  -2.784   0.468  0.00  0.00    -0.070 Cl
ENDROOT
TORSDOF 0
ENDMDL
