MODEL 1
REMARK minimizedAffinity 1.27300715
REMARK minimizedRMSD -1
REMARK  0 active torsions:
REMARK  status: ('A' for Active; 'I' for Inactive)
ROOT
ATOM      1  C   UNL d   1      -4.505  -2.149  -4.585  0.00  0.00     0.020 A 
ATOM      2  C1  UNL d   1      -4.369  -1.389  -5.746  0.00  0.00     0.020 A 
ATOM      3  C2  UNL d   1      -4.012  -0.041  -5.660  0.00  0.00     0.034 A 
ATOM      4  C3  UNL d   1      -3.790   0.550  -4.411  0.00  0.00     0.017 A 
ATOM      5  C4  UNL d   1      -3.927  -0.214  -3.247  0.00  0.00     0.017 A 
ATOM      6  C5  UNL d   1      -4.284  -1.563  -3.338  0.00  0.00     0.034 A 
ATOM      7 Cl   UNL d   1      -3.669   0.446  -1.670  0.00  0.00    -0.070 Cl
ATOM      8 Cl1  UNL d   1      -3.351   2.221  -4.380  0.00  0.00    -0.070 Cl
ENDROOT
TORSDOF 0
ENDMDL
