MODEL 1
REMARK minimizedAffinity 3.20497799
REMARK minimizedRMSD -1
REMARK  0 active torsions:
REMARK  status: ('A' for Active; 'I' for Inactive)
ROOT
ATOM      1  C   UNL d   1      -3.945  -1.342  -2.618  0.00  0.00     0.020 A 
ATOM      2  C1  UNL d   1      -3.623  -0.388  -1.654  0.00  0.00     0.020 A 
ATOM      3  C2  UNL d   1      -3.446   0.947  -2.023  0.00  0.00     0.034 A 
ATOM      4  C3  UNL d   1      -3.591   1.332  -3.361  0.00  0.00     0.017 A 
ATOM      5  C4  UNL d   1      -3.915   0.373  -4.329  0.00  0.00     0.017 A 
ATOM      6  C5  UNL d   1      -4.091  -0.962  -3.953  0.00  0.00     0.034 A 
ATOM      7 Cl   UNL d   1      -4.110   0.772  -5.999  0.00  0.00    -0.070 Cl
ATOM      8 Cl1  UNL d   1      -3.358   3.000  -3.747  0.00  0.00    -0.070 Cl
ENDROOT
TORSDOF 0
ENDMDL
