MODEL 1
REMARK minimizedAffinity 7.66200686
REMARK minimizedRMSD -1
REMARK  0 active torsions:
REMARK  status: ('A' for Active; 'I' for Inactive)
ROOT
ATOM      1  C   UNL d   1      -2.596  -1.488  -5.240  0.00  0.00     0.020 A 
ATOM      2  C1  UNL d   1      -1.752  -0.452  -5.635  0.00  0.00     0.020 A 
ATOM      3  C2  UNL d   1      -2.214   0.866  -5.628  0.00  0.00     0.034 A 
ATOM      4  C3  UNL d   1      -3.523   1.151  -5.225  0.00  0.00     0.017 A 
ATOM      5  C4  UNL d   1      -4.370   0.109  -4.829  0.00  0.00     0.017 A 
ATOM      6  C5  UNL d   1      -3.903  -1.208  -4.838  0.00  0.00     0.034 A 
ATOM      7 Cl   UNL d   1      -5.999   0.382  -4.319  0.00  0.00    -0.070 Cl
ATOM      8 Cl1  UNL d   1      -4.028   2.803  -5.241  0.00  0.00    -0.070 Cl
ENDROOT
TORSDOF 0
ENDMDL
