MODEL 1
REMARK minimizedAffinity 1.61255515
REMARK minimizedRMSD -1
REMARK  0 active torsions:
REMARK  status: ('A' for Active; 'I' for Inactive)
ROOT
ATOM      1  C   UNL d   1      -6.000   0.593  -4.297  0.00  0.00     0.020 A 
ATOM      2  C1  UNL d   1      -5.579   0.810  -5.608  0.00  0.00     0.020 A 
ATOM      3  C2  UNL d   1      -4.277   0.477  -5.988  0.00  0.00     0.034 A 
ATOM      4  C3  UNL d   1      -3.391  -0.075  -5.055  0.00  0.00     0.017 A 
ATOM      5  C4  UNL d   1      -3.815  -0.292  -3.739  0.00  0.00     0.017 A 
ATOM      6  C5  UNL d   1      -5.119   0.043  -3.364  0.00  0.00     0.034 A 
ATOM      7 Cl   UNL d   1      -2.779  -0.969  -2.533  0.00  0.00    -0.070 Cl
ATOM      8 Cl1  UNL d   1      -1.796  -0.463  -5.594  0.00  0.00    -0.070 Cl
ENDROOT
TORSDOF 0
ENDMDL
