MODEL 1
REMARK minimizedAffinity -0.0879756138
REMARK minimizedRMSD -1
REMARK  0 active torsions:
REMARK  status: ('A' for Active; 'I' for Inactive)
ROOT
ATOM      1  C   UNL d   1      -4.887   0.705  -5.829  0.00  0.00     0.020 A 
ATOM      2  C1  UNL d   1      -5.506   0.731  -4.580  0.00  0.00     0.020 A 
ATOM      3  C2  UNL d   1      -4.930   0.057  -3.501  0.00  0.00     0.034 A 
ATOM      4  C3  UNL d   1      -3.730  -0.644  -3.669  0.00  0.00     0.017 A 
ATOM      5  C4  UNL d   1      -3.109  -0.669  -4.923  0.00  0.00     0.017 A 
ATOM      6  C5  UNL d   1      -3.691   0.006  -6.000  0.00  0.00     0.034 A 
ATOM      7 Cl   UNL d   1      -1.628  -1.514  -5.207  0.00  0.00    -0.070 Cl
ATOM      8 Cl1  UNL d   1      -3.074  -1.454  -2.290  0.00  0.00    -0.070 Cl
ENDROOT
TORSDOF 0
ENDMDL
