MODEL 1
REMARK minimizedAffinity -1.85933924
REMARK minimizedRMSD -1
REMARK  0 active torsions:
REMARK  status: ('A' for Active; 'I' for Inactive)
ROOT
ATOM      1  C   UNL d   1      -5.235   0.504  -5.704  0.00  0.00     0.020 A 
ATOM      2  C1  UNL d   1      -5.850   0.515  -4.453  0.00  0.00     0.020 A 
ATOM      3  C2  UNL d   1      -5.247  -0.133  -3.373  0.00  0.00     0.034 A 
ATOM      4  C3  UNL d   1      -4.024  -0.793  -3.541  0.00  0.00     0.017 A 
ATOM      5  C4  UNL d   1      -3.407  -0.803  -4.798  0.00  0.00     0.017 A 
ATOM      6  C5  UNL d   1      -4.016  -0.153  -5.876  0.00  0.00     0.034 A 
ATOM      7 Cl   UNL d   1      -1.899  -1.597  -5.083  0.00  0.00    -0.070 Cl
ATOM      8 Cl1  UNL d   1      -3.335  -1.573  -2.162  0.00  0.00    -0.070 Cl
ENDROOT
TORSDOF 0
ENDMDL
