MODEL 1
REMARK minimizedAffinity 0.873486757
REMARK minimizedRMSD -1
REMARK  0 active torsions:
REMARK  status: ('A' for Active; 'I' for Inactive)
ROOT
ATOM      1  C   UNL d   1      -5.537  -0.865  -4.199  0.00  0.00     0.020 A 
ATOM      2  C1  UNL d   1      -5.724   0.334  -4.886  0.00  0.00     0.020 A 
ATOM      3  C2  UNL d   1      -4.628   1.007  -5.429  0.00  0.00     0.034 A 
ATOM      4  C3  UNL d   1      -3.338   0.482  -5.284  0.00  0.00     0.017 A 
ATOM      5  C4  UNL d   1      -3.151  -0.721  -4.594  0.00  0.00     0.017 A 
ATOM      6  C5  UNL d   1      -4.252  -1.391  -4.053  0.00  0.00     0.034 A 
ATOM      7 Cl   UNL d   1      -1.590  -1.430  -4.375  0.00  0.00    -0.070 Cl
ATOM      8 Cl1  UNL d   1      -2.028   1.367  -5.981  0.00  0.00    -0.070 Cl
ENDROOT
TORSDOF 0
ENDMDL
