MODEL 1
REMARK minimizedAffinity -1.24012196
REMARK minimizedRMSD -1
REMARK  1 active torsions:
REMARK  status: ('A' for Active; 'I' for Inactive)
REMARK    1  A    between atoms: C1_2  and  C2_3 
ROOT
ATOM      1  C2  UNL d   1      -6.000   1.974  -2.012  0.00  0.00    -0.077 A 
ATOM      2  C3  UNL d   1      -6.000   1.323  -3.253  0.00  0.00     0.002 A 
ATOM      3  C4  UNL d   1      -5.992   2.061  -4.438  0.00  0.00     0.002 A 
ATOM      4  C5  UNL d   1      -5.979   3.454  -4.393  0.00  0.00    -0.004 A 
ATOM      5  C6  UNL d   1      -5.981   4.111  -3.163  0.00  0.00     0.002 A 
ATOM      6  C7  UNL d   1      -5.991   3.374  -1.978  0.00  0.00     0.002 A 
ENDROOT
BRANCH   1   7
ATOM      7  C1  UNL d   1      -5.959   1.179  -0.733  0.00  0.00     0.055 C 
ATOM      8  C   UNL d   1      -4.910   1.724   0.225  0.00  0.00     0.019 C 
ENDBRANCH   1   7
TORSDOF 1
ENDMDL
