MODEL 1
REMARK minimizedAffinity 0.466704041
REMARK minimizedRMSD -1
REMARK  1 active torsions:
REMARK  status: ('A' for Active; 'I' for Inactive)
REMARK    1  A    between atoms: C1_2  and  C2_3 
ROOT
ATOM      1  C2  UNL d   1      -5.941   1.914  -2.200  0.00  0.00    -0.077 A 
ATOM      2  C3  UNL d   1      -5.880   3.268  -2.561  0.00  0.00     0.002 A 
ATOM      3  C4  UNL d   1      -5.877   3.641  -3.906  0.00  0.00     0.002 A 
ATOM      4  C5  UNL d   1      -5.939   2.667  -4.901  0.00  0.00    -0.004 A 
ATOM      5  C6  UNL d   1      -5.998   1.318  -4.552  0.00  0.00     0.002 A 
ATOM      6  C7  UNL d   1      -6.000   0.944  -3.208  0.00  0.00     0.002 A 
ENDROOT
BRANCH   1   7
ATOM      7  C1  UNL d   1      -5.994   1.513  -0.749  0.00  0.00     0.055 C 
ATOM      8  C   UNL d   1      -4.879   2.173   0.049  0.00  0.00     0.019 C 
ENDBRANCH   1   7
TORSDOF 1
ENDMDL
