MODEL 1
REMARK minimizedAffinity 5.93201494
REMARK minimizedRMSD -1
REMARK  1 active torsions:
REMARK  status: ('A' for Active; 'I' for Inactive)
REMARK    1  A    between atoms: C1_2  and  C2_3 
ROOT
ATOM      1  C2  UNL d   1      -5.605   1.551  -4.237  0.00  0.00    -0.077 A 
ATOM      2  C3  UNL d   1      -5.072   2.714  -4.811  0.00  0.00     0.002 A 
ATOM      3  C4  UNL d   1      -4.814   3.837  -4.022  0.00  0.00     0.002 A 
ATOM      4  C5  UNL d   1      -5.082   3.806  -2.655  0.00  0.00    -0.004 A 
ATOM      5  C6  UNL d   1      -5.614   2.655  -2.075  0.00  0.00     0.002 A 
ATOM      6  C7  UNL d   1      -5.873   1.533  -2.862  0.00  0.00     0.002 A 
ENDROOT
BRANCH   1   7
ATOM      7  C1  UNL d   1      -5.837   0.322  -5.077  0.00  0.00     0.055 C 
ATOM      8  C   UNL d   1      -4.561  -0.117  -5.779  0.00  0.00     0.019 C 
ENDBRANCH   1   7
TORSDOF 1
ENDMDL
