MODEL 1
REMARK minimizedAffinity 0.859121621
REMARK minimizedRMSD -1
REMARK  1 active torsions:
REMARK  status: ('A' for Active; 'I' for Inactive)
REMARK    1  A    between atoms: C1_2  and  C2_3 
ROOT
ATOM      1  C2  UNL d   1      -5.998   1.931  -4.326  0.00  0.00    -0.077 A 
ATOM      2  C3  UNL d   1      -5.997   3.221  -4.874  0.00  0.00     0.002 A 
ATOM      3  C4  UNL d   1      -5.999   4.342  -4.043  0.00  0.00     0.002 A 
ATOM      4  C5  UNL d   1      -5.997   4.185  -2.658  0.00  0.00    -0.004 A 
ATOM      5  C6  UNL d   1      -6.000   2.906  -2.103  0.00  0.00     0.002 A 
ATOM      6  C7  UNL d   1      -5.999   1.784  -2.933  0.00  0.00     0.002 A 
ENDROOT
BRANCH   1   7
ATOM      7  C1  UNL d   1      -5.947   0.720  -5.221  0.00  0.00     0.055 C 
ATOM      8  C   UNL d   1      -4.530   0.450  -5.706  0.00  0.00     0.019 C 
ENDBRANCH   1   7
TORSDOF 1
ENDMDL
