MODEL 1
REMARK minimizedAffinity 1.43509042
REMARK minimizedRMSD -1
REMARK  1 active torsions:
REMARK  status: ('A' for Active; 'I' for Inactive)
REMARK    1  A    between atoms: C1_2  and  C2_3 
ROOT
ATOM      1  C2  UNL d   1      -5.620   2.570  -1.096  0.00  0.00    -0.077 A 
ATOM      2  C3  UNL d   1      -5.991   1.579  -2.016  0.00  0.00     0.002 A 
ATOM      3  C4  UNL d   1      -5.998   1.853  -3.385  0.00  0.00     0.002 A 
ATOM      4  C5  UNL d   1      -5.631   3.115  -3.847  0.00  0.00    -0.004 A 
ATOM      5  C6  UNL d   1      -5.261   4.108  -2.940  0.00  0.00     0.002 A 
ATOM      6  C7  UNL d   1      -5.255   3.837  -1.571  0.00  0.00     0.002 A 
ENDROOT
BRANCH   1   7
ATOM      7  C1  UNL d   1      -5.564   2.262   0.377  0.00  0.00     0.055 C 
ATOM      8  C   UNL d   1      -4.154   1.892   0.813  0.00  0.00     0.019 C 
ENDBRANCH   1   7
TORSDOF 1
ENDMDL
