MODEL 1
REMARK minimizedAffinity -2.41556358
REMARK minimizedRMSD -1
REMARK  1 active torsions:
REMARK  status: ('A' for Active; 'I' for Inactive)
REMARK    1  A    between atoms: C1_2  and  C2_3 
ROOT
ATOM      1  C2  UNL d   1       2.667  -4.318  -0.383  0.00  0.00    -0.077 A 
ATOM      2  C3  UNL d   1       2.862  -2.947  -0.161  0.00  0.00     0.002 A 
ATOM      3  C4  UNL d   1       4.117  -2.370  -0.362  0.00  0.00     0.002 A 
ATOM      4  C5  UNL d   1       5.186  -3.155  -0.791  0.00  0.00    -0.004 A 
ATOM      5  C6  UNL d   1       5.003  -4.519  -1.014  0.00  0.00     0.002 A 
ATOM      6  C7  UNL d   1       3.749  -5.098  -0.811  0.00  0.00     0.002 A 
ENDROOT
BRANCH   1   7
ATOM      7  C1  UNL d   1       1.303  -4.932  -0.214  0.00  0.00     0.055 C 
ATOM      8  C   UNL d   1       0.279  -4.265  -1.120  0.00  0.00     0.019 C 
ENDBRANCH   1   7
TORSDOF 1
ENDMDL
