MODEL 1
REMARK minimizedAffinity 4.5516758
REMARK minimizedRMSD -1
REMARK  2 active torsions:
REMARK  status: ('A' for Active; 'I' for Inactive)
REMARK    1  A    between atoms: C1_2  and  C2_3 
REMARK    2  A    between atoms: C2_3  and  C3_4 
ROOT
ATOM      1  C3  UNL d   1      -5.177  -0.715   0.550  0.00  0.00    -0.075 A 
ATOM      2  C4  UNL d   1      -3.805  -0.650   0.832  0.00  0.00     0.002 A 
ATOM      3  C5  UNL d   1      -3.265  -1.378   1.893  0.00  0.00     0.002 A 
ATOM      4  C6  UNL d   1      -4.090  -2.169   2.690  0.00  0.00    -0.004 A 
ATOM      5  C7  UNL d   1      -5.457  -2.227   2.429  0.00  0.00     0.002 A 
ATOM      6  C8  UNL d   1      -5.999  -1.504   1.365  0.00  0.00     0.002 A 
ENDROOT
BRANCH   1   7
ATOM      7  C2  UNL d   1      -5.763   0.046  -0.615  0.00  0.00     0.056 C 
BRANCH   7   8
ATOM      8  C1  UNL d   1      -4.928   1.254  -1.054  0.00  0.00     0.007 C 
ATOM      9  C   UNL d   1      -3.770   0.882  -1.970  0.00  0.00     0.009 C 
ENDBRANCH   7   8
ENDBRANCH   1   7
TORSDOF 2
ENDMDL
