MODEL 1
REMARK minimizedAffinity 7.70017815
REMARK minimizedRMSD -1
REMARK  2 active torsions:
REMARK  status: ('A' for Active; 'I' for Inactive)
REMARK    1  A    between atoms: C1_2  and  C2_3 
REMARK    2  A    between atoms: C2_3  and  C3_4 
ROOT
ATOM      1  C3  UNL d   1       1.233   2.753  -0.442  0.00  0.00    -0.075 A 
ATOM      2  C4  UNL d   1       2.573   2.812  -0.034  0.00  0.00     0.002 A 
ATOM      3  C5  UNL d   1       2.942   2.400   1.247  0.00  0.00     0.002 A 
ATOM      4  C6  UNL d   1       1.977   1.936   2.138  0.00  0.00    -0.004 A 
ATOM      5  C7  UNL d   1       0.640   1.889   1.749  0.00  0.00     0.002 A 
ATOM      6  C8  UNL d   1       0.269   2.296   0.466  0.00  0.00     0.002 A 
ENDROOT
BRANCH   1   7
ATOM      7  C2  UNL d   1       0.831   3.170  -1.837  0.00  0.00     0.056 C 
BRANCH   7   8
ATOM      8  C1  UNL d   1      -0.390   4.094  -1.884  0.00  0.00     0.007 C 
ATOM      9  C   UNL d   1      -0.171   5.416  -1.161  0.00  0.00     0.009 C 
ENDBRANCH   7   8
ENDBRANCH   1   7
TORSDOF 2
ENDMDL
