MODEL 1
REMARK minimizedAffinity -2.97877598
REMARK minimizedRMSD -1
REMARK  2 active torsions:
REMARK  status: ('A' for Active; 'I' for Inactive)
REMARK    1  A    between atoms: C1_2  and  C2_3 
REMARK    2  A    between atoms: C2_3  and  C3_4 
ROOT
ATOM      1  C3  UNL d   1       0.212   2.315  -0.282  0.00  0.00    -0.075 A 
ATOM      2  C4  UNL d   1       0.199   3.263  -1.316  0.00  0.00     0.002 A 
ATOM      3  C5  UNL d   1       1.094   4.333  -1.306  0.00  0.00     0.002 A 
ATOM      4  C6  UNL d   1       2.003   4.476  -0.260  0.00  0.00    -0.004 A 
ATOM      5  C7  UNL d   1       2.013   3.551   0.781  0.00  0.00     0.002 A 
ATOM      6  C8  UNL d   1       1.122   2.476   0.772  0.00  0.00     0.002 A 
ENDROOT
BRANCH   1   7
ATOM      7  C2  UNL d   1      -0.734   1.138  -0.301  0.00  0.00     0.056 C 
BRANCH   7   8
ATOM      8  C1  UNL d   1      -1.876   1.272  -1.314  0.00  0.00     0.007 C 
ATOM      9  C   UNL d   1      -3.165   0.603  -0.857  0.00  0.00     0.009 C 
ENDBRANCH   7   8
ENDBRANCH   1   7
TORSDOF 2
ENDMDL
