MODEL 1
REMARK minimizedAffinity -1.58020365
REMARK minimizedRMSD -1
REMARK  2 active torsions:
REMARK  status: ('A' for Active; 'I' for Inactive)
REMARK    1  A    between atoms: C1_2  and  C2_3 
REMARK    2  A    between atoms: C2_3  and  C3_4 
ROOT
ATOM      1  C3  UNL d   1       0.631   4.077  -0.274  0.00  0.00    -0.075 A 
ATOM      2  C4  UNL d   1       0.053   3.128  -1.129  0.00  0.00     0.002 A 
ATOM      3  C5  UNL d   1      -0.372   1.894  -0.634  0.00  0.00     0.002 A 
ATOM      4  C6  UNL d   1      -0.216   1.591   0.716  0.00  0.00    -0.004 A 
ATOM      5  C7  UNL d   1       0.372   2.520   1.572  0.00  0.00     0.002 A 
ATOM      6  C8  UNL d   1       0.794   3.757   1.080  0.00  0.00     0.002 A 
ENDROOT
BRANCH   1   7
ATOM      7  C2  UNL d   1       1.066   5.425  -0.798  0.00  0.00     0.056 C 
BRANCH   7   8
ATOM      8  C1  UNL d   1       0.147   6.000  -1.881  0.00  0.00     0.007 C 
ATOM      9  C   UNL d   1       0.779   5.999  -3.267  0.00  0.00     0.009 C 
ENDBRANCH   7   8
ENDBRANCH   1   7
TORSDOF 2
ENDMDL
