MODEL 1
REMARK minimizedAffinity -0.191908032
REMARK minimizedRMSD -1
REMARK  2 active torsions:
REMARK  status: ('A' for Active; 'I' for Inactive)
REMARK    1  A    between atoms: C1_2  and  C2_3 
REMARK    2  A    between atoms: C2_3  and  C3_4 
ROOT
ATOM      1  C3  UNL d   1       0.350   2.791   0.719  0.00  0.00    -0.075 A 
ATOM      2  C4  UNL d   1       1.592   2.949   1.351  0.00  0.00     0.002 A 
ATOM      3  C5  UNL d   1       1.820   2.399   2.613  0.00  0.00     0.002 A 
ATOM      4  C6  UNL d   1       0.809   1.694   3.262  0.00  0.00    -0.004 A 
ATOM      5  C7  UNL d   1      -0.434   1.545   2.651  0.00  0.00     0.002 A 
ATOM      6  C8  UNL d   1      -0.664   2.091   1.386  0.00  0.00     0.002 A 
ENDROOT
BRANCH   1   7
ATOM      7  C2  UNL d   1       0.107   3.359  -0.659  0.00  0.00     0.056 C 
BRANCH   7   8
ATOM      8  C1  UNL d   1       0.846   4.673  -0.932  0.00  0.00     0.007 C 
ATOM      9  C   UNL d   1       0.410   5.350  -2.224  0.00  0.00     0.009 C 
ENDBRANCH   7   8
ENDBRANCH   1   7
TORSDOF 2
ENDMDL
