MODEL 1
REMARK minimizedAffinity 5.36739445
REMARK minimizedRMSD -1
REMARK  2 active torsions:
REMARK  status: ('A' for Active; 'I' for Inactive)
REMARK    1  A    between atoms: C1_2  and  C2_3 
REMARK    2  A    between atoms: C2_3  and  C3_4 
ROOT
ATOM      1  C3  UNL d   1       3.524  -4.086  -1.548  0.00  0.00    -0.075 A 
ATOM      2  C4  UNL d   1       3.010  -5.081  -2.392  0.00  0.00     0.002 A 
ATOM      3  C5  UNL d   1       1.862  -5.789  -2.035  0.00  0.00     0.002 A 
ATOM      4  C6  UNL d   1       1.220  -5.519  -0.828  0.00  0.00    -0.004 A 
ATOM      5  C7  UNL d   1       1.732  -4.544   0.026  0.00  0.00     0.002 A 
ATOM      6  C8  UNL d   1       2.878  -3.831  -0.331  0.00  0.00     0.002 A 
ENDROOT
BRANCH   1   7
ATOM      7  C2  UNL d   1       4.749  -3.296  -1.942  0.00  0.00     0.056 C 
BRANCH   7   8
ATOM      8  C1  UNL d   1       4.513  -1.785  -2.036  0.00  0.00     0.007 C 
ATOM      9  C   UNL d   1       3.912  -1.353  -3.367  0.00  0.00     0.009 C 
ENDBRANCH   7   8
ENDBRANCH   1   7
TORSDOF 2
ENDMDL
