MODEL 1
REMARK minimizedAffinity 0.118171364
REMARK minimizedRMSD -1
REMARK  3 active torsions:
REMARK  status: ('A' for Active; 'I' for Inactive)
REMARK    1  A    between atoms: C3'_2  and  C2'_3 
REMARK    2  A    between atoms: C2'_3  and  C1'_4 
REMARK    3  A    between atoms: C1'_4  and  C1_5 
ROOT
ATOM      1  C1  N4B d   1      -0.211  -0.907   0.780  0.00  0.00    -0.075 A 
ATOM      2  C2  N4B d   1      -0.014  -1.040   2.172  0.00  0.00     0.002 A 
ATOM      3  C3  N4B d   1      -1.016  -0.692   3.044  0.00  0.00     0.002 A 
ATOM      4  C4  N4B d   1      -2.212  -0.193   2.550  0.00  0.00    -0.004 A 
ATOM      5  C5  N4B d   1      -2.404  -0.092   1.203  0.00  0.00     0.002 A 
ATOM      6  C6  N4B d   1      -1.406  -0.441   0.315  0.00  0.00     0.002 A 
ENDROOT
BRANCH   1   7
ATOM      7  C1' N4B d   1       0.887  -1.194  -0.209  0.00  0.00     0.057 C 
BRANCH   7   8
ATOM      8  C2' N4B d   1       1.985  -1.998   0.481  0.00  0.00     0.009 C 
BRANCH   8   9
ATOM      9  C3' N4B d   1       1.505  -3.379   0.892  0.00  0.00     0.004 C 
ATOM     10  C4' N4B d   1       2.633  -4.323   1.183  0.00  0.00     0.003 C 
ENDBRANCH   8   9
ENDBRANCH   7   8
ENDBRANCH   1   7
TORSDOF 3
ENDMDL
