MODEL 1
REMARK minimizedAffinity 5.9172368
REMARK minimizedRMSD -1
REMARK  3 active torsions:
REMARK  status: ('A' for Active; 'I' for Inactive)
REMARK    1  A    between atoms: C3'_2  and  C2'_3 
REMARK    2  A    between atoms: C2'_3  and  C1'_4 
REMARK    3  A    between atoms: C1'_4  and  C1_5 
ROOT
ATOM      1  C1  N4B d   1      -0.858  -0.307   1.091  0.00  0.00    -0.075 A 
ATOM      2  C2  N4B d   1       0.342  -0.618   0.416  0.00  0.00     0.002 A 
ATOM      3  C3  N4B d   1       0.366  -0.665  -0.956  0.00  0.00     0.002 A 
ATOM      4  C4  N4B d   1      -0.797  -0.424  -1.671  0.00  0.00    -0.004 A 
ATOM      5  C5  N4B d   1      -1.947  -0.099  -1.012  0.00  0.00     0.002 A 
ATOM      6  C6  N4B d   1      -1.985  -0.045   0.366  0.00  0.00     0.002 A 
ENDROOT
BRANCH   1   7
ATOM      7  C1' N4B d   1      -0.954  -0.329   2.592  0.00  0.00     0.057 C 
BRANCH   7   8
ATOM      8  C2' N4B d   1      -0.507  -1.695   3.103  0.00  0.00     0.009 C 
BRANCH   8   9
ATOM      9  C3' N4B d   1      -1.463  -2.799   2.686  0.00  0.00     0.004 C 
ATOM     10  C4' N4B d   1      -2.173  -3.423   3.850  0.00  0.00     0.003 C 
ENDBRANCH   8   9
ENDBRANCH   7   8
ENDBRANCH   1   7
TORSDOF 3
ENDMDL
