MODEL 1
REMARK minimizedAffinity 6.73560715
REMARK minimizedRMSD -1
REMARK  3 active torsions:
REMARK  status: ('A' for Active; 'I' for Inactive)
REMARK    1  A    between atoms: C3'_2  and  C2'_3 
REMARK    2  A    between atoms: C2'_3  and  C1'_4 
REMARK    3  A    between atoms: C1'_4  and  C1_5 
ROOT
ATOM      1  C1  N4B d   1       0.084  -1.372   1.454  0.00  0.00    -0.075 A 
ATOM      2  C2  N4B d   1      -0.477  -1.839   2.663  0.00  0.00     0.002 A 
ATOM      3  C3  N4B d   1       0.066  -2.930   3.296  0.00  0.00     0.002 A 
ATOM      4  C4  N4B d   1       1.154  -3.579   2.732  0.00  0.00    -0.004 A 
ATOM      5  C5  N4B d   1       1.706  -3.107   1.577  0.00  0.00     0.002 A 
ATOM      6  C6  N4B d   1       1.173  -2.009   0.932  0.00  0.00     0.002 A 
ENDROOT
BRANCH   1   7
ATOM      7  C1' N4B d   1      -0.528  -0.236   0.681  0.00  0.00     0.057 C 
BRANCH   7   8
ATOM      8  C2' N4B d   1      -1.995  -0.095   1.074  0.00  0.00     0.009 C 
BRANCH   8   9
ATOM      9  C3' N4B d   1      -2.903  -0.934   0.191  0.00  0.00     0.004 C 
ATOM     10  C4' N4B d   1      -4.031  -1.566   0.952  0.00  0.00     0.003 C 
ENDBRANCH   8   9
ENDBRANCH   7   8
ENDBRANCH   1   7
TORSDOF 3
ENDMDL
