MODEL 1
REMARK minimizedAffinity 0.735939622
REMARK minimizedRMSD -1
REMARK  3 active torsions:
REMARK  status: ('A' for Active; 'I' for Inactive)
REMARK    1  A    between atoms: C3'_2  and  C2'_3 
REMARK    2  A    between atoms: C2'_3  and  C1'_4 
REMARK    3  A    between atoms: C1'_4  and  C1_5 
ROOT
ATOM      1  C1  N4B d   1       1.777  -4.477   2.021  0.00  0.00    -0.075 A 
ATOM      2  C2  N4B d   1       1.017  -3.287   1.985  0.00  0.00     0.002 A 
ATOM      3  C3  N4B d   1      -0.237  -3.257   2.543  0.00  0.00     0.002 A 
ATOM      4  C4  N4B d   1      -0.758  -4.404   3.123  0.00  0.00    -0.004 A 
ATOM      5  C5  N4B d   1      -0.007  -5.542   3.176  0.00  0.00     0.002 A 
ATOM      6  C6  N4B d   1       1.257  -5.586   2.623  0.00  0.00     0.002 A 
ENDROOT
BRANCH   1   7
ATOM      7  C1' N4B d   1       3.119  -4.583   1.348  0.00  0.00     0.057 C 
BRANCH   7   8
ATOM      8  C2' N4B d   1       3.961  -5.628   2.073  0.00  0.00     0.009 C 
BRANCH   8   9
ATOM      9  C3' N4B d   1       5.250  -5.934   1.330  0.00  0.00     0.004 C 
ATOM     10  C4' N4B d   1       5.063  -5.993  -0.157  0.00  0.00     0.003 C 
ENDBRANCH   8   9
ENDBRANCH   7   8
ENDBRANCH   1   7
TORSDOF 3
ENDMDL
