MODEL 1
REMARK minimizedAffinity -3.18825102
REMARK minimizedRMSD -1
REMARK  3 active torsions:
REMARK  status: ('A' for Active; 'I' for Inactive)
REMARK    1  A    between atoms: C3'_2  and  C2'_3 
REMARK    2  A    between atoms: C2'_3  and  C1'_4 
REMARK    3  A    between atoms: C1'_4  and  C1_5 
ROOT
ATOM      1  C1  N4B d   1      -0.822  -1.082   1.576  0.00  0.00    -0.075 A 
ATOM      2  C2  N4B d   1      -1.180  -1.826   2.722  0.00  0.00     0.002 A 
ATOM      3  C3  N4B d   1      -0.440  -2.924   3.086  0.00  0.00     0.002 A 
ATOM      4  C4  N4B d   1       0.646  -3.306   2.313  0.00  0.00    -0.004 A 
ATOM      5  C5  N4B d   1       1.000  -2.567   1.223  0.00  0.00     0.002 A 
ATOM      6  C6  N4B d   1       0.268  -1.459   0.847  0.00  0.00     0.002 A 
ENDROOT
BRANCH   1   7
ATOM      7  C1' N4B d   1      -1.652   0.075   1.090  0.00  0.00     0.057 C 
BRANCH   7   8
ATOM      8  C2' N4B d   1      -3.095  -0.117   1.545  0.00  0.00     0.009 C 
BRANCH   8   9
ATOM      9  C3' N4B d   1      -3.961  -0.716   0.450  0.00  0.00     0.004 C 
ATOM     10  C4' N4B d   1      -5.427  -0.511   0.692  0.00  0.00     0.003 C 
ENDBRANCH   8   9
ENDBRANCH   7   8
ENDBRANCH   1   7
TORSDOF 3
ENDMDL
