MODEL 1
REMARK minimizedAffinity -1.04063463
REMARK minimizedRMSD -1
REMARK  3 active torsions:
REMARK  status: ('A' for Active; 'I' for Inactive)
REMARK    1  A    between atoms: C3'_2  and  C2'_3 
REMARK    2  A    between atoms: C2'_3  and  C1'_4 
REMARK    3  A    between atoms: C1'_4  and  C1_5 
ROOT
ATOM      1  C1  N4B d   1       0.569   1.027  -1.541  0.00  0.00    -0.075 A 
ATOM      2  C2  N4B d   1       1.800   1.402  -2.124  0.00  0.00     0.002 A 
ATOM      3  C3  N4B d   1       1.890   2.564  -2.849  0.00  0.00     0.002 A 
ATOM      4  C4  N4B d   1       0.763   3.354  -3.021  0.00  0.00    -0.004 A 
ATOM      5  C5  N4B d   1      -0.415   2.998  -2.434  0.00  0.00     0.002 A 
ATOM      6  C6  N4B d   1      -0.520   1.835  -1.699  0.00  0.00     0.002 A 
ENDROOT
BRANCH   1   7
ATOM      7  C1' N4B d   1       0.400  -0.278  -0.811  0.00  0.00     0.057 C 
BRANCH   7   8
ATOM      8  C2' N4B d   1      -0.772  -0.161   0.158  0.00  0.00     0.009 C 
BRANCH   8   9
ATOM      9  C3' N4B d   1      -1.871  -1.161  -0.157  0.00  0.00     0.004 C 
ATOM     10  C4' N4B d   1      -3.224  -0.700   0.297  0.00  0.00     0.003 C 
ENDBRANCH   8   9
ENDBRANCH   7   8
ENDBRANCH   1   7
TORSDOF 3
ENDMDL
