MODEL 1
REMARK minimizedAffinity -0.133158907
REMARK minimizedRMSD -1
REMARK  1 active torsions:
REMARK  status: ('A' for Active; 'I' for Inactive)
REMARK    1  A    between atoms: C1_2  and  C2_3 
ROOT
ATOM      1  C2  UNL d   1      -3.622   2.628  -5.997  0.00  0.00    -0.077 A 
ATOM      2  C3  UNL d   1      -4.582   1.607  -5.988  0.00  0.00     0.002 A 
ATOM      3  C4  UNL d   1      -4.189   0.268  -5.945  0.00  0.00     0.002 A 
ATOM      4  C5  UNL d   1      -2.835  -0.061  -5.906  0.00  0.00    -0.004 A 
ATOM      5  C6  UNL d   1      -1.873   0.947  -5.916  0.00  0.00     0.002 A 
ATOM      6  C7  UNL d   1      -2.264   2.286  -5.961  0.00  0.00     0.002 A 
ENDROOT
BRANCH   1   7
ATOM      7  C1  UNL d   1      -4.045   4.074  -5.994  0.00  0.00     0.055 C 
ATOM      8  C   UNL d   1      -2.842   5.003  -5.939  0.00  0.00     0.019 C 
ENDBRANCH   1   7
TORSDOF 1
ENDMDL
