MODEL 1
REMARK minimizedAffinity -3.46725535
REMARK minimizedRMSD -1
REMARK  1 active torsions:
REMARK  status: ('A' for Active; 'I' for Inactive)
REMARK    1  A    between atoms: C1_2  and  C2_3 
ROOT
ATOM      1  C2  UNL d   1       0.273  -0.385  -1.047  0.00  0.00    -0.077 A 
ATOM      2  C3  UNL d   1       1.093  -0.234  -2.174  0.00  0.00     0.002 A 
ATOM      3  C4  UNL d   1       0.792  -0.905  -3.361  0.00  0.00     0.002 A 
ATOM      4  C5  UNL d   1      -0.330  -1.727  -3.433  0.00  0.00    -0.004 A 
ATOM      5  C6  UNL d   1      -1.151  -1.885  -2.317  0.00  0.00     0.002 A 
ATOM      6  C7  UNL d   1      -0.851  -1.216  -1.129  0.00  0.00     0.002 A 
ENDROOT
BRANCH   1   7
ATOM      7  C1  UNL d   1       0.569   0.376   0.219  0.00  0.00     0.055 C 
ATOM      8  C   UNL d   1       0.603   1.877  -0.032  0.00  0.00     0.019 C 
ENDBRANCH   1   7
TORSDOF 1
ENDMDL
