MODEL 1
REMARK minimizedAffinity 1.78155291
REMARK minimizedRMSD -1
REMARK  1 active torsions:
REMARK  status: ('A' for Active; 'I' for Inactive)
REMARK    1  A    between atoms: C1_2  and  C2_3 
ROOT
ATOM      1  C2  UNL d   1      -3.289   3.201  -5.903  0.00  0.00    -0.077 A 
ATOM      2  C3  UNL d   1      -4.614   3.659  -5.894  0.00  0.00     0.002 A 
ATOM      3  C4  UNL d   1      -5.676   2.752  -5.919  0.00  0.00     0.002 A 
ATOM      4  C5  UNL d   1      -5.423   1.383  -5.948  0.00  0.00    -0.004 A 
ATOM      5  C6  UNL d   1      -4.109   0.917  -5.959  0.00  0.00     0.002 A 
ATOM      6  C7  UNL d   1      -3.047   1.822  -5.935  0.00  0.00     0.002 A 
ENDROOT
BRANCH   1   7
ATOM      7  C1  UNL d   1      -2.144   4.176  -5.826  0.00  0.00     0.055 C 
ATOM      8  C   UNL d   1      -2.630   5.612  -5.953  0.00  0.00     0.019 C 
ENDBRANCH   1   7
TORSDOF 1
ENDMDL
