MODEL 1
REMARK minimizedAffinity -1.16193497
REMARK minimizedRMSD -1
REMARK  1 active torsions:
REMARK  status: ('A' for Active; 'I' for Inactive)
REMARK    1  A    between atoms: C1_2  and  C2_3 
ROOT
ATOM      1  C2  UNL d   1      -3.611   3.064  -5.881  0.00  0.00    -0.077 A 
ATOM      2  C3  UNL d   1      -4.926   2.595  -6.000  0.00  0.00     0.002 A 
ATOM      3  C4  UNL d   1      -6.000   3.487  -5.968  0.00  0.00     0.002 A 
ATOM      4  C5  UNL d   1      -5.769   4.853  -5.822  0.00  0.00    -0.004 A 
ATOM      5  C6  UNL d   1      -4.464   5.329  -5.701  0.00  0.00     0.002 A 
ATOM      6  C7  UNL d   1      -3.390   4.439  -5.732  0.00  0.00     0.002 A 
ENDROOT
BRANCH   1   7
ATOM      7  C1  UNL d   1      -2.449   2.109  -5.965  0.00  0.00     0.055 C 
ATOM      8  C   UNL d   1      -2.921   0.662  -5.966  0.00  0.00     0.019 C 
ENDBRANCH   1   7
TORSDOF 1
ENDMDL
