MODEL 1
REMARK minimizedAffinity 4.94829607
REMARK minimizedRMSD -1
REMARK  1 active torsions:
REMARK  status: ('A' for Active; 'I' for Inactive)
REMARK    1  A    between atoms: C1_2  and  C2_3 
ROOT
ATOM      1  C2  UNL d   1      -2.895   2.327  -5.979  0.00  0.00    -0.077 A 
ATOM      2  C3  UNL d   1      -3.837   3.365  -5.983  0.00  0.00     0.002 A 
ATOM      3  C4  UNL d   1      -5.204   3.078  -5.996  0.00  0.00     0.002 A 
ATOM      4  C5  UNL d   1      -5.640   1.755  -6.000  0.00  0.00    -0.004 A 
ATOM      5  C6  UNL d   1      -4.711   0.716  -5.997  0.00  0.00     0.002 A 
ATOM      6  C7  UNL d   1      -3.345   1.000  -5.986  0.00  0.00     0.002 A 
ENDROOT
BRANCH   1   7
ATOM      7  C1  UNL d   1      -1.422   2.633  -5.915  0.00  0.00     0.055 C 
ATOM      8  C   UNL d   1      -0.730   1.807  -4.840  0.00  0.00     0.019 C 
ENDBRANCH   1   7
TORSDOF 1
ENDMDL
