MODEL 1
REMARK minimizedAffinity -0.381329894
REMARK minimizedRMSD -1
REMARK  1 active torsions:
REMARK  status: ('A' for Active; 'I' for Inactive)
REMARK    1  A    between atoms: C1_2  and  C2_3 
ROOT
ATOM      1  C2  UNL d   1       0.874  -0.258  -0.513  0.00  0.00    -0.077 A 
ATOM      2  C3  UNL d   1       0.684  -0.814  -1.786  0.00  0.00     0.002 A 
ATOM      3  C4  UNL d   1       1.412  -0.341  -2.879  0.00  0.00     0.002 A 
ATOM      4  C5  UNL d   1       2.338   0.686  -2.710  0.00  0.00    -0.004 A 
ATOM      5  C6  UNL d   1       2.533   1.247  -1.448  0.00  0.00     0.002 A 
ATOM      6  C7  UNL d   1       1.805   0.776  -0.354  0.00  0.00     0.002 A 
ENDROOT
BRANCH   1   7
ATOM      7  C1  UNL d   1       0.125  -0.800   0.676  0.00  0.00     0.055 C 
ATOM      8  C   UNL d   1      -0.781  -1.957   0.280  0.00  0.00     0.019 C 
ENDBRANCH   1   7
TORSDOF 1
ENDMDL
