MODEL 1
REMARK minimizedAffinity -1.45033967
REMARK minimizedRMSD -1
REMARK  1 active torsions:
REMARK  status: ('A' for Active; 'I' for Inactive)
REMARK    1  A    between atoms: C1_2  and  C2_3 
ROOT
ATOM      1  C2  UNL d   1      -4.922   3.490  -5.912  0.00  0.00    -0.077 A 
ATOM      2  C3  UNL d   1      -3.528   3.348  -5.952  0.00  0.00     0.002 A 
ATOM      3  C4  UNL d   1      -2.704   4.474  -5.989  0.00  0.00     0.002 A 
ATOM      4  C5  UNL d   1      -3.264   5.750  -5.981  0.00  0.00    -0.004 A 
ATOM      5  C6  UNL d   1      -4.650   5.901  -5.943  0.00  0.00     0.002 A 
ATOM      6  C7  UNL d   1      -5.475   4.777  -5.908  0.00  0.00     0.002 A 
ENDROOT
BRANCH   1   7
ATOM      7  C1  UNL d   1      -5.811   2.277  -5.822  0.00  0.00     0.055 C 
ATOM      8  C   UNL d   1      -5.013   0.992  -5.993  0.00  0.00     0.019 C 
ENDBRANCH   1   7
TORSDOF 1
ENDMDL
