MODEL 1
REMARK minimizedAffinity -1.56731558
REMARK minimizedRMSD -1
REMARK  1 active torsions:
REMARK  status: ('A' for Active; 'I' for Inactive)
REMARK    1  A    between atoms: C1_2  and  C2_3 
ROOT
ATOM      1  C2  UNL d   1      -3.591  -4.804  -5.556  0.00  0.00    -0.077 A 
ATOM      2  C3  UNL d   1      -3.108  -3.703  -4.835  0.00  0.00     0.002 A 
ATOM      3  C4  UNL d   1      -3.941  -2.615  -4.565  0.00  0.00     0.002 A 
ATOM      4  C5  UNL d   1      -5.261  -2.619  -5.009  0.00  0.00    -0.004 A 
ATOM      5  C6  UNL d   1      -5.751  -3.709  -5.728  0.00  0.00     0.002 A 
ATOM      6  C7  UNL d   1      -4.920  -4.796  -6.000  0.00  0.00     0.002 A 
ENDROOT
BRANCH   1   7
ATOM      7  C1  UNL d   1      -2.710  -6.000  -5.805  0.00  0.00     0.055 C 
ATOM      8  C   UNL d   1      -1.493  -5.991  -4.891  0.00  0.00     0.019 C 
ENDBRANCH   1   7
TORSDOF 1
ENDMDL
