MODEL 1
REMARK minimizedAffinity 5.29084587
REMARK minimizedRMSD -1
REMARK  1 active torsions:
REMARK  status: ('A' for Active; 'I' for Inactive)
REMARK    1  A    between atoms: C1_2  and  C2_3 
ROOT
ATOM      1  C2  UNL d   1      -4.039   0.190   1.210  0.00  0.00    -0.077 A 
ATOM      2  C3  UNL d   1      -5.310   0.046   0.636  0.00  0.00     0.002 A 
ATOM      3  C4  UNL d   1      -5.998  -1.164   0.739  0.00  0.00     0.002 A 
ATOM      4  C5  UNL d   1      -5.426  -2.238   1.418  0.00  0.00    -0.004 A 
ATOM      5  C6  UNL d   1      -4.162  -2.105   1.991  0.00  0.00     0.002 A 
ATOM      6  C7  UNL d   1      -3.472  -0.897   1.888  0.00  0.00     0.002 A 
ENDROOT
BRANCH   1   7
ATOM      7  C1  UNL d   1      -3.315   1.509   1.142  0.00  0.00     0.055 C 
ATOM      8  C   UNL d   1      -3.729   2.426   2.284  0.00  0.00     0.019 C 
ENDBRANCH   1   7
TORSDOF 1
ENDMDL
