MODEL 1
REMARK minimizedAffinity 9.20162678
REMARK minimizedRMSD -1
REMARK  0 active torsions:
REMARK  status: ('A' for Active; 'I' for Inactive)
ROOT
ATOM      1  C   UNL d   1      -2.284  -1.345   0.320  0.00  0.00     0.124 A 
ATOM      2  C1  UNL d   1      -2.104  -1.656  -1.021  0.00  0.00     0.062 A 
ATOM      3  C2  UNL d   1      -1.867  -2.972  -1.408  0.00  0.00     0.162 A 
ATOM      4  C3  UNL d   1      -1.812  -3.988  -0.453  0.00  0.00    -0.034 A 
ATOM      5  C4  UNL d   1      -1.993  -3.667   0.893  0.00  0.00     0.162 A 
ATOM      6  C5  UNL d   1      -2.229  -2.350   1.275  0.00  0.00     0.062 A 
ATOM      7  F   UNL d   1      -2.403  -2.051   2.571  0.00  0.00    -0.097 F 
ATOM      8  F1  UNL d   1      -1.946  -4.618   1.837  0.00  0.00    -0.096 F 
ATOM      9  I   UNL d   1      -1.459  -5.957  -1.028  0.00  0.00    -0.060 I 
ATOM     10  F2  UNL d   1      -1.696  -3.244  -2.710  0.00  0.00    -0.096 F 
ATOM     11  F3  UNL d   1      -2.155  -0.687  -1.946  0.00  0.00    -0.097 F 
ATOM     12  F4  UNL d   1      -2.510  -0.078   0.690  0.00  0.00    -0.092 F 
ENDROOT
TORSDOF 0
ENDMDL
