MODEL 1
REMARK minimizedAffinity 26.2819729
REMARK minimizedRMSD -1
REMARK  0 active torsions:
REMARK  status: ('A' for Active; 'I' for Inactive)
ROOT
ATOM      1  C   UNL d   1       5.301   2.877  -0.677  0.00  0.00     0.124 A 
ATOM      2  C1  UNL d   1       5.655   3.401   0.558  0.00  0.00     0.062 A 
ATOM      3  C2  UNL d   1       5.653   2.590   1.689  0.00  0.00     0.162 A 
ATOM      4  C3  UNL d   1       5.296   1.245   1.590  0.00  0.00    -0.034 A 
ATOM      5  C4  UNL d   1       4.941   0.725   0.345  0.00  0.00     0.162 A 
ATOM      6  C5  UNL d   1       4.944   1.540  -0.783  0.00  0.00     0.062 A 
ATOM      7  F   UNL d   1       4.602   1.031  -1.976  0.00  0.00    -0.097 F 
ATOM      8  F1  UNL d   1       4.593  -0.564   0.214  0.00  0.00    -0.096 F 
ATOM      9  I   UNL d   1       5.292   0.030   3.280  0.00  0.00    -0.060 I 
ATOM     10  F2  UNL d   1       5.999   3.124   2.870  0.00  0.00    -0.096 F 
ATOM     11  F3  UNL d   1       5.999   4.693   0.662  0.00  0.00    -0.097 F 
ATOM     12  F4  UNL d   1       5.303   3.659  -1.764  0.00  0.00    -0.092 F 
ENDROOT
TORSDOF 0
ENDMDL
