MODEL 1
REMARK minimizedAffinity 25.101696
REMARK minimizedRMSD -1
REMARK  0 active torsions:
REMARK  status: ('A' for Active; 'I' for Inactive)
ROOT
ATOM      1  C   UNL d   1      -1.116  -0.220  -0.800  0.00  0.00     0.124 A 
ATOM      2  C1  UNL d   1      -1.908   0.269   0.229  0.00  0.00     0.062 A 
ATOM      3  C2  UNL d   1      -3.287   0.077   0.203  0.00  0.00     0.162 A 
ATOM      4  C3  UNL d   1      -3.882  -0.608  -0.856  0.00  0.00    -0.034 A 
ATOM      5  C4  UNL d   1      -3.079  -1.096  -1.888  0.00  0.00     0.162 A 
ATOM      6  C5  UNL d   1      -1.702  -0.902  -1.857  0.00  0.00     0.062 A 
ATOM      7  F   UNL d   1      -0.938  -1.375  -2.853  0.00  0.00    -0.097 F 
ATOM      8  F1  UNL d   1      -3.618  -1.760  -2.921  0.00  0.00    -0.096 F 
ATOM      9  I   UNL d   1      -5.943  -0.897  -0.898  0.00  0.00    -0.060 I 
ATOM     10  F2  UNL d   1      -4.028   0.561   1.211  0.00  0.00    -0.096 F 
ATOM     11  F3  UNL d   1      -1.345   0.929   1.251  0.00  0.00    -0.097 F 
ATOM     12  F4  UNL d   1       0.210  -0.033  -0.773  0.00  0.00    -0.092 F 
ENDROOT
TORSDOF 0
ENDMDL
