MODEL 1
REMARK minimizedAffinity 20.2903614
REMARK minimizedRMSD -1
REMARK  0 active torsions:
REMARK  status: ('A' for Active; 'I' for Inactive)
ROOT
ATOM      1  C   UNL d   1       2.378   0.796  -0.328  0.00  0.00     0.124 A 
ATOM      2  C1  UNL d   1       2.092   0.946   1.022  0.00  0.00     0.062 A 
ATOM      3  C2  UNL d   1       3.124   1.002   1.954  0.00  0.00     0.162 A 
ATOM      4  C3  UNL d   1       4.453   0.911   1.539  0.00  0.00    -0.034 A 
ATOM      5  C4  UNL d   1       4.732   0.760   0.180  0.00  0.00     0.162 A 
ATOM      6  C5  UNL d   1       3.697   0.703  -0.748  0.00  0.00     0.062 A 
ATOM      7  F   UNL d   1       3.975   0.559  -2.052  0.00  0.00    -0.097 F 
ATOM      8  F1  UNL d   1       5.998   0.668  -0.254  0.00  0.00    -0.096 F 
ATOM      9  I   UNL d   1       5.999   0.995   2.929  0.00  0.00    -0.060 I 
ATOM     10  F2  UNL d   1       2.818   1.147   3.252  0.00  0.00    -0.096 F 
ATOM     11  F3  UNL d   1       0.818   1.035   1.430  0.00  0.00    -0.097 F 
ATOM     12  F4  UNL d   1       1.383   0.741  -1.223  0.00  0.00    -0.092 F 
ENDROOT
TORSDOF 0
ENDMDL
