MODEL 1
REMARK minimizedAffinity 24.4993019
REMARK minimizedRMSD -1
REMARK  0 active torsions:
REMARK  status: ('A' for Active; 'I' for Inactive)
ROOT
ATOM      1  C   UNL d   1       1.670   0.950  -0.322  0.00  0.00     0.124 A 
ATOM      2  C1  UNL d   1       2.955   0.760  -0.813  0.00  0.00     0.062 A 
ATOM      3  C2  UNL d   1       4.058   1.010  -0.002  0.00  0.00     0.162 A 
ATOM      4  C3  UNL d   1       3.882   1.452   1.309  0.00  0.00    -0.034 A 
ATOM      5  C4  UNL d   1       2.588   1.641   1.796  0.00  0.00     0.162 A 
ATOM      6  C5  UNL d   1       1.488   1.390   0.982  0.00  0.00     0.062 A 
ATOM      7  F   UNL d   1       0.248   1.574   1.458  0.00  0.00    -0.097 F 
ATOM      8  F1  UNL d   1       2.382   2.065   3.052  0.00  0.00    -0.096 F 
ATOM      9  I   UNL d   1       5.530   1.826   2.525  0.00  0.00    -0.060 I 
ATOM     10  F2  UNL d   1       5.288   0.818  -0.503  0.00  0.00    -0.096 F 
ATOM     11  F3  UNL d   1       3.134   0.336  -2.072  0.00  0.00    -0.097 F 
ATOM     12  F4  UNL d   1       0.611   0.710  -1.104  0.00  0.00    -0.092 F 
ENDROOT
TORSDOF 0
ENDMDL
