MODEL 1
REMARK minimizedAffinity 21.5445805
REMARK minimizedRMSD -1
REMARK  0 active torsions:
REMARK  status: ('A' for Active; 'I' for Inactive)
ROOT
ATOM      1  C   UNL d   1       4.985   2.498   2.910  0.00  0.00     0.124 A 
ATOM      2  C1  UNL d   1       4.984   1.160   2.539  0.00  0.00     0.062 A 
ATOM      3  C2  UNL d   1       3.931   0.330   2.914  0.00  0.00     0.162 A 
ATOM      4  C3  UNL d   1       2.870   0.836   3.664  0.00  0.00    -0.034 A 
ATOM      5  C4  UNL d   1       2.878   2.182   4.035  0.00  0.00     0.162 A 
ATOM      6  C5  UNL d   1       3.933   3.007   3.658  0.00  0.00     0.062 A 
ATOM      7  F   UNL d   1       3.932   4.299   4.018  0.00  0.00    -0.097 F 
ATOM      8  F1  UNL d   1       1.873   2.700   4.757  0.00  0.00    -0.096 F 
ATOM      9  I   UNL d   1       1.294  -0.402   4.227  0.00  0.00    -0.060 I 
ATOM     10  F2  UNL d   1       3.956  -0.958   2.541  0.00  0.00    -0.096 F 
ATOM     11  F3  UNL d   1       6.000   0.666   1.817  0.00  0.00    -0.097 F 
ATOM     12  F4  UNL d   1       6.000   3.294   2.549  0.00  0.00    -0.092 F 
ENDROOT
TORSDOF 0
ENDMDL
