MODEL 1
REMARK minimizedAffinity 15.4780359
REMARK minimizedRMSD -1
REMARK  0 active torsions:
REMARK  status: ('A' for Active; 'I' for Inactive)
ROOT
ATOM      1  C   UNL d   1      -0.799  -0.383  -0.871  0.00  0.00     0.124 A 
ATOM      2  C1  UNL d   1      -1.586   0.244   0.085  0.00  0.00     0.062 A 
ATOM      3  C2  UNL d   1      -2.974   0.158   0.016  0.00  0.00     0.162 A 
ATOM      4  C3  UNL d   1      -3.584  -0.559  -1.014  0.00  0.00    -0.034 A 
ATOM      5  C4  UNL d   1      -2.786  -1.186  -1.972  0.00  0.00     0.162 A 
ATOM      6  C5  UNL d   1      -1.399  -1.097  -1.898  0.00  0.00     0.062 A 
ATOM      7  F   UNL d   1      -0.641  -1.704  -2.823  0.00  0.00    -0.097 F 
ATOM      8  F1  UNL d   1      -3.339  -1.884  -2.975  0.00  0.00    -0.096 F 
ATOM      9  I   UNL d   1      -5.658  -0.690  -1.121  0.00  0.00    -0.060 I 
ATOM     10  F2  UNL d   1      -3.709   0.774   0.953  0.00  0.00    -0.096 F 
ATOM     11  F3  UNL d   1      -1.009   0.936   1.078  0.00  0.00    -0.097 F 
ATOM     12  F4  UNL d   1       0.535  -0.298  -0.802  0.00  0.00    -0.092 F 
ENDROOT
TORSDOF 0
ENDMDL
