MODEL 1
REMARK minimizedAffinity 28.8740044
REMARK minimizedRMSD -1
REMARK  0 active torsions:
REMARK  status: ('A' for Active; 'I' for Inactive)
ROOT
ATOM      1  C   UNL d   1       1.766   2.919   3.087  0.00  0.00     0.124 A 
ATOM      2  C1  UNL d   1       1.729   1.637   2.555  0.00  0.00     0.062 A 
ATOM      3  C2  UNL d   1       2.912   0.975   2.241  0.00  0.00     0.162 A 
ATOM      4  C3  UNL d   1       4.144   1.593   2.459  0.00  0.00    -0.034 A 
ATOM      5  C4  UNL d   1       4.173   2.883   2.994  0.00  0.00     0.162 A 
ATOM      6  C5  UNL d   1       2.987   3.540   3.306  0.00  0.00     0.062 A 
ATOM      7  F   UNL d   1       3.025   4.778   3.820  0.00  0.00    -0.097 F 
ATOM      8  F1  UNL d   1       5.340   3.506   3.217  0.00  0.00    -0.096 F 
ATOM      9  I   UNL d   1       5.915   0.607   1.991  0.00  0.00    -0.060 I 
ATOM     10  F2  UNL d   1       2.847  -0.262   1.728  0.00  0.00    -0.096 F 
ATOM     11  F3  UNL d   1       0.550   1.035   2.342  0.00  0.00    -0.097 F 
ATOM     12  F4  UNL d   1       0.626   3.554   3.387  0.00  0.00    -0.092 F 
ENDROOT
TORSDOF 0
ENDMDL
