MODEL 1
REMARK minimizedAffinity 14.5009823
REMARK minimizedRMSD -1
REMARK  0 active torsions:
REMARK  status: ('A' for Active; 'I' for Inactive)
ROOT
ATOM      1  C   UNL d   1      -2.058  -1.523   0.098  0.00  0.00     0.124 A 
ATOM      2  C1  UNL d   1      -1.882  -2.527   1.041  0.00  0.00     0.062 A 
ATOM      3  C2  UNL d   1      -1.431  -3.784   0.649  0.00  0.00     0.162 A 
ATOM      4  C3  UNL d   1      -1.151  -4.044  -0.693  0.00  0.00    -0.034 A 
ATOM      5  C4  UNL d   1      -1.331  -3.030  -1.635  0.00  0.00     0.162 A 
ATOM      6  C5  UNL d   1      -1.782  -1.775  -1.238  0.00  0.00     0.062 A 
ATOM      7  F   UNL d   1      -1.951  -0.806  -2.150  0.00  0.00    -0.097 F 
ATOM      8  F1  UNL d   1      -1.071  -3.246  -2.933  0.00  0.00    -0.096 F 
ATOM      9  I   UNL d   1      -0.476  -5.922  -1.283  0.00  0.00    -0.060 I 
ATOM     10  F2  UNL d   1      -1.270  -4.735   1.580  0.00  0.00    -0.096 F 
ATOM     11  F3  UNL d   1      -2.148  -2.286   2.333  0.00  0.00    -0.097 F 
ATOM     12  F4  UNL d   1      -2.493  -0.315   0.478  0.00  0.00    -0.092 F 
ENDROOT
TORSDOF 0
ENDMDL
