MODEL 1
REMARK minimizedAffinity 4.48306084
REMARK minimizedRMSD -1
REMARK  0 active torsions:
REMARK  status: ('A' for Active; 'I' for Inactive)
ROOT
ATOM      1  C   UNL d   1       2.262  -0.099  -0.252  0.00  0.00     0.077 C 
ATOM      2  C1  UNL d   1       3.420   0.853  -0.280  0.00  0.00    -0.074 A 
ATOM      3  C2  UNL d   1       4.062   1.170  -1.481  0.00  0.00    -0.005 A 
ATOM      4  C3  UNL d   1       5.132   2.064  -1.493  0.00  0.00     0.006 A 
ATOM      5  C4  UNL d   1       5.571   2.649  -0.305  0.00  0.00    -0.005 A 
ATOM      6  C5  UNL d   1       4.942   2.345   0.906  0.00  0.00    -0.074 A 
ATOM      7  C6  UNL d   1       5.395   2.973   2.191  0.00  0.00     0.077 C 
ATOM      8  C7  UNL d   1       3.863   1.451   0.909  0.00  0.00    -0.001 A 
ENDROOT
TORSDOF 0
ENDMDL
