MODEL 1
REMARK minimizedAffinity 12.4479494
REMARK minimizedRMSD -1
REMARK  0 active torsions:
REMARK  status: ('A' for Active; 'I' for Inactive)
ROOT
ATOM      1  C   UNL d   1       4.968   2.983   1.570  0.00  0.00     0.077 C 
ATOM      2  C1  UNL d   1       4.402   2.226   0.405  0.00  0.00    -0.074 A 
ATOM      3  C2  UNL d   1       4.720   2.585  -0.908  0.00  0.00    -0.005 A 
ATOM      4  C3  UNL d   1       4.194   1.866  -1.981  0.00  0.00     0.006 A 
ATOM      5  C4  UNL d   1       3.346   0.781  -1.752  0.00  0.00    -0.005 A 
ATOM      6  C5  UNL d   1       3.018   0.407  -0.445  0.00  0.00    -0.074 A 
ATOM      7  C6  UNL d   1       2.116  -0.762  -0.180  0.00  0.00     0.077 C 
ATOM      8  C7  UNL d   1       3.556   1.131   0.628  0.00  0.00    -0.001 A 
ENDROOT
TORSDOF 0
ENDMDL
