MODEL 1
REMARK minimizedAffinity 7.05051756
REMARK minimizedRMSD -1
REMARK  0 active torsions:
REMARK  status: ('A' for Active; 'I' for Inactive)
ROOT
ATOM      1  C   UNL d   1       5.379   3.444   1.950  0.00  0.00     0.077 C 
ATOM      2  C1  UNL d   1       4.669   2.779   0.808  0.00  0.00    -0.074 A 
ATOM      3  C2  UNL d   1       4.835   3.233  -0.504  0.00  0.00    -0.005 A 
ATOM      4  C3  UNL d   1       4.176   2.598  -1.557  0.00  0.00     0.006 A 
ATOM      5  C4  UNL d   1       3.346   1.505  -1.308  0.00  0.00    -0.005 A 
ATOM      6  C5  UNL d   1       3.168   1.036  -0.003  0.00  0.00    -0.074 A 
ATOM      7  C6  UNL d   1       2.287  -0.145   0.280  0.00  0.00     0.077 C 
ATOM      8  C7  UNL d   1       3.839   1.674   1.049  0.00  0.00    -0.001 A 
ENDROOT
TORSDOF 0
ENDMDL
