MODEL 1
REMARK minimizedAffinity 6.61711884
REMARK minimizedRMSD -1
REMARK  0 active torsions:
REMARK  status: ('A' for Active; 'I' for Inactive)
ROOT
ATOM      1  C   UNL d   1       5.999   1.113  -4.577  0.00  0.00     0.077 C 
ATOM      2  C1  UNL d   1       5.359   2.224  -3.799  0.00  0.00    -0.074 A 
ATOM      3  C2  UNL d   1       4.196   2.004  -3.055  0.00  0.00    -0.005 A 
ATOM      4  C3  UNL d   1       3.618   3.045  -2.329  0.00  0.00     0.006 A 
ATOM      5  C4  UNL d   1       4.196   4.315  -2.339  0.00  0.00    -0.005 A 
ATOM      6  C5  UNL d   1       5.360   4.554  -3.077  0.00  0.00    -0.074 A 
ATOM      7  C6  UNL d   1       6.000   5.910  -3.091  0.00  0.00     0.077 C 
ATOM      8  C7  UNL d   1       5.939   3.501  -3.798  0.00  0.00    -0.001 A 
ENDROOT
TORSDOF 0
ENDMDL
