MODEL 1
REMARK minimizedAffinity 9.85484791
REMARK minimizedRMSD -1
REMARK  0 active torsions:
REMARK  status: ('A' for Active; 'I' for Inactive)
ROOT
ATOM      1  C   UNL d   1       4.803  -0.700   2.166  0.00  0.00     0.077 C 
ATOM      2  C1  UNL d   1       3.836  -0.508   1.036  0.00  0.00    -0.074 A 
ATOM      3  C2  UNL d   1       2.779  -1.401   0.835  0.00  0.00    -0.005 A 
ATOM      4  C3  UNL d   1       1.882  -1.204  -0.215  0.00  0.00     0.006 A 
ATOM      5  C4  UNL d   1       2.033  -0.113  -1.073  0.00  0.00    -0.005 A 
ATOM      6  C5  UNL d   1       3.083   0.791  -0.887  0.00  0.00    -0.074 A 
ATOM      7  C6  UNL d   1       3.254   1.973  -1.793  0.00  0.00     0.077 C 
ATOM      8  C7  UNL d   1       3.977   0.590   0.175  0.00  0.00    -0.001 A 
ENDROOT
TORSDOF 0
ENDMDL
