MODEL 1
REMARK minimizedAffinity 5.48719406
REMARK minimizedRMSD -1
REMARK  0 active torsions:
REMARK  status: ('A' for Active; 'I' for Inactive)
ROOT
ATOM      1  C   UNL d   1      -4.508   3.377   0.927  0.00  0.00     0.077 C 
ATOM      2  C1  UNL d   1      -4.655   3.918   2.318  0.00  0.00    -0.074 A 
ATOM      3  C2  UNL d   1      -5.877   3.839   2.994  0.00  0.00    -0.005 A 
ATOM      4  C3  UNL d   1      -5.997   4.338   4.291  0.00  0.00     0.006 A 
ATOM      5  C4  UNL d   1      -4.898   4.919   4.925  0.00  0.00    -0.005 A 
ATOM      6  C5  UNL d   1      -3.668   5.006   4.265  0.00  0.00    -0.074 A 
ATOM      7  C6  UNL d   1      -2.474   5.619   4.935  0.00  0.00     0.077 C 
ATOM      8  C7  UNL d   1      -3.554   4.496   2.964  0.00  0.00    -0.001 A 
ENDROOT
TORSDOF 0
ENDMDL
