MODEL 1
REMARK minimizedAffinity 15.8261147
REMARK minimizedRMSD -1
REMARK  0 active torsions:
REMARK  status: ('A' for Active; 'I' for Inactive)
ROOT
ATOM      1  C   UNL d   1      -0.603  -4.786  -0.156  0.00  0.00     0.077 C 
ATOM      2  C1  UNL d   1       0.227  -3.554  -0.366  0.00  0.00    -0.074 A 
ATOM      3  C2  UNL d   1       0.417  -3.024  -1.646  0.00  0.00    -0.005 A 
ATOM      4  C3  UNL d   1       1.183  -1.873  -1.824  0.00  0.00     0.006 A 
ATOM      5  C4  UNL d   1       1.767  -1.240  -0.725  0.00  0.00    -0.005 A 
ATOM      6  C5  UNL d   1       1.587  -1.755   0.563  0.00  0.00    -0.074 A 
ATOM      7  C6  UNL d   1       2.199  -1.082   1.755  0.00  0.00     0.077 C 
ATOM      8  C7  UNL d   1       0.810  -2.909   0.734  0.00  0.00    -0.001 A 
ENDROOT
TORSDOF 0
ENDMDL
