MODEL 1
REMARK minimizedAffinity 11.1086388
REMARK minimizedRMSD -1
REMARK  0 active torsions:
REMARK  status: ('A' for Active; 'I' for Inactive)
ROOT
ATOM      1  C   UNL d   1       2.511  -0.565  -0.074  0.00  0.00     0.077 C 
ATOM      2  C1  UNL d   1       3.209   0.760  -0.150  0.00  0.00    -0.074 A 
ATOM      3  C2  UNL d   1       3.499   1.350  -1.384  0.00  0.00    -0.005 A 
ATOM      4  C3  UNL d   1       4.140   2.588  -1.439  0.00  0.00     0.006 A 
ATOM      5  C4  UNL d   1       4.498   3.246  -0.261  0.00  0.00    -0.005 A 
ATOM      6  C5  UNL d   1       4.215   2.672   0.982  0.00  0.00    -0.074 A 
ATOM      7  C6  UNL d   1       4.584   3.371   2.257  0.00  0.00     0.077 C 
ATOM      8  C7  UNL d   1       3.564   1.432   1.029  0.00  0.00    -0.001 A 
ENDROOT
TORSDOF 0
ENDMDL
