MODEL 1
REMARK minimizedAffinity 2.8401866
REMARK minimizedRMSD -1
REMARK  0 active torsions:
REMARK  status: ('A' for Active; 'I' for Inactive)
ROOT
ATOM      1  C   UNL d   1      -3.870   0.682   1.131  0.00  0.00     0.172 C 
ATOM      2  N   UNL d   1      -4.646   0.019   0.110  0.00  0.00    -0.070 N 
ATOM      3  C1  UNL d   1      -5.428  -1.090   0.296  0.00  0.00    -0.004 A 
ATOM      4  C2  UNL d   1      -6.000  -1.411  -0.916  0.00  0.00    -0.047 A 
ATOM      5  C3  UNL d   1      -5.544  -0.464  -1.864  0.00  0.00    -0.047 A 
ATOM      6  C4  UNL d   1      -4.708   0.410  -1.201  0.00  0.00    -0.004 A 
ENDROOT
TORSDOF 0
ENDMDL
