MODEL 1
REMARK minimizedAffinity 5.7725997
REMARK minimizedRMSD -1
REMARK  0 active torsions:
REMARK  status: ('A' for Active; 'I' for Inactive)
ROOT
ATOM      1  C   UNL d   1      -5.980  -1.471  -0.294  0.00  0.00     0.172 C 
ATOM      2  N   UNL d   1      -4.810  -0.840   0.271  0.00  0.00    -0.070 N 
ATOM      3  C1  UNL d   1      -3.849  -1.465   1.019  0.00  0.00    -0.004 A 
ATOM      4  C2  UNL d   1      -2.905  -0.523   1.367  0.00  0.00    -0.047 A 
ATOM      5  C3  UNL d   1      -3.314   0.711   0.808  0.00  0.00    -0.047 A 
ATOM      6  C4  UNL d   1      -4.496   0.486   0.135  0.00  0.00    -0.004 A 
ENDROOT
TORSDOF 0
ENDMDL
