MODEL 1
REMARK minimizedAffinity 2.94506407
REMARK minimizedRMSD -1
REMARK  0 active torsions:
REMARK  status: ('A' for Active; 'I' for Inactive)
ROOT
ATOM      1  C   UNL d   1      -5.853  -1.329  -1.893  0.00  0.00     0.172 C 
ATOM      2  N   UNL d   1      -4.888  -0.822  -0.946  0.00  0.00    -0.070 N 
ATOM      3  C1  UNL d   1      -5.141   0.101   0.034  0.00  0.00    -0.004 A 
ATOM      4  C2  UNL d   1      -3.966   0.319   0.722  0.00  0.00    -0.047 A 
ATOM      5  C3  UNL d   1      -2.973  -0.501   0.134  0.00  0.00    -0.047 A 
ATOM      6  C4  UNL d   1      -3.571  -1.196  -0.896  0.00  0.00    -0.004 A 
ENDROOT
TORSDOF 0
ENDMDL
