MODEL 1
REMARK minimizedAffinity 1.37492716
REMARK minimizedRMSD -1
REMARK  0 active torsions:
REMARK  status: ('A' for Active; 'I' for Inactive)
ROOT
ATOM      1  C   UNL d   1      -4.497   1.496   1.524  0.00  0.00     0.172 C 
ATOM      2  N   UNL d   1      -4.901   0.546   0.514  0.00  0.00    -0.070 N 
ATOM      3  C1  UNL d   1      -4.341  -0.686   0.308  0.00  0.00    -0.004 A 
ATOM      4  C2  UNL d   1      -5.006  -1.282  -0.742  0.00  0.00    -0.047 A 
ATOM      5  C3  UNL d   1      -5.999  -0.375  -1.183  0.00  0.00    -0.047 A 
ATOM      6  C4  UNL d   1      -5.912   0.748  -0.388  0.00  0.00    -0.004 A 
ENDROOT
TORSDOF 0
ENDMDL
