MODEL 1
REMARK minimizedAffinity -1.04786026
REMARK minimizedRMSD -1
REMARK  0 active torsions:
REMARK  status: ('A' for Active; 'I' for Inactive)
ROOT
ATOM      1  C   UNL d   1       2.116  -5.112   5.997  0.00  0.00     0.172 C 
ATOM      2  N   UNL d   1       1.185  -4.008   5.991  0.00  0.00    -0.070 N 
ATOM      3  C1  UNL d   1       1.520  -2.680   5.977  0.00  0.00    -0.004 A 
ATOM      4  C2  UNL d   1       0.352  -1.949   5.975  0.00  0.00    -0.047 A 
ATOM      5  C3  UNL d   1      -0.723  -2.870   5.989  0.00  0.00    -0.047 A 
ATOM      6  C4  UNL d   1      -0.179  -4.137   5.999  0.00  0.00    -0.004 A 
ENDROOT
TORSDOF 0
ENDMDL
