MODEL 1
REMARK minimizedAffinity 5.10560751
REMARK minimizedRMSD -1
REMARK  1 active torsions:
REMARK  status: ('A' for Active; 'I' for Inactive)
REMARK    1  A    between atoms: C1_2  and  C2_3 
ROOT
ATOM      1  C2  UNL d   1       2.321  -2.141   3.359  0.00  0.00    -0.076 A 
ATOM      2  C3  UNL d   1       3.586  -1.894   3.919  0.00  0.00     0.004 A 
ATOM      3  C4  UNL d   1       4.258  -2.881   4.638  0.00  0.00    -0.003 A 
ATOM      4  C5  UNL d   1       3.677  -4.133   4.806  0.00  0.00     0.000 A 
ATOM      5  C6  UNL d   1       2.430  -4.402   4.242  0.00  0.00     0.000 A 
ATOM      6  C7  UNL d   1       1.746  -3.423   3.501  0.00  0.00    -0.073 A 
ATOM      7  C8  UNL d   1       0.402  -3.765   2.920  0.00  0.00     0.078 C 
ENDROOT
BRANCH   1   8
ATOM      8  C1  UNL d   1       1.628  -1.024   2.613  0.00  0.00     0.053 C 
ATOM      9  C   UNL d   1       2.575   0.110   2.251  0.00  0.00     0.018 C 
ENDBRANCH   1   8
TORSDOF 1
ENDMDL
