MODEL 1
REMARK minimizedAffinity 9.61025047
REMARK minimizedRMSD -1
REMARK  1 active torsions:
REMARK  status: ('A' for Active; 'I' for Inactive)
REMARK    1  A    between atoms: C1_2  and  C2_3 
ROOT
ATOM      1  C2  UNL d   1      -3.910   2.522  -1.113  0.00  0.00    -0.076 A 
ATOM      2  C3  UNL d   1      -5.177   3.049  -1.419  0.00  0.00     0.004 A 
ATOM      3  C4  UNL d   1      -5.999   3.566  -0.419  0.00  0.00    -0.003 A 
ATOM      4  C5  UNL d   1      -5.568   3.565   0.903  0.00  0.00     0.000 A 
ATOM      5  C6  UNL d   1      -4.307   3.062   1.222  0.00  0.00     0.000 A 
ATOM      6  C7  UNL d   1      -3.459   2.552   0.224  0.00  0.00    -0.073 A 
ATOM      7  C8  UNL d   1      -2.112   2.017   0.626  0.00  0.00     0.078 C 
ENDROOT
BRANCH   1   8
ATOM      8  C1  UNL d   1      -3.074   1.949  -2.234  0.00  0.00     0.053 C 
ATOM      9  C   UNL d   1      -3.790   1.992  -3.576  0.00  0.00     0.018 C 
ENDBRANCH   1   8
TORSDOF 1
ENDMDL
