MODEL 1
REMARK minimizedAffinity -0.298088849
REMARK minimizedRMSD -1
REMARK  1 active torsions:
REMARK  status: ('A' for Active; 'I' for Inactive)
REMARK    1  A    between atoms: C1_2  and  C2_3 
ROOT
ATOM      1  C2  UNL d   1       1.747  -2.195   2.289  0.00  0.00    -0.076 A 
ATOM      2  C3  UNL d   1       1.782  -3.294   1.413  0.00  0.00     0.004 A 
ATOM      3  C4  UNL d   1       2.093  -4.571   1.876  0.00  0.00    -0.003 A 
ATOM      4  C5  UNL d   1       2.373  -4.771   3.223  0.00  0.00     0.000 A 
ATOM      5  C6  UNL d   1       2.325  -3.696   4.110  0.00  0.00     0.000 A 
ATOM      6  C7  UNL d   1       1.997  -2.404   3.662  0.00  0.00    -0.073 A 
ATOM      7  C8  UNL d   1       1.967  -1.280   4.661  0.00  0.00     0.078 C 
ENDROOT
BRANCH   1   8
ATOM      8  C1  UNL d   1       1.431  -0.829   1.724  0.00  0.00     0.053 C 
ATOM      9  C   UNL d   1       2.629   0.108   1.759  0.00  0.00     0.018 C 
ENDBRANCH   1   8
TORSDOF 1
ENDMDL
