MODEL 1
REMARK minimizedAffinity -3.15274525
REMARK minimizedRMSD -1
REMARK  1 active torsions:
REMARK  status: ('A' for Active; 'I' for Inactive)
REMARK    1  A    between atoms: C1_2  and  C2_3 
ROOT
ATOM      1  C2  UNL d   1       2.031  -3.203   4.066  0.00  0.00    -0.076 A 
ATOM      2  C3  UNL d   1       0.861  -3.981   4.061  0.00  0.00     0.004 A 
ATOM      3  C4  UNL d   1       0.665  -4.988   5.005  0.00  0.00    -0.003 A 
ATOM      4  C5  UNL d   1       1.636  -5.232   5.969  0.00  0.00     0.000 A 
ATOM      5  C6  UNL d   1       2.796  -4.458   6.000  0.00  0.00     0.000 A 
ATOM      6  C7  UNL d   1       3.002  -3.428   5.066  0.00  0.00    -0.073 A 
ATOM      7  C8  UNL d   1       4.273  -2.628   5.141  0.00  0.00     0.078 C 
ENDROOT
BRANCH   1   8
ATOM      8  C1  UNL d   1       2.201  -2.143   3.001  0.00  0.00     0.053 C 
ATOM      9  C   UNL d   1       1.470  -0.854   3.340  0.00  0.00     0.018 C 
ENDBRANCH   1   8
TORSDOF 1
ENDMDL
