MODEL 1
REMARK minimizedAffinity 7.86822081
REMARK minimizedRMSD -1
REMARK  1 active torsions:
REMARK  status: ('A' for Active; 'I' for Inactive)
REMARK    1  A    between atoms: C1_2  and  C2_3 
ROOT
ATOM      1  C2  UNL d   1       3.028  -5.977  -1.632  0.00  0.00    -0.076 A 
ATOM      2  C3  UNL d   1       4.378  -5.946  -1.239  0.00  0.00     0.004 A 
ATOM      3  C4  UNL d   1       5.401  -5.949  -2.185  0.00  0.00    -0.003 A 
ATOM      4  C5  UNL d   1       5.092  -5.984  -3.540  0.00  0.00     0.000 A 
ATOM      5  C6  UNL d   1       3.759  -5.997  -3.949  0.00  0.00     0.000 A 
ATOM      6  C7  UNL d   1       2.715  -5.978  -3.008  0.00  0.00    -0.073 A 
ATOM      7  C8  UNL d   1       1.295  -6.000  -3.505  0.00  0.00     0.078 C 
ENDROOT
BRANCH   1   8
ATOM      8  C1  UNL d   1       1.962  -5.999  -0.561  0.00  0.00     0.053 C 
ATOM      9  C   UNL d   1       2.393  -5.277   0.706  0.00  0.00     0.018 C 
ENDBRANCH   1   8
TORSDOF 1
ENDMDL
