MODEL 1
REMARK minimizedAffinity 7.44314814
REMARK minimizedRMSD -1
REMARK  1 active torsions:
REMARK  status: ('A' for Active; 'I' for Inactive)
REMARK    1  A    between atoms: C1_2  and  C2_3 
ROOT
ATOM      1  C2  UNL d   1      -2.796   0.211  -2.517  0.00  0.00    -0.076 A 
ATOM      2  C3  UNL d   1      -2.218  -0.190  -1.300  0.00  0.00     0.004 A 
ATOM      3  C4  UNL d   1      -1.974   0.732  -0.283  0.00  0.00    -0.003 A 
ATOM      4  C5  UNL d   1      -2.304   2.070  -0.467  0.00  0.00     0.000 A 
ATOM      5  C6  UNL d   1      -2.895   2.483  -1.661  0.00  0.00     0.000 A 
ATOM      6  C7  UNL d   1      -3.163   1.563  -2.689  0.00  0.00    -0.073 A 
ATOM      7  C8  UNL d   1      -3.796   2.064  -3.959  0.00  0.00     0.078 C 
ENDROOT
BRANCH   1   8
ATOM      8  C1  UNL d   1      -3.013  -0.828  -3.593  0.00  0.00     0.053 C 
ATOM      9  C   UNL d   1      -3.610  -2.116  -3.048  0.00  0.00     0.018 C 
ENDBRANCH   1   8
TORSDOF 1
ENDMDL
