MODEL 1
REMARK minimizedAffinity 1.73318803
REMARK minimizedRMSD -1
REMARK  1 active torsions:
REMARK  status: ('A' for Active; 'I' for Inactive)
REMARK    1  A    between atoms: C1_2  and  C2_3 
ROOT
ATOM      1  C2  UNL d   1       2.865  -5.994  -3.658  0.00  0.00    -0.076 A 
ATOM      2  C3  UNL d   1       4.032  -6.000  -4.443  0.00  0.00     0.004 A 
ATOM      3  C4  UNL d   1       5.294  -5.972  -3.853  0.00  0.00    -0.003 A 
ATOM      4  C5  UNL d   1       5.411  -5.939  -2.468  0.00  0.00     0.000 A 
ATOM      5  C6  UNL d   1       4.265  -5.951  -1.673  0.00  0.00     0.000 A 
ATOM      6  C7  UNL d   1       2.985  -5.995  -2.252  0.00  0.00    -0.073 A 
ATOM      7  C8  UNL d   1       1.783  -5.999  -1.347  0.00  0.00     0.078 C 
ENDROOT
BRANCH   1   8
ATOM      8  C1  UNL d   1       1.523  -5.997  -4.355  0.00  0.00     0.053 C 
ATOM      9  C   UNL d   1       1.653  -5.999  -5.870  0.00  0.00     0.018 C 
ENDBRANCH   1   8
TORSDOF 1
ENDMDL
