MODEL 1
REMARK minimizedAffinity 11.3001966
REMARK minimizedRMSD -1
REMARK  1 active torsions:
REMARK  status: ('A' for Active; 'I' for Inactive)
REMARK    1  A    between atoms: C1_2  and  C2_3 
ROOT
ATOM      1  C2  UNL d   1       1.110  -1.277   1.196  0.00  0.00    -0.076 A 
ATOM      2  C3  UNL d   1       0.786  -2.315   2.086  0.00  0.00     0.004 A 
ATOM      3  C4  UNL d   1       1.409  -2.416   3.329  0.00  0.00    -0.003 A 
ATOM      4  C5  UNL d   1       2.367  -1.479   3.701  0.00  0.00     0.000 A 
ATOM      5  C6  UNL d   1       2.689  -0.433   2.837  0.00  0.00     0.000 A 
ATOM      6  C7  UNL d   1       2.058  -0.308   1.588  0.00  0.00    -0.073 A 
ATOM      7  C8  UNL d   1       2.447   0.837   0.693  0.00  0.00     0.078 C 
ENDROOT
BRANCH   1   8
ATOM      8  C1  UNL d   1       0.421  -1.235  -0.150  0.00  0.00     0.053 C 
ATOM      9  C   UNL d   1      -1.028  -1.692  -0.076  0.00  0.00     0.018 C 
ENDBRANCH   1   8
TORSDOF 1
ENDMDL
