MODEL 1
REMARK minimizedAffinity 9.52709103
REMARK minimizedRMSD -1
REMARK  0 active torsions:
REMARK  status: ('A' for Active; 'I' for Inactive)
ROOT
ATOM      1  C   UNL d   1       2.516  -0.037   1.837  0.00  0.00     0.020 A 
ATOM      2  C1  UNL d   1       1.720  -0.801   0.984  0.00  0.00     0.020 A 
ATOM      3  C2  UNL d   1       0.335  -0.628   0.979  0.00  0.00     0.034 A 
ATOM      4  C3  UNL d   1      -0.260   0.312   1.829  0.00  0.00     0.017 A 
ATOM      5  C4  UNL d   1       0.539   1.078   2.685  0.00  0.00     0.017 A 
ATOM      6  C5  UNL d   1       1.926   0.901   2.685  0.00  0.00     0.034 A 
ATOM      7 Cl   UNL d   1      -0.122   2.257   3.762  0.00  0.00    -0.070 Cl
ATOM      8 Cl1  UNL d   1      -1.979   0.473   1.770  0.00  0.00    -0.070 Cl
ENDROOT
TORSDOF 0
ENDMDL
