MODEL 1
REMARK minimizedAffinity 1.43276358
REMARK minimizedRMSD -1
REMARK  0 active torsions:
REMARK  status: ('A' for Active; 'I' for Inactive)
ROOT
ATOM      1  C   UNL d   1       1.286   1.487  -2.106  0.00  0.00     0.020 A 
ATOM      2  C1  UNL d   1       2.054   2.041  -1.083  0.00  0.00     0.020 A 
ATOM      3  C2  UNL d   1       2.018   1.484   0.197  0.00  0.00     0.034 A 
ATOM      4  C3  UNL d   1       1.213   0.370   0.457  0.00  0.00     0.017 A 
ATOM      5  C4  UNL d   1       0.442  -0.186  -0.570  0.00  0.00     0.017 A 
ATOM      6  C5  UNL d   1       0.482   0.376  -1.850  0.00  0.00     0.034 A 
ATOM      7 Cl   UNL d   1      -0.576  -1.561  -0.326  0.00  0.00    -0.070 Cl
ATOM      8 Cl1  UNL d   1       1.217  -0.267   2.064  0.00  0.00    -0.070 Cl
ENDROOT
TORSDOF 0
ENDMDL
