MODEL 1
REMARK minimizedAffinity 7.89948416
REMARK minimizedRMSD -1
REMARK  0 active torsions:
REMARK  status: ('A' for Active; 'I' for Inactive)
ROOT
ATOM      1  C   UNL d   1       3.347  -0.644  -1.580  0.00  0.00     0.020 A 
ATOM      2  C1  UNL d   1       4.584  -0.761  -0.946  0.00  0.00     0.020 A 
ATOM      3  C2  UNL d   1       4.649  -0.848   0.446  0.00  0.00     0.034 A 
ATOM      4  C3  UNL d   1       3.476  -0.818   1.209  0.00  0.00     0.017 A 
ATOM      5  C4  UNL d   1       2.235  -0.701   0.572  0.00  0.00     0.017 A 
ATOM      6  C5  UNL d   1       2.176  -0.615  -0.822  0.00  0.00     0.034 A 
ATOM      7 Cl   UNL d   1       0.745  -0.658   1.446  0.00  0.00    -0.070 Cl
ATOM      8 Cl1  UNL d   1       3.631  -0.930   2.926  0.00  0.00    -0.070 Cl
ENDROOT
TORSDOF 0
ENDMDL
