MODEL 1
REMARK minimizedAffinity 7.91882277
REMARK minimizedRMSD -1
REMARK  0 active torsions:
REMARK  status: ('A' for Active; 'I' for Inactive)
ROOT
ATOM      1  C   UNL d   1       1.323  -1.515   3.783  0.00  0.00     0.020 A 
ATOM      2  C1  UNL d   1       1.925  -0.262   3.898  0.00  0.00     0.020 A 
ATOM      3  C2  UNL d   1       1.207   0.889   3.567  0.00  0.00     0.034 A 
ATOM      4  C3  UNL d   1      -0.115   0.791   3.120  0.00  0.00     0.017 A 
ATOM      5  C4  UNL d   1      -0.718  -0.467   3.004  0.00  0.00     0.017 A 
ATOM      6  C5  UNL d   1       0.005  -1.617   3.337  0.00  0.00     0.034 A 
ATOM      7 Cl   UNL d   1      -2.345  -0.669   2.459  0.00  0.00    -0.070 Cl
ATOM      8 Cl1  UNL d   1      -0.942   2.256   2.728  0.00  0.00    -0.070 Cl
ENDROOT
TORSDOF 0
ENDMDL
