MODEL 1
REMARK minimizedAffinity 5.87313604
REMARK minimizedRMSD -1
REMARK  0 active torsions:
REMARK  status: ('A' for Active; 'I' for Inactive)
ROOT
ATOM      1  C   UNL d   1      -0.686   1.719   3.530  0.00  0.00     0.020 A 
ATOM      2  C1  UNL d   1      -1.285   0.730   2.752  0.00  0.00     0.020 A 
ATOM      3  C2  UNL d   1      -0.509  -0.045   1.888  0.00  0.00     0.034 A 
ATOM      4  C3  UNL d   1       0.872   0.169   1.800  0.00  0.00     0.017 A 
ATOM      5  C4  UNL d   1       1.473   1.162   2.582  0.00  0.00     0.017 A 
ATOM      6  C5  UNL d   1       0.690   1.935   3.445  0.00  0.00     0.034 A 
ATOM      7 Cl   UNL d   1       3.170   1.483   2.528  0.00  0.00    -0.070 Cl
ATOM      8 Cl1  UNL d   1       1.771  -0.827   0.711  0.00  0.00    -0.070 Cl
ENDROOT
TORSDOF 0
ENDMDL
