MODEL 1
REMARK minimizedAffinity 6.80411243
REMARK minimizedRMSD -1
REMARK  0 active torsions:
REMARK  status: ('A' for Active; 'I' for Inactive)
ROOT
ATOM      1  C   UNL d   1       3.048   1.133  -1.357  0.00  0.00     0.020 A 
ATOM      2  C1  UNL d   1       2.866  -0.071  -0.678  0.00  0.00     0.020 A 
ATOM      3  C2  UNL d   1       2.039  -0.121   0.445  0.00  0.00     0.034 A 
ATOM      4  C3  UNL d   1       1.390   1.036   0.893  0.00  0.00     0.017 A 
ATOM      5  C4  UNL d   1       1.573   2.244   0.211  0.00  0.00     0.017 A 
ATOM      6  C5  UNL d   1       2.403   2.288  -0.914  0.00  0.00     0.034 A 
ATOM      7 Cl   UNL d   1       0.806   3.712   0.703  0.00  0.00    -0.070 Cl
ATOM      8 Cl1  UNL d   1       0.381   0.901   2.289  0.00  0.00    -0.070 Cl
ENDROOT
TORSDOF 0
ENDMDL
