MODEL 1
REMARK minimizedAffinity 14.0699463
REMARK minimizedRMSD -1
REMARK  0 active torsions:
REMARK  status: ('A' for Active; 'I' for Inactive)
ROOT
ATOM      1  C   UNL d   1       1.913  -1.392   0.894  0.00  0.00     0.020 A 
ATOM      2  C1  UNL d   1       1.534  -0.967  -0.379  0.00  0.00     0.020 A 
ATOM      3  C2  UNL d   1       1.709   0.367  -0.750  0.00  0.00     0.034 A 
ATOM      4  C3  UNL d   1       2.265   1.282   0.152  0.00  0.00     0.017 A 
ATOM      5  C4  UNL d   1       2.645   0.854   1.429  0.00  0.00     0.017 A 
ATOM      6  C5  UNL d   1       2.467  -0.483   1.796  0.00  0.00     0.034 A 
ATOM      7 Cl   UNL d   1       3.338   1.924   2.597  0.00  0.00    -0.070 Cl
ATOM      8 Cl1  UNL d   1       2.453   2.917  -0.375  0.00  0.00    -0.070 Cl
ENDROOT
TORSDOF 0
ENDMDL
