MODEL 1
REMARK minimizedAffinity -4.70476675
REMARK minimizedRMSD -1
REMARK  0 active torsions:
REMARK  status: ('A' for Active; 'I' for Inactive)
ROOT
ATOM      1  C   UNL d   1      -1.785   0.996   1.116  0.00  0.00     0.124 A 
ATOM      2  C1  UNL d   1      -1.396   1.374  -0.162  0.00  0.00     0.062 A 
ATOM      3  C2  UNL d   1      -0.188   0.926  -0.687  0.00  0.00     0.162 A 
ATOM      4  C3  UNL d   1       0.641   0.093   0.065  0.00  0.00    -0.034 A 
ATOM      5  C4  UNL d   1       0.243  -0.282   1.349  0.00  0.00     0.162 A 
ATOM      6  C5  UNL d   1      -0.965   0.168   1.870  0.00  0.00     0.062 A 
ATOM      7  F   UNL d   1      -1.339  -0.198   3.104  0.00  0.00    -0.097 F 
ATOM      8  F1  UNL d   1       1.016  -1.082   2.100  0.00  0.00    -0.096 F 
ATOM      9  I   UNL d   1       2.449  -0.579  -0.717  0.00  0.00    -0.060 I 
ATOM     10  F2  UNL d   1       0.163   1.307  -1.925  0.00  0.00    -0.096 F 
ATOM     11  F3  UNL d   1      -2.186   2.174  -0.892  0.00  0.00    -0.097 F 
ATOM     12  F4  UNL d   1      -2.948   1.429   1.619  0.00  0.00    -0.092 F 
ENDROOT
TORSDOF 0
ENDMDL
