MODEL 1
REMARK minimizedAffinity -1.80044508
REMARK minimizedRMSD -1
REMARK  0 active torsions:
REMARK  status: ('A' for Active; 'I' for Inactive)
ROOT
ATOM      1  C   UNL d   1       1.336  -1.601  -0.657  0.00  0.00     0.124 A 
ATOM      2  C1  UNL d   1       0.015  -1.508  -0.240  0.00  0.00     0.062 A 
ATOM      3  C2  UNL d   1      -0.605  -0.266  -0.150  0.00  0.00     0.162 A 
ATOM      4  C3  UNL d   1       0.096   0.896  -0.477  0.00  0.00    -0.034 A 
ATOM      5  C4  UNL d   1       1.424   0.795  -0.894  0.00  0.00     0.162 A 
ATOM      6  C5  UNL d   1       2.039  -0.450  -0.983  0.00  0.00     0.062 A 
ATOM      7  F   UNL d   1       3.315  -0.537  -1.385  0.00  0.00    -0.097 F 
ATOM      8  F1  UNL d   1       2.127   1.891  -1.216  0.00  0.00    -0.096 F 
ATOM      9  I   UNL d   1      -0.828   2.756  -0.343  0.00  0.00    -0.060 I 
ATOM     10  F2  UNL d   1      -1.882  -0.206   0.255  0.00  0.00    -0.096 F 
ATOM     11  F3  UNL d   1      -0.666  -2.619   0.076  0.00  0.00    -0.097 F 
ATOM     12  F4  UNL d   1       1.930  -2.798  -0.742  0.00  0.00    -0.092 F 
ENDROOT
TORSDOF 0
ENDMDL
