MODEL 1
REMARK minimizedAffinity 0.031923648
REMARK minimizedRMSD -1
REMARK  0 active torsions:
REMARK  status: ('A' for Active; 'I' for Inactive)
ROOT
ATOM      1  C   UNL d   1       1.603   1.734  -1.345  0.00  0.00     0.124 A 
ATOM      2  C1  UNL d   1       2.533   0.720  -1.157  0.00  0.00     0.062 A 
ATOM      3  C2  UNL d   1       2.109  -0.573  -0.865  0.00  0.00     0.162 A 
ATOM      4  C3  UNL d   1       0.748  -0.861  -0.760  0.00  0.00    -0.034 A 
ATOM      5  C4  UNL d   1      -0.181   0.164  -0.949  0.00  0.00     0.162 A 
ATOM      6  C5  UNL d   1       0.248   1.455  -1.240  0.00  0.00     0.062 A 
ATOM      7  F   UNL d   1      -0.652   2.433  -1.421  0.00  0.00    -0.097 F 
ATOM      8  F1  UNL d   1      -1.497  -0.078  -0.855  0.00  0.00    -0.096 F 
ATOM      9  I   UNL d   1       0.110  -2.793  -0.323  0.00  0.00    -0.060 I 
ATOM     10  F2  UNL d   1       3.029  -1.533  -0.689  0.00  0.00    -0.096 F 
ATOM     11  F3  UNL d   1       3.843   0.987  -1.256  0.00  0.00    -0.097 F 
ATOM     12  F4  UNL d   1       2.014   2.977  -1.624  0.00  0.00    -0.092 F 
ENDROOT
TORSDOF 0
ENDMDL
