MODEL 1
REMARK minimizedAffinity -0.333659232
REMARK minimizedRMSD -1
REMARK  0 active torsions:
REMARK  status: ('A' for Active; 'I' for Inactive)
ROOT
ATOM      1  C   UNL d   1       2.560  -0.310  -2.275  0.00  0.00     0.124 A 
ATOM      2  C1  UNL d   1       2.063   0.979  -2.145  0.00  0.00     0.062 A 
ATOM      3  C2  UNL d   1       0.944   1.221  -1.353  0.00  0.00     0.162 A 
ATOM      4  C3  UNL d   1       0.316   0.172  -0.683  0.00  0.00    -0.034 A 
ATOM      5  C4  UNL d   1       0.822  -1.122  -0.819  0.00  0.00     0.162 A 
ATOM      6  C5  UNL d   1       1.940  -1.359  -1.613  0.00  0.00     0.062 A 
ATOM      7  F   UNL d   1       2.419  -2.606  -1.737  0.00  0.00    -0.097 F 
ATOM      8  F1  UNL d   1       0.242  -2.155  -0.189  0.00  0.00    -0.096 F 
ATOM      9  I   UNL d   1      -1.356   0.530   0.503  0.00  0.00    -0.060 I 
ATOM     10  F2  UNL d   1       0.485   2.477  -1.245  0.00  0.00    -0.096 F 
ATOM     11  F3  UNL d   1       2.660   1.995  -2.786  0.00  0.00    -0.097 F 
ATOM     12  F4  UNL d   1       3.636  -0.540  -3.040  0.00  0.00    -0.092 F 
ENDROOT
TORSDOF 0
ENDMDL
