MODEL 1
REMARK minimizedAffinity 8.61423302
REMARK minimizedRMSD -1
REMARK  0 active torsions:
REMARK  status: ('A' for Active; 'I' for Inactive)
ROOT
ATOM      1  C   UNL d   1       3.006  -0.831  -1.419  0.00  0.00     0.124 A 
ATOM      2  C1  UNL d   1       1.843  -1.539  -1.688  0.00  0.00     0.062 A 
ATOM      3  C2  UNL d   1       0.659  -1.217  -1.030  0.00  0.00     0.162 A 
ATOM      4  C3  UNL d   1       0.632  -0.181  -0.097  0.00  0.00    -0.034 A 
ATOM      5  C4  UNL d   1       1.806   0.526   0.169  0.00  0.00     0.162 A 
ATOM      6  C5  UNL d   1       2.987   0.200  -0.490  0.00  0.00     0.062 A 
ATOM      7  F   UNL d   1       4.110   0.885  -0.229  0.00  0.00    -0.097 F 
ATOM      8  F1  UNL d   1       1.816   1.528   1.061  0.00  0.00    -0.096 F 
ATOM      9  I   UNL d   1      -1.136   0.304   0.888  0.00  0.00    -0.060 I 
ATOM     10  F2  UNL d   1      -0.449  -1.918  -1.311  0.00  0.00    -0.096 F 
ATOM     11  F3  UNL d   1       1.860  -2.537  -2.584  0.00  0.00    -0.097 F 
ATOM     12  F4  UNL d   1       4.144  -1.144  -2.052  0.00  0.00    -0.092 F 
ENDROOT
TORSDOF 0
ENDMDL
