MODEL 1
REMARK minimizedAffinity 1.79232609
REMARK minimizedRMSD -1
REMARK  0 active torsions:
REMARK  status: ('A' for Active; 'I' for Inactive)
ROOT
ATOM      1  C   UNL d   1       0.999  -0.234  -1.881  0.00  0.00     0.124 A 
ATOM      2  C1  UNL d   1       0.255   0.937  -1.837  0.00  0.00     0.062 A 
ATOM      3  C2  UNL d   1      -0.571   1.201  -0.749  0.00  0.00     0.162 A 
ATOM      4  C3  UNL d   1      -0.657   0.293   0.306  0.00  0.00    -0.034 A 
ATOM      5  C4  UNL d   1       0.093  -0.883   0.255  0.00  0.00     0.162 A 
ATOM      6  C5  UNL d   1       0.918  -1.142  -0.835  0.00  0.00     0.062 A 
ATOM      7  F   UNL d   1       1.636  -2.274  -0.875  0.00  0.00    -0.097 F 
ATOM      8  F1  UNL d   1       0.034  -1.778   1.252  0.00  0.00    -0.096 F 
ATOM      9  I   UNL d   1      -1.892   0.684   1.935  0.00  0.00    -0.060 I 
ATOM     10  F2  UNL d   1      -1.279   2.341  -0.734  0.00  0.00    -0.096 F 
ATOM     11  F3  UNL d   1       0.332   1.816  -2.847  0.00  0.00    -0.097 F 
ATOM     12  F4  UNL d   1       1.793  -0.486  -2.930  0.00  0.00    -0.092 F 
ENDROOT
TORSDOF 0
ENDMDL
