MODEL 1
REMARK minimizedAffinity -3.98038745
REMARK minimizedRMSD -1
REMARK  0 active torsions:
REMARK  status: ('A' for Active; 'I' for Inactive)
ROOT
ATOM      1  C   UNL d   1       2.069   0.681  -1.478  0.00  0.00     0.124 A 
ATOM      2  C1  UNL d   1       0.856   1.149  -1.965  0.00  0.00     0.062 A 
ATOM      3  C2  UNL d   1      -0.299   1.033  -1.196  0.00  0.00     0.162 A 
ATOM      4  C3  UNL d   1      -0.246   0.447   0.069  0.00  0.00    -0.034 A 
ATOM      5  C4  UNL d   1       0.977  -0.022   0.551  0.00  0.00     0.162 A 
ATOM      6  C5  UNL d   1       2.128   0.096  -0.221  0.00  0.00     0.062 A 
ATOM      7  F   UNL d   1       3.299  -0.356   0.251  0.00  0.00    -0.097 F 
ATOM      8  F1  UNL d   1       1.064  -0.591   1.763  0.00  0.00    -0.096 F 
ATOM      9  I   UNL d   1      -1.970   0.272   1.222  0.00  0.00    -0.060 I 
ATOM     10  F2  UNL d   1      -1.457   1.494  -1.691  0.00  0.00    -0.096 F 
ATOM     11  F3  UNL d   1       0.795   1.714  -3.179  0.00  0.00    -0.097 F 
ATOM     12  F4  UNL d   1       3.178   0.793  -2.220  0.00  0.00    -0.092 F 
ENDROOT
TORSDOF 0
ENDMDL
