MODEL 1
REMARK minimizedAffinity -4.49626493
REMARK minimizedRMSD -1
REMARK  0 active torsions:
REMARK  status: ('A' for Active; 'I' for Inactive)
ROOT
ATOM      1  C   UNL d   1       2.186   0.356  -1.793  0.00  0.00     0.124 A 
ATOM      2  C1  UNL d   1       1.087   1.195  -1.917  0.00  0.00     0.062 A 
ATOM      3  C2  UNL d   1       0.082   1.180  -0.954  0.00  0.00     0.162 A 
ATOM      4  C3  UNL d   1       0.172   0.323   0.143  0.00  0.00    -0.034 A 
ATOM      5  C4  UNL d   1       1.279  -0.518   0.261  0.00  0.00     0.162 A 
ATOM      6  C5  UNL d   1       2.281  -0.500  -0.704  0.00  0.00     0.062 A 
ATOM      7  F   UNL d   1       3.341  -1.311  -0.582  0.00  0.00    -0.097 F 
ATOM      8  F1  UNL d   1       1.396  -1.354   1.303  0.00  0.00    -0.096 F 
ATOM      9  I   UNL d   1      -1.329   0.298   1.585  0.00  0.00    -0.060 I 
ATOM     10  F2  UNL d   1      -0.968   2.002  -1.101  0.00  0.00    -0.096 F 
ATOM     11  F3  UNL d   1       0.993   2.022  -2.969  0.00  0.00    -0.097 F 
ATOM     12  F4  UNL d   1       3.151   0.372  -2.721  0.00  0.00    -0.092 F 
ENDROOT
TORSDOF 0
ENDMDL
