MODEL 1
REMARK minimizedAffinity -0.976828098
REMARK minimizedRMSD -1
REMARK  0 active torsions:
REMARK  status: ('A' for Active; 'I' for Inactive)
ROOT
ATOM      1  C   UNL d   1       2.044   0.579  -2.391  0.00  0.00     0.124 A 
ATOM      2  C1  UNL d   1       1.053   1.549  -2.438  0.00  0.00     0.062 A 
ATOM      3  C2  UNL d   1       0.026   1.548  -1.499  0.00  0.00     0.162 A 
ATOM      4  C3  UNL d   1      -0.015   0.572  -0.503  0.00  0.00    -0.034 A 
ATOM      5  C4  UNL d   1       0.985  -0.401  -0.462  0.00  0.00     0.162 A 
ATOM      6  C5  UNL d   1       2.009  -0.395  -1.403  0.00  0.00     0.062 A 
ATOM      7  F   UNL d   1       2.966  -1.334  -1.356  0.00  0.00    -0.097 F 
ATOM      8  F1  UNL d   1       0.976  -1.354   0.482  0.00  0.00    -0.096 F 
ATOM      9  I   UNL d   1      -1.548   0.566   0.904  0.00  0.00    -0.060 I 
ATOM     10  F2  UNL d   1      -0.918   2.498  -1.569  0.00  0.00    -0.096 F 
ATOM     11  F3  UNL d   1       1.084   2.491  -3.392  0.00  0.00    -0.097 F 
ATOM     12  F4  UNL d   1       3.031   0.582  -3.297  0.00  0.00    -0.092 F 
ENDROOT
TORSDOF 0
ENDMDL
