MODEL 1
REMARK minimizedAffinity -1.49279106
REMARK minimizedRMSD -1
REMARK  0 active torsions:
REMARK  status: ('A' for Active; 'I' for Inactive)
ROOT
ATOM      1  C   UNL d   1       1.828   0.291  -2.631  0.00  0.00     0.124 A 
ATOM      2  C1  UNL d   1       0.958   1.372  -2.591  0.00  0.00     0.062 A 
ATOM      3  C2  UNL d   1      -0.093   1.391  -1.679  0.00  0.00     0.162 A 
ATOM      4  C3  UNL d   1      -0.281   0.326  -0.798  0.00  0.00    -0.034 A 
ATOM      5  C4  UNL d   1       0.597  -0.758  -0.845  0.00  0.00     0.162 A 
ATOM      6  C5  UNL d   1       1.646  -0.773  -1.758  0.00  0.00     0.062 A 
ATOM      7  F   UNL d   1       2.485  -1.818  -1.795  0.00  0.00    -0.097 F 
ATOM      8  F1  UNL d   1       0.446  -1.799  -0.012  0.00  0.00    -0.096 F 
ATOM      9  I   UNL d   1      -1.852   0.352   0.566  0.00  0.00    -0.060 I 
ATOM     10  F2  UNL d   1      -0.918   2.449  -1.663  0.00  0.00    -0.096 F 
ATOM     11  F3  UNL d   1       1.130   2.400  -3.434  0.00  0.00    -0.097 F 
ATOM     12  F4  UNL d   1       2.838   0.274  -3.510  0.00  0.00    -0.092 F 
ENDROOT
TORSDOF 0
ENDMDL
