MODEL 1
REMARK minimizedAffinity -1.63778627
REMARK minimizedRMSD -1
REMARK  0 active torsions:
REMARK  status: ('A' for Active; 'I' for Inactive)
ROOT
ATOM      1  C   UNL d   1       2.619  -0.557  -1.604  0.00  0.00     0.124 A 
ATOM      2  C1  UNL d   1       2.156   0.726  -1.349  0.00  0.00     0.062 A 
ATOM      3  C2  UNL d   1       0.978   0.916  -0.632  0.00  0.00     0.162 A 
ATOM      4  C3  UNL d   1       0.256  -0.181  -0.162  0.00  0.00    -0.034 A 
ATOM      5  C4  UNL d   1       0.727  -1.469  -0.423  0.00  0.00     0.162 A 
ATOM      6  C5  UNL d   1       1.904  -1.653  -1.141  0.00  0.00     0.062 A 
ATOM      7  F   UNL d   1       2.350  -2.894  -1.386  0.00  0.00    -0.097 F 
ATOM      8  F1  UNL d   1       0.057  -2.545   0.014  0.00  0.00    -0.096 F 
ATOM      9  I   UNL d   1      -1.505   0.099   0.911  0.00  0.00    -0.060 I 
ATOM     10  F2  UNL d   1       0.555   2.168  -0.400  0.00  0.00    -0.096 F 
ATOM     11  F3  UNL d   1       2.844   1.787  -1.796  0.00  0.00    -0.097 F 
ATOM     12  F4  UNL d   1       3.751  -0.737  -2.296  0.00  0.00    -0.092 F 
ENDROOT
TORSDOF 0
ENDMDL
