MODEL 1
REMARK minimizedAffinity -0.302629292
REMARK minimizedRMSD -1
REMARK  0 active torsions:
REMARK  status: ('A' for Active; 'I' for Inactive)
ROOT
ATOM      1  C   UNL d   1      -2.150   0.590   2.568  0.00  0.00     0.124 A 
ATOM      2  C1  UNL d   1      -1.053   1.437   2.499  0.00  0.00     0.062 A 
ATOM      3  C2  UNL d   1      -0.069   1.231   1.537  0.00  0.00     0.162 A 
ATOM      4  C3  UNL d   1      -0.178   0.174   0.634  0.00  0.00    -0.034 A 
ATOM      5  C4  UNL d   1      -1.284  -0.675   0.710  0.00  0.00     0.162 A 
ATOM      6  C5  UNL d   1      -2.265  -0.465   1.673  0.00  0.00     0.062 A 
ATOM      7  F   UNL d   1      -3.324  -1.284   1.738  0.00  0.00    -0.097 F 
ATOM      8  F1  UNL d   1      -1.420  -1.701  -0.143  0.00  0.00    -0.096 F 
ATOM      9  I   UNL d   1       1.292  -0.138  -0.807  0.00  0.00    -0.060 I 
ATOM     10  F2  UNL d   1       0.981   2.066   1.493  0.00  0.00    -0.096 F 
ATOM     11  F3  UNL d   1      -0.939   2.457   3.363  0.00  0.00    -0.097 F 
ATOM     12  F4  UNL d   1      -3.095   0.790   3.495  0.00  0.00    -0.092 F 
ENDROOT
TORSDOF 0
ENDMDL
