MODEL 1
REMARK minimizedAffinity -1.01757491
REMARK minimizedRMSD -1
REMARK  0 active torsions:
REMARK  status: ('A' for Active; 'I' for Inactive)
ROOT
ATOM      1  C   UNL d   1       2.468  -0.592  -1.122  0.00  0.00     0.124 A 
ATOM      2  C1  UNL d   1       1.805  -1.696  -0.605  0.00  0.00     0.062 A 
ATOM      3  C2  UNL d   1       0.595  -1.536   0.065  0.00  0.00     0.162 A 
ATOM      4  C3  UNL d   1       0.040  -0.266   0.222  0.00  0.00    -0.034 A 
ATOM      5  C4  UNL d   1       0.714   0.840  -0.300  0.00  0.00     0.162 A 
ATOM      6  C5  UNL d   1       1.922   0.675  -0.969  0.00  0.00     0.062 A 
ATOM      7  F   UNL d   1       2.562   1.743  -1.467  0.00  0.00    -0.097 F 
ATOM      8  F1  UNL d   1       0.208   2.076  -0.167  0.00  0.00    -0.096 F 
ATOM      9  I   UNL d   1      -1.768  -0.022   1.223  0.00  0.00    -0.060 I 
ATOM     10  F2  UNL d   1      -0.024  -2.621   0.554  0.00  0.00    -0.096 F 
ATOM     11  F3  UNL d   1       2.330  -2.921  -0.751  0.00  0.00    -0.097 F 
ATOM     12  F4  UNL d   1       3.632  -0.749  -1.765  0.00  0.00    -0.092 F 
ENDROOT
TORSDOF 0
ENDMDL
