MODEL 1
REMARK minimizedAffinity 2.23483038
REMARK minimizedRMSD -1
REMARK  0 active torsions:
REMARK  status: ('A' for Active; 'I' for Inactive)
ROOT
ATOM      1  C   UNL d   1      -1.482   1.275  -0.548  0.00  0.00     0.124 A 
ATOM      2  C1  UNL d   1      -0.628   1.859  -1.473  0.00  0.00     0.062 A 
ATOM      3  C2  UNL d   1       0.578   1.244  -1.798  0.00  0.00     0.162 A 
ATOM      4  C3  UNL d   1       0.936   0.036  -1.199  0.00  0.00    -0.034 A 
ATOM      5  C4  UNL d   1       0.072  -0.544  -0.269  0.00  0.00     0.162 A 
ATOM      6  C5  UNL d   1      -1.131   0.074   0.053  0.00  0.00     0.062 A 
ATOM      7  F   UNL d   1      -1.956  -0.491   0.947  0.00  0.00    -0.097 F 
ATOM      8  F1  UNL d   1       0.386  -1.705   0.327  0.00  0.00    -0.096 F 
ATOM      9  I   UNL d   1       2.738  -0.886  -1.682  0.00  0.00    -0.060 I 
ATOM     10  F2  UNL d   1       1.384   1.831  -2.696  0.00  0.00    -0.096 F 
ATOM     11  F3  UNL d   1      -0.964   3.019  -2.055  0.00  0.00    -0.097 F 
ATOM     12  F4  UNL d   1      -2.641   1.870  -0.236  0.00  0.00    -0.092 F 
ENDROOT
TORSDOF 0
ENDMDL
