MODEL 1
REMARK minimizedAffinity -4.45595407
REMARK minimizedRMSD -1
REMARK  0 active torsions:
REMARK  status: ('A' for Active; 'I' for Inactive)
ROOT
ATOM      1  C   UNL d   1       1.902   0.348  -2.022  0.00  0.00     0.124 A 
ATOM      2  C1  UNL d   1       1.141   1.501  -1.886  0.00  0.00     0.062 A 
ATOM      3  C2  UNL d   1       0.100   1.547  -0.964  0.00  0.00     0.162 A 
ATOM      4  C3  UNL d   1      -0.186   0.438  -0.168  0.00  0.00    -0.034 A 
ATOM      5  C4  UNL d   1       0.584  -0.718  -0.311  0.00  0.00     0.162 A 
ATOM      6  C5  UNL d   1       1.623  -0.760  -1.235  0.00  0.00     0.062 A 
ATOM      7  F   UNL d   1       2.358  -1.874  -1.364  0.00  0.00    -0.097 F 
ATOM      8  F1  UNL d   1       0.336  -1.803   0.438  0.00  0.00    -0.096 F 
ATOM      9  I   UNL d   1      -1.742   0.503   1.213  0.00  0.00    -0.060 I 
ATOM     10  F2  UNL d   1      -0.620   2.674  -0.854  0.00  0.00    -0.096 F 
ATOM     11  F3  UNL d   1       1.407   2.572  -2.647  0.00  0.00    -0.097 F 
ATOM     12  F4  UNL d   1       2.902   0.306  -2.911  0.00  0.00    -0.092 F 
ENDROOT
TORSDOF 0
ENDMDL
