MODEL 1
REMARK minimizedAffinity 7.57274771
REMARK minimizedRMSD -1
REMARK  0 active torsions:
REMARK  status: ('A' for Active; 'I' for Inactive)
ROOT
ATOM      1  C   UNL d   1       0.977  -0.790  -1.234  0.00  0.00     0.124 A 
ATOM      2  C1  UNL d   1       0.265  -1.890  -0.777  0.00  0.00     0.062 A 
ATOM      3  C2  UNL d   1      -0.829  -1.714   0.066  0.00  0.00     0.162 A 
ATOM      4  C3  UNL d   1      -1.218  -0.433   0.457  0.00  0.00    -0.034 A 
ATOM      5  C4  UNL d   1      -0.496   0.668  -0.006  0.00  0.00     0.162 A 
ATOM      6  C5  UNL d   1       0.597   0.487  -0.849  0.00  0.00     0.062 A 
ATOM      7  F   UNL d   1       1.284   1.551  -1.289  0.00  0.00    -0.097 F 
ATOM      8  F1  UNL d   1      -0.842   1.914   0.349  0.00  0.00    -0.096 F 
ATOM      9  I   UNL d   1      -2.853  -0.166   1.717  0.00  0.00    -0.060 I 
ATOM     10  F2  UNL d   1      -1.499  -2.795   0.493  0.00  0.00    -0.096 F 
ATOM     11  F3  UNL d   1       0.631  -3.126  -1.147  0.00  0.00    -0.097 F 
ATOM     12  F4  UNL d   1       2.030  -0.962  -2.044  0.00  0.00    -0.092 F 
ENDROOT
TORSDOF 0
ENDMDL
