MODEL 1
REMARK minimizedAffinity 2.98243237
REMARK minimizedRMSD -1
REMARK  0 active torsions:
REMARK  status: ('A' for Active; 'I' for Inactive)
ROOT
ATOM      1  C   UNL d   1       0.665   0.129  -1.942  0.00  0.00     0.124 A 
ATOM      2  C1  UNL d   1      -0.413   0.147  -1.068  0.00  0.00     0.062 A 
ATOM      3  C2  UNL d   1      -0.645  -0.933  -0.221  0.00  0.00     0.162 A 
ATOM      4  C3  UNL d   1       0.203  -2.040  -0.243  0.00  0.00    -0.034 A 
ATOM      5  C4  UNL d   1       1.285  -2.051  -1.125  0.00  0.00     0.162 A 
ATOM      6  C5  UNL d   1       1.512  -0.970  -1.970  0.00  0.00     0.062 A 
ATOM      7  F   UNL d   1       2.554  -0.989  -2.814  0.00  0.00    -0.097 F 
ATOM      8  F1  UNL d   1       2.120  -3.099  -1.172  0.00  0.00    -0.096 F 
ATOM      9  I   UNL d   1      -0.140  -3.656   1.023  0.00  0.00    -0.060 I 
ATOM     10  F2  UNL d   1      -1.694  -0.888   0.614  0.00  0.00    -0.096 F 
ATOM     11  F3  UNL d   1      -1.234   1.207  -1.040  0.00  0.00    -0.097 F 
ATOM     12  F4  UNL d   1       0.885   1.168  -2.758  0.00  0.00    -0.092 F 
ENDROOT
TORSDOF 0
ENDMDL
