MODEL 1
REMARK minimizedAffinity 0.478464246
REMARK minimizedRMSD -1
REMARK  0 active torsions:
REMARK  status: ('A' for Active; 'I' for Inactive)
ROOT
ATOM      1  C   UNL d   1       2.758   0.906   5.989  0.00  0.00     0.078 C 
ATOM      2  C1  UNL d   1       2.757   2.405   6.000  0.00  0.00    -0.077 A 
ATOM      3  C2  UNL d   1       1.556   3.125   5.997  0.00  0.00    -0.001 A 
ATOM      4  C3  UNL d   1       1.569   4.521   5.998  0.00  0.00     0.003 A 
ATOM      5  C4  UNL d   1       2.781   5.209   6.000  0.00  0.00    -0.005 A 
ATOM      6  C5  UNL d   1       3.981   4.501   6.000  0.00  0.00     0.003 A 
ATOM      7  C6  UNL d   1       3.970   3.105   5.999  0.00  0.00    -0.001 A 
ENDROOT
TORSDOF 0
ENDMDL
