MODEL 1
REMARK minimizedAffinity -1.85615993
REMARK minimizedRMSD -1
REMARK  0 active torsions:
REMARK  status: ('A' for Active; 'I' for Inactive)
ROOT
ATOM      1  C   UNL d   1       1.907  -1.221   5.091  0.00  0.00     0.078 C 
ATOM      2  C1  UNL d   1       0.885  -2.318   5.086  0.00  0.00    -0.077 A 
ATOM      3  C2  UNL d   1       0.958  -3.376   6.000  0.00  0.00    -0.001 A 
ATOM      4  C3  UNL d   1       0.005  -4.396   5.977  0.00  0.00     0.003 A 
ATOM      5  C4  UNL d   1      -1.028  -4.368   5.041  0.00  0.00    -0.005 A 
ATOM      6  C5  UNL d   1      -1.107  -3.320   4.126  0.00  0.00     0.003 A 
ATOM      7  C6  UNL d   1      -0.155  -2.300   4.148  0.00  0.00    -0.001 A 
ENDROOT
TORSDOF 0
ENDMDL
