MODEL 1
REMARK minimizedAffinity -3.4520669
REMARK minimizedRMSD -1
REMARK  0 active torsions:
REMARK  status: ('A' for Active; 'I' for Inactive)
ROOT
ATOM      1  C   UNL d   1       1.384   4.865   6.000  0.00  0.00     0.078 C 
ATOM      2  C1  UNL d   1       2.657   4.073   5.978  0.00  0.00    -0.077 A 
ATOM      3  C2  UNL d   1       2.636   2.673   5.992  0.00  0.00    -0.001 A 
ATOM      4  C3  UNL d   1       3.829   1.949   5.981  0.00  0.00     0.003 A 
ATOM      5  C4  UNL d   1       5.052   2.616   5.957  0.00  0.00    -0.005 A 
ATOM      6  C5  UNL d   1       5.083   4.009   5.945  0.00  0.00     0.003 A 
ATOM      7  C6  UNL d   1       3.891   4.735   5.956  0.00  0.00    -0.001 A 
ENDROOT
TORSDOF 0
ENDMDL
