MODEL 1
REMARK minimizedAffinity -1.35550594
REMARK minimizedRMSD -1
REMARK  0 active torsions:
REMARK  status: ('A' for Active; 'I' for Inactive)
ROOT
ATOM      1  C   UNL d   1       1.663   4.662   5.980  0.00  0.00     0.078 C 
ATOM      2  C1  UNL d   1       2.482   3.571   5.356  0.00  0.00    -0.077 A 
ATOM      3  C2  UNL d   1       2.652   2.339   6.000  0.00  0.00    -0.001 A 
ATOM      4  C3  UNL d   1       3.425   1.337   5.412  0.00  0.00     0.003 A 
ATOM      5  C4  UNL d   1       4.035   1.556   4.178  0.00  0.00    -0.005 A 
ATOM      6  C5  UNL d   1       3.874   2.780   3.532  0.00  0.00     0.003 A 
ATOM      7  C6  UNL d   1       3.101   3.783   4.118  0.00  0.00    -0.001 A 
ENDROOT
TORSDOF 0
ENDMDL
