MODEL 1
REMARK minimizedAffinity -2.55390024
REMARK minimizedRMSD -1
REMARK  0 active torsions:
REMARK  status: ('A' for Active; 'I' for Inactive)
ROOT
ATOM      1  C   UNL d   1       1.086   4.861   5.999  0.00  0.00     0.078 C 
ATOM      2  C1  UNL d   1       2.333   4.028   5.992  0.00  0.00    -0.077 A 
ATOM      3  C2  UNL d   1       2.267   2.630   5.994  0.00  0.00    -0.001 A 
ATOM      4  C3  UNL d   1       3.436   1.868   5.998  0.00  0.00     0.003 A 
ATOM      5  C4  UNL d   1       4.681   2.495   6.000  0.00  0.00    -0.005 A 
ATOM      6  C5  UNL d   1       4.757   3.886   5.999  0.00  0.00     0.003 A 
ATOM      7  C6  UNL d   1       3.588   4.650   5.996  0.00  0.00    -0.001 A 
ENDROOT
TORSDOF 0
ENDMDL
