MODEL 1
REMARK minimizedAffinity 7.35660839
REMARK minimizedRMSD -1
REMARK  0 active torsions:
REMARK  status: ('A' for Active; 'I' for Inactive)
ROOT
ATOM      1  C   UNL d   1       2.689   1.626   5.925  0.00  0.00     0.078 C 
ATOM      2  C1  UNL d   1       2.097   3.003   5.958  0.00  0.00    -0.077 A 
ATOM      3  C2  UNL d   1       0.709   3.191   5.966  0.00  0.00    -0.001 A 
ATOM      4  C3  UNL d   1       0.172   4.479   5.987  0.00  0.00     0.003 A 
ATOM      5  C4  UNL d   1       1.014   5.589   5.999  0.00  0.00    -0.005 A 
ATOM      6  C5  UNL d   1       2.396   5.412   5.988  0.00  0.00     0.003 A 
ATOM      7  C6  UNL d   1       2.936   4.124   5.967  0.00  0.00    -0.001 A 
ENDROOT
TORSDOF 0
ENDMDL
