MODEL 1
REMARK minimizedAffinity 1.5679847
REMARK minimizedRMSD -1
REMARK  0 active torsions:
REMARK  status: ('A' for Active; 'I' for Inactive)
ROOT
ATOM      1  C   UNL d   1       1.880   4.460   6.000  0.00  0.00     0.078 C 
ATOM      2  C1  UNL d   1       3.059   3.691   5.484  0.00  0.00    -0.077 A 
ATOM      3  C2  UNL d   1       3.377   2.428   5.999  0.00  0.00    -0.001 A 
ATOM      4  C3  UNL d   1       4.484   1.728   5.516  0.00  0.00     0.003 A 
ATOM      5  C4  UNL d   1       5.282   2.282   4.518  0.00  0.00    -0.005 A 
ATOM      6  C5  UNL d   1       4.974   3.539   4.001  0.00  0.00     0.003 A 
ATOM      7  C6  UNL d   1       3.868   4.241   4.482  0.00  0.00    -0.001 A 
ENDROOT
TORSDOF 0
ENDMDL
