MODEL 1
REMARK minimizedAffinity 8.94036484
REMARK minimizedRMSD -1
REMARK  0 active torsions:
REMARK  status: ('A' for Active; 'I' for Inactive)
ROOT
ATOM      1  C2' OXE d   1      -2.224   1.695   0.018  0.00  0.00     0.078 C 
ATOM      2  C1' OXE d   1      -3.665   2.133  -2.351  0.00  0.00     0.078 C 
ATOM      3  C1  OXE d   1      -4.247   2.665  -1.065  0.00  0.00    -0.078 A 
ATOM      4  C2  OXE d   1      -3.559   2.406   0.095  0.00  0.00    -0.078 A 
ATOM      5  C3  OXE d   1      -4.023   2.921   1.302  0.00  0.00     0.003 A 
ATOM      6  C4  OXE d   1      -5.263   3.568   1.366  0.00  0.00    -0.002 A 
ATOM      7  C5  OXE d   1      -6.000   3.807   0.201  0.00  0.00    -0.002 A 
ATOM      8  C6  OXE d   1      -5.487   3.401  -1.025  0.00  0.00     0.003 A 
ENDROOT
TORSDOF 0
ENDMDL
