MODEL 1
REMARK minimizedAffinity 8.2418232
REMARK minimizedRMSD -1
REMARK  0 active torsions:
REMARK  status: ('A' for Active; 'I' for Inactive)
ROOT
ATOM      1  C2' OXE d   1       3.750  -4.877   6.000  0.00  0.00     0.078 C 
ATOM      2  C1' OXE d   1       1.049  -5.297   5.360  0.00  0.00     0.078 C 
ATOM      3  C1  OXE d   1       1.786  -4.208   4.622  0.00  0.00    -0.078 A 
ATOM      4  C2  OXE d   1       3.094  -3.978   4.974  0.00  0.00    -0.078 A 
ATOM      5  C3  OXE d   1       3.836  -3.022   4.286  0.00  0.00     0.003 A 
ATOM      6  C4  OXE d   1       3.219  -2.188   3.345  0.00  0.00    -0.002 A 
ATOM      7  C5  OXE d   1       1.877  -2.379   3.000  0.00  0.00    -0.002 A 
ATOM      8  C6  OXE d   1       1.159  -3.410   3.597  0.00  0.00     0.003 A 
ENDROOT
TORSDOF 0
ENDMDL
