MODEL 1
REMARK minimizedAffinity 4.03573418
REMARK minimizedRMSD -1
REMARK  0 active torsions:
REMARK  status: ('A' for Active; 'I' for Inactive)
ROOT
ATOM      1  C2' OXE d   1       2.257   2.562   3.676  0.00  0.00     0.078 C 
ATOM      2  C1' OXE d   1       3.167   1.401   1.288  0.00  0.00     0.078 C 
ATOM      3  C1  OXE d   1       2.514   0.498   2.305  0.00  0.00    -0.078 A 
ATOM      4  C2  OXE d   1       2.114   1.067   3.490  0.00  0.00    -0.078 A 
ATOM      5  C3  OXE d   1       1.457   0.290   4.440  0.00  0.00     0.003 A 
ATOM      6  C4  OXE d   1       1.337  -1.094   4.265  0.00  0.00    -0.002 A 
ATOM      7  C5  OXE d   1       1.773  -1.700   3.082  0.00  0.00    -0.002 A 
ATOM      8  C6  OXE d   1       2.324  -0.913   2.076  0.00  0.00     0.003 A 
ENDROOT
TORSDOF 0
ENDMDL
