MODEL 1
REMARK minimizedAffinity 3.87161446
REMARK minimizedRMSD -1
REMARK  0 active torsions:
REMARK  status: ('A' for Active; 'I' for Inactive)
ROOT
ATOM      1  C2' OXE d   1       4.389  -5.998   0.144  0.00  0.00     0.078 C 
ATOM      2  C1' OXE d   1       1.628  -5.999  -0.358  0.00  0.00     0.078 C 
ATOM      3  C1  OXE d   1       2.559  -5.985  -1.545  0.00  0.00    -0.078 A 
ATOM      4  C2  OXE d   1       3.908  -5.938  -1.289  0.00  0.00    -0.078 A 
ATOM      5  C3  OXE d   1       4.812  -5.979  -2.347  0.00  0.00     0.003 A 
ATOM      6  C4  OXE d   1       4.358  -5.913  -3.670  0.00  0.00    -0.002 A 
ATOM      7  C5  OXE d   1       2.988  -5.921  -3.952  0.00  0.00    -0.002 A 
ATOM      8  C6  OXE d   1       2.077  -5.999  -2.904  0.00  0.00     0.003 A 
ENDROOT
TORSDOF 0
ENDMDL
