MODEL 1
REMARK minimizedAffinity 6.50487185
REMARK minimizedRMSD -1
REMARK  0 active torsions:
REMARK  status: ('A' for Active; 'I' for Inactive)
ROOT
ATOM      1  C2' OXE d   1      -3.034  -0.748  -3.397  0.00  0.00     0.078 C 
ATOM      2  C1' OXE d   1      -3.726   1.929  -3.881  0.00  0.00     0.078 C 
ATOM      3  C1  OXE d   1      -3.091   1.595  -2.555  0.00  0.00    -0.078 A 
ATOM      4  C2  OXE d   1      -2.798   0.276  -2.308  0.00  0.00    -0.078 A 
ATOM      5  C3  OXE d   1      -2.161  -0.079  -1.122  0.00  0.00     0.003 A 
ATOM      6  C4  OXE d   1      -1.955   0.873  -0.116  0.00  0.00    -0.002 A 
ATOM      7  C5  OXE d   1      -2.282   2.216  -0.331  0.00  0.00    -0.002 A 
ATOM      8  C6  OXE d   1      -2.810   2.600  -1.559  0.00  0.00     0.003 A 
ENDROOT
TORSDOF 0
ENDMDL
