MODEL 1
REMARK minimizedAffinity 1.94769919
REMARK minimizedRMSD -1
REMARK  0 active torsions:
REMARK  status: ('A' for Active; 'I' for Inactive)
ROOT
ATOM      1  C2' OXE d   1       1.117  -4.124   5.069  0.00  0.00     0.078 C 
ATOM      2  C1' OXE d   1       3.015  -4.758   3.100  0.00  0.00     0.078 C 
ATOM      3  C1  OXE d   1       2.506  -3.340   3.155  0.00  0.00    -0.078 A 
ATOM      4  C2  OXE d   1       1.542  -3.050   4.091  0.00  0.00    -0.078 A 
ATOM      5  C3  OXE d   1       1.078  -1.744   4.220  0.00  0.00     0.003 A 
ATOM      6  C4  OXE d   1       1.469  -0.759   3.306  0.00  0.00    -0.002 A 
ATOM      7  C5  OXE d   1       2.419  -1.043   2.319  0.00  0.00    -0.002 A 
ATOM      8  C6  OXE d   1       2.978  -2.315   2.257  0.00  0.00     0.003 A 
ENDROOT
TORSDOF 0
ENDMDL
