MODEL 1
REMARK minimizedAffinity 12.1289272
REMARK minimizedRMSD -1
REMARK  0 active torsions:
REMARK  status: ('A' for Active; 'I' for Inactive)
ROOT
ATOM      1  C2' OXE d   1      -3.532   3.362  -0.560  0.00  0.00     0.078 C 
ATOM      2  C1' OXE d   1      -5.927   4.755  -1.012  0.00  0.00     0.078 C 
ATOM      3  C1  OXE d   1      -5.351   3.957  -2.155  0.00  0.00    -0.078 A 
ATOM      4  C2  OXE d   1      -4.155   3.316  -1.939  0.00  0.00    -0.078 A 
ATOM      5  C3  OXE d   1      -3.608   2.522  -2.942  0.00  0.00     0.003 A 
ATOM      6  C4  OXE d   1      -4.185   2.493  -4.218  0.00  0.00    -0.002 A 
ATOM      7  C5  OXE d   1      -5.383   3.170  -4.470  0.00  0.00    -0.002 A 
ATOM      8  C6  OXE d   1      -6.000   3.871  -3.440  0.00  0.00     0.003 A 
ENDROOT
TORSDOF 0
ENDMDL
