MODEL 1
REMARK minimizedAffinity 6.95210409
REMARK minimizedRMSD -1
REMARK  3 active torsions:
REMARK  status: ('A' for Active; 'I' for Inactive)
REMARK    1  A    between atoms: C3'_2  and  C2'_3 
REMARK    2  A    between atoms: C2'_3  and  C1'_4 
REMARK    3  A    between atoms: C1'_4  and  C1_5 
ROOT
ATOM      1  C1  N4B d   1       3.628   4.146   5.331  0.00  0.00    -0.075 A 
ATOM      2  C2  N4B d   1       2.473   3.654   5.977  0.00  0.00     0.002 A 
ATOM      3  C3  N4B d   1       1.626   2.801   5.313  0.00  0.00     0.002 A 
ATOM      4  C4  N4B d   1       1.902   2.443   4.002  0.00  0.00    -0.004 A 
ATOM      5  C5  N4B d   1       3.033   2.903   3.394  0.00  0.00     0.002 A 
ATOM      6  C6  N4B d   1       3.896   3.758   4.051  0.00  0.00     0.002 A 
ENDROOT
BRANCH   1   7
ATOM      7  C1' N4B d   1       4.539   5.149   5.987  0.00  0.00     0.057 C 
BRANCH   7   8
ATOM      8  C2' N4B d   1       5.219   5.987   4.909  0.00  0.00     0.009 C 
BRANCH   8   9
ATOM      9  C3' N4B d   1       4.447   5.967   3.601  0.00  0.00     0.004 C 
ATOM     10  C4' N4B d   1       5.342   5.999   2.398  0.00  0.00     0.003 C 
ENDBRANCH   8   9
ENDBRANCH   7   8
ENDBRANCH   1   7
TORSDOF 3
ENDMDL
