MODEL 1
REMARK minimizedAffinity 11.2250156
REMARK minimizedRMSD -1
REMARK  3 active torsions:
REMARK  status: ('A' for Active; 'I' for Inactive)
REMARK    1  A    between atoms: C3'_2  and  C2'_3 
REMARK    2  A    between atoms: C2'_3  and  C1'_4 
REMARK    3  A    between atoms: C1'_4  and  C1_5 
ROOT
ATOM      1  C1  N4B d   1       3.296   5.004   3.020  0.00  0.00    -0.075 A 
ATOM      2  C2  N4B d   1       3.188   3.707   3.569  0.00  0.00     0.002 A 
ATOM      3  C3  N4B d   1       1.964   3.230   3.968  0.00  0.00     0.002 A 
ATOM      4  C4  N4B d   1       0.841   4.035   3.847  0.00  0.00    -0.004 A 
ATOM      5  C5  N4B d   1       0.950   5.277   3.292  0.00  0.00     0.002 A 
ATOM      6  C6  N4B d   1       2.173   5.768   2.882  0.00  0.00     0.002 A 
ENDROOT
BRANCH   1   7
ATOM      7  C1' N4B d   1       4.626   5.601   2.648  0.00  0.00     0.057 C 
BRANCH   7   8
ATOM      8  C2' N4B d   1       4.618   5.954   1.163  0.00  0.00     0.009 C 
BRANCH   8   9
ATOM      9  C3' N4B d   1       5.253   4.864   0.317  0.00  0.00     0.004 C 
ATOM     10  C4' N4B d   1       5.707   5.361  -1.024  0.00  0.00     0.003 C 
ENDBRANCH   8   9
ENDBRANCH   7   8
ENDBRANCH   1   7
TORSDOF 3
ENDMDL
