MODEL 1
REMARK minimizedAffinity 11.8215351
REMARK minimizedRMSD -1
REMARK  3 active torsions:
REMARK  status: ('A' for Active; 'I' for Inactive)
REMARK    1  A    between atoms: C3'_2  and  C2'_3 
REMARK    2  A    between atoms: C2'_3  and  C1'_4 
REMARK    3  A    between atoms: C1'_4  and  C1_5 
ROOT
ATOM      1  C1  N4B d   1       3.069   2.343  -0.854  0.00  0.00    -0.075 A 
ATOM      2  C2  N4B d   1       3.486   1.311  -1.722  0.00  0.00     0.002 A 
ATOM      3  C3  N4B d   1       2.880   0.080  -1.667  0.00  0.00     0.002 A 
ATOM      4  C4  N4B d   1       1.871  -0.147  -0.742  0.00  0.00    -0.004 A 
ATOM      5  C5  N4B d   1       1.456   0.863   0.075  0.00  0.00     0.002 A 
ATOM      6  C6  N4B d   1       2.054   2.107   0.028  0.00  0.00     0.002 A 
ENDROOT
BRANCH   1   7
ATOM      7  C1' N4B d   1       3.759   3.679  -0.819  0.00  0.00     0.057 C 
BRANCH   7   8
ATOM      8  C2' N4B d   1       5.230   3.492  -1.180  0.00  0.00     0.009 C 
BRANCH   8   9
ATOM      9  C3' N4B d   1       5.967   4.818  -1.267  0.00  0.00     0.004 C 
ATOM     10  C4' N4B d   1       5.051   6.000  -1.147  0.00  0.00     0.003 C 
ENDBRANCH   8   9
ENDBRANCH   7   8
ENDBRANCH   1   7
TORSDOF 3
ENDMDL
