MODEL 1
REMARK minimizedAffinity 20.7220669
REMARK minimizedRMSD -1
REMARK  3 active torsions:
REMARK  status: ('A' for Active; 'I' for Inactive)
REMARK    1  A    between atoms: C3'_2  and  C2'_3 
REMARK    2  A    between atoms: C2'_3  and  C1'_4 
REMARK    3  A    between atoms: C1'_4  and  C1_5 
ROOT
ATOM      1  C1  N4B d   1      -5.675   4.821   2.509  0.00  0.00    -0.075 A 
ATOM      2  C2  N4B d   1      -5.616   3.611   3.236  0.00  0.00     0.002 A 
ATOM      3  C3  N4B d   1      -5.738   3.626   4.604  0.00  0.00     0.002 A 
ATOM      4  C4  N4B d   1      -5.899   4.834   5.266  0.00  0.00    -0.004 A 
ATOM      5  C5  N4B d   1      -5.980   5.995   4.554  0.00  0.00     0.002 A 
ATOM      6  C6  N4B d   1      -5.863   5.995   3.179  0.00  0.00     0.002 A 
ENDROOT
BRANCH   1   7
ATOM      7  C1' N4B d   1      -5.461   4.864   1.021  0.00  0.00     0.057 C 
BRANCH   7   8
ATOM      8  C2' N4B d   1      -3.972   4.719   0.724  0.00  0.00     0.009 C 
BRANCH   8   9
ATOM      9  C3' N4B d   1      -3.207   6.000   1.014  0.00  0.00     0.004 C 
ATOM     10  C4' N4B d   1      -2.178   5.830   2.091  0.00  0.00     0.003 C 
ENDBRANCH   8   9
ENDBRANCH   7   8
ENDBRANCH   1   7
TORSDOF 3
ENDMDL
