MODEL 1
REMARK minimizedAffinity 0.282279789
REMARK minimizedRMSD -1
REMARK  3 active torsions:
REMARK  status: ('A' for Active; 'I' for Inactive)
REMARK    1  A    between atoms: C3'_2  and  C2'_3 
REMARK    2  A    between atoms: C2'_3  and  C1'_4 
REMARK    3  A    between atoms: C1'_4  and  C1_5 
ROOT
ATOM      1  C1  N4B d   1       1.450  -2.073  -0.687  0.00  0.00    -0.075 A 
ATOM      2  C2  N4B d   1       0.460  -1.489  -1.508  0.00  0.00     0.002 A 
ATOM      3  C3  N4B d   1      -0.700  -2.173  -1.778  0.00  0.00     0.002 A 
ATOM      4  C4  N4B d   1      -0.883  -3.444  -1.256  0.00  0.00    -0.004 A 
ATOM      5  C5  N4B d   1       0.066  -3.992  -0.444  0.00  0.00     0.002 A 
ATOM      6  C6  N4B d   1       1.235  -3.314  -0.160  0.00  0.00     0.002 A 
ENDROOT
BRANCH   1   7
ATOM      7  C1' N4B d   1       2.771  -1.400  -0.433  0.00  0.00     0.057 C 
BRANCH   7   8
ATOM      8  C2' N4B d   1       2.561   0.111  -0.385  0.00  0.00     0.009 C 
BRANCH   8   9
ATOM      9  C3' N4B d   1       3.683   0.862  -1.081  0.00  0.00     0.004 C 
ATOM     10  C4' N4B d   1       4.893   1.034  -0.212  0.00  0.00     0.003 C 
ENDBRANCH   8   9
ENDBRANCH   7   8
ENDBRANCH   1   7
TORSDOF 3
ENDMDL
