MODEL 1
REMARK minimizedAffinity 12.626833
REMARK minimizedRMSD -1
REMARK  3 active torsions:
REMARK  status: ('A' for Active; 'I' for Inactive)
REMARK    1  A    between atoms: C3'_2  and  C2'_3 
REMARK    2  A    between atoms: C2'_3  and  C1'_4 
REMARK    3  A    between atoms: C1'_4  and  C1_5 
ROOT
ATOM      1  C1  N4B d   1      -5.888   3.853   3.626  0.00  0.00    -0.075 A 
ATOM      2  C2  N4B d   1      -5.842   5.264   3.588  0.00  0.00     0.002 A 
ATOM      3  C3  N4B d   1      -5.878   5.984   4.757  0.00  0.00     0.002 A 
ATOM      4  C4  N4B d   1      -5.978   5.318   5.970  0.00  0.00    -0.004 A 
ATOM      5  C5  N4B d   1      -5.996   3.955   5.999  0.00  0.00     0.002 A 
ATOM      6  C6  N4B d   1      -5.956   3.218   4.833  0.00  0.00     0.002 A 
ENDROOT
BRANCH   1   7
ATOM      7  C1' N4B d   1      -5.937   3.026   2.371  0.00  0.00     0.057 C 
BRANCH   7   8
ATOM      8  C2' N4B d   1      -4.997   3.632   1.334  0.00  0.00     0.009 C 
BRANCH   8   9
ATOM      9  C3' N4B d   1      -4.953   2.810   0.057  0.00  0.00     0.004 C 
ATOM     10  C4' N4B d   1      -4.711   1.353   0.313  0.00  0.00     0.003 C 
ENDBRANCH   8   9
ENDBRANCH   7   8
ENDBRANCH   1   7
TORSDOF 3
ENDMDL
