MODEL 1
REMARK minimizedAffinity 15.6454258
REMARK minimizedRMSD -1
REMARK  3 active torsions:
REMARK  status: ('A' for Active; 'I' for Inactive)
REMARK    1  A    between atoms: C3'_2  and  C2'_3 
REMARK    2  A    between atoms: C2'_3  and  C1'_4 
REMARK    3  A    between atoms: C1'_4  and  C1_5 
ROOT
ATOM      1  C1  N4B d   1      -5.516   4.252   3.396  0.00  0.00    -0.075 A 
ATOM      2  C2  N4B d   1      -5.755   5.611   3.694  0.00  0.00     0.002 A 
ATOM      3  C3  N4B d   1      -5.985   6.000   4.991  0.00  0.00     0.002 A 
ATOM      4  C4  N4B d   1      -5.999   5.048   6.000  0.00  0.00    -0.004 A 
ATOM      5  C5  N4B d   1      -5.743   3.740   5.707  0.00  0.00     0.002 A 
ATOM      6  C6  N4B d   1      -5.506   3.336   4.409  0.00  0.00     0.002 A 
ENDROOT
BRANCH   1   7
ATOM      7  C1' N4B d   1      -5.345   3.767   1.982  0.00  0.00     0.057 C 
BRANCH   7   8
ATOM      8  C2' N4B d   1      -4.887   2.312   2.004  0.00  0.00     0.009 C 
BRANCH   8   9
ATOM      9  C3' N4B d   1      -5.245   1.584   0.720  0.00  0.00     0.004 C 
ATOM     10  C4' N4B d   1      -4.171   0.639   0.269  0.00  0.00     0.003 C 
ENDBRANCH   8   9
ENDBRANCH   7   8
ENDBRANCH   1   7
TORSDOF 3
ENDMDL
