MODEL 1
REMARK minimizedAffinity -1.38522863
REMARK minimizedRMSD -1
REMARK  0 active torsions:
REMARK  status: ('A' for Active; 'I' for Inactive)
ROOT
ATOM      1  N1  IND d   1      -0.632   2.925  -1.338  0.00  0.00    -0.196 N 
ATOM      2  C2  IND d   1      -0.892   2.051  -2.356  0.00  0.00     0.054 A 
ATOM      3  C3  IND d   1      -0.635   0.783  -1.965  0.00  0.00    -0.031 A 
ATOM      4  C4  IND d   1       0.121  -0.099   0.332  0.00  0.00     0.051 A 
ATOM      5  C5  IND d   1       0.522   0.322   1.569  0.00  0.00    -0.031 A 
ATOM      6  C6  IND d   1       0.557   1.659   1.908  0.00  0.00     0.015 A 
ATOM      7  C7  IND d   1       0.180   2.629   1.022  0.00  0.00    -0.016 A 
ATOM      8  C8  IND d   1      -0.221   2.205  -0.237  0.00  0.00    -0.047 A 
ATOM      9  C9  IND d   1      -0.219   0.852  -0.601  0.00  0.00    -0.096 A 
ATOM     10  HN1 IND d   1      -0.711   3.780  -1.377  0.00  0.00     0.298 HD
ENDROOT
TORSDOF 0
ENDMDL
