MODEL 1
REMARK minimizedAffinity 7.71255875
REMARK minimizedRMSD -1
REMARK  0 active torsions:
REMARK  status: ('A' for Active; 'I' for Inactive)
ROOT
ATOM      1  N1  IND d   1       0.913   0.865   3.480  0.00  0.00    -0.196 N 
ATOM      2  C2  IND d   1      -0.142   0.311   2.810  0.00  0.00     0.054 A 
ATOM      3  C3  IND d   1      -0.586   1.154   1.851  0.00  0.00    -0.031 A 
ATOM      4  C4  IND d   1       0.334   3.451   1.140  0.00  0.00     0.051 A 
ATOM      5  C5  IND d   1       1.265   4.392   1.482  0.00  0.00    -0.031 A 
ATOM      6  C6  IND d   1       2.146   4.199   2.527  0.00  0.00     0.015 A 
ATOM      7  C7  IND d   1       2.136   3.050   3.264  0.00  0.00    -0.016 A 
ATOM      8  C8  IND d   1       1.187   2.096   2.925  0.00  0.00    -0.047 A 
ATOM      9  C9  IND d   1       0.263   2.303   1.893  0.00  0.00    -0.096 A 
ATOM     10  HN1 IND d   1       1.335   0.505   4.137  0.00  0.00     0.298 HD
ENDROOT
TORSDOF 0
ENDMDL
