MODEL 1
REMARK minimizedAffinity 10.239048
REMARK minimizedRMSD -1
REMARK  0 active torsions:
REMARK  status: ('A' for Active; 'I' for Inactive)
ROOT
ATOM      1  N1  IND d   1      -0.560   0.969  -0.624  0.00  0.00    -0.196 N 
ATOM      2  C2  IND d   1       0.010  -0.041  -1.348  0.00  0.00     0.054 A 
ATOM      3  C3  IND d   1       0.796  -0.803  -0.554  0.00  0.00    -0.031 A 
ATOM      4  C4  IND d   1       1.213  -0.634   1.981  0.00  0.00     0.051 A 
ATOM      5  C5  IND d   1       0.941   0.148   3.067  0.00  0.00    -0.031 A 
ATOM      6  C6  IND d   1       0.136   1.266   2.978  0.00  0.00     0.015 A 
ATOM      7  C7  IND d   1      -0.439   1.637   1.795  0.00  0.00    -0.016 A 
ATOM      8  C8  IND d   1      -0.158   0.849   0.688  0.00  0.00    -0.047 A 
ATOM      9  C9  IND d   1       0.692  -0.262   0.764  0.00  0.00    -0.096 A 
ATOM     10  HN1 IND d   1      -1.081   1.578  -0.936  0.00  0.00     0.298 HD
ENDROOT
TORSDOF 0
ENDMDL
