MODEL 1
REMARK minimizedAffinity 3.35966849
REMARK minimizedRMSD -1
REMARK  0 active torsions:
REMARK  status: ('A' for Active; 'I' for Inactive)
ROOT
ATOM      1  N1  IND d   1       0.747   1.284   3.466  0.00  0.00    -0.196 N 
ATOM      2  C2  IND d   1       0.447  -0.020   3.185  0.00  0.00     0.054 A 
ATOM      3  C3  IND d   1       0.098  -0.153   1.886  0.00  0.00    -0.031 A 
ATOM      4  C4  IND d   1       0.046   1.617   0.017  0.00  0.00     0.051 A 
ATOM      5  C5  IND d   1       0.203   2.957  -0.203  0.00  0.00    -0.031 A 
ATOM      6  C6  IND d   1       0.559   3.824   0.810  0.00  0.00     0.015 A 
ATOM      7  C7  IND d   1       0.784   3.381   2.082  0.00  0.00    -0.016 A 
ATOM      8  C8  IND d   1       0.618   2.022   2.310  0.00  0.00    -0.047 A 
ATOM      9  C9  IND d   1       0.216   1.143   1.297  0.00  0.00    -0.096 A 
ATOM     10  HN1 IND d   1       0.977   1.591   4.236  0.00  0.00     0.298 HD
ENDROOT
TORSDOF 0
ENDMDL
