MODEL 1
REMARK minimizedAffinity 7.74321079
REMARK minimizedRMSD -1
REMARK  0 active torsions:
REMARK  status: ('A' for Active; 'I' for Inactive)
ROOT
ATOM      1  N1  IND d   1       1.099  -5.977  -0.131  0.00  0.00    -0.196 N 
ATOM      2  C2  IND d   1       2.326  -5.592   0.334  0.00  0.00     0.054 A 
ATOM      3  C3  IND d   1       2.444  -4.246   0.290  0.00  0.00    -0.031 A 
ATOM      4  C4  IND d   1       0.714  -2.474  -0.411  0.00  0.00     0.051 A 
ATOM      5  C5  IND d   1      -0.538  -2.342  -0.944  0.00  0.00    -0.031 A 
ATOM      6  C6  IND d   1      -1.324  -3.437  -1.237  0.00  0.00     0.015 A 
ATOM      7  C7  IND d   1      -0.891  -4.710  -0.996  0.00  0.00    -0.016 A 
ATOM      8  C8  IND d   1       0.382  -4.848  -0.461  0.00  0.00    -0.047 A 
ATOM      9  C9  IND d   1       1.201  -3.742  -0.201  0.00  0.00    -0.096 A 
ATOM     10  HN1 IND d   1       0.822  -6.787  -0.205  0.00  0.00     0.298 HD
ENDROOT
TORSDOF 0
ENDMDL
