MODEL 1
REMARK minimizedAffinity -1.41035581
REMARK minimizedRMSD -1
REMARK  0 active torsions:
REMARK  status: ('A' for Active; 'I' for Inactive)
ROOT
ATOM      1  N1  IND d   1       0.237   2.666  -1.296  0.00  0.00    -0.196 N 
ATOM      2  C2  IND d   1       0.313   4.017  -1.106  0.00  0.00     0.054 A 
ATOM      3  C3  IND d   1       0.390   4.303   0.213  0.00  0.00    -0.031 A 
ATOM      4  C4  IND d   1       0.509   2.706   2.229  0.00  0.00     0.051 A 
ATOM      5  C5  IND d   1       0.436   1.382   2.560  0.00  0.00    -0.031 A 
ATOM      6  C6  IND d   1       0.294   0.398   1.603  0.00  0.00     0.015 A 
ATOM      7  C7  IND d   1       0.229   0.702   0.273  0.00  0.00    -0.016 A 
ATOM      8  C8  IND d   1       0.295   2.046  -0.067  0.00  0.00    -0.047 A 
ATOM      9  C9  IND d   1       0.397   3.052   0.903  0.00  0.00    -0.096 A 
ATOM     10  HN1 IND d   1       0.164   2.269  -2.055  0.00  0.00     0.298 HD
ENDROOT
TORSDOF 0
ENDMDL
