MODEL 1
REMARK minimizedAffinity -1.67176199
REMARK minimizedRMSD -1
REMARK  0 active torsions:
REMARK  status: ('A' for Active; 'I' for Inactive)
ROOT
ATOM      1  N1  IND d   1      -0.515   1.803  -0.618  0.00  0.00    -0.196 N 
ATOM      2  C2  IND d   1       0.333   1.161   0.241  0.00  0.00     0.054 A 
ATOM      3  C3  IND d   1       0.013  -0.150   0.325  0.00  0.00    -0.031 A 
ATOM      4  C4  IND d   1      -1.798  -1.476  -0.936  0.00  0.00     0.051 A 
ATOM      5  C5  IND d   1      -2.844  -1.316  -1.801  0.00  0.00    -0.031 A 
ATOM      6  C6  IND d   1      -3.172  -0.084  -2.328  0.00  0.00     0.015 A 
ATOM      7  C7  IND d   1      -2.456   1.038  -2.018  0.00  0.00    -0.016 A 
ATOM      8  C8  IND d   1      -1.398   0.880  -1.135  0.00  0.00    -0.047 A 
ATOM      9  C9  IND d   1      -1.086  -0.360  -0.563  0.00  0.00    -0.096 A 
ATOM     10  HN1 IND d   1      -0.500   2.643  -0.804  0.00  0.00     0.298 HD
ENDROOT
TORSDOF 0
ENDMDL
