MODEL 1
REMARK minimizedAffinity 7.77617264
REMARK minimizedRMSD -1
REMARK  0 active torsions:
REMARK  status: ('A' for Active; 'I' for Inactive)
ROOT
ATOM      1  C1  BNZ d   1       2.204  -3.492  -1.866  0.00  0.00     0.000 A 
ATOM      2  C2  BNZ d   1       1.585  -2.874  -2.919  0.00  0.00     0.000 A 
ATOM      3  C3  BNZ d   1       1.353  -1.527  -2.902  0.00  0.00     0.000 A 
ATOM      4  C4  BNZ d   1       1.704  -0.808  -1.816  0.00  0.00     0.000 A 
ATOM      5  C5  BNZ d   1       2.321  -1.418  -0.742  0.00  0.00     0.000 A 
ATOM      6  C6  BNZ d   1       2.588  -2.767  -0.780  0.00  0.00     0.000 A 
ENDROOT
TORSDOF 0
ENDMDL
