MODEL 1
REMARK minimizedAffinity 7.58341455
REMARK minimizedRMSD -1
REMARK  0 active torsions:
REMARK  status: ('A' for Active; 'I' for Inactive)
ROOT
ATOM      1  C1  BNZ d   1       1.915  -1.439  -1.456  0.00  0.00     0.000 A 
ATOM      2  C2  BNZ d   1       2.861  -1.850  -0.555  0.00  0.00     0.000 A 
ATOM      3  C3  BNZ d   1       3.040  -3.179  -0.287  0.00  0.00     0.000 A 
ATOM      4  C4  BNZ d   1       2.248  -4.089  -0.887  0.00  0.00     0.000 A 
ATOM      5  C5  BNZ d   1       1.283  -3.690  -1.790  0.00  0.00     0.000 A 
ATOM      6  C6  BNZ d   1       1.131  -2.355  -2.087  0.00  0.00     0.000 A 
ENDROOT
TORSDOF 0
ENDMDL
