MODEL 1
REMARK minimizedAffinity 9.36799812
REMARK minimizedRMSD -1
REMARK  0 active torsions:
REMARK  status: ('A' for Active; 'I' for Inactive)
ROOT
ATOM      1  C1  BNZ d   1      -3.339  -4.425  -4.487  0.00  0.00     0.000 A 
ATOM      2  C2  BNZ d   1      -4.483  -4.484  -5.238  0.00  0.00     0.000 A 
ATOM      3  C3  BNZ d   1      -4.876  -3.419  -5.998  0.00  0.00     0.000 A 
ATOM      4  C4  BNZ d   1      -4.148  -2.284  -5.977  0.00  0.00     0.000 A 
ATOM      5  C5  BNZ d   1      -2.998  -2.205  -5.218  0.00  0.00     0.000 A 
ATOM      6  C6  BNZ d   1      -2.584  -3.293  -4.483  0.00  0.00     0.000 A 
ENDROOT
TORSDOF 0
ENDMDL
