MODEL 1
REMARK minimizedAffinity -2.59792113
REMARK minimizedRMSD -1
REMARK  0 active torsions:
REMARK  status: ('A' for Active; 'I' for Inactive)
ROOT
ATOM      1  C1  BNZ d   1       2.108  -1.995  -2.491  0.00  0.00     0.000 A 
ATOM      2  C2  BNZ d   1       2.750  -2.824  -1.610  0.00  0.00     0.000 A 
ATOM      3  C3  BNZ d   1       3.270  -2.338  -0.444  0.00  0.00     0.000 A 
ATOM      4  C4  BNZ d   1       3.183  -1.018  -0.178  0.00  0.00     0.000 A 
ATOM      5  C5  BNZ d   1       2.548  -0.168  -1.061  0.00  0.00     0.000 A 
ATOM      6  C6  BNZ d   1       1.991  -0.667  -2.216  0.00  0.00     0.000 A 
ENDROOT
TORSDOF 0
ENDMDL
