MODEL 1
REMARK minimizedAffinity 11.5885897
REMARK minimizedRMSD -1
REMARK  0 active torsions:
REMARK  status: ('A' for Active; 'I' for Inactive)
ROOT
ATOM      1  C1  BNZ d   1      -3.418  -0.162   3.032  0.00  0.00     0.000 A 
ATOM      2  C2  BNZ d   1      -2.223  -0.509   2.460  0.00  0.00     0.000 A 
ATOM      3  C3  BNZ d   1      -1.339   0.450   2.051  0.00  0.00     0.000 A 
ATOM      4  C4  BNZ d   1      -1.667   1.752   2.178  0.00  0.00     0.000 A 
ATOM      5  C5  BNZ d   1      -2.872   2.117   2.745  0.00  0.00     0.000 A 
ATOM      6  C6  BNZ d   1      -3.743   1.150   3.190  0.00  0.00     0.000 A 
ENDROOT
TORSDOF 0
ENDMDL
