MODEL 1
REMARK minimizedAffinity 3.31503057
REMARK minimizedRMSD -1
REMARK  0 active torsions:
REMARK  status: ('A' for Active; 'I' for Inactive)
ROOT
ATOM      1  C1  BNZ d   1      -2.986   3.751  -5.999  0.00  0.00     0.000 A 
ATOM      2  C2  BNZ d   1      -2.202   2.627  -5.995  0.00  0.00     0.000 A 
ATOM      3  C3  BNZ d   1      -1.243   2.447  -5.038  0.00  0.00     0.000 A 
ATOM      4  C4  BNZ d   1      -1.041   3.407  -4.112  0.00  0.00     0.000 A 
ATOM      5  C5  BNZ d   1      -1.817   4.549  -4.109  0.00  0.00     0.000 A 
ATOM      6  C6  BNZ d   1      -2.808   4.709  -5.050  0.00  0.00     0.000 A 
ENDROOT
TORSDOF 0
ENDMDL
