MODEL 1
REMARK minimizedAffinity 6.11845684
REMARK minimizedRMSD -1
REMARK  0 active torsions:
REMARK  status: ('A' for Active; 'I' for Inactive)
ROOT
ATOM      1  C1  BNZ d   1       2.344  -3.297  -0.657  0.00  0.00     0.000 A 
ATOM      2  C2  BNZ d   1       1.855  -3.771  -1.845  0.00  0.00     0.000 A 
ATOM      3  C3  BNZ d   1       1.374  -2.914  -2.795  0.00  0.00     0.000 A 
ATOM      4  C4  BNZ d   1       1.344  -1.590  -2.540  0.00  0.00     0.000 A 
ATOM      5  C5  BNZ d   1       1.825  -1.098  -1.343  0.00  0.00     0.000 A 
ATOM      6  C6  BNZ d   1       2.345  -1.959  -0.405  0.00  0.00     0.000 A 
ENDROOT
TORSDOF 0
ENDMDL
