MODEL 1
REMARK minimizedAffinity 2.60372043
REMARK minimizedRMSD -1
REMARK  0 active torsions:
REMARK  status: ('A' for Active; 'I' for Inactive)
ROOT
ATOM      1  C1  BNZ d   1       5.076   3.122  -0.341  0.00  0.00     0.000 A 
ATOM      2  C2  BNZ d   1       4.885   2.582   0.903  0.00  0.00     0.000 A 
ATOM      3  C3  BNZ d   1       3.626   2.418   1.409  0.00  0.00     0.000 A 
ATOM      4  C4  BNZ d   1       2.563   2.829   0.689  0.00  0.00     0.000 A 
ATOM      5  C5  BNZ d   1       2.740   3.384  -0.564  0.00  0.00     0.000 A 
ATOM      6  C6  BNZ d   1       4.006   3.512  -1.086  0.00  0.00     0.000 A 
ENDROOT
TORSDOF 0
ENDMDL
