MODEL 1
REMARK minimizedAffinity -1.15453696
REMARK minimizedRMSD -1
REMARK  0 active torsions:
REMARK  status: ('A' for Active; 'I' for Inactive)
ROOT
ATOM      1  C1  BNZ d   1      -4.951  -5.025  -6.000  0.00  0.00     0.000 A 
ATOM      2  C2  BNZ d   1      -5.454  -3.751  -5.993  0.00  0.00     0.000 A 
ATOM      3  C3  BNZ d   1      -4.619  -2.669  -5.996  0.00  0.00     0.000 A 
ATOM      4  C4  BNZ d   1      -3.284  -2.861  -5.965  0.00  0.00     0.000 A 
ATOM      5  C5  BNZ d   1      -2.762  -4.139  -5.962  0.00  0.00     0.000 A 
ATOM      6  C6  BNZ d   1      -3.605  -5.226  -5.998  0.00  0.00     0.000 A 
ENDROOT
TORSDOF 0
ENDMDL
