MODEL 1
REMARK minimizedAffinity 6.4888401
REMARK minimizedRMSD -1
REMARK  0 active torsions:
REMARK  status: ('A' for Active; 'I' for Inactive)
ROOT
ATOM      1  C1  BNZ d   1       4.037   1.837  -1.604  0.00  0.00     0.000 A 
ATOM      2  C2  BNZ d   1       2.835   2.102  -1.005  0.00  0.00     0.000 A 
ATOM      3  C3  BNZ d   1       2.773   2.461   0.313  0.00  0.00     0.000 A 
ATOM      4  C4  BNZ d   1       3.909   2.515   1.039  0.00  0.00     0.000 A 
ATOM      5  C5  BNZ d   1       5.128   2.242   0.451  0.00  0.00     0.000 A 
ATOM      6  C6  BNZ d   1       5.190   1.919  -0.885  0.00  0.00     0.000 A 
ENDROOT
TORSDOF 0
ENDMDL
