MODEL 1
REMARK minimizedAffinity 13.3343525
REMARK minimizedRMSD -1
REMARK  0 active torsions:
REMARK  status: ('A' for Active; 'I' for Inactive)
ROOT
ATOM      1  C1  BNZ d   1      -3.929  -0.753   2.059  0.00  0.00     0.000 A 
ATOM      2  C2  BNZ d   1      -4.954  -1.148   1.241  0.00  0.00     0.000 A 
ATOM      3  C3  BNZ d   1      -6.000  -1.879   1.731  0.00  0.00     0.000 A 
ATOM      4  C4  BNZ d   1      -6.000  -2.248   3.028  0.00  0.00     0.000 A 
ATOM      5  C5  BNZ d   1      -4.969  -1.866   3.864  0.00  0.00     0.000 A 
ATOM      6  C6  BNZ d   1      -3.938  -1.098   3.375  0.00  0.00     0.000 A 
ENDROOT
TORSDOF 0
ENDMDL
