MODEL 1
REMARK minimizedAffinity -2.33173609
REMARK minimizedRMSD -1
REMARK  1 active torsions:
REMARK  status: ('A' for Active; 'I' for Inactive)
REMARK    1  A    between atoms: C1_2  and  C2_3 
ROOT
ATOM      1  C2  UNL d   1      -2.034   0.511  -0.916  0.00  0.00    -0.073 A 
ATOM      2  C3  UNL d   1      -1.084   1.525  -0.753  0.00  0.00    -0.002 A 
ATOM      3  C4  UNL d   1       0.008   1.339   0.095  0.00  0.00     0.004 A 
ATOM      4  C5  UNL d   1       0.166   0.135   0.783  0.00  0.00    -0.004 A 
ATOM      5  C6  UNL d   1      -0.766  -0.895   0.624  0.00  0.00    -0.075 A 
ATOM      6  C7  UNL d   1      -0.613  -2.195   1.358  0.00  0.00     0.076 C 
ATOM      7  C8  UNL d   1      -1.862  -0.699  -0.227  0.00  0.00     0.001 A 
ENDROOT
BRANCH   1   8
ATOM      8  C1  UNL d   1      -3.212   0.705  -1.835  0.00  0.00     0.053 C 
ATOM      9  C   UNL d   1      -2.892   0.298  -3.265  0.00  0.00     0.018 C 
ENDBRANCH   1   8
TORSDOF 1
ENDMDL
