MODEL 1
REMARK minimizedAffinity -5.96444845
REMARK minimizedRMSD -1
REMARK  1 active torsions:
REMARK  status: ('A' for Active; 'I' for Inactive)
REMARK    1  A    between atoms: C1_2  and  C2_3 
ROOT
ATOM      1  C2  UNL d   1      -0.534  -0.168   0.200  0.00  0.00    -0.073 A 
ATOM      2  C3  UNL d   1      -0.996  -1.326   0.837  0.00  0.00    -0.002 A 
ATOM      3  C4  UNL d   1      -0.101  -2.179   1.483  0.00  0.00     0.004 A 
ATOM      4  C5  UNL d   1       1.262  -1.881   1.505  0.00  0.00    -0.004 A 
ATOM      5  C6  UNL d   1       1.741  -0.723   0.884  0.00  0.00    -0.075 A 
ATOM      6  C7  UNL d   1       3.204  -0.390   0.897  0.00  0.00     0.076 C 
ATOM      7  C8  UNL d   1       0.836   0.128   0.235  0.00  0.00     0.001 A 
ENDROOT
BRANCH   1   8
ATOM      8  C1  UNL d   1      -1.498   0.760  -0.494  0.00  0.00     0.053 C 
ATOM      9  C   UNL d   1      -2.131   0.114  -1.716  0.00  0.00     0.018 C 
ENDBRANCH   1   8
TORSDOF 1
ENDMDL
