MODEL 1
REMARK minimizedAffinity -0.744807839
REMARK minimizedRMSD -1
REMARK  1 active torsions:
REMARK  status: ('A' for Active; 'I' for Inactive)
REMARK    1  A    between atoms: C1_2  and  C2_3 
ROOT
ATOM      1  C2  UNL d   1      -0.094   0.542  -0.089  0.00  0.00    -0.073 A 
ATOM      2  C3  UNL d   1       0.976   1.438   0.021  0.00  0.00    -0.002 A 
ATOM      3  C4  UNL d   1       2.054   1.150   0.859  0.00  0.00     0.004 A 
ATOM      4  C5  UNL d   1       2.077  -0.038   1.589  0.00  0.00    -0.004 A 
ATOM      5  C6  UNL d   1       1.023  -0.951   1.484  0.00  0.00    -0.075 A 
ATOM      6  C7  UNL d   1       1.032  -2.233   2.265  0.00  0.00     0.076 C 
ATOM      7  C8  UNL d   1      -0.057  -0.654   0.642  0.00  0.00     0.001 A 
ENDROOT
BRANCH   1   8
ATOM      8  C1  UNL d   1      -1.257   0.846  -0.998  0.00  0.00     0.053 C 
ATOM      9  C   UNL d   1      -1.327  -0.114  -2.174  0.00  0.00     0.018 C 
ENDBRANCH   1   8
TORSDOF 1
ENDMDL
