MODEL 1
REMARK minimizedAffinity -5.88760233
REMARK minimizedRMSD -1
REMARK  1 active torsions:
REMARK  status: ('A' for Active; 'I' for Inactive)
REMARK    1  A    between atoms: C1_2  and  C2_3 
ROOT
ATOM      1  C2  UNL d   1      -0.212  -0.385  -0.003  0.00  0.00    -0.073 A 
ATOM      2  C3  UNL d   1      -1.133  -1.242   0.609  0.00  0.00    -0.002 A 
ATOM      3  C4  UNL d   1      -0.706  -2.178   1.552  0.00  0.00     0.004 A 
ATOM      4  C5  UNL d   1       0.643  -2.261   1.897  0.00  0.00    -0.004 A 
ATOM      5  C6  UNL d   1       1.577  -1.405   1.305  0.00  0.00    -0.075 A 
ATOM      6  C7  UNL d   1       3.031  -1.484   1.664  0.00  0.00     0.076 C 
ATOM      7  C8  UNL d   1       1.140  -0.470   0.357  0.00  0.00     0.001 A 
ENDROOT
BRANCH   1   8
ATOM      8  C1  UNL d   1      -0.670   0.631  -1.018  0.00  0.00     0.053 C 
ATOM      9  C   UNL d   1      -1.849   0.129  -1.836  0.00  0.00     0.018 C 
ENDBRANCH   1   8
TORSDOF 1
ENDMDL
