MODEL 1
REMARK minimizedAffinity -4.08392668
REMARK minimizedRMSD -1
REMARK  1 active torsions:
REMARK  status: ('A' for Active; 'I' for Inactive)
REMARK    1  A    between atoms: C1_2  and  C2_3 
ROOT
ATOM      1  C2  UNL d   1       0.653  -0.250  -0.099  0.00  0.00    -0.073 A 
ATOM      2  C3  UNL d   1       1.634   0.733   0.072  0.00  0.00    -0.002 A 
ATOM      3  C4  UNL d   1       2.805   0.446   0.775  0.00  0.00     0.004 A 
ATOM      4  C5  UNL d   1       3.010  -0.827   1.307  0.00  0.00    -0.004 A 
ATOM      5  C6  UNL d   1       2.046  -1.826   1.136  0.00  0.00    -0.075 A 
ATOM      6  C7  UNL d   1       2.250  -3.200   1.704  0.00  0.00     0.076 C 
ATOM      7  C8  UNL d   1       0.872  -1.529   0.431  0.00  0.00     0.001 A 
ENDROOT
BRANCH   1   8
ATOM      8  C1  UNL d   1      -0.610   0.054  -0.863  0.00  0.00     0.053 C 
ATOM      9  C   UNL d   1      -1.824   0.128   0.050  0.00  0.00     0.018 C 
ENDBRANCH   1   8
TORSDOF 1
ENDMDL
