MODEL 1
REMARK minimizedAffinity -2.64951038
REMARK minimizedRMSD -1
REMARK  1 active torsions:
REMARK  status: ('A' for Active; 'I' for Inactive)
REMARK    1  A    between atoms: C3_4  and  O_7 
ROOT
ATOM      1  C   UNL d   1       1.837   0.277  -4.044  0.00  0.00    -0.033 A 
ATOM      2  C1  UNL d   1       2.570   0.568  -2.893  0.00  0.00     0.039 A 
ATOM      3  C2  UNL d   1       2.038   0.284  -1.633  0.00  0.00    -0.080 A 
ATOM      4  C3  UNL d   1       0.774  -0.292  -1.540  0.00  0.00     0.150 A 
ATOM      5  C4  UNL d   1       0.039  -0.588  -2.683  0.00  0.00    -0.007 A 
ATOM      6  C5  UNL d   1       0.572  -0.302  -3.940  0.00  0.00     0.039 A 
ENDROOT
BRANCH   4   7
ATOM      7  O   UNL d   1       0.211  -0.584  -0.333  0.00  0.00    -0.526 OA
ATOM      8  H5  UNL d   1       0.821  -0.298   0.368  0.00  0.00     0.418 HD
ENDBRANCH   4   7
TORSDOF 1
ENDMDL
