MODEL 1
REMARK minimizedAffinity -4.01116896
REMARK minimizedRMSD -1
REMARK  1 active torsions:
REMARK  status: ('A' for Active; 'I' for Inactive)
REMARK    1  A    between atoms: C3_4  and  O_7 
ROOT
ATOM      1  C   UNL d   1      -0.299  -0.063  -0.120  0.00  0.00    -0.033 A 
ATOM      2  C1  UNL d   1      -1.602  -0.067   0.382  0.00  0.00     0.039 A 
ATOM      3  C2  UNL d   1      -1.872   0.497   1.631  0.00  0.00    -0.080 A 
ATOM      4  C3  UNL d   1      -0.832   1.062   2.364  0.00  0.00     0.150 A 
ATOM      5  C4  UNL d   1       0.467   1.073   1.868  0.00  0.00    -0.007 A 
ATOM      6  C5  UNL d   1       0.735   0.508   0.622  0.00  0.00     0.039 A 
ENDROOT
BRANCH   4   7
ATOM      7  O   UNL d   1      -1.046   1.620   3.590  0.00  0.00    -0.526 OA
ATOM      8  H5  UNL d   1      -1.985   1.515   3.816  0.00  0.00     0.418 HD
ENDBRANCH   4   7
TORSDOF 1
ENDMDL
