MODEL 1
REMARK minimizedAffinity -4.34256887
REMARK minimizedRMSD -1
REMARK  1 active torsions:
REMARK  status: ('A' for Active; 'I' for Inactive)
REMARK    1  A    between atoms: C3_4  and  O_7 
ROOT
ATOM      1  C   UNL d   1      -0.413  -0.484  -0.419  0.00  0.00    -0.033 A 
ATOM      2  C1  UNL d   1       0.672  -0.026   0.331  0.00  0.00     0.039 A 
ATOM      3  C2  UNL d   1       0.457   0.736   1.481  0.00  0.00    -0.080 A 
ATOM      4  C3  UNL d   1      -0.847   1.033   1.869  0.00  0.00     0.150 A 
ATOM      5  C4  UNL d   1      -1.933   0.577   1.129  0.00  0.00    -0.007 A 
ATOM      6  C5  UNL d   1      -1.715  -0.184  -0.019  0.00  0.00     0.039 A 
ENDROOT
BRANCH   4   7
ATOM      7  O   UNL d   1      -1.107   1.778   2.981  0.00  0.00    -0.526 OA
ATOM      8  H5  UNL d   1      -0.261   2.048   3.376  0.00  0.00     0.418 HD
ENDBRANCH   4   7
TORSDOF 1
ENDMDL
