MODEL 1
REMARK minimizedAffinity -2.87281203
REMARK minimizedRMSD -1
REMARK  1 active torsions:
REMARK  status: ('A' for Active; 'I' for Inactive)
REMARK    1  A    between atoms: C3_4  and  O_7 
ROOT
ATOM      1  C   UNL d   1      -0.405  -0.268  -0.690  0.00  0.00    -0.033 A 
ATOM      2  C1  UNL d   1       0.660   0.250   0.050  0.00  0.00     0.039 A 
ATOM      3  C2  UNL d   1       0.436   0.777   1.323  0.00  0.00    -0.080 A 
ATOM      4  C3  UNL d   1      -0.855   0.780   1.844  0.00  0.00     0.150 A 
ATOM      5  C4  UNL d   1      -1.920   0.261   1.114  0.00  0.00    -0.007 A 
ATOM      6  C5  UNL d   1      -1.694  -0.264  -0.157  0.00  0.00     0.039 A 
ENDROOT
BRANCH   4   7
ATOM      7  O   UNL d   1      -1.123   1.288   3.081  0.00  0.00    -0.526 OA
ATOM      8  H5  UNL d   1      -0.297   1.636   3.456  0.00  0.00     0.418 HD
ENDBRANCH   4   7
TORSDOF 1
ENDMDL
