MODEL 1
REMARK minimizedAffinity -3.93381691
REMARK minimizedRMSD -1
REMARK  1 active torsions:
REMARK  status: ('A' for Active; 'I' for Inactive)
REMARK    1  A    between atoms: C3_4  and  O_7 
ROOT
ATOM      1  C   UNL d   1       0.373   1.548   1.158  0.00  0.00    -0.033 A 
ATOM      2  C1  UNL d   1      -0.392   0.582   0.499  0.00  0.00     0.039 A 
ATOM      3  C2  UNL d   1      -1.486  -0.001   1.140  0.00  0.00    -0.080 A 
ATOM      4  C3  UNL d   1      -1.806   0.389   2.437  0.00  0.00     0.150 A 
ATOM      5  C4  UNL d   1      -1.051   1.353   3.098  0.00  0.00    -0.007 A 
ATOM      6  C5  UNL d   1       0.042   1.934   2.457  0.00  0.00     0.039 A 
ENDROOT
BRANCH   4   7
ATOM      7  O   UNL d   1      -2.862  -0.156   3.106  0.00  0.00    -0.526 OA
ATOM      8  H5  UNL d   1      -3.273  -0.828   2.536  0.00  0.00     0.418 HD
ENDBRANCH   4   7
TORSDOF 1
ENDMDL
