MODEL 1
REMARK minimizedAffinity -0.645210385
REMARK minimizedRMSD -1
REMARK  1 active torsions:
REMARK  status: ('A' for Active; 'I' for Inactive)
REMARK    1  A    between atoms: C3_4  and  O_7 
ROOT
ATOM      1  C   UNL d   1      -1.711   0.198   0.337  0.00  0.00    -0.033 A 
ATOM      2  C1  UNL d   1      -1.340   0.074   1.677  0.00  0.00     0.039 A 
ATOM      3  C2  UNL d   1      -0.088  -0.444   2.012  0.00  0.00    -0.080 A 
ATOM      4  C3  UNL d   1       0.784  -0.833   0.999  0.00  0.00     0.150 A 
ATOM      5  C4  UNL d   1       0.423  -0.709  -0.338  0.00  0.00    -0.007 A 
ATOM      6  C5  UNL d   1      -0.828  -0.192  -0.671  0.00  0.00     0.039 A 
ENDROOT
BRANCH   4   7
ATOM      7  O   UNL d   1       2.015  -1.348   1.278  0.00  0.00    -0.526 OA
ATOM      8  H5  UNL d   1       2.115  -1.401   2.243  0.00  0.00     0.418 HD
ENDBRANCH   4   7
TORSDOF 1
ENDMDL
