MODEL 1
REMARK minimizedAffinity -4.53702688
REMARK minimizedRMSD -1
REMARK  1 active torsions:
REMARK  status: ('A' for Active; 'I' for Inactive)
REMARK    1  A    between atoms: C3_4  and  O_7 
ROOT
ATOM      1  C   UNL d   1      -0.301  -0.167   0.414  0.00  0.00    -0.033 A 
ATOM      2  C1  UNL d   1      -1.434  -0.458   1.176  0.00  0.00     0.039 A 
ATOM      3  C2  UNL d   1      -1.758   0.335   2.279  0.00  0.00    -0.080 A 
ATOM      4  C3  UNL d   1      -0.943   1.414   2.608  0.00  0.00     0.150 A 
ATOM      5  C4  UNL d   1       0.185   1.712   1.851  0.00  0.00    -0.007 A 
ATOM      6  C5  UNL d   1       0.508   0.919   0.751  0.00  0.00     0.039 A 
ENDROOT
BRANCH   4   7
ATOM      7  O   UNL d   1      -1.217   2.213   3.678  0.00  0.00    -0.526 OA
ATOM      8  H5  UNL d   1      -2.009   1.871   4.123  0.00  0.00     0.418 HD
ENDBRANCH   4   7
TORSDOF 1
ENDMDL
