MODEL 1
REMARK minimizedAffinity 8.90572929
REMARK minimizedRMSD -1
REMARK  0 active torsions:
REMARK  status: ('A' for Active; 'I' for Inactive)
ROOT
ATOM      1  C   UNL d   1       1.367   1.698  -0.451  0.00  0.00     0.124 A 
ATOM      2  C1  UNL d   1       0.850   0.429  -0.672  0.00  0.00     0.062 A 
ATOM      3  C2  UNL d   1       0.057  -0.182   0.295  0.00  0.00     0.162 A 
ATOM      4  C3  UNL d   1      -0.226   0.477   1.492  0.00  0.00    -0.034 A 
ATOM      5  C4  UNL d   1       0.298   1.753   1.707  0.00  0.00     0.162 A 
ATOM      6  C5  UNL d   1       1.090   2.359   0.738  0.00  0.00     0.062 A 
ATOM      7  F   UNL d   1       1.588   3.585   0.953  0.00  0.00    -0.097 F 
ATOM      8  F1  UNL d   1       0.046   2.414   2.847  0.00  0.00    -0.096 F 
ATOM      9  I   UNL d   1      -1.411  -0.433   2.941  0.00  0.00    -0.060 I 
ATOM     10  F2  UNL d   1      -0.429  -1.409   0.055  0.00  0.00    -0.096 F 
ATOM     11  F3  UNL d   1       1.117  -0.211  -1.819  0.00  0.00    -0.097 F 
ATOM     12  F4  UNL d   1       2.130   2.283  -1.383  0.00  0.00    -0.092 F 
ENDROOT
TORSDOF 0
ENDMDL
