MODEL 1
REMARK minimizedAffinity 19.8666973
REMARK minimizedRMSD -1
REMARK  0 active torsions:
REMARK  status: ('A' for Active; 'I' for Inactive)
ROOT
ATOM      1  C   UNL d   1      -2.302   2.916  -1.281  0.00  0.00     0.124 A 
ATOM      2  C1  UNL d   1      -1.487   4.014  -1.040  0.00  0.00     0.062 A 
ATOM      3  C2  UNL d   1      -1.149   4.877  -2.078  0.00  0.00     0.162 A 
ATOM      4  C3  UNL d   1      -1.627   4.647  -3.368  0.00  0.00    -0.034 A 
ATOM      5  C4  UNL d   1      -2.446   3.541  -3.604  0.00  0.00     0.162 A 
ATOM      6  C5  UNL d   1      -2.781   2.681  -2.562  0.00  0.00     0.062 A 
ATOM      7  F   UNL d   1      -3.568   1.622  -2.798  0.00  0.00    -0.097 F 
ATOM      8  F1  UNL d   1      -2.923   3.290  -4.832  0.00  0.00    -0.096 F 
ATOM      9  I   UNL d   1      -1.125   5.935  -4.924  0.00  0.00    -0.060 I 
ATOM     10  F2  UNL d   1      -0.359   5.929  -1.816  0.00  0.00    -0.096 F 
ATOM     11  F3  UNL d   1      -1.022   4.243   0.197  0.00  0.00    -0.097 F 
ATOM     12  F4  UNL d   1      -2.624   2.087  -0.281  0.00  0.00    -0.092 F 
ENDROOT
TORSDOF 0
ENDMDL
