MODEL 1
REMARK minimizedAffinity 19.7445717
REMARK minimizedRMSD -1
REMARK  0 active torsions:
REMARK  status: ('A' for Active; 'I' for Inactive)
ROOT
ATOM      1  C   UNL d   1       0.641   0.930   1.858  0.00  0.00     0.124 A 
ATOM      2  C1  UNL d   1       0.933   1.047   0.506  0.00  0.00     0.062 A 
ATOM      3  C2  UNL d   1       2.211   0.755   0.038  0.00  0.00     0.162 A 
ATOM      4  C3  UNL d   1       3.207   0.341   0.922  0.00  0.00    -0.034 A 
ATOM      5  C4  UNL d   1       2.906   0.227   2.281  0.00  0.00     0.162 A 
ATOM      6  C5  UNL d   1       1.627   0.520   2.744  0.00  0.00     0.062 A 
ATOM      7  F   UNL d   1       1.347   0.406   4.050  0.00  0.00    -0.097 F 
ATOM      8  F1  UNL d   1       3.840  -0.169   3.159  0.00  0.00    -0.096 F 
ATOM      9  I   UNL d   1       5.119  -0.097   0.226  0.00  0.00    -0.060 I 
ATOM     10  F2  UNL d   1       2.465   0.877  -1.274  0.00  0.00    -0.096 F 
ATOM     11  F3  UNL d   1      -0.018   1.445  -0.352  0.00  0.00    -0.097 F 
ATOM     12  F4  UNL d   1      -0.589   1.213   2.306  0.00  0.00    -0.092 F 
ENDROOT
TORSDOF 0
ENDMDL
