MODEL 1
REMARK minimizedAffinity 28.6859436
REMARK minimizedRMSD -1
REMARK  0 active torsions:
REMARK  status: ('A' for Active; 'I' for Inactive)
ROOT
ATOM      1  C   UNL d   1      -2.589   0.137   0.241  0.00  0.00     0.124 A 
ATOM      2  C1  UNL d   1      -2.773  -0.673   1.353  0.00  0.00     0.062 A 
ATOM      3  C2  UNL d   1      -1.791  -0.745   2.337  0.00  0.00     0.162 A 
ATOM      4  C3  UNL d   1      -0.616  -0.005   2.214  0.00  0.00    -0.034 A 
ATOM      5  C4  UNL d   1      -0.437   0.807   1.092  0.00  0.00     0.162 A 
ATOM      6  C5  UNL d   1      -1.421   0.876   0.111  0.00  0.00     0.062 A 
ATOM      7  F   UNL d   1      -1.241   1.659  -0.962  0.00  0.00    -0.097 F 
ATOM      8  F1  UNL d   1       0.682   1.532   0.942  0.00  0.00    -0.096 F 
ATOM      9  I   UNL d   1       0.855  -0.111   3.682  0.00  0.00    -0.060 I 
ATOM     10  F2  UNL d   1      -1.997  -1.536   3.400  0.00  0.00    -0.096 F 
ATOM     11  F3  UNL d   1      -3.900  -1.388   1.480  0.00  0.00    -0.097 F 
ATOM     12  F4  UNL d   1      -3.535   0.205  -0.705  0.00  0.00    -0.092 F 
ENDROOT
TORSDOF 0
ENDMDL
