MODEL 1
REMARK minimizedAffinity 1.1475383
REMARK minimizedRMSD -1
REMARK  0 active torsions:
REMARK  status: ('A' for Active; 'I' for Inactive)
ROOT
ATOM      1  C   UNL d   1       0.375   1.280   1.221  0.00  0.00     0.124 A 
ATOM      2  C1  UNL d   1      -0.603   0.302   1.102  0.00  0.00     0.062 A 
ATOM      3  C2  UNL d   1      -0.838  -0.307  -0.128  0.00  0.00     0.162 A 
ATOM      4  C3  UNL d   1      -0.093   0.059  -1.248  0.00  0.00    -0.034 A 
ATOM      5  C4  UNL d   1       0.888   1.044  -1.121  0.00  0.00     0.162 A 
ATOM      6  C5  UNL d   1       1.120   1.650   0.110  0.00  0.00     0.062 A 
ATOM      7  F   UNL d   1       2.065   2.594   0.223  0.00  0.00    -0.097 F 
ATOM      8  F1  UNL d   1       1.623   1.421  -2.178  0.00  0.00    -0.096 F 
ATOM      9  I   UNL d   1      -0.441  -0.849  -3.088  0.00  0.00    -0.060 I 
ATOM     10  F2  UNL d   1      -1.789  -1.249  -0.213  0.00  0.00    -0.096 F 
ATOM     11  F3  UNL d   1      -1.324  -0.057   2.174  0.00  0.00    -0.097 F 
ATOM     12  F4  UNL d   1       0.598   1.865   2.405  0.00  0.00    -0.092 F 
ENDROOT
TORSDOF 0
ENDMDL
