MODEL 1
REMARK minimizedAffinity 29.6808109
REMARK minimizedRMSD -1
REMARK  0 active torsions:
REMARK  status: ('A' for Active; 'I' for Inactive)
ROOT
ATOM      1  C   UNL d   1      -3.314   1.134   1.504  0.00  0.00     0.124 A 
ATOM      2  C1  UNL d   1      -2.903  -0.190   1.436  0.00  0.00     0.062 A 
ATOM      3  C2  UNL d   1      -3.228  -0.969   0.330  0.00  0.00     0.162 A 
ATOM      4  C3  UNL d   1      -3.969  -0.425  -0.720  0.00  0.00    -0.034 A 
ATOM      5  C4  UNL d   1      -4.380   0.907  -0.644  0.00  0.00     0.162 A 
ATOM      6  C5  UNL d   1      -4.052   1.681   0.464  0.00  0.00     0.062 A 
ATOM      7  F   UNL d   1      -4.450   2.960   0.527  0.00  0.00    -0.097 F 
ATOM      8  F1  UNL d   1      -5.093   1.461  -1.636  0.00  0.00    -0.096 F 
ATOM      9  I   UNL d   1      -4.458  -1.586  -2.377  0.00  0.00    -0.060 I 
ATOM     10  F2  UNL d   1      -2.818  -2.245   0.291  0.00  0.00    -0.096 F 
ATOM     11  F3  UNL d   1      -2.190  -0.722   2.440  0.00  0.00    -0.097 F 
ATOM     12  F4  UNL d   1      -3.000   1.880   2.570  0.00  0.00    -0.092 F 
ENDROOT
TORSDOF 0
ENDMDL
