MODEL 1
REMARK minimizedAffinity 16.0655136
REMARK minimizedRMSD -1
REMARK  0 active torsions:
REMARK  status: ('A' for Active; 'I' for Inactive)
ROOT
ATOM      1  C   UNL d   1       1.312   0.811  -0.561  0.00  0.00     0.124 A 
ATOM      2  C1  UNL d   1       1.607   1.202   0.738  0.00  0.00     0.062 A 
ATOM      3  C2  UNL d   1       0.815   0.767   1.796  0.00  0.00     0.162 A 
ATOM      4  C3  UNL d   1      -0.280  -0.065   1.561  0.00  0.00    -0.034 A 
ATOM      5  C4  UNL d   1      -0.571  -0.452   0.252  0.00  0.00     0.162 A 
ATOM      6  C5  UNL d   1       0.224  -0.015  -0.803  0.00  0.00     0.062 A 
ATOM      7  F   UNL d   1      -0.063  -0.393  -2.057  0.00  0.00    -0.097 F 
ATOM      8  F1  UNL d   1      -1.616  -1.251  -0.010  0.00  0.00    -0.096 F 
ATOM      9  I   UNL d   1      -1.467  -0.717   3.141  0.00  0.00    -0.060 I 
ATOM     10  F2  UNL d   1       1.124   1.160   3.041  0.00  0.00    -0.096 F 
ATOM     11  F3  UNL d   1       2.658   2.001   0.973  0.00  0.00    -0.097 F 
ATOM     12  F4  UNL d   1       2.075   1.232  -1.578  0.00  0.00    -0.092 F 
ENDROOT
TORSDOF 0
ENDMDL
