MODEL 1
REMARK minimizedAffinity 3.39334822
REMARK minimizedRMSD -1
REMARK  0 active torsions:
REMARK  status: ('A' for Active; 'I' for Inactive)
ROOT
ATOM      1  C   UNL d   1      -2.450   5.990  -1.821  0.00  0.00     0.124 A 
ATOM      2  C1  UNL d   1      -1.062   5.986  -1.796  0.00  0.00     0.062 A 
ATOM      3  C2  UNL d   1      -0.341   5.986  -2.987  0.00  0.00     0.162 A 
ATOM      4  C3  UNL d   1      -1.006   5.991  -4.213  0.00  0.00    -0.034 A 
ATOM      5  C4  UNL d   1      -2.402   5.995  -4.229  0.00  0.00     0.162 A 
ATOM      6  C5  UNL d   1      -3.118   5.995  -3.037  0.00  0.00     0.062 A 
ATOM      7  F   UNL d   1      -4.459   5.999  -3.062  0.00  0.00    -0.097 F 
ATOM      8  F1  UNL d   1      -3.074   6.000  -5.390  0.00  0.00    -0.096 F 
ATOM      9  I   UNL d   1       0.068   5.992  -5.995  0.00  0.00    -0.060 I 
ATOM     10  F2  UNL d   1       0.999   5.982  -2.933  0.00  0.00    -0.096 F 
ATOM     11  F3  UNL d   1      -0.413   5.981  -0.623  0.00  0.00    -0.097 F 
ATOM     12  F4  UNL d   1      -3.141   5.989  -0.674  0.00  0.00    -0.092 F 
ENDROOT
TORSDOF 0
ENDMDL
