MODEL 1
REMARK minimizedAffinity 10.3913326
REMARK minimizedRMSD -1
REMARK  0 active torsions:
REMARK  status: ('A' for Active; 'I' for Inactive)
ROOT
ATOM      1  C   UNL d   1      -0.894  -0.127   2.086  0.00  0.00     0.124 A 
ATOM      2  C1  UNL d   1      -0.377  -0.651   0.910  0.00  0.00     0.062 A 
ATOM      3  C2  UNL d   1       0.508   0.097   0.140  0.00  0.00     0.162 A 
ATOM      4  C3  UNL d   1       0.882   1.379   0.543  0.00  0.00    -0.034 A 
ATOM      5  C4  UNL d   1       0.357   1.900   1.727  0.00  0.00     0.162 A 
ATOM      6  C5  UNL d   1      -0.527   1.148   2.493  0.00  0.00     0.062 A 
ATOM      7  F   UNL d   1      -1.026   1.657   3.629  0.00  0.00    -0.097 F 
ATOM      8  F1  UNL d   1       0.696   3.129   2.144  0.00  0.00    -0.096 F 
ATOM      9  I   UNL d   1       2.205   2.501  -0.607  0.00  0.00    -0.060 I 
ATOM     10  F2  UNL d   1       0.992  -0.435  -0.992  0.00  0.00    -0.096 F 
ATOM     11  F3  UNL d   1      -0.731  -1.883   0.515  0.00  0.00    -0.097 F 
ATOM     12  F4  UNL d   1      -1.746  -0.849   2.826  0.00  0.00    -0.092 F 
ENDROOT
TORSDOF 0
ENDMDL
