MODEL 1
REMARK minimizedAffinity 6.94073725
REMARK minimizedRMSD -1
REMARK  0 active torsions:
REMARK  status: ('A' for Active; 'I' for Inactive)
ROOT
ATOM      1  C   UNL d   1       1.241   1.722  -0.058  0.00  0.00     0.124 A 
ATOM      2  C1  UNL d   1       1.049   2.240   1.215  0.00  0.00     0.062 A 
ATOM      3  C2  UNL d   1       0.221   1.582   2.120  0.00  0.00     0.162 A 
ATOM      4  C3  UNL d   1      -0.420   0.398   1.756  0.00  0.00    -0.034 A 
ATOM      5  C4  UNL d   1      -0.222  -0.116   0.473  0.00  0.00     0.162 A 
ATOM      6  C5  UNL d   1       0.606   0.545  -0.428  0.00  0.00     0.062 A 
ATOM      7  F   UNL d   1       0.791   0.044  -1.658  0.00  0.00    -0.097 F 
ATOM      8  F1  UNL d   1      -0.823  -1.252   0.090  0.00  0.00    -0.096 F 
ATOM      9  I   UNL d   1      -1.659  -0.588   3.106  0.00  0.00    -0.060 I 
ATOM     10  F2  UNL d   1       0.053   2.106   3.344  0.00  0.00    -0.096 F 
ATOM     11  F3  UNL d   1       1.661   3.378   1.574  0.00  0.00    -0.097 F 
ATOM     12  F4  UNL d   1       2.038   2.358  -0.928  0.00  0.00    -0.092 F 
ENDROOT
TORSDOF 0
ENDMDL
