MODEL 1
REMARK minimizedAffinity 4.61174774
REMARK minimizedRMSD -1
REMARK  0 active torsions:
REMARK  status: ('A' for Active; 'I' for Inactive)
ROOT
ATOM      1  C   UNL d   1       1.312   2.167   0.434  0.00  0.00     0.124 A 
ATOM      2  C1  UNL d   1       0.709   1.674   1.582  0.00  0.00     0.062 A 
ATOM      3  C2  UNL d   1      -0.058   0.513   1.526  0.00  0.00     0.162 A 
ATOM      4  C3  UNL d   1      -0.225  -0.163   0.317  0.00  0.00    -0.034 A 
ATOM      5  C4  UNL d   1       0.385   0.341  -0.834  0.00  0.00     0.162 A 
ATOM      6  C5  UNL d   1       1.150   1.501  -0.773  0.00  0.00     0.062 A 
ATOM      7  F   UNL d   1       1.732   1.976  -1.883  0.00  0.00    -0.097 F 
ATOM      8  F1  UNL d   1       0.245  -0.284  -2.012  0.00  0.00    -0.096 F 
ATOM      9  I   UNL d   1      -1.370  -1.898   0.230  0.00  0.00    -0.060 I 
ATOM     10  F2  UNL d   1      -0.630   0.059   2.651  0.00  0.00    -0.096 F 
ATOM     11  F3  UNL d   1       0.863   2.317   2.748  0.00  0.00    -0.097 F 
ATOM     12  F4  UNL d   1       2.048   3.285   0.490  0.00  0.00    -0.092 F 
ENDROOT
TORSDOF 0
ENDMDL
