MODEL 1
REMARK minimizedAffinity 9.39449978
REMARK minimizedRMSD -1
REMARK  0 active torsions:
REMARK  status: ('A' for Active; 'I' for Inactive)
ROOT
ATOM      1  C   UNL d   1       1.414   1.527   0.337  0.00  0.00     0.124 A 
ATOM      2  C1  UNL d   1       1.278   1.921   1.661  0.00  0.00     0.062 A 
ATOM      3  C2  UNL d   1       0.416   1.233   2.511  0.00  0.00     0.162 A 
ATOM      4  C3  UNL d   1      -0.316   0.144   2.039  0.00  0.00    -0.034 A 
ATOM      5  C4  UNL d   1      -0.175  -0.246   0.706  0.00  0.00     0.162 A 
ATOM      6  C5  UNL d   1       0.688   0.445  -0.139  0.00  0.00     0.062 A 
ATOM      7  F   UNL d   1       0.818   0.063  -1.418  0.00  0.00    -0.097 F 
ATOM      8  F1  UNL d   1      -0.864  -1.289   0.220  0.00  0.00    -0.096 F 
ATOM      9  I   UNL d   1      -1.605  -0.887   3.307  0.00  0.00    -0.060 I 
ATOM     10  F2  UNL d   1       0.305   1.636   3.785  0.00  0.00    -0.096 F 
ATOM     11  F3  UNL d   1       1.977   2.967   2.123  0.00  0.00    -0.097 F 
ATOM     12  F4  UNL d   1       2.242   2.191  -0.479  0.00  0.00    -0.092 F 
ENDROOT
TORSDOF 0
ENDMDL
