MODEL 1
REMARK minimizedAffinity 2.14977717
REMARK minimizedRMSD -1
REMARK  1 active torsions:
REMARK  status: ('A' for Active; 'I' for Inactive)
REMARK    1  A    between atoms: C1_2  and  C2_3 
ROOT
ATOM      1  C2  UNL d   1      -0.330   1.077   1.037  0.00  0.00    -0.073 A 
ATOM      2  C3  UNL d   1       0.584   0.148   0.527  0.00  0.00    -0.002 A 
ATOM      3  C4  UNL d   1       0.503  -1.195   0.897  0.00  0.00     0.004 A 
ATOM      4  C5  UNL d   1      -0.494  -1.624   1.774  0.00  0.00    -0.004 A 
ATOM      5  C6  UNL d   1      -1.423  -0.712   2.284  0.00  0.00    -0.075 A 
ATOM      6  C7  UNL d   1      -2.500  -1.157   3.230  0.00  0.00     0.076 C 
ATOM      7  C8  UNL d   1      -1.334   0.635   1.910  0.00  0.00     0.001 A 
ENDROOT
BRANCH   1   8
ATOM      8  C1  UNL d   1      -0.251   2.527   0.635  0.00  0.00     0.053 C 
ATOM      9  C   UNL d   1      -1.493   2.979  -0.118  0.00  0.00     0.018 C 
ENDBRANCH   1   8
TORSDOF 1
ENDMDL
