MODEL 1
REMARK minimizedAffinity 6.15360355
REMARK minimizedRMSD -1
REMARK  1 active torsions:
REMARK  status: ('A' for Active; 'I' for Inactive)
REMARK    1  A    between atoms: C1_2  and  C2_3 
ROOT
ATOM      1  C2  UNL d   1      -0.837  -1.342   1.442  0.00  0.00    -0.073 A 
ATOM      2  C3  UNL d   1      -2.098  -1.702   1.932  0.00  0.00    -0.002 A 
ATOM      3  C4  UNL d   1      -2.962  -0.729   2.435  0.00  0.00     0.004 A 
ATOM      4  C5  UNL d   1      -2.578   0.612   2.449  0.00  0.00    -0.004 A 
ATOM      5  C6  UNL d   1      -1.327   0.993   1.953  0.00  0.00    -0.075 A 
ATOM      6  C7  UNL d   1      -0.898   2.431   1.963  0.00  0.00     0.076 C 
ATOM      7  C8  UNL d   1      -0.464   0.010   1.452  0.00  0.00     0.001 A 
ENDROOT
BRANCH   1   8
ATOM      8  C1  UNL d   1       0.097  -2.388   0.892  0.00  0.00     0.053 C 
ATOM      9  C   UNL d   1       1.031  -1.819  -0.165  0.00  0.00     0.018 C 
ENDBRANCH   1   8
TORSDOF 1
ENDMDL
