MODEL 1
REMARK minimizedAffinity 3.03934336
REMARK minimizedRMSD -1
REMARK  1 active torsions:
REMARK  status: ('A' for Active; 'I' for Inactive)
REMARK    1  A    between atoms: C1_2  and  C2_3 
ROOT
ATOM      1  C2  UNL d   1       1.604   2.331   0.755  0.00  0.00    -0.073 A 
ATOM      2  C3  UNL d   1       0.997   2.724  -0.443  0.00  0.00    -0.002 A 
ATOM      3  C4  UNL d   1      -0.336   3.138  -0.455  0.00  0.00     0.004 A 
ATOM      4  C5  UNL d   1      -1.071   3.170   0.730  0.00  0.00    -0.004 A 
ATOM      5  C6  UNL d   1      -0.478   2.793   1.939  0.00  0.00    -0.075 A 
ATOM      6  C7  UNL d   1      -1.256   2.820   3.221  0.00  0.00     0.076 C 
ATOM      7  C8  UNL d   1       0.860   2.376   1.942  0.00  0.00     0.001 A 
ENDROOT
BRANCH   1   8
ATOM      8  C1  UNL d   1       3.045   1.889   0.773  0.00  0.00     0.053 C 
ATOM      9  C   UNL d   1       3.714   2.182   2.107  0.00  0.00     0.018 C 
ENDBRANCH   1   8
TORSDOF 1
ENDMDL
