MODEL 1
REMARK minimizedAffinity 1.63526142
REMARK minimizedRMSD -1
REMARK  1 active torsions:
REMARK  status: ('A' for Active; 'I' for Inactive)
REMARK    1  A    between atoms: C1_2  and  C2_3 
ROOT
ATOM      1  C2  UNL d   1       1.425  -5.282  -2.562  0.00  0.00    -0.073 A 
ATOM      2  C3  UNL d   1       0.718  -5.643  -3.715  0.00  0.00    -0.002 A 
ATOM      3  C4  UNL d   1       1.400  -5.997  -4.879  0.00  0.00     0.004 A 
ATOM      4  C5  UNL d   1       2.795  -6.000  -4.902  0.00  0.00    -0.004 A 
ATOM      5  C6  UNL d   1       3.520  -5.654  -3.757  0.00  0.00    -0.075 A 
ATOM      6  C7  UNL d   1       5.020  -5.650  -3.766  0.00  0.00     0.076 C 
ATOM      7  C8  UNL d   1       2.827  -5.297  -2.592  0.00  0.00     0.001 A 
ENDROOT
BRANCH   1   8
ATOM      8  C1  UNL d   1       0.693  -4.905  -1.301  0.00  0.00     0.053 C 
ATOM      9  C   UNL d   1      -0.574  -4.115  -1.591  0.00  0.00     0.018 C 
ENDBRANCH   1   8
TORSDOF 1
ENDMDL
