MODEL 1
REMARK minimizedAffinity 1.04934943
REMARK minimizedRMSD -1
REMARK  1 active torsions:
REMARK  status: ('A' for Active; 'I' for Inactive)
REMARK    1  A    between atoms: C1_2  and  C2_3 
ROOT
ATOM      1  C2  UNL d   1       2.910   4.861   2.619  0.00  0.00    -0.073 A 
ATOM      2  C3  UNL d   1       4.291   4.997   2.434  0.00  0.00    -0.002 A 
ATOM      3  C4  UNL d   1       5.039   3.942   1.910  0.00  0.00     0.004 A 
ATOM      4  C5  UNL d   1       4.415   2.745   1.559  0.00  0.00    -0.004 A 
ATOM      5  C6  UNL d   1       3.035   2.594   1.725  0.00  0.00    -0.075 A 
ATOM      6  C7  UNL d   1       2.349   1.312   1.355  0.00  0.00     0.076 C 
ATOM      7  C8  UNL d   1       2.291   3.657   2.255  0.00  0.00     0.001 A 
ENDROOT
BRANCH   1   8
ATOM      8  C1  UNL d   1       2.097   6.000   3.179  0.00  0.00     0.053 C 
ATOM      9  C   UNL d   1       0.737   5.537   3.678  0.00  0.00     0.018 C 
ENDBRANCH   1   8
TORSDOF 1
ENDMDL
