MODEL 1
REMARK minimizedAffinity 3.31894374
REMARK minimizedRMSD -1
REMARK  1 active torsions:
REMARK  status: ('A' for Active; 'I' for Inactive)
REMARK    1  A    between atoms: C1_2  and  C2_3 
ROOT
ATOM      1  C2  UNL d   1       0.767   2.527   0.719  0.00  0.00    -0.073 A 
ATOM      2  C3  UNL d   1       1.959   3.213   0.978  0.00  0.00    -0.002 A 
ATOM      3  C4  UNL d   1       3.172   2.525   1.032  0.00  0.00     0.004 A 
ATOM      4  C5  UNL d   1       3.206   1.146   0.822  0.00  0.00    -0.004 A 
ATOM      5  C6  UNL d   1       2.027   0.444   0.550  0.00  0.00    -0.075 A 
ATOM      6  C7  UNL d   1       2.047  -1.039   0.324  0.00  0.00     0.076 C 
ATOM      7  C8  UNL d   1       0.813   1.143   0.500  0.00  0.00     0.001 A 
ENDROOT
BRANCH   1   8
ATOM      8  C1  UNL d   1      -0.543   3.268   0.652  0.00  0.00     0.053 C 
ATOM      9  C   UNL d   1      -1.670   2.387   0.134  0.00  0.00     0.018 C 
ENDBRANCH   1   8
TORSDOF 1
ENDMDL
