MODEL 1
REMARK minimizedAffinity 3.03796124
REMARK minimizedRMSD -1
REMARK  1 active torsions:
REMARK  status: ('A' for Active; 'I' for Inactive)
REMARK    1  A    between atoms: C1_2  and  C2_3 
ROOT
ATOM      1  C2  UNL d   1       2.504   2.190   0.955  0.00  0.00    -0.073 A 
ATOM      2  C3  UNL d   1       2.594   0.857   0.539  0.00  0.00    -0.002 A 
ATOM      3  C4  UNL d   1       1.444   0.149   0.187  0.00  0.00     0.004 A 
ATOM      4  C5  UNL d   1       0.195   0.768   0.240  0.00  0.00    -0.004 A 
ATOM      5  C6  UNL d   1       0.086   2.103   0.641  0.00  0.00    -0.075 A 
ATOM      6  C7  UNL d   1      -1.250   2.783   0.706  0.00  0.00     0.076 C 
ATOM      7  C8  UNL d   1       1.245   2.806   0.996  0.00  0.00     0.001 A 
ENDROOT
BRANCH   1   8
ATOM      8  C1  UNL d   1       3.744   2.960   1.330  0.00  0.00     0.053 C 
ATOM      9  C   UNL d   1       4.182   2.675   2.757  0.00  0.00     0.018 C 
ENDBRANCH   1   8
TORSDOF 1
ENDMDL
