MODEL 1
REMARK minimizedAffinity 11.8533545
REMARK minimizedRMSD -1
REMARK  1 active torsions:
REMARK  status: ('A' for Active; 'I' for Inactive)
REMARK    1  A    between atoms: C3_4  and  O_7 
ROOT
ATOM      1  C   UNL d   1      -3.342  -1.254  -1.751  0.00  0.00    -0.033 A 
ATOM      2  C1  UNL d   1      -4.158  -0.248  -2.273  0.00  0.00     0.039 A 
ATOM      3  C2  UNL d   1      -3.617   1.001  -2.583  0.00  0.00    -0.080 A 
ATOM      4  C3  UNL d   1      -2.261   1.232  -2.367  0.00  0.00     0.150 A 
ATOM      5  C4  UNL d   1      -1.442   0.233  -1.850  0.00  0.00    -0.007 A 
ATOM      6  C5  UNL d   1      -1.984  -1.014  -1.541  0.00  0.00     0.039 A 
ENDROOT
BRANCH   4   7
ATOM      7  O   UNL d   1      -1.689   2.436  -2.649  0.00  0.00    -0.526 OA
ATOM      8  H5  UNL d   1      -2.381   3.037  -2.972  0.00  0.00     0.418 HD
ENDBRANCH   4   7
TORSDOF 1
ENDMDL
