MODEL 1
REMARK minimizedAffinity 3.88173795
REMARK minimizedRMSD -1
REMARK  1 active torsions:
REMARK  status: ('A' for Active; 'I' for Inactive)
REMARK    1  A    between atoms: C3_4  and  O_7 
ROOT
ATOM      1  C   UNL d   1       3.111  -3.169   1.426  0.00  0.00    -0.033 A 
ATOM      2  C1  UNL d   1       1.931  -2.575   0.974  0.00  0.00     0.039 A 
ATOM      3  C2  UNL d   1       1.307  -1.588   1.740  0.00  0.00    -0.080 A 
ATOM      4  C3  UNL d   1       1.872  -1.205   2.953  0.00  0.00     0.150 A 
ATOM      5  C4  UNL d   1       3.050  -1.790   3.407  0.00  0.00    -0.007 A 
ATOM      6  C5  UNL d   1       3.671  -2.776   2.642  0.00  0.00     0.039 A 
ENDROOT
BRANCH   4   7
ATOM      7  O   UNL d   1       1.297  -0.250   3.738  0.00  0.00    -0.526 OA
ATOM      8  H5  UNL d   1       0.475   0.045   3.311  0.00  0.00     0.418 HD
ENDBRANCH   4   7
TORSDOF 1
ENDMDL
