MODEL 1
REMARK minimizedAffinity 6.18738127
REMARK minimizedRMSD -1
REMARK  1 active torsions:
REMARK  status: ('A' for Active; 'I' for Inactive)
REMARK    1  A    between atoms: C3_4  and  O_7 
ROOT
ATOM      1  C   UNL d   1       0.795   5.060   4.124  0.00  0.00    -0.033 A 
ATOM      2  C1  UNL d   1       1.469   4.118   3.344  0.00  0.00     0.039 A 
ATOM      3  C2  UNL d   1       2.864   4.113   3.304  0.00  0.00    -0.080 A 
ATOM      4  C3  UNL d   1       3.573   5.052   4.048  0.00  0.00     0.150 A 
ATOM      5  C4  UNL d   1       2.908   5.991   4.830  0.00  0.00    -0.007 A 
ATOM      6  C5  UNL d   1       1.514   5.996   4.868  0.00  0.00     0.039 A 
ENDROOT
BRANCH   4   7
ATOM      7  O   UNL d   1       4.936   5.089   4.037  0.00  0.00    -0.526 OA
ATOM      8  H5  UNL d   1       5.257   4.401   3.431  0.00  0.00     0.418 HD
ENDBRANCH   4   7
TORSDOF 1
ENDMDL
