MODEL 1
REMARK minimizedAffinity 0.277655512
REMARK minimizedRMSD -1
REMARK  1 active torsions:
REMARK  status: ('A' for Active; 'I' for Inactive)
REMARK    1  A    between atoms: C3_4  and  O_7 
ROOT
ATOM      1  C   UNL d   1       4.759   4.069  -5.965  0.00  0.00    -0.033 A 
ATOM      2  C1  UNL d   1       3.645   3.228  -5.961  0.00  0.00     0.039 A 
ATOM      3  C2  UNL d   1       2.358   3.771  -5.967  0.00  0.00    -0.080 A 
ATOM      4  C3  UNL d   1       2.201   5.154  -5.978  0.00  0.00     0.150 A 
ATOM      5  C4  UNL d   1       3.306   5.998  -5.986  0.00  0.00    -0.007 A 
ATOM      6  C5  UNL d   1       4.590   5.454  -5.979  0.00  0.00     0.039 A 
ENDROOT
BRANCH   4   7
ATOM      7  O   UNL d   1       0.965   5.731  -5.979  0.00  0.00    -0.526 OA
ATOM      8  H5  UNL d   1       0.297   5.026  -5.944  0.00  0.00     0.418 HD
ENDBRANCH   4   7
TORSDOF 1
ENDMDL
