MODEL 1
REMARK minimizedAffinity 10.8165636
REMARK minimizedRMSD -1
REMARK  1 active torsions:
REMARK  status: ('A' for Active; 'I' for Inactive)
REMARK    1  A    between atoms: C3_4  and  O_7 
ROOT
ATOM      1  C   UNL d   1       3.985  -5.940   5.991  0.00  0.00    -0.033 A 
ATOM      2  C1  UNL d   1       5.378  -5.858   5.933  0.00  0.00     0.039 A 
ATOM      3  C2  UNL d   1       5.999  -4.620   5.759  0.00  0.00    -0.080 A 
ATOM      4  C3  UNL d   1       5.219  -3.473   5.646  0.00  0.00     0.150 A 
ATOM      5  C4  UNL d   1       3.831  -3.547   5.707  0.00  0.00    -0.007 A 
ATOM      6  C5  UNL d   1       3.212  -4.784   5.880  0.00  0.00     0.039 A 
ENDROOT
BRANCH   4   7
ATOM      7  O   UNL d   1       5.780  -2.243   5.470  0.00  0.00    -0.526 OA
ATOM      8  H5  UNL d   1       6.744  -2.350   5.418  0.00  0.00     0.418 HD
ENDBRANCH   4   7
TORSDOF 1
ENDMDL
