MODEL 1
REMARK minimizedAffinity 2.51600504
REMARK minimizedRMSD -1
REMARK  1 active torsions:
REMARK  status: ('A' for Active; 'I' for Inactive)
REMARK    1  A    between atoms: C3_4  and  O_7 
ROOT
ATOM      1  C   UNL d   1       1.820   4.803  -5.841  0.00  0.00    -0.033 A 
ATOM      2  C1  UNL d   1       2.495   3.594  -5.667  0.00  0.00     0.039 A 
ATOM      3  C2  UNL d   1       3.891   3.567  -5.650  0.00  0.00    -0.080 A 
ATOM      4  C3  UNL d   1       4.599   4.756  -5.808  0.00  0.00     0.150 A 
ATOM      5  C4  UNL d   1       3.932   5.965  -5.978  0.00  0.00    -0.007 A 
ATOM      6  C5  UNL d   1       2.539   5.989  -5.995  0.00  0.00     0.039 A 
ENDROOT
BRANCH   4   7
ATOM      7  O   UNL d   1       5.962   4.779  -5.804  0.00  0.00    -0.526 OA
ATOM      8  H5  UNL d   1       6.285   3.868  -5.707  0.00  0.00     0.418 HD
ENDBRANCH   4   7
TORSDOF 1
ENDMDL
