MODEL 1
REMARK minimizedAffinity -2.80942321
REMARK minimizedRMSD -1
REMARK  1 active torsions:
REMARK  status: ('A' for Active; 'I' for Inactive)
REMARK    1  A    between atoms: C3_4  and  O_7 
ROOT
ATOM      1  C   UNL d   1       3.870   5.971  -5.957  0.00  0.00    -0.033 A 
ATOM      2  C1  UNL d   1       5.266   5.999  -5.950  0.00  0.00     0.039 A 
ATOM      3  C2  UNL d   1       5.990   4.806  -5.965  0.00  0.00    -0.080 A 
ATOM      4  C3  UNL d   1       5.308   3.593  -5.988  0.00  0.00     0.150 A 
ATOM      5  C4  UNL d   1       3.917   3.557  -5.999  0.00  0.00    -0.007 A 
ATOM      6  C5  UNL d   1       3.196   4.750  -5.983  0.00  0.00     0.039 A 
ENDROOT
BRANCH   4   7
ATOM      7  O   UNL d   1       5.972   2.402  -5.999  0.00  0.00    -0.526 OA
ATOM      8  H5  UNL d   1       6.926   2.581  -5.961  0.00  0.00     0.418 HD
ENDBRANCH   4   7
TORSDOF 1
ENDMDL
