MODEL 1
REMARK minimizedAffinity 6.22857571
REMARK minimizedRMSD -1
REMARK  1 active torsions:
REMARK  status: ('A' for Active; 'I' for Inactive)
REMARK    1  A    between atoms: C3_4  and  O_7 
ROOT
ATOM      1  C   UNL d   1       1.137   4.823  -5.690  0.00  0.00    -0.033 A 
ATOM      2  C1  UNL d   1       1.836   5.999  -5.970  0.00  0.00     0.039 A 
ATOM      3  C2  UNL d   1       3.233   5.995  -5.988  0.00  0.00    -0.080 A 
ATOM      4  C3  UNL d   1       3.916   4.810  -5.727  0.00  0.00     0.150 A 
ATOM      5  C4  UNL d   1       3.225   3.635  -5.452  0.00  0.00    -0.007 A 
ATOM      6  C5  UNL d   1       1.831   3.641  -5.433  0.00  0.00     0.039 A 
ENDROOT
BRANCH   4   7
ATOM      7  O   UNL d   1       5.278   4.758  -5.729  0.00  0.00    -0.526 OA
ATOM      8  H5  UNL d   1       5.620   5.650  -5.906  0.00  0.00     0.418 HD
ENDBRANCH   4   7
TORSDOF 1
ENDMDL
