MODEL 1
REMARK minimizedAffinity 0.26369676
REMARK minimizedRMSD -1
REMARK  1 active torsions:
REMARK  status: ('A' for Active; 'I' for Inactive)
REMARK    1  A    between atoms: C3_4  and  O_7 
ROOT
ATOM      1  C   UNL d   1       1.955  -2.639   1.414  0.00  0.00    -0.033 A 
ATOM      2  C1  UNL d   1       1.300  -3.852   1.195  0.00  0.00     0.039 A 
ATOM      3  C2  UNL d   1       2.030  -4.988   0.839  0.00  0.00    -0.080 A 
ATOM      4  C3  UNL d   1       3.413  -4.897   0.706  0.00  0.00     0.150 A 
ATOM      5  C4  UNL d   1       4.072  -3.692   0.926  0.00  0.00    -0.007 A 
ATOM      6  C5  UNL d   1       3.342  -2.559   1.281  0.00  0.00     0.039 A 
ENDROOT
BRANCH   4   7
ATOM      7  O   UNL d   1       4.167  -5.977   0.355  0.00  0.00    -0.526 OA
ATOM      8  H5  UNL d   1       3.574  -6.732   0.207  0.00  0.00     0.418 HD
ENDBRANCH   4   7
TORSDOF 1
ENDMDL
