MODEL 1
REMARK minimizedAffinity -4.29643059
REMARK minimizedRMSD -1
REMARK  0 active torsions:
REMARK  status: ('A' for Active; 'I' for Inactive)
ROOT
ATOM      1  C2' OXE d   1      -2.973   1.493   3.002  0.00  0.00     0.078 C 
ATOM      2  C1' OXE d   1      -0.390   0.929   3.945  0.00  0.00     0.078 C 
ATOM      3  C1  OXE d   1      -0.740   0.488   2.546  0.00  0.00    -0.078 A 
ATOM      4  C2  OXE d   1      -2.021   0.727   2.109  0.00  0.00    -0.078 A 
ATOM      5  C3  OXE d   1      -2.380   0.389   0.807  0.00  0.00     0.003 A 
ATOM      6  C4  OXE d   1      -1.496  -0.329  -0.008  0.00  0.00    -0.002 A 
ATOM      7  C5  OXE d   1      -0.200  -0.617   0.432  0.00  0.00    -0.002 A 
ATOM      8  C6  OXE d   1       0.207  -0.180   1.687  0.00  0.00     0.003 A 
ENDROOT
TORSDOF 0
ENDMDL
