MODEL 1
REMARK minimizedAffinity -4.69072247
REMARK minimizedRMSD -1
REMARK  0 active torsions:
REMARK  status: ('A' for Active; 'I' for Inactive)
ROOT
ATOM      1  C2' OXE d   1       0.535   1.523   0.582  0.00  0.00     0.078 C 
ATOM      2  C1' OXE d   1      -0.872  -0.787  -0.171  0.00  0.00     0.078 C 
ATOM      3  C1  OXE d   1      -1.301  -0.082   1.091  0.00  0.00    -0.078 A 
ATOM      4  C2  OXE d   1      -0.577   1.021   1.477  0.00  0.00    -0.078 A 
ATOM      5  C3  OXE d   1      -0.964   1.740   2.604  0.00  0.00     0.003 A 
ATOM      6  C4  OXE d   1      -1.988   1.263   3.432  0.00  0.00    -0.002 A 
ATOM      7  C5  OXE d   1      -2.712   0.119   3.078  0.00  0.00    -0.002 A 
ATOM      8  C6  OXE d   1      -2.410  -0.539   1.892  0.00  0.00     0.003 A 
ENDROOT
TORSDOF 0
ENDMDL
