MODEL 1
REMARK minimizedAffinity -3.54680586
REMARK minimizedRMSD -1
REMARK  0 active torsions:
REMARK  status: ('A' for Active; 'I' for Inactive)
ROOT
ATOM      1  C2' OXE d   1       0.432  -1.875   0.184  0.00  0.00     0.078 C 
ATOM      2  C1' OXE d   1      -0.997   0.540   0.250  0.00  0.00     0.078 C 
ATOM      3  C1  OXE d   1       0.059   0.377  -0.814  0.00  0.00    -0.078 A 
ATOM      4  C2  OXE d   1       0.785  -0.790  -0.810  0.00  0.00    -0.078 A 
ATOM      5  C3  OXE d   1       1.734  -1.015  -1.804  0.00  0.00     0.003 A 
ATOM      6  C4  OXE d   1       2.061  -0.002  -2.714  0.00  0.00    -0.002 A 
ATOM      7  C5  OXE d   1       1.360   1.209  -2.710  0.00  0.00    -0.002 A 
ATOM      8  C6  OXE d   1       0.329   1.397  -1.796  0.00  0.00     0.003 A 
ENDROOT
TORSDOF 0
ENDMDL
