MODEL 1
REMARK minimizedAffinity -2.78466344
REMARK minimizedRMSD -1
REMARK  0 active torsions:
REMARK  status: ('A' for Active; 'I' for Inactive)
ROOT
ATOM      1  C2' OXE d   1       0.091   1.866  -1.469  0.00  0.00     0.078 C 
ATOM      2  C1' OXE d   1      -1.109   0.673   0.771  0.00  0.00     0.078 C 
ATOM      3  C1  OXE d   1      -0.082  -0.130   0.012  0.00  0.00    -0.078 A 
ATOM      4  C2  OXE d   1       0.466   0.445  -1.110  0.00  0.00    -0.078 A 
ATOM      5  C3  OXE d   1       1.459  -0.230  -1.815  0.00  0.00     0.003 A 
ATOM      6  C4  OXE d   1       1.792  -1.549  -1.483  0.00  0.00    -0.002 A 
ATOM      7  C5  OXE d   1       1.217  -2.167  -0.367  0.00  0.00    -0.002 A 
ATOM      8  C6  OXE d   1       0.312  -1.457   0.414  0.00  0.00     0.003 A 
ENDROOT
TORSDOF 0
ENDMDL
