MODEL 1
REMARK minimizedAffinity -1.39850211
REMARK minimizedRMSD -1
REMARK  0 active torsions:
REMARK  status: ('A' for Active; 'I' for Inactive)
ROOT
ATOM      1  C2' OXE d   1      -1.937   1.819  -0.205  0.00  0.00     0.078 C 
ATOM      2  C1' OXE d   1      -0.456  -0.545   0.108  0.00  0.00     0.078 C 
ATOM      3  C1  OXE d   1      -1.164   0.007   1.320  0.00  0.00    -0.078 A 
ATOM      4  C2  OXE d   1      -1.848   1.189   1.169  0.00  0.00    -0.078 A 
ATOM      5  C3  OXE d   1      -2.564   1.714   2.241  0.00  0.00     0.003 A 
ATOM      6  C4  OXE d   1      -2.468   1.131   3.510  0.00  0.00    -0.002 A 
ATOM      7  C5  OXE d   1      -1.745  -0.052   3.695  0.00  0.00    -0.002 A 
ATOM      8  C6  OXE d   1      -1.123  -0.648   2.604  0.00  0.00     0.003 A 
ENDROOT
TORSDOF 0
ENDMDL
