MODEL 1
REMARK minimizedAffinity -5.06564236
REMARK minimizedRMSD -1
REMARK  0 active torsions:
REMARK  status: ('A' for Active; 'I' for Inactive)
ROOT
ATOM      1  C2' OXE d   1      -1.339   0.192   0.687  0.00  0.00     0.078 C 
ATOM      2  C1' OXE d   1      -0.075  -2.314   0.728  0.00  0.00     0.078 C 
ATOM      3  C1  OXE d   1       0.520  -1.241  -0.149  0.00  0.00    -0.078 A 
ATOM      4  C2  OXE d   1      -0.132  -0.032  -0.199  0.00  0.00    -0.078 A 
ATOM      5  C3  OXE d   1       0.405   1.010  -0.949  0.00  0.00     0.003 A 
ATOM      6  C4  OXE d   1       1.516   0.792  -1.772  0.00  0.00    -0.002 A 
ATOM      7  C5  OXE d   1       2.172  -0.444  -1.767  0.00  0.00    -0.002 A 
ATOM      8  C6  OXE d   1       1.713  -1.455  -0.930  0.00  0.00     0.003 A 
ENDROOT
TORSDOF 0
ENDMDL
