MODEL 1
REMARK minimizedAffinity -1.9850539
REMARK minimizedRMSD -1
REMARK  0 active torsions:
REMARK  status: ('A' for Active; 'I' for Inactive)
ROOT
ATOM      1  C2' OXE d   1      -0.290  -0.928  -0.038  0.00  0.00     0.078 C 
ATOM      2  C1' OXE d   1      -0.453   1.828  -0.544  0.00  0.00     0.078 C 
ATOM      3  C1  OXE d   1      -0.672   1.359   0.873  0.00  0.00    -0.078 A 
ATOM      4  C2  OXE d   1      -0.636   0.005   1.102  0.00  0.00    -0.078 A 
ATOM      5  C3  OXE d   1      -0.778  -0.479   2.400  0.00  0.00     0.003 A 
ATOM      6  C4  OXE d   1      -1.108   0.390   3.448  0.00  0.00    -0.002 A 
ATOM      7  C5  OXE d   1      -1.188   1.769   3.228  0.00  0.00    -0.002 A 
ATOM      8  C6  OXE d   1      -0.931   2.273   1.958  0.00  0.00     0.003 A 
ENDROOT
TORSDOF 0
ENDMDL
