MODEL 1
REMARK minimizedAffinity -0.686542869
REMARK minimizedRMSD -1
REMARK  0 active torsions:
REMARK  status: ('A' for Active; 'I' for Inactive)
ROOT
ATOM      1  C2' OXE d   1      -0.967   0.768   1.434  0.00  0.00     0.078 C 
ATOM      2  C1' OXE d   1      -0.215   1.667  -1.117  0.00  0.00     0.078 C 
ATOM      3  C1  OXE d   1       0.273   0.309  -0.678  0.00  0.00    -0.078 A 
ATOM      4  C2  OXE d   1      -0.061  -0.103   0.590  0.00  0.00    -0.078 A 
ATOM      5  C3  OXE d   1       0.317  -1.370   1.025  0.00  0.00     0.003 A 
ATOM      6  C4  OXE d   1       1.163  -2.165   0.243  0.00  0.00    -0.002 A 
ATOM      7  C5  OXE d   1       1.547  -1.747  -1.036  0.00  0.00    -0.002 A 
ATOM      8  C6  OXE d   1       1.077  -0.534  -1.527  0.00  0.00     0.003 A 
ENDROOT
TORSDOF 0
ENDMDL
