MODEL 1
REMARK minimizedAffinity -2.95644879
REMARK minimizedRMSD -1
REMARK  0 active torsions:
REMARK  status: ('A' for Active; 'I' for Inactive)
ROOT
ATOM      1  C2' OXE d   1       0.723  -2.432   0.729  0.00  0.00     0.078 C 
ATOM      2  C1' OXE d   1       2.395  -1.155  -1.130  0.00  0.00     0.078 C 
ATOM      3  C1  OXE d   1       1.131  -0.443  -0.715  0.00  0.00    -0.078 A 
ATOM      4  C2  OXE d   1       0.296  -1.096   0.159  0.00  0.00    -0.078 A 
ATOM      5  C3  OXE d   1      -0.855  -0.461   0.617  0.00  0.00     0.003 A 
ATOM      6  C4  OXE d   1      -1.248   0.770   0.078  0.00  0.00    -0.002 A 
ATOM      7  C5  OXE d   1      -0.431   1.434  -0.844  0.00  0.00    -0.002 A 
ATOM      8  C6  OXE d   1       0.780   0.862  -1.218  0.00  0.00     0.003 A 
ENDROOT
TORSDOF 0
ENDMDL
