MODEL 1
REMARK minimizedAffinity -5.69667053
REMARK minimizedRMSD -1
REMARK  0 active torsions:
REMARK  status: ('A' for Active; 'I' for Inactive)
ROOT
ATOM      1  C2' OXE d   1      -0.753   0.072   0.142  0.00  0.00     0.078 C 
ATOM      2  C1' OXE d   1       0.585  -2.376   0.459  0.00  0.00     0.078 C 
ATOM      3  C1  OXE d   1       1.101  -1.423  -0.589  0.00  0.00    -0.078 A 
ATOM      4  C2  OXE d   1       0.412  -0.247  -0.770  0.00  0.00    -0.078 A 
ATOM      5  C3  OXE d   1       0.878   0.691  -1.686  0.00  0.00     0.003 A 
ATOM      6  C4  OXE d   1       1.950   0.384  -2.532  0.00  0.00    -0.002 A 
ATOM      7  C5  OXE d   1       2.642  -0.824  -2.392  0.00  0.00    -0.002 A 
ATOM      8  C6  OXE d   1       2.257  -1.718  -1.399  0.00  0.00     0.003 A 
ENDROOT
TORSDOF 0
ENDMDL
