MODEL 1
REMARK minimizedAffinity -0.861070335
REMARK minimizedRMSD -1
REMARK  0 active torsions:
REMARK  status: ('A' for Active; 'I' for Inactive)
ROOT
ATOM      1  C2' OXE d   1       0.478  -2.138   1.517  0.00  0.00     0.078 C 
ATOM      2  C1' OXE d   1      -0.748   0.385   1.410  0.00  0.00     0.078 C 
ATOM      3  C1  OXE d   1       0.044  -0.064   0.207  0.00  0.00    -0.078 A 
ATOM      4  C2  OXE d   1       0.679  -1.280   0.287  0.00  0.00    -0.078 A 
ATOM      5  C3  OXE d   1       1.378  -1.766  -0.815  0.00  0.00     0.003 A 
ATOM      6  C4  OXE d   1       1.567  -0.962  -1.945  0.00  0.00    -0.002 A 
ATOM      7  C5  OXE d   1       0.961   0.296  -2.031  0.00  0.00    -0.002 A 
ATOM      8  C6  OXE d   1       0.163   0.741  -0.983  0.00  0.00     0.003 A 
ENDROOT
TORSDOF 0
ENDMDL
