MODEL 1
REMARK minimizedAffinity 0.570854008
REMARK minimizedRMSD -1
REMARK  0 active torsions:
REMARK  status: ('A' for Active; 'I' for Inactive)
ROOT
ATOM      1  C2' OXE d   1      -1.441   1.284   1.948  0.00  0.00     0.078 C 
ATOM      2  C1' OXE d   1      -1.882   1.220  -0.824  0.00  0.00     0.078 C 
ATOM      3  C1  OXE d   1      -0.960   0.182  -0.234  0.00  0.00    -0.078 A 
ATOM      4  C2  OXE d   1      -0.713   0.250   1.116  0.00  0.00    -0.078 A 
ATOM      5  C3  OXE d   1       0.087  -0.716   1.720  0.00  0.00     0.003 A 
ATOM      6  C4  OXE d   1       0.764  -1.662   0.943  0.00  0.00    -0.002 A 
ATOM      7  C5  OXE d   1       0.558  -1.724  -0.440  0.00  0.00    -0.002 A 
ATOM      8  C6  OXE d   1      -0.332  -0.838  -1.036  0.00  0.00     0.003 A 
ENDROOT
TORSDOF 0
ENDMDL
