MODEL 1
REMARK minimizedAffinity -3.90773892
REMARK minimizedRMSD -1
REMARK  0 active torsions:
REMARK  status: ('A' for Active; 'I' for Inactive)
ROOT
ATOM      1  C2' OXE d   1      -1.038   0.430   3.669  0.00  0.00     0.078 C 
ATOM      2  C1' OXE d   1      -2.835   1.719   1.940  0.00  0.00     0.078 C 
ATOM      3  C1  OXE d   1      -1.746   0.878   1.323  0.00  0.00    -0.078 A 
ATOM      4  C2  OXE d   1      -0.843   0.288   2.174  0.00  0.00    -0.078 A 
ATOM      5  C3  OXE d   1       0.148  -0.542   1.660  0.00  0.00     0.003 A 
ATOM      6  C4  OXE d   1       0.328  -0.660   0.277  0.00  0.00    -0.002 A 
ATOM      7  C5  OXE d   1      -0.557  -0.036  -0.609  0.00  0.00    -0.002 A 
ATOM      8  C6  OXE d   1      -1.623   0.700  -0.103  0.00  0.00     0.003 A 
ENDROOT
TORSDOF 0
ENDMDL
