MODEL 1
REMARK minimizedAffinity 0.698025465
REMARK minimizedRMSD -1
REMARK  0 active torsions:
REMARK  status: ('A' for Active; 'I' for Inactive)
ROOT
ATOM      1  C2' OXE d   1       5.244   2.724   2.406  0.00  0.00     0.078 C 
ATOM      2  C1' OXE d   1       5.949   3.956   4.828  0.00  0.00     0.078 C 
ATOM      3  C1  OXE d   1       5.784   2.457   4.823  0.00  0.00    -0.078 A 
ATOM      4  C2  OXE d   1       5.393   1.868   3.644  0.00  0.00    -0.078 A 
ATOM      5  C3  OXE d   1       5.279   0.482   3.571  0.00  0.00     0.003 A 
ATOM      6  C4  OXE d   1       5.409  -0.302   4.724  0.00  0.00    -0.002 A 
ATOM      7  C5  OXE d   1       5.768   0.283   5.943  0.00  0.00    -0.002 A 
ATOM      8  C6  OXE d   1       6.000   1.653   6.000  0.00  0.00     0.003 A 
ENDROOT
TORSDOF 0
ENDMDL
