MODEL 1
REMARK minimizedAffinity -1.64167511
REMARK minimizedRMSD -1
REMARK  0 active torsions:
REMARK  status: ('A' for Active; 'I' for Inactive)
ROOT
ATOM      1  C2' OXE d   1      -2.566   0.801   4.465  0.00  0.00     0.078 C 
ATOM      2  C1' OXE d   1      -3.535  -1.160   2.705  0.00  0.00     0.078 C 
ATOM      3  C1  OXE d   1      -2.536  -0.165   2.169  0.00  0.00    -0.078 A 
ATOM      4  C2  OXE d   1      -2.103   0.819   3.024  0.00  0.00    -0.078 A 
ATOM      5  C3  OXE d   1      -1.141   1.730   2.597  0.00  0.00     0.003 A 
ATOM      6  C4  OXE d   1      -0.725   1.746   1.260  0.00  0.00    -0.002 A 
ATOM      7  C5  OXE d   1      -1.184   0.777   0.362  0.00  0.00    -0.002 A 
ATOM      8  C6  OXE d   1      -2.055  -0.210   0.810  0.00  0.00     0.003 A 
ENDROOT
TORSDOF 0
ENDMDL
