MODEL 1
REMARK minimizedAffinity -1.19512832
REMARK minimizedRMSD -1
REMARK  0 active torsions:
REMARK  status: ('A' for Active; 'I' for Inactive)
ROOT
ATOM      1  C2' OXE d   1      -1.238   0.042  -0.053  0.00  0.00     0.078 C 
ATOM      2  C1' OXE d   1      -3.284  -0.483   1.797  0.00  0.00     0.078 C 
ATOM      3  C1  OXE d   1      -2.153   0.415   2.234  0.00  0.00    -0.078 A 
ATOM      4  C2  OXE d   1      -1.133   0.629   1.338  0.00  0.00    -0.078 A 
ATOM      5  C3  OXE d   1      -0.094   1.493   1.671  0.00  0.00     0.003 A 
ATOM      6  C4  OXE d   1       0.001   2.023   2.963  0.00  0.00    -0.002 A 
ATOM      7  C5  OXE d   1      -1.007   1.786   3.904  0.00  0.00    -0.002 A 
ATOM      8  C6  OXE d   1      -2.110   1.020   3.542  0.00  0.00     0.003 A 
ENDROOT
TORSDOF 0
ENDMDL
