MODEL 1
REMARK minimizedAffinity -4.87756157
REMARK minimizedRMSD -1
REMARK  0 active torsions:
REMARK  status: ('A' for Active; 'I' for Inactive)
ROOT
ATOM      1  C2' OXE d   1       0.529  -2.284   0.579  0.00  0.00     0.078 C 
ATOM      2  C1' OXE d   1      -1.140  -0.050   0.902  0.00  0.00     0.078 C 
ATOM      3  C1  OXE d   1      -0.107  -0.004  -0.196  0.00  0.00    -0.078 A 
ATOM      4  C2  OXE d   1       0.736  -1.082  -0.317  0.00  0.00    -0.078 A 
ATOM      5  C3  OXE d   1       1.671  -1.114  -1.348  0.00  0.00     0.003 A 
ATOM      6  C4  OXE d   1       1.863   0.006  -2.166  0.00  0.00    -0.002 A 
ATOM      7  C5  OXE d   1       1.042   1.131  -2.034  0.00  0.00    -0.002 A 
ATOM      8  C6  OXE d   1       0.026   1.125  -1.084  0.00  0.00     0.003 A 
ENDROOT
TORSDOF 0
ENDMDL
