MODEL 1
REMARK minimizedAffinity 1.052073
REMARK minimizedRMSD -1
REMARK  0 active torsions:
REMARK  status: ('A' for Active; 'I' for Inactive)
ROOT
ATOM      1  C2' OXE d   1      -0.132  -0.685   0.434  0.00  0.00     0.078 C 
ATOM      2  C1' OXE d   1      -1.743   1.508  -0.257  0.00  0.00     0.078 C 
ATOM      3  C1  OXE d   1      -1.664   1.124   1.200  0.00  0.00    -0.078 A 
ATOM      4  C2  OXE d   1      -0.911   0.021   1.523  0.00  0.00    -0.078 A 
ATOM      5  C3  OXE d   1      -0.760  -0.344   2.858  0.00  0.00     0.003 A 
ATOM      6  C4  OXE d   1      -1.491   0.309   3.858  0.00  0.00    -0.002 A 
ATOM      7  C5  OXE d   1      -2.296   1.410   3.545  0.00  0.00    -0.002 A 
ATOM      8  C6  OXE d   1      -2.359   1.855   2.230  0.00  0.00     0.003 A 
ENDROOT
TORSDOF 0
ENDMDL
