MODEL 1
REMARK minimizedAffinity -0.964062452
REMARK minimizedRMSD -1
REMARK  0 active torsions:
REMARK  status: ('A' for Active; 'I' for Inactive)
ROOT
ATOM      1  C2' OXE d   1       1.428   1.087  -2.971  0.00  0.00     0.078 C 
ATOM      2  C1' OXE d   1      -0.652   1.817  -1.232  0.00  0.00     0.078 C 
ATOM      3  C1  OXE d   1       0.056   0.511  -0.973  0.00  0.00    -0.078 A 
ATOM      4  C2  OXE d   1       1.041   0.139  -1.856  0.00  0.00    -0.078 A 
ATOM      5  C3  OXE d   1       1.763  -1.030  -1.632  0.00  0.00     0.003 A 
ATOM      6  C4  OXE d   1       1.392  -1.906  -0.605  0.00  0.00    -0.002 A 
ATOM      7  C5  OXE d   1       0.366  -1.565   0.282  0.00  0.00    -0.002 A 
ATOM      8  C6  OXE d   1      -0.283  -0.344   0.138  0.00  0.00     0.003 A 
ENDROOT
TORSDOF 0
ENDMDL
