MODEL 1
REMARK minimizedAffinity -2.62087965
REMARK minimizedRMSD -1
REMARK  0 active torsions:
REMARK  status: ('A' for Active; 'I' for Inactive)
ROOT
ATOM      1  C2' OXE d   1      -1.459   2.213   2.212  0.00  0.00     0.078 C 
ATOM      2  C1' OXE d   1      -2.491  -0.381   1.920  0.00  0.00     0.078 C 
ATOM      3  C1  OXE d   1      -1.260  -0.020   1.126  0.00  0.00    -0.078 A 
ATOM      4  C2  OXE d   1      -0.790   1.266   1.239  0.00  0.00    -0.078 A 
ATOM      5  C3  OXE d   1       0.374   1.636   0.571  0.00  0.00     0.003 A 
ATOM      6  C4  OXE d   1       0.981   0.757  -0.335  0.00  0.00    -0.002 A 
ATOM      7  C5  OXE d   1       0.494  -0.545  -0.495  0.00  0.00    -0.002 A 
ATOM      8  C6  OXE d   1      -0.598  -0.962   0.258  0.00  0.00     0.003 A 
ENDROOT
TORSDOF 0
ENDMDL
