MODEL 1
REMARK minimizedAffinity 1.27573502
REMARK minimizedRMSD -1
REMARK  1 active torsions:
REMARK  status: ('A' for Active; 'I' for Inactive)
REMARK    1  A    between atoms: C1_2  and  C2_3 
ROOT
ATOM      1  C2  UNL d   1      -0.246   0.166  -0.924  0.00  0.00    -0.076 A 
ATOM      2  C3  UNL d   1      -1.472   0.854  -0.936  0.00  0.00     0.004 A 
ATOM      3  C4  UNL d   1      -2.249   0.956   0.217  0.00  0.00    -0.003 A 
ATOM      4  C5  UNL d   1      -1.812   0.371   1.401  0.00  0.00     0.000 A 
ATOM      5  C6  UNL d   1      -0.590  -0.299   1.435  0.00  0.00     0.000 A 
ATOM      6  C7  UNL d   1       0.213  -0.397   0.286  0.00  0.00    -0.073 A 
ATOM      7  C8  UNL d   1       1.519  -1.138   0.378  0.00  0.00     0.078 C 
ENDROOT
BRANCH   1   8
ATOM      8  C1  UNL d   1       0.540   0.065  -2.212  0.00  0.00     0.053 C 
ATOM      9  C   UNL d   1      -0.204  -0.707  -3.290  0.00  0.00     0.018 C 
ENDBRANCH   1   8
TORSDOF 1
ENDMDL
