MODEL 1
REMARK minimizedAffinity -1.4855119
REMARK minimizedRMSD -1
REMARK  1 active torsions:
REMARK  status: ('A' for Active; 'I' for Inactive)
REMARK    1  A    between atoms: C1_2  and  C2_3 
ROOT
ATOM      1  C2  UNL d   1      -0.558   0.313   1.003  0.00  0.00    -0.076 A 
ATOM      2  C3  UNL d   1       0.786   0.675   0.806  0.00  0.00     0.004 A 
ATOM      3  C4  UNL d   1       1.605   1.004   1.885  0.00  0.00    -0.003 A 
ATOM      4  C5  UNL d   1       1.094   0.975   3.178  0.00  0.00     0.000 A 
ATOM      5  C6  UNL d   1      -0.232   0.601   3.393  0.00  0.00     0.000 A 
ATOM      6  C7  UNL d   1      -1.067   0.251   2.318  0.00  0.00    -0.073 A 
ATOM      7  C8  UNL d   1      -2.490  -0.140   2.606  0.00  0.00     0.078 C 
ENDROOT
BRANCH   1   8
ATOM      8  C1  UNL d   1      -1.406  -0.007  -0.208  0.00  0.00     0.053 C 
ATOM      9  C   UNL d   1      -1.506  -1.502  -0.471  0.00  0.00     0.018 C 
ENDBRANCH   1   8
TORSDOF 1
ENDMDL
