MODEL 1
REMARK minimizedAffinity 1.18319476
REMARK minimizedRMSD -1
REMARK  0 active torsions:
REMARK  status: ('A' for Active; 'I' for Inactive)
ROOT
ATOM      1  C   UNL d   1      -1.306   0.435   2.693  0.00  0.00    -0.002 A 
ATOM      2  C1  UNL d   1      -1.295   1.562   1.884  0.00  0.00     0.010 A 
ATOM      3  C2  UNL d   1      -0.599   1.559   0.673  0.00  0.00     0.041 A 
ATOM      4  C3  UNL d   1       0.089   0.393   0.285  0.00  0.00    -0.075 A 
ATOM      5  S   UNL d   1       1.008   0.159  -1.155  0.00  0.00     0.015 SA
ATOM      6  C4  UNL d   1       1.406  -1.443  -0.730  0.00  0.00     0.022 A 
ATOM      7  C5  UNL d   1       0.860  -1.806   0.478  0.00  0.00     0.026 A 
ATOM      8  C6  UNL d   1       0.092  -0.754   1.083  0.00  0.00    -0.082 A 
ATOM      9  C7  UNL d   1      -0.622  -0.720   2.305  0.00  0.00     0.045 A 
ENDROOT
TORSDOF 0
ENDMDL
