MODEL 1
REMARK minimizedAffinity 1.53175926
REMARK minimizedRMSD -1
REMARK  0 active torsions:
REMARK  status: ('A' for Active; 'I' for Inactive)
ROOT
ATOM      1  C   UNL d   1       0.262   0.479   0.059  0.00  0.00    -0.002 A 
ATOM      2  C1  UNL d   1      -0.643  -0.231   0.836  0.00  0.00     0.010 A 
ATOM      3  C2  UNL d   1      -0.993  -1.540   0.499  0.00  0.00     0.041 A 
ATOM      4  C3  UNL d   1      -0.412  -2.130  -0.641  0.00  0.00    -0.075 A 
ATOM      5  S   UNL d   1      -0.690  -3.720  -1.245  0.00  0.00     0.015 SA
ATOM      6  C4  UNL d   1       0.386  -3.495  -2.547  0.00  0.00     0.022 A 
ATOM      7  C5  UNL d   1       0.952  -2.242  -2.537  0.00  0.00     0.026 A 
ATOM      8  C6  UNL d   1       0.502  -1.435  -1.438  0.00  0.00    -0.082 A 
ATOM      9  C7  UNL d   1       0.836  -0.109  -1.071  0.00  0.00     0.045 A 
ENDROOT
TORSDOF 0
ENDMDL
