MODEL 1
REMARK minimizedAffinity 1.88589048
REMARK minimizedRMSD -1
REMARK  0 active torsions:
REMARK  status: ('A' for Active; 'I' for Inactive)
ROOT
ATOM      1  C   UNL d   1       0.694   1.590  -1.527  0.00  0.00    -0.002 A 
ATOM      2  C1  UNL d   1       1.115   0.272  -1.426  0.00  0.00     0.010 A 
ATOM      3  C2  UNL d   1       0.845  -0.475  -0.278  0.00  0.00     0.041 A 
ATOM      4  C3  UNL d   1       0.135   0.131   0.778  0.00  0.00    -0.075 A 
ATOM      5  S   UNL d   1      -0.310  -0.590   2.279  0.00  0.00     0.015 SA
ATOM      6  C4  UNL d   1      -1.071   0.836   2.823  0.00  0.00     0.022 A 
ATOM      7  C5  UNL d   1      -0.996   1.846   1.894  0.00  0.00     0.026 A 
ATOM      8  C6  UNL d   1      -0.300   1.457   0.700  0.00  0.00    -0.082 A 
ATOM      9  C7  UNL d   1      -0.010   2.188  -0.477  0.00  0.00     0.045 A 
ENDROOT
TORSDOF 0
ENDMDL
