MODEL 1
REMARK minimizedAffinity -0.722251475
REMARK minimizedRMSD -1
REMARK  0 active torsions:
REMARK  status: ('A' for Active; 'I' for Inactive)
ROOT
ATOM      1  C   UNL d   1      -1.904   0.811   1.635  0.00  0.00    -0.002 A 
ATOM      2  C1  UNL d   1      -1.026   1.852   1.367  0.00  0.00     0.010 A 
ATOM      3  C2  UNL d   1       0.025   1.681   0.465  0.00  0.00     0.041 A 
ATOM      4  C3  UNL d   1       0.180   0.434  -0.172  0.00  0.00    -0.075 A 
ATOM      5  S   UNL d   1       1.394  -0.006  -1.314  0.00  0.00     0.015 SA
ATOM      6  C4  UNL d   1       0.776  -1.587  -1.474  0.00  0.00     0.022 A 
ATOM      7  C5  UNL d   1      -0.329  -1.791  -0.682  0.00  0.00     0.026 A 
ATOM      8  C6  UNL d   1      -0.691  -0.630   0.081  0.00  0.00    -0.082 A 
ATOM      9  C7  UNL d   1      -1.746  -0.425   1.002  0.00  0.00     0.045 A 
ENDROOT
TORSDOF 0
ENDMDL
