MODEL 1
REMARK minimizedAffinity 3.95974112
REMARK minimizedRMSD -1
REMARK  0 active torsions:
REMARK  status: ('A' for Active; 'I' for Inactive)
ROOT
ATOM      1  C   UNL d   1       0.782  -3.662  -3.051  0.00  0.00    -0.002 A 
ATOM      2  C1  UNL d   1       1.344  -4.130  -1.872  0.00  0.00     0.010 A 
ATOM      3  C2  UNL d   1       1.417  -3.309  -0.745  0.00  0.00     0.041 A 
ATOM      4  C3  UNL d   1       0.909  -1.997  -0.823  0.00  0.00    -0.075 A 
ATOM      5  S   UNL d   1       0.890  -0.813   0.430  0.00  0.00     0.015 SA
ATOM      6  C4  UNL d   1       0.135   0.341  -0.569  0.00  0.00     0.022 A 
ATOM      7  C5  UNL d   1      -0.104  -0.147  -1.832  0.00  0.00     0.026 A 
ATOM      8  C6  UNL d   1       0.338  -1.503  -1.999  0.00  0.00    -0.082 A 
ATOM      9  C7  UNL d   1       0.279  -2.360  -3.125  0.00  0.00     0.045 A 
ENDROOT
TORSDOF 0
ENDMDL
