MODEL 1
REMARK minimizedAffinity -1.97989976
REMARK minimizedRMSD -1
REMARK  0 active torsions:
REMARK  status: ('A' for Active; 'I' for Inactive)
ROOT
ATOM      1  C   UNL d   1      -0.259  -3.771  -1.713  0.00  0.00    -0.002 A 
ATOM      2  C1  UNL d   1       0.407  -2.926  -2.589  0.00  0.00     0.010 A 
ATOM      3  C2  UNL d   1       0.545  -1.567  -2.298  0.00  0.00     0.041 A 
ATOM      4  C3  UNL d   1       0.000  -1.068  -1.098  0.00  0.00    -0.075 A 
ATOM      5  S   UNL d   1       0.049   0.559  -0.532  0.00  0.00     0.015 SA
ATOM      6  C4  UNL d   1      -0.812   0.171   0.886  0.00  0.00     0.022 A 
ATOM      7  C5  UNL d   1      -1.137  -1.164   0.943  0.00  0.00     0.026 A 
ATOM      8  C6  UNL d   1      -0.674  -1.900  -0.200  0.00  0.00    -0.082 A 
ATOM      9  C7  UNL d   1      -0.798  -3.273  -0.524  0.00  0.00     0.045 A 
ENDROOT
TORSDOF 0
ENDMDL
