MODEL 1
REMARK minimizedAffinity -3.44084072
REMARK minimizedRMSD -1
REMARK  0 active torsions:
REMARK  status: ('A' for Active; 'I' for Inactive)
ROOT
ATOM      1  C   UNL d   1      -0.419   3.656   1.085  0.00  0.00    -0.002 A 
ATOM      2  C1  UNL d   1       0.314   3.429  -0.071  0.00  0.00     0.010 A 
ATOM      3  C2  UNL d   1       0.396   2.148  -0.621  0.00  0.00     0.041 A 
ATOM      4  C3  UNL d   1      -0.279   1.089   0.016  0.00  0.00    -0.075 A 
ATOM      5  S   UNL d   1      -0.322  -0.563  -0.478  0.00  0.00     0.015 SA
ATOM      6  C4  UNL d   1      -1.315  -1.007   0.834  0.00  0.00     0.022 A 
ATOM      7  C5  UNL d   1      -1.617   0.067   1.639  0.00  0.00     0.026 A 
ATOM      8  C6  UNL d   1      -1.025   1.292   1.180  0.00  0.00    -0.082 A 
ATOM      9  C7  UNL d   1      -1.088   2.602   1.713  0.00  0.00     0.045 A 
ENDROOT
TORSDOF 0
ENDMDL
