MODEL 1
REMARK minimizedAffinity -1.95822334
REMARK minimizedRMSD -1
REMARK  0 active torsions:
REMARK  status: ('A' for Active; 'I' for Inactive)
ROOT
ATOM      1  C   UNL d   1      -1.741   0.914   1.967  0.00  0.00    -0.002 A 
ATOM      2  C1  UNL d   1      -1.009   2.053   1.661  0.00  0.00     0.010 A 
ATOM      3  C2  UNL d   1       0.027   2.002   0.726  0.00  0.00     0.041 A 
ATOM      4  C3  UNL d   1       0.317   0.775   0.097  0.00  0.00    -0.075 A 
ATOM      5  S   UNL d   1       1.541   0.475  -1.080  0.00  0.00     0.015 SA
ATOM      6  C4  UNL d   1       1.120  -1.172  -1.205  0.00  0.00     0.022 A 
ATOM      7  C5  UNL d   1       0.075  -1.502  -0.376  0.00  0.00     0.026 A 
ATOM      8  C6  UNL d   1      -0.406  -0.385   0.388  0.00  0.00    -0.082 A 
ATOM      9  C7  UNL d   1      -1.450  -0.301   1.341  0.00  0.00     0.045 A 
ENDROOT
TORSDOF 0
ENDMDL
