MODEL 1
REMARK minimizedAffinity -2.50721431
REMARK minimizedRMSD -1
REMARK  0 active torsions:
REMARK  status: ('A' for Active; 'I' for Inactive)
ROOT
ATOM      1  C   UNL d   1      -1.487   2.248   1.402  0.00  0.00    -0.002 A 
ATOM      2  C1  UNL d   1      -0.812   3.070   0.512  0.00  0.00     0.010 A 
ATOM      3  C2  UNL d   1       0.163   2.547  -0.340  0.00  0.00     0.041 A 
ATOM      4  C3  UNL d   1       0.449   1.169  -0.283  0.00  0.00    -0.075 A 
ATOM      5  S   UNL d   1       1.602   0.306  -1.230  0.00  0.00     0.015 SA
ATOM      6  C4  UNL d   1       1.225  -1.175  -0.477  0.00  0.00     0.022 A 
ATOM      7  C5  UNL d   1       0.246  -1.033   0.478  0.00  0.00     0.026 A 
ATOM      8  C6  UNL d   1      -0.218   0.320   0.605  0.00  0.00    -0.082 A 
ATOM      9  C7  UNL d   1      -1.200   0.881   1.456  0.00  0.00     0.045 A 
ENDROOT
TORSDOF 0
ENDMDL
