MODEL 1
REMARK minimizedAffinity 18.8332787
REMARK minimizedRMSD -1
REMARK  0 active torsions:
REMARK  status: ('A' for Active; 'I' for Inactive)
ROOT
ATOM      1  O1  BZF d   1      -2.664  -5.926  -4.203  0.00  0.00    -0.204 OA
ATOM      2  C2  BZF d   1      -1.668  -4.971  -4.271  0.00  0.00     0.174 A 
ATOM      3  C3  BZF d   1      -2.102  -3.872  -4.922  0.00  0.00    -0.012 A 
ATOM      4  C3A BZF d   1      -3.483  -4.122  -5.201  0.00  0.00    -0.107 A 
ATOM      5  C4  BZF d   1      -4.463  -3.394  -5.815  0.00  0.00     0.055 A 
ATOM      6  C5  BZF d   1      -5.688  -3.955  -5.992  0.00  0.00    -0.016 A 
ATOM      7  C6  BZF d   1      -5.967  -5.239  -5.574  0.00  0.00     0.022 A 
ATOM      8  C7  BZF d   1      -5.028  -5.998  -4.956  0.00  0.00     0.029 A 
ATOM      9  C7A BZF d   1      -3.799  -5.422  -4.746  0.00  0.00     0.058 A 
ENDROOT
TORSDOF 0
ENDMDL
