MODEL 1
REMARK minimizedAffinity 7.59250784
REMARK minimizedRMSD -1
REMARK  0 active torsions:
REMARK  status: ('A' for Active; 'I' for Inactive)
ROOT
ATOM      1  O1  BZF d   1       2.207   3.793  -0.709  0.00  0.00    -0.204 OA
ATOM      2  C2  BZF d   1       1.801   4.678  -1.689  0.00  0.00     0.174 A 
ATOM      3  C3  BZF d   1       0.495   4.505  -1.978  0.00  0.00    -0.012 A 
ATOM      4  C3A BZF d   1       0.035   3.508  -1.060  0.00  0.00    -0.107 A 
ATOM      5  C4  BZF d   1      -1.178   2.922  -0.842  0.00  0.00     0.055 A 
ATOM      6  C5  BZF d   1      -1.276   1.930   0.082  0.00  0.00    -0.016 A 
ATOM      7  C6  BZF d   1      -0.181   1.497   0.801  0.00  0.00     0.022 A 
ATOM      8  C7  BZF d   1       1.043   2.052   0.623  0.00  0.00     0.029 A 
ATOM      9  C7A BZF d   1       1.138   3.077  -0.286  0.00  0.00     0.058 A 
ENDROOT
TORSDOF 0
ENDMDL
