MODEL 1
REMARK minimizedAffinity 22.5384426
REMARK minimizedRMSD -1
REMARK  0 active torsions:
REMARK  status: ('A' for Active; 'I' for Inactive)
ROOT
ATOM      1  O1  BZF d   1       0.624  -3.436  -0.316  0.00  0.00    -0.204 OA
ATOM      2  C2  BZF d   1       1.004  -4.644  -0.868  0.00  0.00     0.174 A 
ATOM      3  C3  BZF d   1       2.344  -4.706  -1.008  0.00  0.00    -0.012 A 
ATOM      4  C3A BZF d   1       2.839  -3.495  -0.428  0.00  0.00    -0.107 A 
ATOM      5  C4  BZF d   1       4.092  -2.983  -0.251  0.00  0.00     0.055 A 
ATOM      6  C5  BZF d   1       4.229  -1.742   0.284  0.00  0.00    -0.016 A 
ATOM      7  C6  BZF d   1       3.136  -0.984   0.648  0.00  0.00     0.022 A 
ATOM      8  C7  BZF d   1       1.873  -1.451   0.496  0.00  0.00     0.029 A 
ATOM      9  C7A BZF d   1       1.732  -2.718  -0.014  0.00  0.00     0.058 A 
ENDROOT
TORSDOF 0
ENDMDL
