MODEL 1
REMARK minimizedAffinity 20.7739429
REMARK minimizedRMSD -1
REMARK  0 active torsions:
REMARK  status: ('A' for Active; 'I' for Inactive)
ROOT
ATOM      1  O1  BZF d   1       2.284  -4.866  -1.832  0.00  0.00    -0.204 OA
ATOM      2  C2  BZF d   1       1.737  -4.552  -3.060  0.00  0.00     0.174 A 
ATOM      3  C3  BZF d   1       2.652  -4.687  -4.041  0.00  0.00    -0.012 A 
ATOM      4  C3A BZF d   1       3.821  -5.201  -3.396  0.00  0.00    -0.107 A 
ATOM      5  C4  BZF d   1       5.061  -5.558  -3.845  0.00  0.00     0.055 A 
ATOM      6  C5  BZF d   1       6.000  -5.954  -2.946  0.00  0.00    -0.016 A 
ATOM      7  C6  BZF d   1       5.736  -6.000  -1.592  0.00  0.00     0.022 A 
ATOM      8  C7  BZF d   1       4.519  -5.660  -1.100  0.00  0.00     0.029 A 
ATOM      9  C7A BZF d   1       3.558  -5.291  -2.010  0.00  0.00     0.058 A 
ENDROOT
TORSDOF 0
ENDMDL
