MODEL 1
REMARK minimizedAffinity 12.354475
REMARK minimizedRMSD -1
REMARK  0 active torsions:
REMARK  status: ('A' for Active; 'I' for Inactive)
ROOT
ATOM      1  O1  BZF d   1       3.478   2.841   1.934  0.00  0.00    -0.204 OA
ATOM      2  C2  BZF d   1       2.863   2.073   2.904  0.00  0.00     0.174 A 
ATOM      3  C3  BZF d   1       1.626   1.709   2.513  0.00  0.00    -0.012 A 
ATOM      4  C3A BZF d   1       1.491   2.207   1.178  0.00  0.00    -0.107 A 
ATOM      5  C4  BZF d   1       0.490   2.149   0.251  0.00  0.00     0.055 A 
ATOM      6  C5  BZF d   1       0.646   2.800  -0.931  0.00  0.00    -0.016 A 
ATOM      7  C6  BZF d   1       1.786   3.522  -1.217  0.00  0.00     0.022 A 
ATOM      8  C7  BZF d   1       2.808   3.605  -0.331  0.00  0.00     0.029 A 
ATOM      9  C7A BZF d   1       2.667   2.920   0.851  0.00  0.00     0.058 A 
ENDROOT
TORSDOF 0
ENDMDL
