MODEL 1
REMARK minimizedAffinity 8.25834465
REMARK minimizedRMSD -1
REMARK  0 active torsions:
REMARK  status: ('A' for Active; 'I' for Inactive)
ROOT
ATOM      1  O1  BZF d   1       0.684  -2.728  -1.228  0.00  0.00    -0.204 OA
ATOM      2  C2  BZF d   1       0.717  -4.105  -1.126  0.00  0.00     0.174 A 
ATOM      3  C3  BZF d   1       1.897  -4.518  -0.619  0.00  0.00    -0.012 A 
ATOM      4  C3A BZF d   1       2.612  -3.320  -0.305  0.00  0.00    -0.107 A 
ATOM      5  C4  BZF d   1       3.840  -3.075   0.242  0.00  0.00     0.055 A 
ATOM      6  C5  BZF d   1       4.271  -1.791   0.347  0.00  0.00    -0.016 A 
ATOM      7  C6  BZF d   1       3.505  -0.729  -0.087  0.00  0.00     0.022 A 
ATOM      8  C7  BZF d   1       2.279  -0.922  -0.632  0.00  0.00     0.029 A 
ATOM      9  C7A BZF d   1       1.826  -2.216  -0.709  0.00  0.00     0.058 A 
ENDROOT
TORSDOF 0
ENDMDL
