MODEL 1
REMARK minimizedAffinity 9.38923454
REMARK minimizedRMSD -1
REMARK  0 active torsions:
REMARK  status: ('A' for Active; 'I' for Inactive)
ROOT
ATOM      1  O1  BZF d   1       0.202   1.749  -0.288  0.00  0.00    -0.204 OA
ATOM      2  C2  BZF d   1       0.919   1.630   0.887  0.00  0.00     0.174 A 
ATOM      3  C3  BZF d   1       0.269   2.229   1.906  0.00  0.00    -0.012 A 
ATOM      4  C3A BZF d   1      -0.972   2.675   1.351  0.00  0.00    -0.107 A 
ATOM      5  C4  BZF d   1      -2.054   3.326   1.872  0.00  0.00     0.055 A 
ATOM      6  C5  BZF d   1      -3.073   3.680   1.045  0.00  0.00    -0.016 A 
ATOM      7  C6  BZF d   1      -3.041   3.403  -0.306  0.00  0.00     0.022 A 
ATOM      8  C7  BZF d   1      -1.992   2.754  -0.867  0.00  0.00     0.029 A 
ATOM      9  C7A BZF d   1      -0.976   2.366  -0.029  0.00  0.00     0.058 A 
ENDROOT
TORSDOF 0
ENDMDL
