MODEL 1
REMARK minimizedAffinity -2.84732151
REMARK minimizedRMSD -1
REMARK  0 active torsions:
REMARK  status: ('A' for Active; 'I' for Inactive)
ROOT
ATOM      1  O1  BZF d   1       0.625  -1.776   3.269  0.00  0.00    -0.204 OA
ATOM      2  C2  BZF d   1       1.954  -1.426   3.416  0.00  0.00     0.174 A 
ATOM      3  C3  BZF d   1       2.329  -0.559   2.454  0.00  0.00    -0.012 A 
ATOM      4  C3A BZF d   1       1.138  -0.283   1.711  0.00  0.00    -0.107 A 
ATOM      5  C4  BZF d   1       0.865   0.518   0.639  0.00  0.00     0.055 A 
ATOM      6  C5  BZF d   1      -0.385   0.506   0.107  0.00  0.00    -0.016 A 
ATOM      7  C6  BZF d   1      -1.383  -0.298   0.617  0.00  0.00     0.022 A 
ATOM      8  C7  BZF d   1      -1.162  -1.106   1.682  0.00  0.00     0.029 A 
ATOM      9  C7A BZF d   1       0.092  -1.071   2.243  0.00  0.00     0.058 A 
ENDROOT
TORSDOF 0
ENDMDL
