MODEL 1
REMARK minimizedAffinity -4.44670105
REMARK minimizedRMSD -1
REMARK  0 active torsions:
REMARK  status: ('A' for Active; 'I' for Inactive)
ROOT
ATOM      1  O1  BZF d   1       0.379  -0.109  -0.906  0.00  0.00    -0.204 OA
ATOM      2  C2  BZF d   1      -0.669   0.571  -0.317  0.00  0.00     0.174 A 
ATOM      3  C3  BZF d   1      -0.701   0.343   1.012  0.00  0.00    -0.012 A 
ATOM      4  C3A BZF d   1       0.451  -0.460   1.284  0.00  0.00    -0.107 A 
ATOM      5  C4  BZF d   1       0.974  -0.997   2.426  0.00  0.00     0.055 A 
ATOM      6  C5  BZF d   1       2.071  -1.794   2.339  0.00  0.00    -0.016 A 
ATOM      7  C6  BZF d   1       2.668  -2.078   1.128  0.00  0.00     0.022 A 
ATOM      8  C7  BZF d   1       2.189  -1.565  -0.031  0.00  0.00     0.029 A 
ATOM      9  C7A BZF d   1       1.100  -0.733   0.057  0.00  0.00     0.058 A 
ENDROOT
TORSDOF 0
ENDMDL
