MODEL 1
REMARK minimizedAffinity -4.7115593
REMARK minimizedRMSD -1
REMARK  0 active torsions:
REMARK  status: ('A' for Active; 'I' for Inactive)
ROOT
ATOM      1  O1  BZF d   1       1.945  -2.014  -0.141  0.00  0.00    -0.204 OA
ATOM      2  C2  BZF d   1       2.536  -2.619   0.952  0.00  0.00     0.174 A 
ATOM      3  C3  BZF d   1       1.949  -2.216   2.097  0.00  0.00    -0.012 A 
ATOM      4  C3A BZF d   1       0.868  -1.373   1.689  0.00  0.00    -0.107 A 
ATOM      5  C4  BZF d   1      -0.094  -0.683   2.371  0.00  0.00     0.055 A 
ATOM      6  C5  BZF d   1      -0.958   0.105   1.679  0.00  0.00    -0.016 A 
ATOM      7  C6  BZF d   1      -0.885   0.231   0.307  0.00  0.00     0.022 A 
ATOM      8  C7  BZF d   1       0.048  -0.437  -0.413  0.00  0.00     0.029 A 
ATOM      9  C7A BZF d   1       0.901  -1.260   0.280  0.00  0.00     0.058 A 
ENDROOT
TORSDOF 0
ENDMDL
