MODEL 1
REMARK minimizedAffinity -2.37879205
REMARK minimizedRMSD -1
REMARK  0 active torsions:
REMARK  status: ('A' for Active; 'I' for Inactive)
ROOT
ATOM      1  O1  BZF d   1      -0.708  -0.172   1.872  0.00  0.00    -0.204 OA
ATOM      2  C2  BZF d   1      -0.061  -0.634   3.002  0.00  0.00     0.174 A 
ATOM      3  C3  BZF d   1       1.051  -1.320   2.669  0.00  0.00    -0.012 A 
ATOM      4  C3A BZF d   1       1.153  -1.206   1.247  0.00  0.00    -0.107 A 
ATOM      5  C4  BZF d   1       2.056  -1.662   0.330  0.00  0.00     0.055 A 
ATOM      6  C5  BZF d   1       1.827  -1.439  -0.991  0.00  0.00    -0.016 A 
ATOM      7  C6  BZF d   1       0.704  -0.769  -1.430  0.00  0.00     0.022 A 
ATOM      8  C7  BZF d   1      -0.218  -0.293  -0.558  0.00  0.00     0.029 A 
ATOM      9  C7A BZF d   1       0.028  -0.488   0.779  0.00  0.00     0.058 A 
ENDROOT
TORSDOF 0
ENDMDL
