MODEL 1
REMARK minimizedAffinity -2.78127766
REMARK minimizedRMSD -1
REMARK  0 active torsions:
REMARK  status: ('A' for Active; 'I' for Inactive)
ROOT
ATOM      1  O1  BZF d   1       0.862  -2.048  -0.889  0.00  0.00    -0.204 OA
ATOM      2  C2  BZF d   1       1.829  -1.235  -1.450  0.00  0.00     0.174 A 
ATOM      3  C3  BZF d   1       2.368  -0.421  -0.520  0.00  0.00    -0.012 A 
ATOM      4  C3A BZF d   1       1.762  -0.809   0.717  0.00  0.00    -0.107 A 
ATOM      5  C4  BZF d   1       1.900  -0.380   2.006  0.00  0.00     0.055 A 
ATOM      6  C5  BZF d   1       1.107  -0.917   2.970  0.00  0.00    -0.016 A 
ATOM      7  C6  BZF d   1       0.164  -1.881   2.680  0.00  0.00     0.022 A 
ATOM      8  C7  BZF d   1      -0.007  -2.342   1.417  0.00  0.00     0.029 A 
ATOM      9  C7A BZF d   1       0.816  -1.824   0.446  0.00  0.00     0.058 A 
ENDROOT
TORSDOF 0
ENDMDL
