MODEL 1
REMARK minimizedAffinity -5.69111538
REMARK minimizedRMSD -1
REMARK  0 active torsions:
REMARK  status: ('A' for Active; 'I' for Inactive)
ROOT
ATOM      1  O1  BZF d   1      -1.208  -1.386   0.103  0.00  0.00    -0.204 OA
ATOM      2  C2  BZF d   1      -0.830  -1.184  -1.211  0.00  0.00     0.174 A 
ATOM      3  C3  BZF d   1       0.434  -0.719  -1.280  0.00  0.00    -0.012 A 
ATOM      4  C3A BZF d   1       0.905  -0.711   0.071  0.00  0.00    -0.107 A 
ATOM      5  C4  BZF d   1       2.094  -0.367   0.648  0.00  0.00     0.055 A 
ATOM      6  C5  BZF d   1       2.206  -0.404   2.002  0.00  0.00    -0.016 A 
ATOM      7  C6  BZF d   1       1.150  -0.775   2.808  0.00  0.00     0.022 A 
ATOM      8  C7  BZF d   1      -0.047  -1.130   2.281  0.00  0.00     0.029 A 
ATOM      9  C7A BZF d   1      -0.153  -1.125   0.912  0.00  0.00     0.058 A 
ENDROOT
TORSDOF 0
ENDMDL
