MODEL 1
REMARK minimizedAffinity -1.00883055
REMARK minimizedRMSD -1
REMARK  0 active torsions:
REMARK  status: ('A' for Active; 'I' for Inactive)
ROOT
ATOM      1  O1  BZF d   1      -0.920  -1.154   2.807  0.00  0.00    -0.204 OA
ATOM      2  C2  BZF d   1      -1.804  -1.228   1.748  0.00  0.00     0.174 A 
ATOM      3  C3  BZF d   1      -1.152  -1.124   0.572  0.00  0.00    -0.012 A 
ATOM      4  C3A BZF d   1       0.236  -1.067   0.915  0.00  0.00    -0.107 A 
ATOM      5  C4  BZF d   1       1.382  -0.975   0.178  0.00  0.00     0.055 A 
ATOM      6  C5  BZF d   1       2.574  -0.867   0.822  0.00  0.00    -0.016 A 
ATOM      7  C6  BZF d   1       2.656  -0.842   2.199  0.00  0.00     0.022 A 
ATOM      8  C7  BZF d   1       1.547  -0.936   2.972  0.00  0.00     0.029 A 
ATOM      9  C7A BZF d   1       0.344  -1.078   2.325  0.00  0.00     0.058 A 
ENDROOT
TORSDOF 0
ENDMDL
