MODEL 1
REMARK minimizedAffinity -3.84460974
REMARK minimizedRMSD -1
REMARK  0 active torsions:
REMARK  status: ('A' for Active; 'I' for Inactive)
ROOT
ATOM      1  C1  BNZ d   1       0.893   0.544   1.716  0.00  0.00     0.000 A 
ATOM      2  C2  BNZ d   1       0.268  -0.098   0.680  0.00  0.00     0.000 A 
ATOM      3  C3  BNZ d   1      -0.845  -0.861   0.899  0.00  0.00     0.000 A 
ATOM      4  C4  BNZ d   1      -1.308  -1.012   2.157  0.00  0.00     0.000 A 
ATOM      5  C5  BNZ d   1      -0.684  -0.378   3.213  0.00  0.00     0.000 A 
ATOM      6  C6  BNZ d   1       0.414   0.420   2.983  0.00  0.00     0.000 A 
ENDROOT
TORSDOF 0
ENDMDL
