MODEL 1
REMARK minimizedAffinity -4.25892401
REMARK minimizedRMSD -1
REMARK  0 active torsions:
REMARK  status: ('A' for Active; 'I' for Inactive)
ROOT
ATOM      1  C1  BNZ d   1      -1.556   0.562   0.530  0.00  0.00     0.000 A 
ATOM      2  C2  BNZ d   1      -2.049   0.756   1.793  0.00  0.00     0.000 A 
ATOM      3  C3  BNZ d   1      -1.611  -0.005   2.840  0.00  0.00     0.000 A 
ATOM      4  C4  BNZ d   1      -0.711  -0.985   2.617  0.00  0.00     0.000 A 
ATOM      5  C5  BNZ d   1      -0.212  -1.199   1.348  0.00  0.00     0.000 A 
ATOM      6  C6  BNZ d   1      -0.626  -0.405   0.303  0.00  0.00     0.000 A 
ENDROOT
TORSDOF 0
ENDMDL
