MODEL 1
REMARK minimizedAffinity -1.22527313
REMARK minimizedRMSD -1
REMARK  0 active torsions:
REMARK  status: ('A' for Active; 'I' for Inactive)
ROOT
ATOM      1  C1  BNZ d   1      -4.490  -6.000   1.603  0.00  0.00     0.000 A 
ATOM      2  C2  BNZ d   1      -4.130  -4.982   0.760  0.00  0.00     0.000 A 
ATOM      3  C3  BNZ d   1      -3.386  -3.928   1.214  0.00  0.00     0.000 A 
ATOM      4  C4  BNZ d   1      -3.039  -3.874   2.516  0.00  0.00     0.000 A 
ATOM      5  C5  BNZ d   1      -3.402  -4.887   3.379  0.00  0.00     0.000 A 
ATOM      6  C6  BNZ d   1      -4.118  -5.966   2.911  0.00  0.00     0.000 A 
ENDROOT
TORSDOF 0
ENDMDL
