MODEL 1
REMARK minimizedAffinity -1.6548866
REMARK minimizedRMSD -1
REMARK  0 active torsions:
REMARK  status: ('A' for Active; 'I' for Inactive)
ROOT
ATOM      1  C1  BNZ d   1      -5.487  -5.999   3.001  0.00  0.00     0.000 A 
ATOM      2  C2  BNZ d   1      -5.494  -6.000   1.632  0.00  0.00     0.000 A 
ATOM      3  C3  BNZ d   1      -4.442  -5.485   0.926  0.00  0.00     0.000 A 
ATOM      4  C4  BNZ d   1      -3.405  -4.934   1.590  0.00  0.00     0.000 A 
ATOM      5  C5  BNZ d   1      -3.388  -4.917   2.970  0.00  0.00     0.000 A 
ATOM      6  C6  BNZ d   1      -4.431  -5.471   3.677  0.00  0.00     0.000 A 
ENDROOT
TORSDOF 0
ENDMDL
