MODEL 1
REMARK minimizedAffinity 3.39767361
REMARK minimizedRMSD -1
REMARK  0 active torsions:
REMARK  status: ('A' for Active; 'I' for Inactive)
ROOT
ATOM      1  C1  BNZ d   1      -2.301  -2.824   0.833  0.00  0.00     0.000 A 
ATOM      2  C2  BNZ d   1      -1.010  -2.369   0.880  0.00  0.00     0.000 A 
ATOM      3  C3  BNZ d   1      -0.704  -1.092   0.503  0.00  0.00     0.000 A 
ATOM      4  C4  BNZ d   1      -1.681  -0.284   0.042  0.00  0.00     0.000 A 
ATOM      5  C5  BNZ d   1      -2.985  -0.731  -0.020  0.00  0.00     0.000 A 
ATOM      6  C6  BNZ d   1      -3.296  -2.005   0.397  0.00  0.00     0.000 A 
ENDROOT
TORSDOF 0
ENDMDL
