MODEL 1
REMARK minimizedAffinity -0.0266278982
REMARK minimizedRMSD -1
REMARK  0 active torsions:
REMARK  status: ('A' for Active; 'I' for Inactive)
ROOT
ATOM      1  C1  BNZ d   1      -5.270  -5.943   1.215  0.00  0.00     0.000 A 
ATOM      2  C2  BNZ d   1      -3.902  -5.987   1.157  0.00  0.00     0.000 A 
ATOM      3  C3  BNZ d   1      -3.252  -5.994  -0.045  0.00  0.00     0.000 A 
ATOM      4  C4  BNZ d   1      -3.970  -5.999  -1.187  0.00  0.00     0.000 A 
ATOM      5  C5  BNZ d   1      -5.350  -5.964  -1.145  0.00  0.00     0.000 A 
ATOM      6  C6  BNZ d   1      -6.000  -5.917   0.067  0.00  0.00     0.000 A 
ENDROOT
TORSDOF 0
ENDMDL
