MODEL 1
REMARK minimizedAffinity -1.20662701
REMARK minimizedRMSD -1
REMARK  0 active torsions:
REMARK  status: ('A' for Active; 'I' for Inactive)
ROOT
ATOM      1  C1  BNZ d   1      -4.049   2.174   2.454  0.00  0.00     0.000 A 
ATOM      2  C2  BNZ d   1      -2.697   2.092   2.654  0.00  0.00     0.000 A 
ATOM      3  C3  BNZ d   1      -2.139   2.490   3.837  0.00  0.00     0.000 A 
ATOM      4  C4  BNZ d   1      -2.928   3.006   4.802  0.00  0.00     0.000 A 
ATOM      5  C5  BNZ d   1      -4.292   3.104   4.611  0.00  0.00     0.000 A 
ATOM      6  C6  BNZ d   1      -4.854   2.667   3.434  0.00  0.00     0.000 A 
ENDROOT
TORSDOF 0
ENDMDL
