MODEL 1
REMARK minimizedAffinity -4.40718508
REMARK minimizedRMSD -1
REMARK  0 active torsions:
REMARK  status: ('A' for Active; 'I' for Inactive)
ROOT
ATOM      1  C1  BNZ d   1      -0.963   0.006   2.442  0.00  0.00     0.000 A 
ATOM      2  C2  BNZ d   1      -1.107   0.200   1.094  0.00  0.00     0.000 A 
ATOM      3  C3  BNZ d   1      -0.015   0.405   0.296  0.00  0.00     0.000 A 
ATOM      4  C4  BNZ d   1       1.212   0.456   0.853  0.00  0.00     0.000 A 
ATOM      5  C5  BNZ d   1       1.372   0.272   2.212  0.00  0.00     0.000 A 
ATOM      6  C6  BNZ d   1       0.275   0.027   3.006  0.00  0.00     0.000 A 
ENDROOT
TORSDOF 0
ENDMDL
