MODEL 1
REMARK minimizedAffinity -4.4896493
REMARK minimizedRMSD -1
REMARK  0 active torsions:
REMARK  status: ('A' for Active; 'I' for Inactive)
ROOT
ATOM      1  C1  BNZ d   1      -0.291  -0.384   2.850  0.00  0.00     0.000 A 
ATOM      2  C2  BNZ d   1      -0.791  -0.901   1.685  0.00  0.00     0.000 A 
ATOM      3  C3  BNZ d   1      -0.392  -0.409   0.474  0.00  0.00     0.000 A 
ATOM      4  C4  BNZ d   1       0.474   0.624   0.430  0.00  0.00     0.000 A 
ATOM      5  C5  BNZ d   1       0.980   1.162   1.596  0.00  0.00     0.000 A 
ATOM      6  C6  BNZ d   1       0.606   0.638   2.813  0.00  0.00     0.000 A 
ENDROOT
TORSDOF 0
ENDMDL
