MODEL 1
REMARK minimizedAffinity -4.63353443
REMARK minimizedRMSD -1
REMARK  0 active torsions:
REMARK  status: ('A' for Active; 'I' for Inactive)
ROOT
ATOM      1  C1  BNZ d   1      -0.150  -0.044   2.617  0.00  0.00     0.000 A 
ATOM      2  C2  BNZ d   1       1.148  -0.198   3.025  0.00  0.00     0.000 A 
ATOM      3  C3  BNZ d   1       2.175  -0.144   2.125  0.00  0.00     0.000 A 
ATOM      4  C4  BNZ d   1       1.901   0.024   0.815  0.00  0.00     0.000 A 
ATOM      5  C5  BNZ d   1       0.597   0.171   0.387  0.00  0.00     0.000 A 
ATOM      6  C6  BNZ d   1      -0.432   0.155   1.301  0.00  0.00     0.000 A 
ENDROOT
TORSDOF 0
ENDMDL
