MODEL 1
REMARK minimizedAffinity -4.60689926
REMARK minimizedRMSD -1
REMARK  0 active torsions:
REMARK  status: ('A' for Active; 'I' for Inactive)
ROOT
ATOM      1  C1  BNZ d   1      -0.628  -0.073   3.268  0.00  0.00     0.000 A 
ATOM      2  C2  BNZ d   1      -1.320  -0.456   2.150  0.00  0.00     0.000 A 
ATOM      3  C3  BNZ d   1      -0.783  -0.293   0.904  0.00  0.00     0.000 A 
ATOM      4  C4  BNZ d   1       0.427   0.289   0.774  0.00  0.00     0.000 A 
ATOM      5  C5  BNZ d   1       1.133   0.689   1.891  0.00  0.00     0.000 A 
ATOM      6  C6  BNZ d   1       0.606   0.488   3.146  0.00  0.00     0.000 A 
ENDROOT
TORSDOF 0
ENDMDL
