MODEL 1
REMARK minimizedAffinity -4.47000504
REMARK minimizedRMSD -1
REMARK  0 active torsions:
REMARK  status: ('A' for Active; 'I' for Inactive)
ROOT
ATOM      1  C1  BNZ d   1       1.017   0.465   1.786  0.00  0.00     0.000 A 
ATOM      2  C2  BNZ d   1       0.415   0.200   0.585  0.00  0.00     0.000 A 
ATOM      3  C3  BNZ d   1      -0.763  -0.492   0.530  0.00  0.00     0.000 A 
ATOM      4  C4  BNZ d   1      -1.315  -0.952   1.671  0.00  0.00     0.000 A 
ATOM      5  C5  BNZ d   1      -0.715  -0.700   2.889  0.00  0.00     0.000 A 
ATOM      6  C6  BNZ d   1       0.450   0.030   2.943  0.00  0.00     0.000 A 
ENDROOT
TORSDOF 0
ENDMDL
