MODEL 1
REMARK minimizedAffinity -1.35932899
REMARK minimizedRMSD -1
REMARK  0 active torsions:
REMARK  status: ('A' for Active; 'I' for Inactive)
ROOT
ATOM      1  C1  BNZ d   1      -0.462   0.894   1.141  0.00  0.00     0.000 A 
ATOM      2  C2  BNZ d   1      -0.029   0.588   2.403  0.00  0.00     0.000 A 
ATOM      3  C3  BNZ d   1       1.117  -0.132   2.595  0.00  0.00     0.000 A 
ATOM      4  C4  BNZ d   1       1.807  -0.577   1.525  0.00  0.00     0.000 A 
ATOM      5  C5  BNZ d   1       1.378  -0.284   0.246  0.00  0.00     0.000 A 
ATOM      6  C6  BNZ d   1       0.245   0.473   0.057  0.00  0.00     0.000 A 
ENDROOT
TORSDOF 0
ENDMDL
