MODEL 1
REMARK minimizedAffinity -4.15899467
REMARK minimizedRMSD -1
REMARK  0 active torsions:
REMARK  status: ('A' for Active; 'I' for Inactive)
ROOT
ATOM      1  C1  BNZ d   1      -0.686  -0.196   0.213  0.00  0.00     0.000 A 
ATOM      2  C2  BNZ d   1      -1.220  -0.597   1.409  0.00  0.00     0.000 A 
ATOM      3  C3  BNZ d   1      -0.556  -0.373   2.582  0.00  0.00     0.000 A 
ATOM      4  C4  BNZ d   1       0.657   0.214   2.556  0.00  0.00     0.000 A 
ATOM      5  C5  BNZ d   1       1.214   0.616   1.358  0.00  0.00     0.000 A 
ATOM      6  C6  BNZ d   1       0.525   0.425   0.182  0.00  0.00     0.000 A 
ENDROOT
TORSDOF 0
ENDMDL
