MODEL 1
REMARK minimizedAffinity 10.1144323
REMARK minimizedRMSD -1
REMARK  0 active torsions:
REMARK  status: ('A' for Active; 'I' for Inactive)
ROOT
ATOM      1  C1  BNZ d   1       2.202   0.836  -2.188  0.00  0.00     0.000 A 
ATOM      2  C2  BNZ d   1       3.319   1.144  -2.918  0.00  0.00     0.000 A 
ATOM      3  C3  BNZ d   1       4.186   0.166  -3.317  0.00  0.00     0.000 A 
ATOM      4  C4  BNZ d   1       3.957  -1.112  -2.953  0.00  0.00     0.000 A 
ATOM      5  C5  BNZ d   1       2.840  -1.438  -2.210  0.00  0.00     0.000 A 
ATOM      6  C6  BNZ d   1       1.949  -0.456  -1.842  0.00  0.00     0.000 A 
ENDROOT
TORSDOF 0
ENDMDL
