MODEL 1
REMARK minimizedAffinity -3.51970458
REMARK minimizedRMSD -1
REMARK  0 active torsions:
REMARK  status: ('A' for Active; 'I' for Inactive)
ROOT
ATOM      1  C1  BNZ d   1       3.503   1.101  -2.370  0.00  0.00     0.000 A 
ATOM      2  C2  BNZ d   1       2.387   0.480  -1.874  0.00  0.00     0.000 A 
ATOM      3  C3  BNZ d   1       2.006  -0.749  -2.336  0.00  0.00     0.000 A 
ATOM      4  C4  BNZ d   1       2.716  -1.337  -3.320  0.00  0.00     0.000 A 
ATOM      5  C5  BNZ d   1       3.838  -0.719  -3.838  0.00  0.00     0.000 A 
ATOM      6  C6  BNZ d   1       4.241   0.500  -3.343  0.00  0.00     0.000 A 
ENDROOT
TORSDOF 0
ENDMDL
