MODEL 1
REMARK minimizedAffinity -0.1844583
REMARK minimizedRMSD -1
REMARK  0 active torsions:
REMARK  status: ('A' for Active; 'I' for Inactive)
ROOT
ATOM      1  C1  BNZ d   1       3.719  -1.557   4.343  0.00  0.00     0.000 A 
ATOM      2  C2  BNZ d   1       4.311  -0.780   3.384  0.00  0.00     0.000 A 
ATOM      3  C3  BNZ d   1       3.895  -0.836   2.083  0.00  0.00     0.000 A 
ATOM      4  C4  BNZ d   1       2.916  -1.697   1.737  0.00  0.00     0.000 A 
ATOM      5  C5  BNZ d   1       2.316  -2.494   2.691  0.00  0.00     0.000 A 
ATOM      6  C6  BNZ d   1       2.711  -2.406   4.006  0.00  0.00     0.000 A 
ENDROOT
TORSDOF 0
ENDMDL
