MODEL 1
REMARK minimizedAffinity 2.64606309
REMARK minimizedRMSD -1
REMARK  0 active torsions:
REMARK  status: ('A' for Active; 'I' for Inactive)
ROOT
ATOM      1  C1  BNZ d   1       1.301  -5.979  -1.930  0.00  0.00     0.000 A 
ATOM      2  C2  BNZ d   1       2.534  -5.973  -1.335  0.00  0.00     0.000 A 
ATOM      3  C3  BNZ d   1       2.654  -5.998   0.027  0.00  0.00     0.000 A 
ATOM      4  C4  BNZ d   1       1.543  -5.989   0.791  0.00  0.00     0.000 A 
ATOM      5  C5  BNZ d   1       0.292  -5.986   0.206  0.00  0.00     0.000 A 
ATOM      6  C6  BNZ d   1       0.175  -6.000  -1.165  0.00  0.00     0.000 A 
ENDROOT
TORSDOF 0
ENDMDL
