MODEL 1
REMARK minimizedAffinity 4.10254669
REMARK minimizedRMSD -1
REMARK  0 active torsions:
REMARK  status: ('A' for Active; 'I' for Inactive)
ROOT
ATOM      1  C1  BNZ d   1      -5.477  -0.659  -1.867  0.00  0.00     0.000 A 
ATOM      2  C2  BNZ d   1      -4.260  -0.992  -2.399  0.00  0.00     0.000 A 
ATOM      3  C3  BNZ d   1      -3.476  -0.047  -3.000  0.00  0.00     0.000 A 
ATOM      4  C4  BNZ d   1      -3.927   1.220  -3.104  0.00  0.00     0.000 A 
ATOM      5  C5  BNZ d   1      -5.156   1.569  -2.581  0.00  0.00     0.000 A 
ATOM      6  C6  BNZ d   1      -5.925   0.624  -1.942  0.00  0.00     0.000 A 
ENDROOT
TORSDOF 0
ENDMDL
