MODEL 1
REMARK minimizedAffinity 5.54184437
REMARK minimizedRMSD -1
REMARK  0 active torsions:
REMARK  status: ('A' for Active; 'I' for Inactive)
ROOT
ATOM      1  C1  BNZ d   1       2.934  -2.417   3.398  0.00  0.00     0.000 A 
ATOM      2  C2  BNZ d   1       3.287  -1.707   2.281  0.00  0.00     0.000 A 
ATOM      3  C3  BNZ d   1       2.424  -0.808   1.721  0.00  0.00     0.000 A 
ATOM      4  C4  BNZ d   1       1.195  -0.648   2.254  0.00  0.00     0.000 A 
ATOM      5  C5  BNZ d   1       0.821  -1.363   3.375  0.00  0.00     0.000 A 
ATOM      6  C6  BNZ d   1       1.707  -2.239   3.958  0.00  0.00     0.000 A 
ENDROOT
TORSDOF 0
ENDMDL
