MODEL 1
REMARK minimizedAffinity 0.121015243
REMARK minimizedRMSD -1
REMARK  0 active torsions:
REMARK  status: ('A' for Active; 'I' for Inactive)
ROOT
ATOM      1  C1  BNZ d   1       1.144  -2.272   4.245  0.00  0.00     0.000 A 
ATOM      2  C2  BNZ d   1       1.142  -0.908   4.124  0.00  0.00     0.000 A 
ATOM      3  C3  BNZ d   1       1.710  -0.301   3.038  0.00  0.00     0.000 A 
ATOM      4  C4  BNZ d   1       2.313  -1.056   2.097  0.00  0.00     0.000 A 
ATOM      5  C5  BNZ d   1       2.331  -2.432   2.210  0.00  0.00     0.000 A 
ATOM      6  C6  BNZ d   1       1.725  -3.041   3.284  0.00  0.00     0.000 A 
ENDROOT
TORSDOF 0
ENDMDL
