MODEL 1
REMARK minimizedAffinity 0.704345047
REMARK minimizedRMSD -1
REMARK  0 active torsions:
REMARK  status: ('A' for Active; 'I' for Inactive)
ROOT
ATOM      1  C1  BNZ d   1       3.936  -5.917  -1.578  0.00  0.00     0.000 A 
ATOM      2  C2  BNZ d   1       2.606  -5.923  -1.903  0.00  0.00     0.000 A 
ATOM      3  C3  BNZ d   1       2.205  -5.985  -3.208  0.00  0.00     0.000 A 
ATOM      4  C4  BNZ d   1       3.132  -6.000  -4.187  0.00  0.00     0.000 A 
ATOM      5  C5  BNZ d   1       4.477  -5.985  -3.876  0.00  0.00     0.000 A 
ATOM      6  C6  BNZ d   1       4.878  -5.962  -2.559  0.00  0.00     0.000 A 
ENDROOT
TORSDOF 0
ENDMDL
