MODEL 1
REMARK minimizedAffinity -0.503159046
REMARK minimizedRMSD -1
REMARK  0 active torsions:
REMARK  status: ('A' for Active; 'I' for Inactive)
ROOT
ATOM      1  C1  BNZ d   1       3.928  -2.658   3.404  0.00  0.00     0.000 A 
ATOM      2  C2  BNZ d   1       3.210  -1.569   2.988  0.00  0.00     0.000 A 
ATOM      3  C3  BNZ d   1       1.850  -1.633   2.866  0.00  0.00     0.000 A 
ATOM      4  C4  BNZ d   1       1.215  -2.795   3.121  0.00  0.00     0.000 A 
ATOM      5  C5  BNZ d   1       1.926  -3.905   3.532  0.00  0.00     0.000 A 
ATOM      6  C6  BNZ d   1       3.291  -3.826   3.691  0.00  0.00     0.000 A 
ENDROOT
TORSDOF 0
ENDMDL
