MODEL 1
REMARK minimizedAffinity 4.57602978
REMARK minimizedRMSD -1
REMARK  0 active torsions:
REMARK  status: ('A' for Active; 'I' for Inactive)
ROOT
ATOM      1  C1  BNZ d   1       2.997  -4.118  -0.993  0.00  0.00     0.000 A 
ATOM      2  C2  BNZ d   1       3.540  -4.125  -2.251  0.00  0.00     0.000 A 
ATOM      3  C3  BNZ d   1       4.448  -5.079  -2.615  0.00  0.00     0.000 A 
ATOM      4  C4  BNZ d   1       4.842  -6.000  -1.712  0.00  0.00     0.000 A 
ATOM      5  C5  BNZ d   1       4.311  -6.000  -0.437  0.00  0.00     0.000 A 
ATOM      6  C6  BNZ d   1       3.368  -5.062  -0.086  0.00  0.00     0.000 A 
ENDROOT
TORSDOF 0
ENDMDL
