MODEL 1
REMARK minimizedAffinity 4.09283829
REMARK minimizedRMSD -1
REMARK  0 active torsions:
REMARK  status: ('A' for Active; 'I' for Inactive)
ROOT
ATOM      1  C1  BNZ d   1      -5.998   3.575  -1.078  0.00  0.00     0.000 A 
ATOM      2  C2  BNZ d   1      -6.000   2.287  -0.615  0.00  0.00     0.000 A 
ATOM      3  C3  BNZ d   1      -5.679   2.010   0.685  0.00  0.00     0.000 A 
ATOM      4  C4  BNZ d   1      -5.318   3.016   1.507  0.00  0.00     0.000 A 
ATOM      5  C5  BNZ d   1      -5.302   4.320   1.052  0.00  0.00     0.000 A 
ATOM      6  C6  BNZ d   1      -5.663   4.598  -0.246  0.00  0.00     0.000 A 
ENDROOT
TORSDOF 0
ENDMDL
