MODEL 1
REMARK minimizedAffinity -3.95953941
REMARK minimizedRMSD -1
REMARK  0 active torsions:
REMARK  status: ('A' for Active; 'I' for Inactive)
ROOT
ATOM      1  C1  BNZ d   1       1.184  -2.759   3.333  0.00  0.00     0.000 A 
ATOM      2  C2  BNZ d   1       1.921  -3.503   2.450  0.00  0.00     0.000 A 
ATOM      3  C3  BNZ d   1       3.034  -2.981   1.853  0.00  0.00     0.000 A 
ATOM      4  C4  BNZ d   1       3.386  -1.704   2.109  0.00  0.00     0.000 A 
ATOM      5  C5  BNZ d   1       2.649  -0.939   2.990  0.00  0.00     0.000 A 
ATOM      6  C6  BNZ d   1       1.551  -1.480   3.618  0.00  0.00     0.000 A 
ENDROOT
TORSDOF 0
ENDMDL
