MODEL 1
REMARK minimizedAffinity 12.3612137
REMARK minimizedRMSD -1
REMARK  0 active torsions:
REMARK  status: ('A' for Active; 'I' for Inactive)
ROOT
ATOM      1  C2' OXE d   1       0.814   4.818  -3.632  0.00  0.00     0.078 C 
ATOM      2  C1' OXE d   1       2.196   2.380  -3.462  0.00  0.00     0.078 C 
ATOM      3  C1  OXE d   1       2.916   3.629  -3.017  0.00  0.00    -0.078 A 
ATOM      4  C2  OXE d   1       2.248   4.823  -3.147  0.00  0.00    -0.078 A 
ATOM      5  C3  OXE d   1       2.845   5.998  -2.701  0.00  0.00     0.003 A 
ATOM      6  C4  OXE d   1       4.175   5.996  -2.263  0.00  0.00    -0.002 A 
ATOM      7  C5  OXE d   1       4.887   4.796  -2.160  0.00  0.00    -0.002 A 
ATOM      8  C6  OXE d   1       4.258   3.601  -2.492  0.00  0.00     0.003 A 
ENDROOT
TORSDOF 0
ENDMDL
