MODEL 1
REMARK minimizedAffinity 6.27250671
REMARK minimizedRMSD -1
REMARK  0 active torsions:
REMARK  status: ('A' for Active; 'I' for Inactive)
ROOT
ATOM      1  C2' OXE d   1      -3.894  -2.594   3.442  0.00  0.00     0.078 C 
ATOM      2  C1' OXE d   1      -4.397  -4.896   1.917  0.00  0.00     0.078 C 
ATOM      3  C1  OXE d   1      -4.893  -4.873   3.341  0.00  0.00    -0.078 A 
ATOM      4  C2  OXE d   1      -4.602  -3.761   4.095  0.00  0.00    -0.078 A 
ATOM      5  C3  OXE d   1      -5.083  -3.666   5.397  0.00  0.00     0.003 A 
ATOM      6  C4  OXE d   1      -5.728  -4.754   5.996  0.00  0.00    -0.002 A 
ATOM      7  C5  OXE d   1      -6.000  -5.912   5.259  0.00  0.00    -0.002 A 
ATOM      8  C6  OXE d   1      -5.627  -5.971   3.921  0.00  0.00     0.003 A 
ENDROOT
TORSDOF 0
ENDMDL
