MODEL 1
REMARK minimizedAffinity 9.95217037
REMARK minimizedRMSD -1
REMARK  0 active torsions:
REMARK  status: ('A' for Active; 'I' for Inactive)
ROOT
ATOM      1  C2' OXE d   1       3.381   2.569  -3.124  0.00  0.00     0.078 C 
ATOM      2  C1' OXE d   1       4.890   3.366  -5.352  0.00  0.00     0.078 C 
ATOM      3  C1  OXE d   1       5.046   4.157  -4.077  0.00  0.00    -0.078 A 
ATOM      4  C2  OXE d   1       4.269   3.788  -3.006  0.00  0.00    -0.078 A 
ATOM      5  C3  OXE d   1       4.413   4.449  -1.789  0.00  0.00     0.003 A 
ATOM      6  C4  OXE d   1       5.230   5.583  -1.691  0.00  0.00    -0.002 A 
ATOM      7  C5  OXE d   1       6.000   5.999  -2.782  0.00  0.00    -0.002 A 
ATOM      8  C6  OXE d   1       5.952   5.273  -3.967  0.00  0.00     0.003 A 
ENDROOT
TORSDOF 0
ENDMDL
