MODEL 1
REMARK minimizedAffinity 15.5001078
REMARK minimizedRMSD -1
REMARK  0 active torsions:
REMARK  status: ('A' for Active; 'I' for Inactive)
ROOT
ATOM      1  C2' OXE d   1      -1.184  -1.232   0.134  0.00  0.00     0.078 C 
ATOM      2  C1' OXE d   1       0.528  -1.525   2.340  0.00  0.00     0.078 C 
ATOM      3  C1  OXE d   1      -0.777  -0.800   2.554  0.00  0.00    -0.078 A 
ATOM      4  C2  OXE d   1      -1.587  -0.620   1.458  0.00  0.00    -0.078 A 
ATOM      5  C3  OXE d   1      -2.827  -0.006   1.611  0.00  0.00     0.003 A 
ATOM      6  C4  OXE d   1      -3.188   0.566   2.837  0.00  0.00    -0.002 A 
ATOM      7  C5  OXE d   1      -2.360   0.429   3.956  0.00  0.00    -0.002 A 
ATOM      8  C6  OXE d   1      -1.173  -0.286   3.842  0.00  0.00     0.003 A 
ENDROOT
TORSDOF 0
ENDMDL
