MODEL 1
REMARK minimizedAffinity 11.74158
REMARK minimizedRMSD -1
REMARK  0 active torsions:
REMARK  status: ('A' for Active; 'I' for Inactive)
ROOT
ATOM      1  C2' OXE d   1       4.124   1.681  -0.759  0.00  0.00     0.078 C 
ATOM      2  C1' OXE d   1       6.000   3.750  -0.473  0.00  0.00     0.078 C 
ATOM      3  C1  OXE d   1       5.214   3.685  -1.759  0.00  0.00    -0.078 A 
ATOM      4  C2  OXE d   1       4.332   2.642  -1.909  0.00  0.00    -0.078 A 
ATOM      5  C3  OXE d   1       3.542   2.567  -3.053  0.00  0.00     0.003 A 
ATOM      6  C4  OXE d   1       3.748   3.454  -4.116  0.00  0.00    -0.002 A 
ATOM      7  C5  OXE d   1       4.669   4.500  -4.000  0.00  0.00    -0.002 A 
ATOM      8  C6  OXE d   1       5.378   4.655  -2.814  0.00  0.00     0.003 A 
ENDROOT
TORSDOF 0
ENDMDL
