MODEL 1
REMARK minimizedAffinity 9.90816879
REMARK minimizedRMSD -1
REMARK  0 active torsions:
REMARK  status: ('A' for Active; 'I' for Inactive)
ROOT
ATOM      1  C2' OXE d   1       2.588   0.419   1.068  0.00  0.00     0.078 C 
ATOM      2  C1' OXE d   1       3.587   0.957  -1.500  0.00  0.00     0.078 C 
ATOM      3  C1  OXE d   1       4.275   1.608  -0.326  0.00  0.00    -0.078 A 
ATOM      4  C2  OXE d   1       3.750   1.377   0.922  0.00  0.00    -0.078 A 
ATOM      5  C3  OXE d   1       4.379   1.909   2.044  0.00  0.00     0.003 A 
ATOM      6  C4  OXE d   1       5.448   2.802   1.900  0.00  0.00    -0.002 A 
ATOM      7  C5  OXE d   1       5.973   3.083   0.634  0.00  0.00    -0.002 A 
ATOM      8  C6  OXE d   1       5.426   2.463  -0.483  0.00  0.00     0.003 A 
ENDROOT
TORSDOF 0
ENDMDL
