MODEL 1
REMARK minimizedAffinity 11.0381279
REMARK minimizedRMSD -1
REMARK  0 active torsions:
REMARK  status: ('A' for Active; 'I' for Inactive)
ROOT
ATOM      1  C2' OXE d   1      -1.252  -2.869   0.474  0.00  0.00     0.078 C 
ATOM      2  C1' OXE d   1       0.620  -2.265   2.477  0.00  0.00     0.078 C 
ATOM      3  C1  OXE d   1      -0.589  -1.372   2.351  0.00  0.00    -0.078 A 
ATOM      4  C2  OXE d   1      -1.476  -1.647   1.338  0.00  0.00    -0.078 A 
ATOM      5  C3  OXE d   1      -2.636  -0.888   1.212  0.00  0.00     0.003 A 
ATOM      6  C4  OXE d   1      -2.831   0.246   2.009  0.00  0.00    -0.002 A 
ATOM      7  C5  OXE d   1      -1.920   0.568   3.020  0.00  0.00    -0.002 A 
ATOM      8  C6  OXE d   1      -0.818  -0.253   3.232  0.00  0.00     0.003 A 
ENDROOT
TORSDOF 0
ENDMDL
