MODEL 1
REMARK minimizedAffinity 10.5553865
REMARK minimizedRMSD -1
REMARK  0 active torsions:
REMARK  status: ('A' for Active; 'I' for Inactive)
ROOT
ATOM      1  C2' OXE d   1       0.934  -4.269  -3.335  0.00  0.00     0.078 C 
ATOM      2  C1' OXE d   1      -1.580  -4.225  -2.086  0.00  0.00     0.078 C 
ATOM      3  C1  OXE d   1      -1.481  -4.871  -3.446  0.00  0.00    -0.078 A 
ATOM      4  C2  OXE d   1      -0.257  -4.847  -4.070  0.00  0.00    -0.078 A 
ATOM      5  C3  OXE d   1      -0.098  -5.477  -5.301  0.00  0.00     0.003 A 
ATOM      6  C4  OXE d   1      -1.207  -5.999  -5.978  0.00  0.00    -0.002 A 
ATOM      7  C5  OXE d   1      -2.470  -5.999  -5.377  0.00  0.00    -0.002 A 
ATOM      8  C6  OXE d   1      -2.616  -5.478  -4.096  0.00  0.00     0.003 A 
ENDROOT
TORSDOF 0
ENDMDL
