MODEL 1
REMARK minimizedAffinity 18.0067501
REMARK minimizedRMSD -1
REMARK  0 active torsions:
REMARK  status: ('A' for Active; 'I' for Inactive)
ROOT
ATOM      1  C2' OXE d   1       2.720   0.526   0.152  0.00  0.00     0.078 C 
ATOM      2  C1' OXE d   1       3.359  -1.756   1.656  0.00  0.00     0.078 C 
ATOM      3  C1  OXE d   1       1.905  -1.368   1.550  0.00  0.00    -0.078 A 
ATOM      4  C2  OXE d   1       1.606  -0.223   0.851  0.00  0.00    -0.078 A 
ATOM      5  C3  OXE d   1       0.277   0.151   0.676  0.00  0.00     0.003 A 
ATOM      6  C4  OXE d   1      -0.746  -0.542   1.333  0.00  0.00    -0.002 A 
ATOM      7  C5  OXE d   1      -0.460  -1.688   2.083  0.00  0.00    -0.002 A 
ATOM      8  C6  OXE d   1       0.853  -2.138   2.166  0.00  0.00     0.003 A 
ENDROOT
TORSDOF 0
ENDMDL
