MODEL 1
REMARK minimizedAffinity 12.9017982
REMARK minimizedRMSD -1
REMARK  0 active torsions:
REMARK  status: ('A' for Active; 'I' for Inactive)
ROOT
ATOM      1  C2' OXE d   1      -1.763  -3.480   0.428  0.00  0.00     0.078 C 
ATOM      2  C1' OXE d   1      -3.993  -3.103   2.092  0.00  0.00     0.078 C 
ATOM      3  C1  OXE d   1      -2.932  -2.032   2.084  0.00  0.00    -0.078 A 
ATOM      4  C2  OXE d   1      -1.822  -2.246   1.303  0.00  0.00    -0.078 A 
ATOM      5  C3  OXE d   1      -0.839  -1.265   1.217  0.00  0.00     0.003 A 
ATOM      6  C4  OXE d   1      -0.897  -0.131   2.037  0.00  0.00    -0.002 A 
ATOM      7  C5  OXE d   1      -1.999   0.088   2.869  0.00  0.00    -0.002 A 
ATOM      8  C6  OXE d   1      -3.043  -0.830   2.873  0.00  0.00     0.003 A 
ENDROOT
TORSDOF 0
ENDMDL
