MODEL 1
REMARK minimizedAffinity 1.74022651
REMARK minimizedRMSD -1
REMARK  0 active torsions:
REMARK  status: ('A' for Active; 'I' for Inactive)
ROOT
ATOM      1  C2' OXE d   1      -3.770  -3.980  -4.941  0.00  0.00     0.078 C 
ATOM      2  C1' OXE d   1      -1.440  -2.698  -4.044  0.00  0.00     0.078 C 
ATOM      3  C1  OXE d   1      -2.757  -2.255  -3.457  0.00  0.00    -0.078 A 
ATOM      4  C2  OXE d   1      -3.896  -2.856  -3.936  0.00  0.00    -0.078 A 
ATOM      5  C3  OXE d   1      -5.132  -2.523  -3.390  0.00  0.00     0.003 A 
ATOM      6  C4  OXE d   1      -5.241  -1.475  -2.469  0.00  0.00    -0.002 A 
ATOM      7  C5  OXE d   1      -4.097  -0.822  -1.997  0.00  0.00    -0.002 A 
ATOM      8  C6  OXE d   1      -2.846  -1.229  -2.448  0.00  0.00     0.003 A 
ENDROOT
TORSDOF 0
ENDMDL
