MODEL 1
REMARK minimizedAffinity 4.05408621
REMARK minimizedRMSD -1
REMARK  0 active torsions:
REMARK  status: ('A' for Active; 'I' for Inactive)
ROOT
ATOM      1  C2' OXE d   1      -3.757  -2.582   0.749  0.00  0.00     0.078 C 
ATOM      2  C1' OXE d   1      -4.731  -2.496   3.380  0.00  0.00     0.078 C 
ATOM      3  C1  OXE d   1      -5.004  -3.738   2.569  0.00  0.00    -0.078 A 
ATOM      4  C2  OXE d   1      -4.565  -3.753   1.267  0.00  0.00    -0.078 A 
ATOM      5  C3  OXE d   1      -4.742  -4.895   0.492  0.00  0.00     0.003 A 
ATOM      6  C4  OXE d   1      -5.499  -5.969   0.976  0.00  0.00    -0.002 A 
ATOM      7  C5  OXE d   1      -5.990  -5.959   2.286  0.00  0.00    -0.002 A 
ATOM      8  C6  OXE d   1      -5.715  -4.871   3.108  0.00  0.00     0.003 A 
ENDROOT
TORSDOF 0
ENDMDL
