MODEL 1
REMARK minimizedAffinity 3.65418649
REMARK minimizedRMSD -1
REMARK  0 active torsions:
REMARK  status: ('A' for Active; 'I' for Inactive)
ROOT
ATOM      1  C2' OXE d   1       0.303  -2.961   0.740  0.00  0.00     0.078 C 
ATOM      2  C1' OXE d   1       2.010  -0.756   1.064  0.00  0.00     0.078 C 
ATOM      3  C1  OXE d   1       2.609  -2.040   0.545  0.00  0.00    -0.078 A 
ATOM      4  C2  OXE d   1       1.775  -3.126   0.434  0.00  0.00    -0.078 A 
ATOM      5  C3  OXE d   1       2.264  -4.319  -0.092  0.00  0.00     0.003 A 
ATOM      6  C4  OXE d   1       3.630  -4.467  -0.363  0.00  0.00    -0.002 A 
ATOM      7  C5  OXE d   1       4.504  -3.384  -0.220  0.00  0.00    -0.002 A 
ATOM      8  C6  OXE d   1       4.002  -2.154   0.192  0.00  0.00     0.003 A 
ENDROOT
TORSDOF 0
ENDMDL
