MODEL 1
REMARK minimizedAffinity -3.35573554
REMARK minimizedRMSD -1
REMARK  0 active torsions:
REMARK  status: ('A' for Active; 'I' for Inactive)
ROOT
ATOM      1  C2' OXE d   1      -5.554  -3.017   6.000  0.00  0.00     0.078 C 
ATOM      2  C1' OXE d   1      -5.985  -5.791   6.000  0.00  0.00     0.078 C 
ATOM      3  C1  OXE d   1      -5.502  -5.154   4.721  0.00  0.00    -0.078 A 
ATOM      4  C2  OXE d   1      -5.338  -3.790   4.717  0.00  0.00    -0.078 A 
ATOM      5  C3  OXE d   1      -4.842  -3.159   3.580  0.00  0.00     0.003 A 
ATOM      6  C4  OXE d   1      -4.654  -3.879   2.394  0.00  0.00    -0.002 A 
ATOM      7  C5  OXE d   1      -4.853  -5.263   2.365  0.00  0.00    -0.002 A 
ATOM      8  C6  OXE d   1      -5.235  -5.921   3.529  0.00  0.00     0.003 A 
ENDROOT
TORSDOF 0
ENDMDL
