MODEL 1
REMARK minimizedAffinity 2.77628684
REMARK minimizedRMSD -1
REMARK  0 active torsions:
REMARK  status: ('A' for Active; 'I' for Inactive)
ROOT
ATOM      1  C2' OXE d   1       4.512  -4.082  -0.005  0.00  0.00     0.078 C 
ATOM      2  C1' OXE d   1       3.819  -1.449   0.680  0.00  0.00     0.078 C 
ATOM      3  C1  OXE d   1       2.710  -2.467   0.588  0.00  0.00    -0.078 A 
ATOM      4  C2  OXE d   1       3.052  -3.742   0.206  0.00  0.00    -0.078 A 
ATOM      5  C3  OXE d   1       2.076  -4.733   0.158  0.00  0.00     0.003 A 
ATOM      6  C4  OXE d   1       0.727  -4.408   0.345  0.00  0.00    -0.002 A 
ATOM      7  C5  OXE d   1       0.352  -3.106   0.695  0.00  0.00    -0.002 A 
ATOM      8  C6  OXE d   1       1.334  -2.136   0.862  0.00  0.00     0.003 A 
ENDROOT
TORSDOF 0
ENDMDL
