MODEL 1
REMARK minimizedAffinity 14.6045952
REMARK minimizedRMSD -1
REMARK  1 active torsions:
REMARK  status: ('A' for Active; 'I' for Inactive)
REMARK    1  A    between atoms: C1_2  and  C2_3 
ROOT
ATOM      1  C2  UNL d   1       2.768  -2.047   0.451  0.00  0.00    -0.073 A 
ATOM      2  C3  UNL d   1       1.828  -1.051   0.164  0.00  0.00    -0.002 A 
ATOM      3  C4  UNL d   1       0.802  -1.293  -0.750  0.00  0.00     0.004 A 
ATOM      4  C5  UNL d   1       0.700  -2.534  -1.379  0.00  0.00    -0.004 A 
ATOM      5  C6  UNL d   1       1.623  -3.546  -1.097  0.00  0.00    -0.075 A 
ATOM      6  C7  UNL d   1       1.529  -4.885  -1.767  0.00  0.00     0.076 C 
ATOM      7  C8  UNL d   1       2.653  -3.294  -0.180  0.00  0.00     0.001 A 
ENDROOT
BRANCH   1   8
ATOM      8  C1  UNL d   1       3.875  -1.793   1.442  0.00  0.00     0.053 C 
ATOM      9  C   UNL d   1       5.224  -2.264   0.923  0.00  0.00     0.018 C 
ENDBRANCH   1   8
TORSDOF 1
ENDMDL
