MODEL 1
REMARK minimizedAffinity 13.1686668
REMARK minimizedRMSD -1
REMARK  1 active torsions:
REMARK  status: ('A' for Active; 'I' for Inactive)
REMARK    1  A    between atoms: C1_2  and  C2_3 
ROOT
ATOM      1  C2  UNL d   1       4.265  -3.008   0.842  0.00  0.00    -0.073 A 
ATOM      2  C3  UNL d   1       3.801  -1.775   1.313  0.00  0.00    -0.002 A 
ATOM      3  C4  UNL d   1       2.574  -1.271   0.880  0.00  0.00     0.004 A 
ATOM      4  C5  UNL d   1       1.796  -1.997  -0.023  0.00  0.00    -0.004 A 
ATOM      5  C6  UNL d   1       2.237  -3.237  -0.496  0.00  0.00    -0.075 A 
ATOM      6  C7  UNL d   1       1.414  -4.029  -1.468  0.00  0.00     0.076 C 
ATOM      7  C8  UNL d   1       3.472  -3.735  -0.058  0.00  0.00     0.001 A 
ENDROOT
BRANCH   1   8
ATOM      8  C1  UNL d   1       5.586  -3.559   1.313  0.00  0.00     0.053 C 
ATOM      9  C   UNL d   1       5.506  -5.046   1.623  0.00  0.00     0.018 C 
ENDBRANCH   1   8
TORSDOF 1
ENDMDL
