MODEL 1
REMARK minimizedAffinity 17.8292809
REMARK minimizedRMSD -1
REMARK  1 active torsions:
REMARK  status: ('A' for Active; 'I' for Inactive)
REMARK    1  A    between atoms: C1_2  and  C2_3 
ROOT
ATOM      1  C2  UNL d   1       4.776  -4.895  -2.408  0.00  0.00    -0.073 A 
ATOM      2  C3  UNL d   1       5.117  -4.333  -3.644  0.00  0.00    -0.002 A 
ATOM      3  C4  UNL d   1       4.150  -3.688  -4.416  0.00  0.00     0.004 A 
ATOM      4  C5  UNL d   1       2.836  -3.591  -3.958  0.00  0.00    -0.004 A 
ATOM      5  C6  UNL d   1       2.478  -4.136  -2.720  0.00  0.00    -0.075 A 
ATOM      6  C7  UNL d   1       1.068  -4.042  -2.215  0.00  0.00     0.076 C 
ATOM      7  C8  UNL d   1       3.454  -4.784  -1.952  0.00  0.00     0.001 A 
ENDROOT
BRANCH   1   8
ATOM      8  C1  UNL d   1       5.818  -5.586  -1.568  0.00  0.00     0.053 C 
ATOM      9  C   UNL d   1       5.606  -5.342  -0.082  0.00  0.00     0.018 C 
ENDBRANCH   1   8
TORSDOF 1
ENDMDL
