MODEL 1
REMARK minimizedAffinity 15.9174099
REMARK minimizedRMSD -1
REMARK  1 active torsions:
REMARK  status: ('A' for Active; 'I' for Inactive)
REMARK    1  A    between atoms: C1_2  and  C2_3 
ROOT
ATOM      1  C2  UNL d   1       4.092  -3.950   0.316  0.00  0.00    -0.073 A 
ATOM      2  C3  UNL d   1       3.352  -3.001   1.030  0.00  0.00    -0.002 A 
ATOM      3  C4  UNL d   1       2.089  -2.610   0.583  0.00  0.00     0.004 A 
ATOM      4  C5  UNL d   1       1.552  -3.167  -0.577  0.00  0.00    -0.004 A 
ATOM      5  C6  UNL d   1       2.272  -4.125  -1.299  0.00  0.00    -0.075 A 
ATOM      6  C7  UNL d   1       1.709  -4.733  -2.550  0.00  0.00     0.076 C 
ATOM      7  C8  UNL d   1       3.540  -4.511  -0.844  0.00  0.00     0.001 A 
ENDROOT
BRANCH   1   8
ATOM      8  C1  UNL d   1       5.453  -4.380   0.799  0.00  0.00     0.053 C 
ATOM      9  C   UNL d   1       5.378  -5.604   1.698  0.00  0.00     0.018 C 
ENDBRANCH   1   8
TORSDOF 1
ENDMDL
