MODEL 1
REMARK minimizedAffinity 4.0189271
REMARK minimizedRMSD -1
REMARK  1 active torsions:
REMARK  status: ('A' for Active; 'I' for Inactive)
REMARK    1  A    between atoms: C1_2  and  C2_3 
ROOT
ATOM      1  C2  UNL d   1      -4.058   2.563  -4.351  0.00  0.00    -0.073 A 
ATOM      2  C3  UNL d   1      -2.753   2.546  -3.847  0.00  0.00    -0.002 A 
ATOM      3  C4  UNL d   1      -1.907   3.637  -4.044  0.00  0.00     0.004 A 
ATOM      4  C5  UNL d   1      -2.358   4.759  -4.740  0.00  0.00    -0.004 A 
ATOM      5  C6  UNL d   1      -3.663   4.800  -5.241  0.00  0.00    -0.075 A 
ATOM      6  C7  UNL d   1      -4.163   5.998  -5.994  0.00  0.00     0.076 C 
ATOM      7  C8  UNL d   1      -4.506   3.698  -5.042  0.00  0.00     0.001 A 
ENDROOT
BRANCH   1   8
ATOM      8  C1  UNL d   1      -4.978   1.389  -4.136  0.00  0.00     0.053 C 
ATOM      9  C   UNL d   1      -5.955   1.211  -5.287  0.00  0.00     0.018 C 
ENDBRANCH   1   8
TORSDOF 1
ENDMDL
