MODEL 1
REMARK minimizedAffinity 21.6973305
REMARK minimizedRMSD -1
REMARK  1 active torsions:
REMARK  status: ('A' for Active; 'I' for Inactive)
REMARK    1  A    between atoms: C1_2  and  C2_3 
ROOT
ATOM      1  C2  UNL d   1       1.558  -0.357   2.130  0.00  0.00    -0.073 A 
ATOM      2  C3  UNL d   1       1.769   0.200   3.397  0.00  0.00    -0.002 A 
ATOM      3  C4  UNL d   1       1.156   1.404   3.748  0.00  0.00     0.004 A 
ATOM      4  C5  UNL d   1       0.323   2.059   2.840  0.00  0.00    -0.004 A 
ATOM      5  C6  UNL d   1       0.091   1.512   1.574  0.00  0.00    -0.075 A 
ATOM      6  C7  UNL d   1      -0.801   2.204   0.586  0.00  0.00     0.076 C 
ATOM      7  C8  UNL d   1       0.711   0.304   1.228  0.00  0.00     0.001 A 
ENDROOT
BRANCH   1   8
ATOM      8  C1  UNL d   1       2.212  -1.660   1.749  0.00  0.00     0.053 C 
ATOM      9  C   UNL d   1       2.959  -1.558   0.429  0.00  0.00     0.018 C 
ENDBRANCH   1   8
TORSDOF 1
ENDMDL
