MODEL 1
REMARK minimizedAffinity 9.45521641
REMARK minimizedRMSD -1
REMARK  1 active torsions:
REMARK  status: ('A' for Active; 'I' for Inactive)
REMARK    1  A    between atoms: C1_2  and  C2_3 
ROOT
ATOM      1  C2  UNL d   1       2.869  -3.434   0.046  0.00  0.00    -0.073 A 
ATOM      2  C3  UNL d   1       3.262  -2.129   0.362  0.00  0.00    -0.002 A 
ATOM      3  C4  UNL d   1       4.533  -1.883   0.885  0.00  0.00     0.004 A 
ATOM      4  C5  UNL d   1       5.424  -2.936   1.089  0.00  0.00    -0.004 A 
ATOM      5  C6  UNL d   1       5.054  -4.246   0.767  0.00  0.00    -0.075 A 
ATOM      6  C7  UNL d   1       6.000  -5.391   0.983  0.00  0.00     0.076 C 
ATOM      7  C8  UNL d   1       3.775  -4.485   0.246  0.00  0.00     0.001 A 
ENDROOT
BRANCH   1   8
ATOM      8  C1  UNL d   1       1.500  -3.704  -0.524  0.00  0.00     0.053 C 
ATOM      9  C   UNL d   1       1.514  -4.853  -1.520  0.00  0.00     0.018 C 
ENDBRANCH   1   8
TORSDOF 1
ENDMDL
