MODEL 1
REMARK minimizedAffinity 11.0203218
REMARK minimizedRMSD -1
REMARK  1 active torsions:
REMARK  status: ('A' for Active; 'I' for Inactive)
REMARK    1  A    between atoms: C1_2  and  C2_3 
ROOT
ATOM      1  C2  UNL d   1       2.573  -3.048   0.091  0.00  0.00    -0.073 A 
ATOM      2  C3  UNL d   1       2.632  -1.703   0.473  0.00  0.00    -0.002 A 
ATOM      3  C4  UNL d   1       3.761  -1.205   1.127  0.00  0.00     0.004 A 
ATOM      4  C5  UNL d   1       4.842  -2.044   1.398  0.00  0.00    -0.004 A 
ATOM      5  C6  UNL d   1       4.806  -3.388   1.013  0.00  0.00    -0.075 A 
ATOM      6  C7  UNL d   1       5.960  -4.303   1.299  0.00  0.00     0.076 C 
ATOM      7  C8  UNL d   1       3.668  -3.881   0.359  0.00  0.00     0.001 A 
ENDROOT
BRANCH   1   8
ATOM      8  C1  UNL d   1       1.359  -3.588  -0.621  0.00  0.00     0.053 C 
ATOM      9  C   UNL d   1       1.736  -4.503  -1.776  0.00  0.00     0.018 C 
ENDBRANCH   1   8
TORSDOF 1
ENDMDL
