MODEL 1
REMARK minimizedAffinity 11.7646065
REMARK minimizedRMSD -1
REMARK  1 active torsions:
REMARK  status: ('A' for Active; 'I' for Inactive)
REMARK    1  A    between atoms: C1_2  and  C2_3 
ROOT
ATOM      1  C2  UNL d   1      -4.168  -3.482   5.126  0.00  0.00    -0.073 A 
ATOM      2  C3  UNL d   1      -4.899  -4.297   5.999  0.00  0.00    -0.002 A 
ATOM      3  C4  UNL d   1      -5.806  -5.231   5.497  0.00  0.00     0.004 A 
ATOM      4  C5  UNL d   1      -5.987  -5.365   4.121  0.00  0.00    -0.004 A 
ATOM      5  C6  UNL d   1      -5.257  -4.569   3.232  0.00  0.00    -0.075 A 
ATOM      6  C7  UNL d   1      -5.441  -4.699   1.749  0.00  0.00     0.076 C 
ATOM      7  C8  UNL d   1      -4.349  -3.631   3.744  0.00  0.00     0.001 A 
ENDROOT
BRANCH   1   8
ATOM      8  C1  UNL d   1      -3.182  -2.477   5.663  0.00  0.00     0.053 C 
ATOM      9  C   UNL d   1      -1.867  -2.505   4.901  0.00  0.00     0.018 C 
ENDBRANCH   1   8
TORSDOF 1
ENDMDL
