MODEL 1
REMARK minimizedAffinity 10.2794428
REMARK minimizedRMSD -1
REMARK  1 active torsions:
REMARK  status: ('A' for Active; 'I' for Inactive)
REMARK    1  A    between atoms: C1_2  and  C2_3 
ROOT
ATOM      1  C2  UNL d   1       3.016  -2.611   0.397  0.00  0.00    -0.073 A 
ATOM      2  C3  UNL d   1       4.337  -2.457   0.832  0.00  0.00    -0.002 A 
ATOM      3  C4  UNL d   1       4.647  -1.534   1.832  0.00  0.00     0.004 A 
ATOM      4  C5  UNL d   1       3.639  -0.764   2.412  0.00  0.00    -0.004 A 
ATOM      5  C6  UNL d   1       2.311  -0.912   2.000  0.00  0.00    -0.075 A 
ATOM      6  C7  UNL d   1       1.216  -0.089   2.612  0.00  0.00     0.076 C 
ATOM      7  C8  UNL d   1       2.009  -1.838   0.992  0.00  0.00     0.001 A 
ENDROOT
BRANCH   1   8
ATOM      8  C1  UNL d   1       2.676  -3.610  -0.679  0.00  0.00     0.053 C 
ATOM      9  C   UNL d   1       3.231  -3.200  -2.034  0.00  0.00     0.018 C 
ENDBRANCH   1   8
TORSDOF 1
ENDMDL
