MODEL 1
REMARK minimizedAffinity 4.86616945
REMARK minimizedRMSD -1
REMARK  1 active torsions:
REMARK  status: ('A' for Active; 'I' for Inactive)
REMARK    1  A    between atoms: C1_2  and  C2_3 
ROOT
ATOM      1  C2  UNL d   1      -1.194  -4.231   5.053  0.00  0.00    -0.073 A 
ATOM      2  C3  UNL d   1      -2.370  -4.594   5.718  0.00  0.00    -0.002 A 
ATOM      3  C4  UNL d   1      -3.346  -3.636   6.000  0.00  0.00     0.004 A 
ATOM      4  C5  UNL d   1      -3.159  -2.309   5.614  0.00  0.00    -0.004 A 
ATOM      5  C6  UNL d   1      -1.995  -1.929   4.937  0.00  0.00    -0.075 A 
ATOM      6  C7  UNL d   1      -1.778  -0.505   4.517  0.00  0.00     0.076 C 
ATOM      7  C8  UNL d   1      -1.019  -2.896   4.660  0.00  0.00     0.001 A 
ENDROOT
BRANCH   1   8
ATOM      8  C1  UNL d   1      -0.141  -5.262   4.740  0.00  0.00     0.053 C 
ATOM      9  C   UNL d   1       0.409  -5.914   5.999  0.00  0.00     0.018 C 
ENDBRANCH   1   8
TORSDOF 1
ENDMDL
