MODEL 1
REMARK minimizedAffinity 23.81604
REMARK minimizedRMSD -1
REMARK  1 active torsions:
REMARK  status: ('A' for Active; 'I' for Inactive)
REMARK    1  A    between atoms: C1_2  and  C2_3 
ROOT
ATOM      1  C2  UNL d   1       0.124   1.909   2.244  0.00  0.00    -0.073 A 
ATOM      2  C3  UNL d   1       0.687   2.779   1.304  0.00  0.00    -0.002 A 
ATOM      3  C4  UNL d   1      -0.081   3.267   0.246  0.00  0.00     0.004 A 
ATOM      4  C5  UNL d   1      -1.420   2.897   0.121  0.00  0.00    -0.004 A 
ATOM      5  C6  UNL d   1      -2.004   2.038   1.058  0.00  0.00    -0.075 A 
ATOM      6  C7  UNL d   1      -3.443   1.628   0.937  0.00  0.00     0.076 C 
ATOM      7  C8  UNL d   1      -1.225   1.550   2.115  0.00  0.00     0.001 A 
ENDROOT
BRANCH   1   8
ATOM      8  C1  UNL d   1       0.948   1.384   3.391  0.00  0.00     0.053 C 
ATOM      9  C   UNL d   1       0.725   2.184   4.665  0.00  0.00     0.018 C 
ENDBRANCH   1   8
TORSDOF 1
ENDMDL
