MODEL 1
REMARK minimizedAffinity 11.2508698
REMARK minimizedRMSD -1
REMARK  1 active torsions:
REMARK  status: ('A' for Active; 'I' for Inactive)
REMARK    1  A    between atoms: C1_2  and  C2_3 
ROOT
ATOM      1  C2  UNL d   1      -1.525   2.008  -1.502  0.00  0.00    -0.073 A 
ATOM      2  C3  UNL d   1      -1.052   1.445  -0.311  0.00  0.00    -0.002 A 
ATOM      3  C4  UNL d   1      -0.152   2.146   0.492  0.00  0.00     0.004 A 
ATOM      4  C5  UNL d   1       0.278   3.419   0.118  0.00  0.00    -0.004 A 
ATOM      5  C6  UNL d   1      -0.192   4.003  -1.063  0.00  0.00    -0.075 A 
ATOM      6  C7  UNL d   1       0.264   5.371  -1.481  0.00  0.00     0.076 C 
ATOM      7  C8  UNL d   1      -1.093   3.291  -1.866  0.00  0.00     0.001 A 
ENDROOT
BRANCH   1   8
ATOM      8  C1  UNL d   1      -2.501   1.257  -2.369  0.00  0.00     0.053 C 
ATOM      9  C   UNL d   1      -3.195   0.137  -1.609  0.00  0.00     0.018 C 
ENDBRANCH   1   8
TORSDOF 1
ENDMDL
