MODEL 1
REMARK minimizedAffinity -3.04459858
REMARK minimizedRMSD -1
REMARK  3 active torsions:
REMARK  status: ('A' for Active; 'I' for Inactive)
REMARK    1  A    between atoms: C3'_2  and  C2'_3 
REMARK    2  A    between atoms: C2'_3  and  C1'_4 
REMARK    3  A    between atoms: C1'_4  and  C1_5 
ROOT
ATOM      1  C1  N4B d   1       0.524   2.479  -0.095  0.00  0.00    -0.075 A 
ATOM      2  C2  N4B d   1       0.404   3.240   1.089  0.00  0.00     0.002 A 
ATOM      3  C3  N4B d   1       1.320   4.225   1.368  0.00  0.00     0.002 A 
ATOM      4  C4  N4B d   1       2.370   4.454   0.491  0.00  0.00    -0.004 A 
ATOM      5  C5  N4B d   1       2.464   3.732  -0.663  0.00  0.00     0.002 A 
ATOM      6  C6  N4B d   1       1.549   2.742  -0.958  0.00  0.00     0.002 A 
ENDROOT
BRANCH   1   7
ATOM      7  C1' N4B d   1      -0.402   1.334  -0.400  0.00  0.00     0.057 C 
BRANCH   7   8
ATOM      8  C2' N4B d   1       0.181   0.049   0.180  0.00  0.00     0.009 C 
BRANCH   8   9
ATOM      9  C3' N4B d   1      -0.598  -0.432   1.392  0.00  0.00     0.004 C 
ATOM     10  C4' N4B d   1      -1.049  -1.856   1.264  0.00  0.00     0.003 C 
ENDBRANCH   8   9
ENDBRANCH   7   8
ENDBRANCH   1   7
TORSDOF 3
ENDMDL
