MODEL 1
REMARK minimizedAffinity -2.66131473
REMARK minimizedRMSD -1
REMARK  3 active torsions:
REMARK  status: ('A' for Active; 'I' for Inactive)
REMARK    1  A    between atoms: C3'_2  and  C2'_3 
REMARK    2  A    between atoms: C2'_3  and  C1'_4 
REMARK    3  A    between atoms: C1'_4  and  C1_5 
ROOT
ATOM      1  C1  N4B d   1       0.138   0.090   0.099  0.00  0.00    -0.075 A 
ATOM      2  C2  N4B d   1      -0.287  -0.307   1.386  0.00  0.00     0.002 A 
ATOM      3  C3  N4B d   1      -0.907  -1.520   1.561  0.00  0.00     0.002 A 
ATOM      4  C4  N4B d   1      -1.129  -2.341   0.465  0.00  0.00    -0.004 A 
ATOM      5  C5  N4B d   1      -0.693  -1.962  -0.771  0.00  0.00     0.002 A 
ATOM      6  C6  N4B d   1      -0.065  -0.747  -0.960  0.00  0.00     0.002 A 
ENDROOT
BRANCH   1   7
ATOM      7  C1' N4B d   1       0.742   1.443  -0.156  0.00  0.00     0.057 C 
BRANCH   7   8
ATOM      8  C2' N4B d   1      -0.013   2.490   0.657  0.00  0.00     0.009 C 
BRANCH   8   9
ATOM      9  C3' N4B d   1       0.880   3.651   1.058  0.00  0.00     0.004 C 
ATOM     10  C4' N4B d   1       2.319   3.428   0.700  0.00  0.00     0.003 C 
ENDBRANCH   8   9
ENDBRANCH   7   8
ENDBRANCH   1   7
TORSDOF 3
ENDMDL
