MODEL 1
REMARK minimizedAffinity -2.60906744
REMARK minimizedRMSD -1
REMARK  3 active torsions:
REMARK  status: ('A' for Active; 'I' for Inactive)
REMARK    1  A    between atoms: C3'_2  and  C2'_3 
REMARK    2  A    between atoms: C2'_3  and  C1'_4 
REMARK    3  A    between atoms: C1'_4  and  C1_5 
ROOT
ATOM      1  C1  N4B d   1       0.579   1.685   0.046  0.00  0.00    -0.075 A 
ATOM      2  C2  N4B d   1      -0.197   2.816   0.383  0.00  0.00     0.002 A 
ATOM      3  C3  N4B d   1       0.413   4.027   0.598  0.00  0.00     0.002 A 
ATOM      4  C4  N4B d   1       1.793   4.127   0.501  0.00  0.00    -0.004 A 
ATOM      5  C5  N4B d   1       2.533   3.036   0.151  0.00  0.00     0.002 A 
ATOM      6  C6  N4B d   1       1.932   1.813  -0.073  0.00  0.00     0.002 A 
ENDROOT
BRANCH   1   7
ATOM      7  C1' N4B d   1      -0.034   0.321  -0.115  0.00  0.00     0.057 C 
BRANCH   7   8
ATOM      8  C2' N4B d   1       0.202  -0.487   1.158  0.00  0.00     0.009 C 
BRANCH   8   9
ATOM      9  C3' N4B d   1      -1.031  -1.274   1.568  0.00  0.00     0.004 C 
ATOM     10  C4' N4B d   1      -1.371  -2.368   0.601  0.00  0.00     0.003 C 
ENDBRANCH   8   9
ENDBRANCH   7   8
ENDBRANCH   1   7
TORSDOF 3
ENDMDL
