MODEL 1
REMARK minimizedAffinity -3.68145657
REMARK minimizedRMSD -1
REMARK  3 active torsions:
REMARK  status: ('A' for Active; 'I' for Inactive)
REMARK    1  A    between atoms: C3'_2  and  C2'_3 
REMARK    2  A    between atoms: C2'_3  and  C1'_4 
REMARK    3  A    between atoms: C1'_4  and  C1_5 
ROOT
ATOM      1  C1  N4B d   1       0.173   0.265   0.386  0.00  0.00    -0.075 A 
ATOM      2  C2  N4B d   1       0.741   0.051   1.661  0.00  0.00     0.002 A 
ATOM      3  C3  N4B d   1       0.369  -1.044   2.403  0.00  0.00     0.002 A 
ATOM      4  C4  N4B d   1      -0.577  -1.924   1.900  0.00  0.00    -0.004 A 
ATOM      5  C5  N4B d   1      -1.102  -1.723   0.657  0.00  0.00     0.002 A 
ATOM      6  C6  N4B d   1      -0.736  -0.629  -0.101  0.00  0.00     0.002 A 
ENDROOT
BRANCH   1   7
ATOM      7  C1' N4B d   1       0.483   1.494  -0.425  0.00  0.00     0.057 C 
BRANCH   7   8
ATOM      8  C2' N4B d   1       0.177   2.735   0.408  0.00  0.00     0.009 C 
BRANCH   8   9
ATOM      9  C3' N4B d   1       1.435   3.513   0.752  0.00  0.00     0.004 C 
ATOM     10  C4' N4B d   1       2.614   3.108  -0.081  0.00  0.00     0.003 C 
ENDBRANCH   8   9
ENDBRANCH   7   8
ENDBRANCH   1   7
TORSDOF 3
ENDMDL
