MODEL 1
REMARK minimizedAffinity -5.70789433
REMARK minimizedRMSD -1
REMARK  3 active torsions:
REMARK  status: ('A' for Active; 'I' for Inactive)
REMARK    1  A    between atoms: C3'_2  and  C2'_3 
REMARK    2  A    between atoms: C2'_3  and  C1'_4 
REMARK    3  A    between atoms: C1'_4  and  C1_5 
ROOT
ATOM      1  C1  N4B d   1       0.343   0.983   0.037  0.00  0.00    -0.075 A 
ATOM      2  C2  N4B d   1      -0.583   1.991  -0.309  0.00  0.00     0.002 A 
ATOM      3  C3  N4B d   1      -0.257   3.313  -0.132  0.00  0.00     0.002 A 
ATOM      4  C4  N4B d   1       0.977   3.649   0.405  0.00  0.00    -0.004 A 
ATOM      5  C5  N4B d   1       1.876   2.671   0.713  0.00  0.00     0.002 A 
ATOM      6  C6  N4B d   1       1.563   1.338   0.536  0.00  0.00     0.002 A 
ENDROOT
BRANCH   1   7
ATOM      7  C1' N4B d   1      -0.001  -0.478  -0.058  0.00  0.00     0.057 C 
BRANCH   7   8
ATOM      8  C2' N4B d   1      -0.831  -0.878   1.158  0.00  0.00     0.009 C 
BRANCH   8   9
ATOM      9  C3' N4B d   1      -1.156  -2.362   1.162  0.00  0.00     0.004 C 
ATOM     10  C4' N4B d   1      -0.936  -3.008  -0.173  0.00  0.00     0.003 C 
ENDBRANCH   8   9
ENDBRANCH   7   8
ENDBRANCH   1   7
TORSDOF 3
ENDMDL
