MODEL 1
REMARK minimizedAffinity -4.57768917
REMARK minimizedRMSD -1
REMARK  3 active torsions:
REMARK  status: ('A' for Active; 'I' for Inactive)
REMARK    1  A    between atoms: C3'_2  and  C2'_3 
REMARK    2  A    between atoms: C2'_3  and  C1'_4 
REMARK    3  A    between atoms: C1'_4  and  C1_5 
ROOT
ATOM      1  C1  N4B d   1       0.145   0.607   0.659  0.00  0.00    -0.075 A 
ATOM      2  C2  N4B d   1      -0.231   1.691  -0.163  0.00  0.00     0.002 A 
ATOM      3  C3  N4B d   1       0.274   2.945   0.081  0.00  0.00     0.002 A 
ATOM      4  C4  N4B d   1       1.136   3.141   1.149  0.00  0.00    -0.004 A 
ATOM      5  C5  N4B d   1       1.514   2.083   1.923  0.00  0.00     0.002 A 
ATOM      6  C6  N4B d   1       1.018   0.817   1.687  0.00  0.00     0.002 A 
ENDROOT
BRANCH   1   7
ATOM      7  C1' N4B d   1      -0.447  -0.765   0.484  0.00  0.00     0.057 C 
BRANCH   7   8
ATOM      8  C2' N4B d   1      -0.368  -1.160  -0.988  0.00  0.00     0.009 C 
BRANCH   8   9
ATOM      9  C3' N4B d   1      -0.768  -2.609  -1.209  0.00  0.00     0.004 C 
ATOM     10  C4' N4B d   1      -0.600  -3.046  -2.634  0.00  0.00     0.003 C 
ENDBRANCH   8   9
ENDBRANCH   7   8
ENDBRANCH   1   7
TORSDOF 3
ENDMDL
