MODEL 1
REMARK minimizedAffinity -4.46475363
REMARK minimizedRMSD -1
REMARK  3 active torsions:
REMARK  status: ('A' for Active; 'I' for Inactive)
REMARK    1  A    between atoms: C3'_2  and  C2'_3 
REMARK    2  A    between atoms: C2'_3  and  C1'_4 
REMARK    3  A    between atoms: C1'_4  and  C1_5 
ROOT
ATOM      1  C1  N4B d   1       0.009   0.261   0.406  0.00  0.00    -0.075 A 
ATOM      2  C2  N4B d   1       0.119  -0.157   1.750  0.00  0.00     0.002 A 
ATOM      3  C3  N4B d   1      -0.210  -1.444   2.098  0.00  0.00     0.002 A 
ATOM      4  C4  N4B d   1      -0.667  -2.322   1.126  0.00  0.00    -0.004 A 
ATOM      5  C5  N4B d   1      -0.746  -1.917  -0.175  0.00  0.00     0.002 A 
ATOM      6  C6  N4B d   1      -0.415  -0.628  -0.539  0.00  0.00     0.002 A 
ENDROOT
BRANCH   1   7
ATOM      7  C1' N4B d   1       0.275   1.683  -0.008  0.00  0.00     0.057 C 
BRANCH   7   8
ATOM      8  C2' N4B d   1       1.725   2.034   0.311  0.00  0.00     0.009 C 
BRANCH   8   9
ATOM      9  C3' N4B d   1       1.855   3.427   0.904  0.00  0.00     0.004 C 
ATOM     10  C4' N4B d   1       0.529   4.087   1.133  0.00  0.00     0.003 C 
ENDBRANCH   8   9
ENDBRANCH   7   8
ENDBRANCH   1   7
TORSDOF 3
ENDMDL
