MODEL 1
REMARK minimizedAffinity -4.74838495
REMARK minimizedRMSD -1
REMARK  3 active torsions:
REMARK  status: ('A' for Active; 'I' for Inactive)
REMARK    1  A    between atoms: C3'_2  and  C2'_3 
REMARK    2  A    between atoms: C2'_3  and  C1'_4 
REMARK    3  A    between atoms: C1'_4  and  C1_5 
ROOT
ATOM      1  C1  N4B d   1      -0.324   0.505   0.234  0.00  0.00    -0.075 A 
ATOM      2  C2  N4B d   1      -0.594   0.572   1.618  0.00  0.00     0.002 A 
ATOM      3  C3  N4B d   1      -0.986  -0.555   2.297  0.00  0.00     0.002 A 
ATOM      4  C4  N4B d   1      -1.132  -1.752   1.612  0.00  0.00    -0.004 A 
ATOM      5  C5  N4B d   1      -0.844  -1.815   0.280  0.00  0.00     0.002 A 
ATOM      6  C6  N4B d   1      -0.446  -0.690  -0.414  0.00  0.00     0.002 A 
ENDROOT
BRANCH   1   7
ATOM      7  C1' N4B d   1       0.025   1.729  -0.568  0.00  0.00     0.057 C 
BRANCH   7   8
ATOM      8  C2' N4B d   1       0.602   2.790   0.364  0.00  0.00     0.009 C 
BRANCH   8   9
ATOM      9  C3' N4B d   1       2.090   2.997   0.137  0.00  0.00     0.004 C 
ATOM     10  C4' N4B d   1       2.642   4.152   0.918  0.00  0.00     0.003 C 
ENDBRANCH   8   9
ENDBRANCH   7   8
ENDBRANCH   1   7
TORSDOF 3
ENDMDL
