MODEL 1
REMARK minimizedAffinity -3.28127956
REMARK minimizedRMSD -1
REMARK  3 active torsions:
REMARK  status: ('A' for Active; 'I' for Inactive)
REMARK    1  A    between atoms: C3'_2  and  C2'_3 
REMARK    2  A    between atoms: C2'_3  and  C1'_4 
REMARK    3  A    between atoms: C1'_4  and  C1_5 
ROOT
ATOM      1  C1  N4B d   1       0.091   0.326   0.206  0.00  0.00    -0.075 A 
ATOM      2  C2  N4B d   1       0.465  -1.035   0.261  0.00  0.00     0.002 A 
ATOM      3  C3  N4B d   1      -0.451  -1.983   0.647  0.00  0.00     0.002 A 
ATOM      4  C4  N4B d   1      -1.734  -1.594   0.999  0.00  0.00    -0.004 A 
ATOM      5  C5  N4B d   1      -2.094  -0.281   0.919  0.00  0.00     0.002 A 
ATOM      6  C6  N4B d   1      -1.186   0.683   0.529  0.00  0.00     0.002 A 
ENDROOT
BRANCH   1   7
ATOM      7  C1' N4B d   1       1.081   1.408  -0.127  0.00  0.00     0.057 C 
BRANCH   7   8
ATOM      8  C2' N4B d   1       0.640   2.711   0.533  0.00  0.00     0.009 C 
BRANCH   8   9
ATOM      9  C3' N4B d   1       1.815   3.631   0.817  0.00  0.00     0.004 C 
ATOM     10  C4' N4B d   1       1.926   3.999   2.267  0.00  0.00     0.003 C 
ENDBRANCH   8   9
ENDBRANCH   7   8
ENDBRANCH   1   7
TORSDOF 3
ENDMDL
