MODEL 1
REMARK minimizedAffinity -0.574583173
REMARK minimizedRMSD -1
REMARK  3 active torsions:
REMARK  status: ('A' for Active; 'I' for Inactive)
REMARK    1  A    between atoms: C3'_2  and  C2'_3 
REMARK    2  A    between atoms: C2'_3  and  C1'_4 
REMARK    3  A    between atoms: C1'_4  and  C1_5 
ROOT
ATOM      1  C1  N4B d   1       0.068  -0.216   0.989  0.00  0.00    -0.075 A 
ATOM      2  C2  N4B d   1      -0.323  -0.438  -0.350  0.00  0.00     0.002 A 
ATOM      3  C3  N4B d   1      -1.032  -1.567  -0.680  0.00  0.00     0.002 A 
ATOM      4  C4  N4B d   1      -1.344  -2.493   0.303  0.00  0.00    -0.004 A 
ATOM      5  C5  N4B d   1      -0.986  -2.259   1.599  0.00  0.00     0.002 A 
ATOM      6  C6  N4B d   1      -0.276  -1.127   1.946  0.00  0.00     0.002 A 
ENDROOT
BRANCH   1   7
ATOM      7  C1' N4B d   1       0.918   0.960   1.383  0.00  0.00     0.057 C 
BRANCH   7   8
ATOM      8  C2' N4B d   1       1.158   1.837   0.159  0.00  0.00     0.009 C 
BRANCH   8   9
ATOM      9  C3' N4B d   1       1.566   3.249   0.542  0.00  0.00     0.004 C 
ATOM     10  C4' N4B d   1       2.709   3.768  -0.280  0.00  0.00     0.003 C 
ENDBRANCH   8   9
ENDBRANCH   7   8
ENDBRANCH   1   7
TORSDOF 3
ENDMDL
