MODEL 1
REMARK minimizedAffinity -3.10958815
REMARK minimizedRMSD -1
REMARK  3 active torsions:
REMARK  status: ('A' for Active; 'I' for Inactive)
REMARK    1  A    between atoms: C3'_2  and  C2'_3 
REMARK    2  A    between atoms: C2'_3  and  C1'_4 
REMARK    3  A    between atoms: C1'_4  and  C1_5 
ROOT
ATOM      1  C1  N4B d   1      -0.602   1.029  -0.055  0.00  0.00    -0.075 A 
ATOM      2  C2  N4B d   1       0.579   0.439   0.447  0.00  0.00     0.002 A 
ATOM      3  C3  N4B d   1       0.501  -0.576   1.369  0.00  0.00     0.002 A 
ATOM      4  C4  N4B d   1      -0.740  -1.003   1.816  0.00  0.00    -0.004 A 
ATOM      5  C5  N4B d   1      -1.876  -0.445   1.307  0.00  0.00     0.002 A 
ATOM      6  C6  N4B d   1      -1.813   0.573   0.377  0.00  0.00     0.002 A 
ENDROOT
BRANCH   1   7
ATOM      7  C1' N4B d   1      -0.565   2.199  -0.999  0.00  0.00     0.057 C 
BRANCH   7   8
ATOM      8  C2' N4B d   1      -0.102   3.440  -0.241  0.00  0.00     0.009 C 
BRANCH   8   9
ATOM      9  C3' N4B d   1       1.341   3.792  -0.556  0.00  0.00     0.004 C 
ATOM     10  C4' N4B d   1       2.253   3.610   0.621  0.00  0.00     0.003 C 
ENDBRANCH   8   9
ENDBRANCH   7   8
ENDBRANCH   1   7
TORSDOF 3
ENDMDL
