MODEL 1
REMARK minimizedAffinity -4.78642464
REMARK minimizedRMSD -1
REMARK  3 active torsions:
REMARK  status: ('A' for Active; 'I' for Inactive)
REMARK    1  A    between atoms: C3'_2  and  C2'_3 
REMARK    2  A    between atoms: C2'_3  and  C1'_4 
REMARK    3  A    between atoms: C1'_4  and  C1_5 
ROOT
ATOM      1  C1  N4B d   1      -0.046   0.195   0.651  0.00  0.00    -0.075 A 
ATOM      2  C2  N4B d   1      -0.106  -1.038  -0.035  0.00  0.00     0.002 A 
ATOM      3  C3  N4B d   1      -1.053  -1.970   0.310  0.00  0.00     0.002 A 
ATOM      4  C4  N4B d   1      -1.936  -1.700   1.345  0.00  0.00    -0.004 A 
ATOM      5  C5  N4B d   1      -1.888  -0.497   1.986  0.00  0.00     0.002 A 
ATOM      6  C6  N4B d   1      -0.943   0.451   1.647  0.00  0.00     0.002 A 
ENDROOT
BRANCH   1   7
ATOM      7  C1' N4B d   1       1.027   1.211   0.367  0.00  0.00     0.057 C 
BRANCH   7   8
ATOM      8  C2' N4B d   1       0.374   2.539  -0.004  0.00  0.00     0.009 C 
BRANCH   8   9
ATOM      9  C3' N4B d   1       1.254   3.724   0.353  0.00  0.00     0.004 C 
ATOM     10  C4' N4B d   1       2.682   3.535  -0.066  0.00  0.00     0.003 C 
ENDBRANCH   8   9
ENDBRANCH   7   8
ENDBRANCH   1   7
TORSDOF 3
ENDMDL
