MODEL 1
REMARK minimizedAffinity -5.1490531
REMARK minimizedRMSD -1
REMARK  1 active torsions:
REMARK  status: ('A' for Active; 'I' for Inactive)
REMARK    1  A    between atoms: C1_2  and  C2_3 
ROOT
ATOM      1  C2  UNL d   1      -0.491  -0.249  -0.346  0.00  0.00    -0.077 A 
ATOM      2  C3  UNL d   1       0.029  -0.670  -1.578  0.00  0.00     0.002 A 
ATOM      3  C4  UNL d   1      -0.002  -2.020  -1.934  0.00  0.00     0.002 A 
ATOM      4  C5  UNL d   1      -0.555  -2.959  -1.066  0.00  0.00    -0.004 A 
ATOM      5  C6  UNL d   1      -1.073  -2.551   0.163  0.00  0.00     0.002 A 
ATOM      6  C7  UNL d   1      -1.042  -1.202   0.521  0.00  0.00     0.002 A 
ENDROOT
BRANCH   1   7
ATOM      7  C1  UNL d   1      -0.504   1.212   0.018  0.00  0.00     0.055 C 
ATOM      8  C   UNL d   1       0.906   1.780   0.078  0.00  0.00     0.019 C 
ENDBRANCH   1   7
TORSDOF 1
ENDMDL
