MODEL 1
REMARK minimizedAffinity -5.62683058
REMARK minimizedRMSD -1
REMARK  1 active torsions:
REMARK  status: ('A' for Active; 'I' for Inactive)
REMARK    1  A    between atoms: C1_2  and  C2_3 
ROOT
ATOM      1  C2  UNL d   1      -0.078  -0.074  -0.144  0.00  0.00    -0.077 A 
ATOM      2  C3  UNL d   1      -0.928  -0.596   0.841  0.00  0.00     0.002 A 
ATOM      3  C4  UNL d   1      -0.934  -1.965   1.115  0.00  0.00     0.002 A 
ATOM      4  C5  UNL d   1      -0.088  -2.822   0.414  0.00  0.00    -0.004 A 
ATOM      5  C6  UNL d   1       0.760  -2.312  -0.569  0.00  0.00     0.002 A 
ATOM      6  C7  UNL d   1       0.766  -0.945  -0.846  0.00  0.00     0.002 A 
ENDROOT
BRANCH   1   7
ATOM      7  C1  UNL d   1      -0.034   1.408  -0.407  0.00  0.00     0.055 C 
ATOM      8  C   UNL d   1       1.160   2.058   0.277  0.00  0.00     0.019 C 
ENDBRANCH   1   7
TORSDOF 1
ENDMDL
