MODEL 1
REMARK minimizedAffinity -4.87312412
REMARK minimizedRMSD -1
REMARK  1 active torsions:
REMARK  status: ('A' for Active; 'I' for Inactive)
REMARK    1  A    between atoms: C1_2  and  C2_3 
ROOT
ATOM      1  C2  UNL d   1      -0.374  -0.359   0.679  0.00  0.00    -0.077 A 
ATOM      2  C3  UNL d   1      -0.505  -1.354   1.658  0.00  0.00     0.002 A 
ATOM      3  C4  UNL d   1      -0.149  -2.674   1.376  0.00  0.00     0.002 A 
ATOM      4  C5  UNL d   1       0.344  -3.011   0.117  0.00  0.00    -0.004 A 
ATOM      5  C6  UNL d   1       0.476  -2.029  -0.865  0.00  0.00     0.002 A 
ATOM      6  C7  UNL d   1       0.120  -0.709  -0.585  0.00  0.00     0.002 A 
ENDROOT
BRANCH   1   7
ATOM      7  C1  UNL d   1      -0.711   1.074   0.996  0.00  0.00     0.055 C 
ATOM      8  C   UNL d   1       0.308   2.029   0.391  0.00  0.00     0.019 C 
ENDBRANCH   1   7
TORSDOF 1
ENDMDL
