MODEL 1
REMARK minimizedAffinity -2.32765651
REMARK minimizedRMSD -1
REMARK  1 active torsions:
REMARK  status: ('A' for Active; 'I' for Inactive)
REMARK    1  A    between atoms: C1_2  and  C2_3 
ROOT
ATOM      1  C2  UNL d   1      -0.253   0.100  -0.324  0.00  0.00    -0.077 A 
ATOM      2  C3  UNL d   1       0.377  -1.079  -0.748  0.00  0.00     0.002 A 
ATOM      3  C4  UNL d   1      -0.070  -2.321  -0.295  0.00  0.00     0.002 A 
ATOM      4  C5  UNL d   1      -1.152  -2.397   0.580  0.00  0.00    -0.004 A 
ATOM      5  C6  UNL d   1      -1.784  -1.231   1.009  0.00  0.00     0.002 A 
ATOM      6  C7  UNL d   1      -1.337   0.012   0.558  0.00  0.00     0.002 A 
ENDROOT
BRANCH   1   7
ATOM      7  C1  UNL d   1       0.197   1.438  -0.850  0.00  0.00     0.055 C 
ATOM      8  C   UNL d   1       1.079   2.161   0.158  0.00  0.00     0.019 C 
ENDBRANCH   1   7
TORSDOF 1
ENDMDL
