MODEL 1
REMARK minimizedAffinity -4.93440819
REMARK minimizedRMSD -1
REMARK  1 active torsions:
REMARK  status: ('A' for Active; 'I' for Inactive)
REMARK    1  A    between atoms: C1_2  and  C2_3 
ROOT
ATOM      1  C2  UNL d   1      -0.054   0.296  -0.267  0.00  0.00    -0.077 A 
ATOM      2  C3  UNL d   1       0.599  -0.797  -0.853  0.00  0.00     0.002 A 
ATOM      3  C4  UNL d   1       0.404  -2.087  -0.354  0.00  0.00     0.002 A 
ATOM      4  C5  UNL d   1      -0.445  -2.295   0.731  0.00  0.00    -0.004 A 
ATOM      5  C6  UNL d   1      -1.097  -1.213   1.323  0.00  0.00     0.002 A 
ATOM      6  C7  UNL d   1      -0.903   0.076   0.826  0.00  0.00     0.002 A 
ENDROOT
BRANCH   1   7
ATOM      7  C1  UNL d   1       0.116   1.681  -0.835  0.00  0.00     0.055 C 
ATOM      8  C   UNL d   1       0.872   2.585   0.128  0.00  0.00     0.019 C 
ENDBRANCH   1   7
TORSDOF 1
ENDMDL
