MODEL 1
REMARK minimizedAffinity -3.85152078
REMARK minimizedRMSD -1
REMARK  1 active torsions:
REMARK  status: ('A' for Active; 'I' for Inactive)
REMARK    1  A    between atoms: C1_2  and  C2_3 
ROOT
ATOM      1  C2  UNL d   1       0.007   0.628   0.197  0.00  0.00    -0.077 A 
ATOM      2  C3  UNL d   1      -0.720   0.121   1.283  0.00  0.00     0.002 A 
ATOM      3  C4  UNL d   1      -1.061  -1.232   1.335  0.00  0.00     0.002 A 
ATOM      4  C5  UNL d   1      -0.676  -2.089   0.306  0.00  0.00    -0.004 A 
ATOM      5  C6  UNL d   1       0.045  -1.593  -0.780  0.00  0.00     0.002 A 
ATOM      6  C7  UNL d   1       0.386  -0.241  -0.834  0.00  0.00     0.002 A 
ENDROOT
BRANCH   1   7
ATOM      7  C1  UNL d   1       0.419   2.077   0.164  0.00  0.00     0.055 C 
ATOM      8  C   UNL d   1       1.932   2.221   0.088  0.00  0.00     0.019 C 
ENDBRANCH   1   7
TORSDOF 1
ENDMDL
