MODEL 1
REMARK minimizedAffinity -4.14120626
REMARK minimizedRMSD -1
REMARK  1 active torsions:
REMARK  status: ('A' for Active; 'I' for Inactive)
REMARK    1  A    between atoms: C1_2  and  C2_3 
ROOT
ATOM      1  C2  UNL d   1      -0.251  -0.100  -0.253  0.00  0.00    -0.077 A 
ATOM      2  C3  UNL d   1       0.704  -0.989  -0.765  0.00  0.00     0.002 A 
ATOM      3  C4  UNL d   1       0.686  -2.335  -0.394  0.00  0.00     0.002 A 
ATOM      4  C5  UNL d   1      -0.287  -2.804   0.486  0.00  0.00    -0.004 A 
ATOM      5  C6  UNL d   1      -1.240  -1.927   1.003  0.00  0.00     0.002 A 
ATOM      6  C7  UNL d   1      -1.222  -0.581   0.634  0.00  0.00     0.002 A 
ENDROOT
BRANCH   1   7
ATOM      7  C1  UNL d   1      -0.263   1.342  -0.690  0.00  0.00     0.055 C 
ATOM      8  C   UNL d   1       0.629   2.197   0.199  0.00  0.00     0.019 C 
ENDBRANCH   1   7
TORSDOF 1
ENDMDL
