MODEL 1
REMARK minimizedAffinity -5.68322039
REMARK minimizedRMSD -1
REMARK  1 active torsions:
REMARK  status: ('A' for Active; 'I' for Inactive)
REMARK    1  A    between atoms: C1_2  and  C2_3 
ROOT
ATOM      1  C2  UNL d   1      -0.077  -0.158  -0.258  0.00  0.00    -0.077 A 
ATOM      2  C3  UNL d   1       0.238  -1.334  -0.954  0.00  0.00     0.002 A 
ATOM      3  C4  UNL d   1       0.064  -2.580  -0.349  0.00  0.00     0.002 A 
ATOM      4  C5  UNL d   1      -0.430  -2.663   0.951  0.00  0.00    -0.004 A 
ATOM      5  C6  UNL d   1      -0.744  -1.499   1.652  0.00  0.00     0.002 A 
ATOM      6  C7  UNL d   1      -0.569  -0.252   1.050  0.00  0.00     0.002 A 
ENDROOT
BRANCH   1   7
ATOM      7  C1  UNL d   1       0.064   1.185  -0.926  0.00  0.00     0.055 C 
ATOM      8  C   UNL d   1       0.453   2.263   0.075  0.00  0.00     0.019 C 
ENDBRANCH   1   7
TORSDOF 1
ENDMDL
