MODEL 1
REMARK minimizedAffinity -3.86338949
REMARK minimizedRMSD -1
REMARK  1 active torsions:
REMARK  status: ('A' for Active; 'I' for Inactive)
REMARK    1  A    between atoms: C1_2  and  C2_3 
ROOT
ATOM      1  C2  UNL d   1      -0.272  -1.486  -0.049  0.00  0.00    -0.077 A 
ATOM      2  C3  UNL d   1       0.418  -0.923  -1.132  0.00  0.00     0.002 A 
ATOM      3  C4  UNL d   1       0.403   0.457  -1.339  0.00  0.00     0.002 A 
ATOM      4  C5  UNL d   1      -0.297   1.287  -0.465  0.00  0.00    -0.004 A 
ATOM      5  C6  UNL d   1      -0.988   0.737   0.613  0.00  0.00     0.002 A 
ATOM      6  C7  UNL d   1      -0.975  -0.643   0.821  0.00  0.00     0.002 A 
ENDROOT
BRANCH   1   7
ATOM      7  C1  UNL d   1      -0.217  -2.970   0.204  0.00  0.00     0.055 C 
ATOM      8  C   UNL d   1       1.209  -3.433   0.468  0.00  0.00     0.019 C 
ENDBRANCH   1   7
TORSDOF 1
ENDMDL
