MODEL 1
REMARK minimizedAffinity -5.96061039
REMARK minimizedRMSD -1
REMARK  1 active torsions:
REMARK  status: ('A' for Active; 'I' for Inactive)
REMARK    1  A    between atoms: C1_2  and  C2_3 
ROOT
ATOM      1  C2  UNL d   1      -0.034  -0.344  -0.803  0.00  0.00    -0.077 A 
ATOM      2  C3  UNL d   1       0.367  -1.361  -1.680  0.00  0.00     0.002 A 
ATOM      3  C4  UNL d   1       0.299  -2.700  -1.288  0.00  0.00     0.002 A 
ATOM      4  C5  UNL d   1      -0.173  -3.033  -0.020  0.00  0.00    -0.004 A 
ATOM      5  C6  UNL d   1      -0.572  -2.028   0.861  0.00  0.00     0.002 A 
ATOM      6  C7  UNL d   1      -0.503  -0.690   0.471  0.00  0.00     0.002 A 
ENDROOT
BRANCH   1   7
ATOM      7  C1  UNL d   1      -0.007   1.097  -1.242  0.00  0.00     0.055 C 
ATOM      8  C   UNL d   1       0.658   1.982  -0.197  0.00  0.00     0.019 C 
ENDBRANCH   1   7
TORSDOF 1
ENDMDL
