MODEL 1
REMARK minimizedAffinity -3.50015998
REMARK minimizedRMSD -1
REMARK  1 active torsions:
REMARK  status: ('A' for Active; 'I' for Inactive)
REMARK    1  A    between atoms: C1_2  and  C2_3 
ROOT
ATOM      1  C2  UNL d   1      -0.188  -0.820  -0.255  0.00  0.00    -0.077 A 
ATOM      2  C3  UNL d   1      -0.083  -1.043  -1.635  0.00  0.00     0.002 A 
ATOM      3  C4  UNL d   1      -0.276  -2.322  -2.161  0.00  0.00     0.002 A 
ATOM      4  C5  UNL d   1      -0.580  -3.386  -1.314  0.00  0.00    -0.004 A 
ATOM      5  C6  UNL d   1      -0.685  -3.175   0.060  0.00  0.00     0.002 A 
ATOM      6  C7  UNL d   1      -0.491  -1.897   0.587  0.00  0.00     0.002 A 
ENDROOT
BRANCH   1   7
ATOM      7  C1  UNL d   1      -0.029   0.568   0.308  0.00  0.00     0.055 C 
ATOM      8  C   UNL d   1      -0.510   1.624  -0.677  0.00  0.00     0.019 C 
ENDBRANCH   1   7
TORSDOF 1
ENDMDL
