MODEL 1
REMARK minimizedAffinity 0.295110226
REMARK minimizedRMSD -1
REMARK  1 active torsions:
REMARK  status: ('A' for Active; 'I' for Inactive)
REMARK    1  A    between atoms: C1_2  and  C2_3 
ROOT
ATOM      1  C2  UNL d   1      -0.362  -0.392  -0.183  0.00  0.00    -0.076 A 
ATOM      2  C3  UNL d   1      -0.829  -0.568   1.131  0.00  0.00     0.004 A 
ATOM      3  C4  UNL d   1      -1.278  -1.812   1.571  0.00  0.00    -0.003 A 
ATOM      4  C5  UNL d   1      -1.267  -2.900   0.705  0.00  0.00     0.000 A 
ATOM      5  C6  UNL d   1      -0.790  -2.747  -0.597  0.00  0.00     0.000 A 
ATOM      6  C7  UNL d   1      -0.319  -1.503  -1.052  0.00  0.00    -0.073 A 
ATOM      7  C8  UNL d   1       0.178  -1.394  -2.467  0.00  0.00     0.078 C 
ENDROOT
BRANCH   1   8
ATOM      8  C1  UNL d   1       0.088   0.987  -0.613  0.00  0.00     0.053 C 
ATOM      9  C   UNL d   1       1.248   1.507   0.221  0.00  0.00     0.018 C 
ENDBRANCH   1   8
TORSDOF 1
ENDMDL
