MODEL 1
REMARK minimizedAffinity -1.72549498
REMARK minimizedRMSD -1
REMARK  1 active torsions:
REMARK  status: ('A' for Active; 'I' for Inactive)
REMARK    1  A    between atoms: C1_2  and  C2_3 
ROOT
ATOM      1  C2  UNL d   1       0.479   0.624   0.119  0.00  0.00    -0.076 A 
ATOM      2  C3  UNL d   1       0.212   0.296   1.459  0.00  0.00     0.004 A 
ATOM      3  C4  UNL d   1      -0.684  -0.721   1.784  0.00  0.00    -0.003 A 
ATOM      4  C5  UNL d   1      -1.327  -1.428   0.773  0.00  0.00     0.000 A 
ATOM      5  C6  UNL d   1      -1.060  -1.127  -0.563  0.00  0.00     0.000 A 
ATOM      6  C7  UNL d   1      -0.147  -0.116  -0.907  0.00  0.00    -0.073 A 
ATOM      7  C8  UNL d   1       0.099   0.170  -2.363  0.00  0.00     0.078 C 
ENDROOT
BRANCH   1   8
ATOM      8  C1  UNL d   1       1.440   1.755  -0.172  0.00  0.00     0.053 C 
ATOM      9  C   UNL d   1       1.409   2.835   0.898  0.00  0.00     0.018 C 
ENDBRANCH   1   8
TORSDOF 1
ENDMDL
