MODEL 1
REMARK minimizedAffinity 5.3523531
REMARK minimizedRMSD -1
REMARK  1 active torsions:
REMARK  status: ('A' for Active; 'I' for Inactive)
REMARK    1  A    between atoms: C1_2  and  C2_3 
ROOT
ATOM      1  C2  UNL d   1       0.511   1.343   0.684  0.00  0.00    -0.076 A 
ATOM      2  C3  UNL d   1       0.174   2.410   1.534  0.00  0.00     0.004 A 
ATOM      3  C4  UNL d   1       1.116   3.378   1.879  0.00  0.00    -0.003 A 
ATOM      4  C5  UNL d   1       2.410   3.294   1.379  0.00  0.00     0.000 A 
ATOM      5  C6  UNL d   1       2.758   2.252   0.520  0.00  0.00     0.000 A 
ATOM      6  C7  UNL d   1       1.815   1.278   0.149  0.00  0.00    -0.073 A 
ATOM      7  C8  UNL d   1       2.246   0.173  -0.776  0.00  0.00     0.078 C 
ENDROOT
BRANCH   1   8
ATOM      8  C1  UNL d   1      -0.545   0.309   0.366  0.00  0.00     0.053 C 
ATOM      9  C   UNL d   1      -1.197  -0.261   1.616  0.00  0.00     0.018 C 
ENDBRANCH   1   8
TORSDOF 1
ENDMDL
