MODEL 1
REMARK minimizedAffinity -2.79417777
REMARK minimizedRMSD -1
REMARK  1 active torsions:
REMARK  status: ('A' for Active; 'I' for Inactive)
REMARK    1  A    between atoms: C1_2  and  C2_3 
ROOT
ATOM      1  C2  UNL d   1       0.513   1.626   0.224  0.00  0.00    -0.076 A 
ATOM      2  C3  UNL d   1       0.171   2.813   0.895  0.00  0.00     0.004 A 
ATOM      3  C4  UNL d   1       1.154   3.698   1.335  0.00  0.00    -0.003 A 
ATOM      4  C5  UNL d   1       2.496   3.409   1.111  0.00  0.00     0.000 A 
ATOM      5  C6  UNL d   1       2.853   2.244   0.432  0.00  0.00     0.000 A 
ATOM      6  C7  UNL d   1       1.873   1.350  -0.032  0.00  0.00    -0.073 A 
ATOM      7  C8  UNL d   1       2.314   0.106  -0.754  0.00  0.00     0.078 C 
ENDROOT
BRANCH   1   8
ATOM      8  C1  UNL d   1      -0.596   0.692  -0.206  0.00  0.00     0.053 C 
ATOM      9  C   UNL d   1      -1.468   0.247   0.959  0.00  0.00     0.018 C 
ENDBRANCH   1   8
TORSDOF 1
ENDMDL
