MODEL 1
REMARK minimizedAffinity 3.96742797
REMARK minimizedRMSD -1
REMARK  1 active torsions:
REMARK  status: ('A' for Active; 'I' for Inactive)
REMARK    1  A    between atoms: C1_2  and  C2_3 
ROOT
ATOM      1  C2  UNL d   1      -0.333  -0.301  -0.653  0.00  0.00    -0.076 A 
ATOM      2  C3  UNL d   1      -0.901  -1.585  -0.587  0.00  0.00     0.004 A 
ATOM      3  C4  UNL d   1      -1.154  -2.195   0.640  0.00  0.00    -0.003 A 
ATOM      4  C5  UNL d   1      -0.845  -1.531   1.822  0.00  0.00     0.000 A 
ATOM      5  C6  UNL d   1      -0.297  -0.249   1.775  0.00  0.00     0.000 A 
ATOM      6  C7  UNL d   1      -0.051   0.387   0.547  0.00  0.00    -0.073 A 
ATOM      7  C8  UNL d   1       0.547   1.767   0.555  0.00  0.00     0.078 C 
ENDROOT
BRANCH   1   8
ATOM      8  C1  UNL d   1      -0.056   0.299  -2.013  0.00  0.00     0.053 C 
ATOM      9  C   UNL d   1       0.604  -0.689  -2.962  0.00  0.00     0.018 C 
ENDBRANCH   1   8
TORSDOF 1
ENDMDL
