MODEL 1
REMARK minimizedAffinity 2.62454391
REMARK minimizedRMSD -1
REMARK  1 active torsions:
REMARK  status: ('A' for Active; 'I' for Inactive)
REMARK    1  A    between atoms: C1_2  and  C2_3 
ROOT
ATOM      1  C2  UNL d   1      -0.890  -0.390   1.381  0.00  0.00    -0.076 A 
ATOM      2  C3  UNL d   1      -1.552   0.105   0.244  0.00  0.00     0.004 A 
ATOM      3  C4  UNL d   1      -1.113   1.263  -0.394  0.00  0.00    -0.003 A 
ATOM      4  C5  UNL d   1      -0.004   1.946   0.094  0.00  0.00     0.000 A 
ATOM      5  C6  UNL d   1       0.675   1.460   1.211  0.00  0.00     0.000 A 
ATOM      6  C7  UNL d   1       0.255   0.284   1.856  0.00  0.00    -0.073 A 
ATOM      7  C8  UNL d   1       1.021  -0.192   3.060  0.00  0.00     0.078 C 
ENDROOT
BRANCH   1   8
ATOM      8  C1  UNL d   1      -1.428  -1.636   2.047  0.00  0.00     0.053 C 
ATOM      9  C   UNL d   1      -1.842  -2.701   1.043  0.00  0.00     0.018 C 
ENDBRANCH   1   8
TORSDOF 1
ENDMDL
