MODEL 1
REMARK minimizedAffinity -1.74916148
REMARK minimizedRMSD -1
REMARK  1 active torsions:
REMARK  status: ('A' for Active; 'I' for Inactive)
REMARK    1  A    between atoms: C1_2  and  C2_3 
ROOT
ATOM      1  C2  UNL d   1      -0.379  -0.072  -0.900  0.00  0.00    -0.076 A 
ATOM      2  C3  UNL d   1      -0.990  -1.328  -0.744  0.00  0.00     0.004 A 
ATOM      3  C4  UNL d   1      -1.351  -1.800   0.517  0.00  0.00    -0.003 A 
ATOM      4  C5  UNL d   1      -1.106  -1.022   1.643  0.00  0.00     0.000 A 
ATOM      5  C6  UNL d   1      -0.516   0.234   1.506  0.00  0.00     0.000 A 
ATOM      6  C7  UNL d   1      -0.162   0.731   0.240  0.00  0.00    -0.073 A 
ATOM      7  C8  UNL d   1       0.477   2.090   0.152  0.00  0.00     0.078 C 
ENDROOT
BRANCH   1   8
ATOM      8  C1  UNL d   1       0.014   0.375  -2.289  0.00  0.00     0.053 C 
ATOM      9  C   UNL d   1       0.468  -0.781  -3.167  0.00  0.00     0.018 C 
ENDBRANCH   1   8
TORSDOF 1
ENDMDL
