MODEL 1
REMARK minimizedAffinity -4.4510808
REMARK minimizedRMSD -1
REMARK  1 active torsions:
REMARK  status: ('A' for Active; 'I' for Inactive)
REMARK    1  A    between atoms: C1_2  and  C2_3 
ROOT
ATOM      1  C2  UNL d   1       0.686   1.516   0.020  0.00  0.00    -0.076 A 
ATOM      2  C3  UNL d   1       0.649   2.627   0.879  0.00  0.00     0.004 A 
ATOM      3  C4  UNL d   1       1.798   3.375   1.134  0.00  0.00    -0.003 A 
ATOM      4  C5  UNL d   1       3.001   3.023   0.533  0.00  0.00     0.000 A 
ATOM      5  C6  UNL d   1       3.052   1.934  -0.336  0.00  0.00     0.000 A 
ATOM      6  C7  UNL d   1       1.900   1.179  -0.616  0.00  0.00    -0.073 A 
ATOM      7  C8  UNL d   1       2.013   0.011  -1.557  0.00  0.00     0.078 C 
ENDROOT
BRANCH   1   8
ATOM      8  C1  UNL d   1      -0.585   0.726  -0.198  0.00  0.00     0.053 C 
ATOM      9  C   UNL d   1      -0.860  -0.258   0.928  0.00  0.00     0.018 C 
ENDBRANCH   1   8
TORSDOF 1
ENDMDL
