MODEL 1
REMARK minimizedAffinity -1.0681026
REMARK minimizedRMSD -1
REMARK  1 active torsions:
REMARK  status: ('A' for Active; 'I' for Inactive)
REMARK    1  A    between atoms: C1_2  and  C2_3 
ROOT
ATOM      1  C2  UNL d   1      -0.436  -1.080  -0.333  0.00  0.00    -0.076 A 
ATOM      2  C3  UNL d   1      -0.373   0.240  -0.814  0.00  0.00     0.004 A 
ATOM      3  C4  UNL d   1      -0.418   1.325   0.060  0.00  0.00    -0.003 A 
ATOM      4  C5  UNL d   1      -0.525   1.107   1.430  0.00  0.00     0.000 A 
ATOM      5  C6  UNL d   1      -0.570  -0.195   1.925  0.00  0.00     0.000 A 
ATOM      6  C7  UNL d   1      -0.510  -1.300   1.059  0.00  0.00    -0.073 A 
ATOM      7  C8  UNL d   1      -0.569  -2.683   1.648  0.00  0.00     0.078 C 
ENDROOT
BRANCH   1   8
ATOM      8  C1  UNL d   1      -0.411  -2.216  -1.330  0.00  0.00     0.053 C 
ATOM      9  C   UNL d   1       0.041  -1.768  -2.712  0.00  0.00     0.018 C 
ENDBRANCH   1   8
TORSDOF 1
ENDMDL
