MODEL 1
REMARK minimizedAffinity -4.33961678
REMARK minimizedRMSD -1
REMARK  1 active torsions:
REMARK  status: ('A' for Active; 'I' for Inactive)
REMARK    1  A    between atoms: C1_2  and  C2_3 
ROOT
ATOM      1  C2  UNL d   1      -0.751  -1.641  -0.536  0.00  0.00    -0.076 A 
ATOM      2  C3  UNL d   1      -0.147  -1.532  -1.800  0.00  0.00     0.004 A 
ATOM      3  C4  UNL d   1       0.366  -0.316  -2.247  0.00  0.00    -0.003 A 
ATOM      4  C5  UNL d   1       0.284   0.812  -1.437  0.00  0.00     0.000 A 
ATOM      5  C6  UNL d   1      -0.297   0.718  -0.173  0.00  0.00     0.000 A 
ATOM      6  C7  UNL d   1      -0.804  -0.505   0.300  0.00  0.00    -0.073 A 
ATOM      7  C8  UNL d   1      -1.426  -0.547   1.669  0.00  0.00     0.078 C 
ENDROOT
BRANCH   1   8
ATOM      8  C1  UNL d   1      -1.315  -2.979  -0.115  0.00  0.00     0.053 C 
ATOM      9  C   UNL d   1      -0.233  -4.028   0.090  0.00  0.00     0.018 C 
ENDBRANCH   1   8
TORSDOF 1
ENDMDL
