MODEL 1
REMARK minimizedAffinity -6.0513258
REMARK minimizedRMSD -1
REMARK  1 active torsions:
REMARK  status: ('A' for Active; 'I' for Inactive)
REMARK    1  A    between atoms: C1_2  and  C2_3 
ROOT
ATOM      1  C2  UNL d   1      -0.226  -0.318   0.075  0.00  0.00    -0.076 A 
ATOM      2  C3  UNL d   1      -0.025  -1.023  -1.124  0.00  0.00     0.004 A 
ATOM      3  C4  UNL d   1       0.097  -2.411  -1.128  0.00  0.00    -0.003 A 
ATOM      4  C5  UNL d   1       0.020  -3.117   0.067  0.00  0.00     0.000 A 
ATOM      5  C6  UNL d   1      -0.196  -2.436   1.265  0.00  0.00     0.000 A 
ATOM      6  C7  UNL d   1      -0.338  -1.037   1.284  0.00  0.00    -0.073 A 
ATOM      7  C8  UNL d   1      -0.563  -0.353   2.605  0.00  0.00     0.078 C 
ENDROOT
BRANCH   1   8
ATOM      8  C1  UNL d   1      -0.324   1.190   0.021  0.00  0.00     0.053 C 
ATOM      9  C   UNL d   1       0.943   1.874   0.512  0.00  0.00     0.018 C 
ENDBRANCH   1   8
TORSDOF 1
ENDMDL
