MODEL 1
REMARK minimizedAffinity -0.729520619
REMARK minimizedRMSD -1
REMARK  1 active torsions:
REMARK  status: ('A' for Active; 'I' for Inactive)
REMARK    1  A    between atoms: C1_2  and  C2_3 
ROOT
ATOM      1  C2  UNL d   1       0.538   1.381   0.231  0.00  0.00    -0.076 A 
ATOM      2  C3  UNL d   1       0.634   0.841   1.526  0.00  0.00     0.004 A 
ATOM      3  C4  UNL d   1      -0.187  -0.212   1.927  0.00  0.00    -0.003 A 
ATOM      4  C5  UNL d   1      -1.117  -0.742   1.040  0.00  0.00     0.000 A 
ATOM      5  C6  UNL d   1      -1.213  -0.231  -0.254  0.00  0.00     0.000 A 
ATOM      6  C7  UNL d   1      -0.382   0.819  -0.680  0.00  0.00    -0.073 A 
ATOM      7  C8  UNL d   1      -0.534   1.336  -2.084  0.00  0.00     0.078 C 
ENDROOT
BRANCH   1   8
ATOM      8  C1  UNL d   1       1.435   2.540  -0.138  0.00  0.00     0.053 C 
ATOM      9  C   UNL d   1       1.463   3.620   0.932  0.00  0.00     0.018 C 
ENDBRANCH   1   8
TORSDOF 1
ENDMDL
