MODEL 1
REMARK minimizedAffinity -4.81308699
REMARK minimizedRMSD -1
REMARK  3 active torsions:
REMARK  status: ('A' for Active; 'I' for Inactive)
REMARK    1  A    between atoms: C3'_2  and  C2'_3 
REMARK    2  A    between atoms: C2'_3  and  C1'_4 
REMARK    3  A    between atoms: C1'_4  and  C1_5 
ROOT
ATOM      1  C1  N4B d   1      -0.384  -0.955  -0.834  0.00  0.00    -0.075 A 
ATOM      2  C2  N4B d   1       0.971  -1.322  -0.681  0.00  0.00     0.002 A 
ATOM      3  C3  N4B d   1       1.875  -0.418  -0.181  0.00  0.00     0.002 A 
ATOM      4  C4  N4B d   1       1.453   0.860   0.154  0.00  0.00    -0.004 A 
ATOM      5  C5  N4B d   1       0.137   1.198   0.028  0.00  0.00     0.002 A 
ATOM      6  C6  N4B d   1      -0.783   0.298  -0.470  0.00  0.00     0.002 A 
ENDROOT
BRANCH   1   7
ATOM      7  C1' N4B d   1      -1.392  -1.882  -1.456  0.00  0.00     0.057 C 
BRANCH   7   8
ATOM      8  C2' N4B d   1      -1.530  -1.549  -2.939  0.00  0.00     0.009 C 
BRANCH   8   9
ATOM      9  C3' N4B d   1      -2.948  -1.142  -3.301  0.00  0.00     0.004 C 
ATOM     10  C4' N4B d   1      -3.816  -0.929  -2.097  0.00  0.00     0.003 C 
ENDBRANCH   8   9
ENDBRANCH   7   8
ENDBRANCH   1   7
TORSDOF 3
ENDMDL
