MODEL 1
REMARK minimizedAffinity -2.1409502
REMARK minimizedRMSD -1
REMARK  3 active torsions:
REMARK  status: ('A' for Active; 'I' for Inactive)
REMARK    1  A    between atoms: C3'_2  and  C2'_3 
REMARK    2  A    between atoms: C2'_3  and  C1'_4 
REMARK    3  A    between atoms: C1'_4  and  C1_5 
ROOT
ATOM      1  C1  N4B d   1       1.047   0.288   0.440  0.00  0.00    -0.075 A 
ATOM      2  C2  N4B d   1       1.203   1.321  -0.510  0.00  0.00     0.002 A 
ATOM      3  C3  N4B d   1       1.601   2.571  -0.106  0.00  0.00     0.002 A 
ATOM      4  C4  N4B d   1       1.830   2.816   1.240  0.00  0.00    -0.004 A 
ATOM      5  C5  N4B d   1       1.701   1.807   2.148  0.00  0.00     0.002 A 
ATOM      6  C6  N4B d   1       1.305   0.544   1.755  0.00  0.00     0.002 A 
ENDROOT
BRANCH   1   7
ATOM      7  C1' N4B d   1       0.530  -1.072   0.057  0.00  0.00     0.057 C 
BRANCH   7   8
ATOM      8  C2' N4B d   1      -0.943  -0.960  -0.324  0.00  0.00     0.009 C 
BRANCH   8   9
ATOM      9  C3' N4B d   1      -1.169  -1.226  -1.803  0.00  0.00     0.004 C 
ATOM     10  C4' N4B d   1      -2.334  -2.135  -2.057  0.00  0.00     0.003 C 
ENDBRANCH   8   9
ENDBRANCH   7   8
ENDBRANCH   1   7
TORSDOF 3
ENDMDL
