MODEL 1
REMARK minimizedAffinity -3.52537251
REMARK minimizedRMSD -1
REMARK  3 active torsions:
REMARK  status: ('A' for Active; 'I' for Inactive)
REMARK    1  A    between atoms: C3'_2  and  C2'_3 
REMARK    2  A    between atoms: C2'_3  and  C1'_4 
REMARK    3  A    between atoms: C1'_4  and  C1_5 
ROOT
ATOM      1  C1  N4B d   1       2.623   1.817   1.786  0.00  0.00    -0.075 A 
ATOM      2  C2  N4B d   1       1.487   2.367   2.421  0.00  0.00     0.002 A 
ATOM      3  C3  N4B d   1       1.126   1.937   3.674  0.00  0.00     0.002 A 
ATOM      4  C4  N4B d   1       1.870   0.949   4.301  0.00  0.00    -0.004 A 
ATOM      5  C5  N4B d   1       2.980   0.441   3.692  0.00  0.00     0.002 A 
ATOM      6  C6  N4B d   1       3.357   0.867   2.434  0.00  0.00     0.002 A 
ENDROOT
BRANCH   1   7
ATOM      7  C1' N4B d   1       3.008   2.193   0.381  0.00  0.00     0.057 C 
BRANCH   7   8
ATOM      8  C2' N4B d   1       1.877   1.808  -0.568  0.00  0.00     0.009 C 
BRANCH   8   9
ATOM      9  C3' N4B d   1       1.447   0.363  -0.382  0.00  0.00     0.004 C 
ATOM     10  C4' N4B d   1       0.167   0.232   0.388  0.00  0.00     0.003 C 
ENDBRANCH   8   9
ENDBRANCH   7   8
ENDBRANCH   1   7
TORSDOF 3
ENDMDL
