MODEL 1
REMARK minimizedAffinity -0.772738099
REMARK minimizedRMSD -1
REMARK  3 active torsions:
REMARK  status: ('A' for Active; 'I' for Inactive)
REMARK    1  A    between atoms: C3'_2  and  C2'_3 
REMARK    2  A    between atoms: C2'_3  and  C1'_4 
REMARK    3  A    between atoms: C1'_4  and  C1_5 
ROOT
ATOM      1  C1  N4B d   1       0.837  -0.285  -0.255  0.00  0.00    -0.075 A 
ATOM      2  C2  N4B d   1       2.149  -0.462  -0.748  0.00  0.00     0.002 A 
ATOM      3  C3  N4B d   1       2.923   0.632  -1.049  0.00  0.00     0.002 A 
ATOM      4  C4  N4B d   1       2.402   1.906  -0.885  0.00  0.00    -0.004 A 
ATOM      5  C5  N4B d   1       1.143   2.069  -0.385  0.00  0.00     0.002 A 
ATOM      6  C6  N4B d   1       0.356   0.979  -0.074  0.00  0.00     0.002 A 
ENDROOT
BRANCH   1   7
ATOM      7  C1' N4B d   1      -0.076  -1.451   0.007  0.00  0.00     0.057 C 
BRANCH   7   8
ATOM      8  C2' N4B d   1      -1.503  -1.063  -0.369  0.00  0.00     0.009 C 
BRANCH   8   9
ATOM      9  C3' N4B d   1      -1.856  -1.493  -1.783  0.00  0.00     0.004 C 
ATOM     10  C4' N4B d   1      -3.335  -1.535  -2.025  0.00  0.00     0.003 C 
ENDBRANCH   8   9
ENDBRANCH   7   8
ENDBRANCH   1   7
TORSDOF 3
ENDMDL
