MODEL 1
REMARK minimizedAffinity -4.92702484
REMARK minimizedRMSD -1
REMARK  3 active torsions:
REMARK  status: ('A' for Active; 'I' for Inactive)
REMARK    1  A    between atoms: C3'_2  and  C2'_3 
REMARK    2  A    between atoms: C2'_3  and  C1'_4 
REMARK    3  A    between atoms: C1'_4  and  C1_5 
ROOT
ATOM      1  C1  N4B d   1       0.046   0.175   0.247  0.00  0.00    -0.075 A 
ATOM      2  C2  N4B d   1       1.104   0.997  -0.200  0.00  0.00     0.002 A 
ATOM      3  C3  N4B d   1       1.356   2.192   0.426  0.00  0.00     0.002 A 
ATOM      4  C4  N4B d   1       0.556   2.594   1.485  0.00  0.00    -0.004 A 
ATOM      5  C5  N4B d   1      -0.448   1.783   1.928  0.00  0.00     0.002 A 
ATOM      6  C6  N4B d   1      -0.710   0.577   1.310  0.00  0.00     0.002 A 
ENDROOT
BRANCH   1   7
ATOM      7  C1' N4B d   1      -0.322  -1.101  -0.460  0.00  0.00     0.057 C 
BRANCH   7   8
ATOM      8  C2' N4B d   1      -1.090  -0.763  -1.735  0.00  0.00     0.009 C 
BRANCH   8   9
ATOM      9  C3' N4B d   1      -2.281  -1.683  -1.942  0.00  0.00     0.004 C 
ATOM     10  C4' N4B d   1      -3.392  -1.031  -2.710  0.00  0.00     0.003 C 
ENDBRANCH   8   9
ENDBRANCH   7   8
ENDBRANCH   1   7
TORSDOF 3
ENDMDL
