MODEL 1
REMARK minimizedAffinity -3.52505589
REMARK minimizedRMSD -1
REMARK  3 active torsions:
REMARK  status: ('A' for Active; 'I' for Inactive)
REMARK    1  A    between atoms: C3'_2  and  C2'_3 
REMARK    2  A    between atoms: C2'_3  and  C1'_4 
REMARK    3  A    between atoms: C1'_4  and  C1_5 
ROOT
ATOM      1  C1  N4B d   1      -0.785  -0.440  -1.056  0.00  0.00    -0.075 A 
ATOM      2  C2  N4B d   1      -1.266   0.173  -2.233  0.00  0.00     0.002 A 
ATOM      3  C3  N4B d   1      -2.035  -0.545  -3.116  0.00  0.00     0.002 A 
ATOM      4  C4  N4B d   1      -2.318  -1.877  -2.853  0.00  0.00    -0.004 A 
ATOM      5  C5  N4B d   1      -1.871  -2.454  -1.701  0.00  0.00     0.002 A 
ATOM      6  C6  N4B d   1      -1.100  -1.744  -0.803  0.00  0.00     0.002 A 
ENDROOT
BRANCH   1   7
ATOM      7  C1' N4B d   1       0.131   0.279  -0.103  0.00  0.00     0.057 C 
BRANCH   7   8
ATOM      8  C2' N4B d   1      -0.684   0.803   1.075  0.00  0.00     0.009 C 
BRANCH   8   9
ATOM      9  C3' N4B d   1       0.032   1.925   1.807  0.00  0.00     0.004 C 
ATOM     10  C4' N4B d   1       1.508   1.942   1.542  0.00  0.00     0.003 C 
ENDBRANCH   8   9
ENDBRANCH   7   8
ENDBRANCH   1   7
TORSDOF 3
ENDMDL
