MODEL 1
REMARK minimizedAffinity -4.81844139
REMARK minimizedRMSD -1
REMARK  3 active torsions:
REMARK  status: ('A' for Active; 'I' for Inactive)
REMARK    1  A    between atoms: C3'_2  and  C2'_3 
REMARK    2  A    between atoms: C2'_3  and  C1'_4 
REMARK    3  A    between atoms: C1'_4  and  C1_5 
ROOT
ATOM      1  C1  N4B d   1      -0.980  -1.101  -1.305  0.00  0.00    -0.075 A 
ATOM      2  C2  N4B d   1      -2.369  -1.115  -1.053  0.00  0.00     0.002 A 
ATOM      3  C3  N4B d   1      -3.255  -1.205  -2.099  0.00  0.00     0.002 A 
ATOM      4  C4  N4B d   1      -2.778  -1.262  -3.400  0.00  0.00    -0.004 A 
ATOM      5  C5  N4B d   1      -1.434  -1.273  -3.632  0.00  0.00     0.002 A 
ATOM      6  C6  N4B d   1      -0.532  -1.187  -2.591  0.00  0.00     0.002 A 
ENDROOT
BRANCH   1   7
ATOM      7  C1' N4B d   1       0.025  -0.917  -0.201  0.00  0.00     0.057 C 
BRANCH   7   8
ATOM      8  C2' N4B d   1      -0.367   0.296   0.637  0.00  0.00     0.009 C 
BRANCH   8   9
ATOM      9  C3' N4B d   1       0.497   1.506   0.325  0.00  0.00     0.004 C 
ATOM     10  C4' N4B d   1       0.976   2.211   1.558  0.00  0.00     0.003 C 
ENDBRANCH   8   9
ENDBRANCH   7   8
ENDBRANCH   1   7
TORSDOF 3
ENDMDL
