MODEL 1
REMARK minimizedAffinity -2.89544535
REMARK minimizedRMSD -1
REMARK  3 active torsions:
REMARK  status: ('A' for Active; 'I' for Inactive)
REMARK    1  A    between atoms: C3'_2  and  C2'_3 
REMARK    2  A    between atoms: C2'_3  and  C1'_4 
REMARK    3  A    between atoms: C1'_4  and  C1_5 
ROOT
ATOM      1  C1  N4B d   1       0.637   0.251   0.539  0.00  0.00    -0.075 A 
ATOM      2  C2  N4B d   1       1.470   0.748  -0.487  0.00  0.00     0.002 A 
ATOM      3  C3  N4B d   1       1.960   2.029  -0.413  0.00  0.00     0.002 A 
ATOM      4  C4  N4B d   1       1.616   2.834   0.663  0.00  0.00    -0.004 A 
ATOM      5  C5  N4B d   1       0.831   2.338   1.662  0.00  0.00     0.002 A 
ATOM      6  C6  N4B d   1       0.335   1.051   1.603  0.00  0.00     0.002 A 
ENDROOT
BRANCH   1   7
ATOM      7  C1' N4B d   1       0.008  -1.113   0.460  0.00  0.00     0.057 C 
BRANCH   7   8
ATOM      8  C2' N4B d   1      -0.700  -1.261  -0.884  0.00  0.00     0.009 C 
BRANCH   8   9
ATOM      9  C3' N4B d   1      -1.864  -2.235  -0.809  0.00  0.00     0.004 C 
ATOM     10  C4' N4B d   1      -2.873  -2.018  -1.897  0.00  0.00     0.003 C 
ENDBRANCH   8   9
ENDBRANCH   7   8
ENDBRANCH   1   7
TORSDOF 3
ENDMDL
