MODEL 1
REMARK minimizedAffinity -5.53869104
REMARK minimizedRMSD -1
REMARK  3 active torsions:
REMARK  status: ('A' for Active; 'I' for Inactive)
REMARK    1  A    between atoms: C3'_2  and  C2'_3 
REMARK    2  A    between atoms: C2'_3  and  C1'_4 
REMARK    3  A    between atoms: C1'_4  and  C1_5 
ROOT
ATOM      1  C1  N4B d   1       0.134   0.395   0.563  0.00  0.00    -0.075 A 
ATOM      2  C2  N4B d   1       0.950   0.894  -0.477  0.00  0.00     0.002 A 
ATOM      3  C3  N4B d   1       1.511   2.142  -0.371  0.00  0.00     0.002 A 
ATOM      4  C4  N4B d   1       1.257   2.915   0.752  0.00  0.00    -0.004 A 
ATOM      5  C5  N4B d   1       0.489   2.417   1.763  0.00  0.00     0.002 A 
ATOM      6  C6  N4B d   1      -0.078   1.162   1.672  0.00  0.00     0.002 A 
ENDROOT
BRANCH   1   7
ATOM      7  C1' N4B d   1      -0.571  -0.929   0.454  0.00  0.00     0.057 C 
BRANCH   7   8
ATOM      8  C2' N4B d   1      -0.404  -1.470  -0.963  0.00  0.00     0.009 C 
BRANCH   8   9
ATOM      9  C3' N4B d   1      -1.734  -1.876  -1.576  0.00  0.00     0.004 C 
ATOM     10  C4' N4B d   1      -1.818  -1.565  -3.040  0.00  0.00     0.003 C 
ENDBRANCH   8   9
ENDBRANCH   7   8
ENDBRANCH   1   7
TORSDOF 3
ENDMDL
