MODEL 1
REMARK minimizedAffinity -2.37044668
REMARK minimizedRMSD -1
REMARK  0 active torsions:
REMARK  status: ('A' for Active; 'I' for Inactive)
ROOT
ATOM      1  C4' PXY d   1      -0.988   0.085   1.325  0.00  0.00     0.077 C 
ATOM      2  C1' PXY d   1       2.097  -0.211  -3.555  0.00  0.00     0.077 C 
ATOM      3  C1  PXY d   1       1.295  -0.123  -2.272  0.00  0.00    -0.082 A 
ATOM      4  C2  PXY d   1       0.696  -1.204  -1.800  0.00  0.00     0.003 A 
ATOM      5  C3  PXY d   1      -0.060  -1.135  -0.658  0.00  0.00     0.003 A 
ATOM      6  C4  PXY d   1      -0.160   0.040   0.037  0.00  0.00    -0.082 A 
ATOM      7  C5  PXY d   1       0.458   1.145  -0.432  0.00  0.00     0.003 A 
ATOM      8  C6  PXY d   1       1.186   1.064  -1.615  0.00  0.00     0.003 A 
ENDROOT
TORSDOF 0
ENDMDL
