MODEL 1
REMARK minimizedAffinity -1.92309737
REMARK minimizedRMSD -1
REMARK  0 active torsions:
REMARK  status: ('A' for Active; 'I' for Inactive)
ROOT
ATOM      1  C4' PXY d   1       2.815  -0.705  -3.863  0.00  0.00     0.077 C 
ATOM      2  C1' PXY d   1      -0.647   0.231   0.670  0.00  0.00     0.077 C 
ATOM      3  C1  PXY d   1       0.266  -0.003  -0.517  0.00  0.00    -0.082 A 
ATOM      4  C2  PXY d   1      -0.104  -0.840  -1.472  0.00  0.00     0.003 A 
ATOM      5  C3  PXY d   1       0.724  -1.088  -2.537  0.00  0.00     0.003 A 
ATOM      6  C4  PXY d   1       1.920  -0.431  -2.651  0.00  0.00    -0.082 A 
ATOM      7  C5  PXY d   1       2.300   0.433  -1.686  0.00  0.00     0.003 A 
ATOM      8  C6  PXY d   1       1.463   0.639  -0.593  0.00  0.00     0.003 A 
ENDROOT
TORSDOF 0
ENDMDL
