MODEL 1
REMARK minimizedAffinity -1.93988669
REMARK minimizedRMSD -1
REMARK  0 active torsions:
REMARK  status: ('A' for Active; 'I' for Inactive)
ROOT
ATOM      1  C4' PXY d   1      -2.387  -0.048   1.795  0.00  0.00     0.077 C 
ATOM      2  C1' PXY d   1       2.215   0.605  -1.641  0.00  0.00     0.077 C 
ATOM      3  C1  PXY d   1       1.012   0.421  -0.737  0.00  0.00    -0.082 A 
ATOM      4  C2  PXY d   1      -0.078   1.142  -0.944  0.00  0.00     0.003 A 
ATOM      5  C3  PXY d   1      -1.164   1.012  -0.117  0.00  0.00     0.003 A 
ATOM      6  C4  PXY d   1      -1.152   0.097   0.902  0.00  0.00    -0.082 A 
ATOM      7  C5  PXY d   1      -0.048  -0.650   1.113  0.00  0.00     0.003 A 
ATOM      8  C6  PXY d   1       1.059  -0.473   0.287  0.00  0.00     0.003 A 
ENDROOT
TORSDOF 0
ENDMDL
