MODEL 1
REMARK minimizedAffinity -4.09777546
REMARK minimizedRMSD -1
REMARK  0 active torsions:
REMARK  status: ('A' for Active; 'I' for Inactive)
ROOT
ATOM      1  C4' PXY d   1      -1.888   3.919   3.806  0.00  0.00     0.077 C 
ATOM      2  C1' PXY d   1      -3.718  -0.633   0.749  0.00  0.00     0.077 C 
ATOM      3  C1  PXY d   1      -3.229   0.554   1.556  0.00  0.00    -0.082 A 
ATOM      4  C2  PXY d   1      -4.074   1.519   1.878  0.00  0.00     0.003 A 
ATOM      5  C3  PXY d   1      -3.640   2.615   2.580  0.00  0.00     0.003 A 
ATOM      6  C4  PXY d   1      -2.340   2.698   3.001  0.00  0.00    -0.082 A 
ATOM      7  C5  PXY d   1      -1.474   1.712   2.685  0.00  0.00     0.003 A 
ATOM      8  C6  PXY d   1      -1.925   0.628   1.937  0.00  0.00     0.003 A 
ENDROOT
TORSDOF 0
ENDMDL
