MODEL 1
REMARK minimizedAffinity -2.28742504
REMARK minimizedRMSD -1
REMARK  0 active torsions:
REMARK  status: ('A' for Active; 'I' for Inactive)
ROOT
ATOM      1  C4' PXY d   1      -2.734   0.527   1.546  0.00  0.00     0.077 C 
ATOM      2  C1' PXY d   1       2.007   0.006  -1.719  0.00  0.00     0.077 C 
ATOM      3  C1  PXY d   1       0.768   0.133  -0.855  0.00  0.00    -0.082 A 
ATOM      4  C2  PXY d   1      -0.330   0.672  -1.361  0.00  0.00     0.003 A 
ATOM      5  C3  PXY d   1      -1.449   0.823  -0.584  0.00  0.00     0.003 A 
ATOM      6  C4  PXY d   1      -1.462   0.370   0.708  0.00  0.00    -0.082 A 
ATOM      7  C5  PXY d   1      -0.350  -0.190   1.228  0.00  0.00     0.003 A 
ATOM      8  C6  PXY d   1       0.789  -0.297   0.435  0.00  0.00     0.003 A 
ENDROOT
TORSDOF 0
ENDMDL
