MODEL 1
REMARK minimizedAffinity -3.76915431
REMARK minimizedRMSD -1
REMARK  0 active torsions:
REMARK  status: ('A' for Active; 'I' for Inactive)
ROOT
ATOM      1  C4' PXY d   1      -1.405   0.446   2.379  0.00  0.00     0.077 C 
ATOM      2  C1' PXY d   1       1.143   0.171  -2.803  0.00  0.00     0.077 C 
ATOM      3  C1  PXY d   1       0.485   0.238  -1.439  0.00  0.00    -0.082 A 
ATOM      4  C2  PXY d   1      -0.834   0.292  -1.350  0.00  0.00     0.003 A 
ATOM      5  C3  PXY d   1      -1.444   0.385  -0.126  0.00  0.00     0.003 A 
ATOM      6  C4  PXY d   1      -0.698   0.368   1.022  0.00  0.00    -0.082 A 
ATOM      7  C5  PXY d   1       0.648   0.302   0.941  0.00  0.00     0.003 A 
ATOM      8  C6  PXY d   1       1.250   0.250  -0.313  0.00  0.00     0.003 A 
ENDROOT
TORSDOF 0
ENDMDL
