MODEL 1
REMARK minimizedAffinity -3.68372035
REMARK minimizedRMSD -1
REMARK  0 active torsions:
REMARK  status: ('A' for Active; 'I' for Inactive)
ROOT
ATOM      1  C4' PXY d   1       2.068  -0.502  -3.365  0.00  0.00     0.077 C 
ATOM      2  C1' PXY d   1      -0.269  -0.163   1.911  0.00  0.00     0.077 C 
ATOM      3  C1  PXY d   1       0.344  -0.239   0.527  0.00  0.00    -0.082 A 
ATOM      4  C2  PXY d   1       0.210  -1.344  -0.188  0.00  0.00     0.003 A 
ATOM      5  C3  PXY d   1       0.785  -1.441  -1.429  0.00  0.00     0.003 A 
ATOM      6  C4  PXY d   1       1.459  -0.377  -1.966  0.00  0.00    -0.082 A 
ATOM      7  C5  PXY d   1       1.591   0.758  -1.247  0.00  0.00     0.003 A 
ATOM      8  C6  PXY d   1       1.035   0.822   0.027  0.00  0.00     0.003 A 
ENDROOT
TORSDOF 0
ENDMDL
