MODEL 1
REMARK minimizedAffinity -2.92884088
REMARK minimizedRMSD -1
REMARK  0 active torsions:
REMARK  status: ('A' for Active; 'I' for Inactive)
ROOT
ATOM      1  C4' PXY d   1      -0.774  -0.001   1.765  0.00  0.00     0.077 C 
ATOM      2  C1' PXY d   1       1.835  -0.084  -3.393  0.00  0.00     0.077 C 
ATOM      3  C1  PXY d   1       1.162  -0.063  -2.034  0.00  0.00    -0.082 A 
ATOM      4  C2  PXY d   1      -0.106  -0.425  -1.927  0.00  0.00     0.003 A 
ATOM      5  C3  PXY d   1      -0.739  -0.382  -0.711  0.00  0.00     0.003 A 
ATOM      6  C4  PXY d   1      -0.051  -0.016   0.415  0.00  0.00    -0.082 A 
ATOM      7  C5  PXY d   1       1.246   0.344   0.315  0.00  0.00     0.003 A 
ATOM      8  C6  PXY d   1       1.858   0.333  -0.934  0.00  0.00     0.003 A 
ENDROOT
TORSDOF 0
ENDMDL
