MODEL 1
REMARK minimizedAffinity -4.35519695
REMARK minimizedRMSD -1
REMARK  0 active torsions:
REMARK  status: ('A' for Active; 'I' for Inactive)
ROOT
ATOM      1  C4' PXY d   1      -0.518  -0.416   1.676  0.00  0.00     0.077 C 
ATOM      2  C1' PXY d   1       2.328  -0.500  -3.354  0.00  0.00     0.077 C 
ATOM      3  C1  PXY d   1       1.575  -0.489  -2.039  0.00  0.00    -0.082 A 
ATOM      4  C2  PXY d   1       1.453   0.643  -1.365  0.00  0.00     0.003 A 
ATOM      5  C3  PXY d   1       0.803   0.665  -0.158  0.00  0.00     0.003 A 
ATOM      6  C4  PXY d   1       0.225  -0.472   0.339  0.00  0.00    -0.082 A 
ATOM      7  C5  PXY d   1       0.336  -1.629  -0.348  0.00  0.00     0.003 A 
ATOM      8  C6  PXY d   1       1.035  -1.639  -1.552  0.00  0.00     0.003 A 
ENDROOT
TORSDOF 0
ENDMDL
