MODEL 1
REMARK minimizedAffinity -3.58496475
REMARK minimizedRMSD -1
REMARK  0 active torsions:
REMARK  status: ('A' for Active; 'I' for Inactive)
ROOT
ATOM      1  C4' PXY d   1      -1.124  -0.029   1.491  0.00  0.00     0.077 C 
ATOM      2  C1' PXY d   1       3.108  -1.321  -2.229  0.00  0.00     0.077 C 
ATOM      3  C1  PXY d   1       1.993  -0.994  -1.256  0.00  0.00    -0.082 A 
ATOM      4  C2  PXY d   1       1.668   0.269  -1.034  0.00  0.00     0.003 A 
ATOM      5  C3  PXY d   1       0.684   0.584  -0.132  0.00  0.00     0.003 A 
ATOM      6  C4  PXY d   1      -0.011  -0.406   0.509  0.00  0.00    -0.082 A 
ATOM      7  C5  PXY d   1       0.307  -1.698   0.280  0.00  0.00     0.003 A 
ATOM      8  C6  PXY d   1       1.337  -1.995  -0.608  0.00  0.00     0.003 A 
ENDROOT
TORSDOF 0
ENDMDL
