MODEL 1
REMARK minimizedAffinity -4.82067442
REMARK minimizedRMSD -1
REMARK  0 active torsions:
REMARK  status: ('A' for Active; 'I' for Inactive)
ROOT
ATOM      1  C4' PXY d   1      -0.885   0.059   1.102  0.00  0.00     0.077 C 
ATOM      2  C1' PXY d   1       2.404  -0.883  -3.557  0.00  0.00     0.077 C 
ATOM      3  C1  PXY d   1       1.549  -0.626  -2.331  0.00  0.00    -0.082 A 
ATOM      4  C2  PXY d   1       0.760  -1.584  -1.872  0.00  0.00     0.003 A 
ATOM      5  C3  PXY d   1      -0.043  -1.358  -0.784  0.00  0.00     0.003 A 
ATOM      6  C4  PXY d   1       0.002  -0.158  -0.127  0.00  0.00    -0.082 A 
ATOM      7  C5  PXY d   1       0.813   0.820  -0.582  0.00  0.00     0.003 A 
ATOM      8  C6  PXY d   1       1.589   0.585  -1.713  0.00  0.00     0.003 A 
ENDROOT
TORSDOF 0
ENDMDL
