MODEL 1
REMARK minimizedAffinity -3.35774517
REMARK minimizedRMSD -1
REMARK  0 active torsions:
REMARK  status: ('A' for Active; 'I' for Inactive)
ROOT
ATOM      1  C4' PXY d   1       1.437   0.465  -2.887  0.00  0.00     0.077 C 
ATOM      2  C1' PXY d   1      -1.804   0.082   1.884  0.00  0.00     0.077 C 
ATOM      3  C1  PXY d   1      -0.964   0.179   0.626  0.00  0.00    -0.082 A 
ATOM      4  C2  PXY d   1       0.342  -0.017   0.694  0.00  0.00     0.003 A 
ATOM      5  C3  PXY d   1       1.121   0.099  -0.429  0.00  0.00     0.003 A 
ATOM      6  C4  PXY d   1       0.549   0.367  -1.643  0.00  0.00    -0.082 A 
ATOM      7  C5  PXY d   1      -0.785   0.559  -1.723  0.00  0.00     0.003 A 
ATOM      8  C6  PXY d   1      -1.552   0.477  -0.565  0.00  0.00     0.003 A 
ENDROOT
TORSDOF 0
ENDMDL
