MODEL 1
REMARK minimizedAffinity -3.13417244
REMARK minimizedRMSD -1
REMARK  0 active torsions:
REMARK  status: ('A' for Active; 'I' for Inactive)
ROOT
ATOM      1  C4' PXY d   1      -0.686  -0.809   1.722  0.00  0.00     0.077 C 
ATOM      2  C1' PXY d   1       2.021  -0.536  -3.378  0.00  0.00     0.077 C 
ATOM      3  C1  PXY d   1       1.304  -0.618  -2.045  0.00  0.00    -0.082 A 
ATOM      4  C2  PXY d   1       1.186   0.467  -1.298  0.00  0.00     0.003 A 
ATOM      5  C3  PXY d   1       0.569   0.404  -0.075  0.00  0.00     0.003 A 
ATOM      6  C4  PXY d   1       0.021  -0.771   0.364  0.00  0.00    -0.082 A 
ATOM      7  C5  PXY d   1       0.129  -1.881  -0.396  0.00  0.00     0.003 A 
ATOM      8  C6  PXY d   1       0.795  -1.805  -1.616  0.00  0.00     0.003 A 
ENDROOT
TORSDOF 0
ENDMDL
