MODEL 1
REMARK minimizedAffinity -4.01587963
REMARK minimizedRMSD -1
REMARK  0 active torsions:
REMARK  status: ('A' for Active; 'I' for Inactive)
ROOT
ATOM      1  C4' PXY d   1      -1.297   0.314   1.830  0.00  0.00     0.077 C 
ATOM      2  C1' PXY d   1       2.005  -0.465  -2.850  0.00  0.00     0.077 C 
ATOM      3  C1  PXY d   1       1.130  -0.269  -1.627  0.00  0.00    -0.082 A 
ATOM      4  C2  PXY d   1       1.245   0.838  -0.912  0.00  0.00     0.003 A 
ATOM      5  C3  PXY d   1       0.484   1.018   0.214  0.00  0.00     0.003 A 
ATOM      6  C4  PXY d   1      -0.441   0.078   0.583  0.00  0.00    -0.082 A 
ATOM      7  C5  PXY d   1      -0.571  -1.050  -0.148  0.00  0.00     0.003 A 
ATOM      8  C6  PXY d   1       0.240  -1.231  -1.264  0.00  0.00     0.003 A 
ENDROOT
TORSDOF 0
ENDMDL
