MODEL 1
REMARK minimizedAffinity -2.65085363
REMARK minimizedRMSD -1
REMARK  0 active torsions:
REMARK  status: ('A' for Active; 'I' for Inactive)
ROOT
ATOM      1  C4' PXY d   1       0.903   1.832   0.029  0.00  0.00     0.077 C 
ATOM      2  C1' PXY d   1       1.392  -3.143  -2.874  0.00  0.00     0.077 C 
ATOM      3  C1  PXY d   1       1.277  -1.836  -2.115  0.00  0.00    -0.082 A 
ATOM      4  C2  PXY d   1       0.351  -1.702  -1.179  0.00  0.00     0.003 A 
ATOM      5  C3  PXY d   1       0.212  -0.516  -0.506  0.00  0.00     0.003 A 
ATOM      6  C4  PXY d   1       1.063   0.527  -0.756  0.00  0.00    -0.082 A 
ATOM      7  C5  PXY d   1       2.017   0.395  -1.702  0.00  0.00     0.003 A 
ATOM      8  C6  PXY d   1       2.115  -0.803  -2.403  0.00  0.00     0.003 A 
ENDROOT
TORSDOF 0
ENDMDL
