MODEL 1
REMARK minimizedAffinity -4.13827467
REMARK minimizedRMSD -1
REMARK  0 active torsions:
REMARK  status: ('A' for Active; 'I' for Inactive)
ROOT
ATOM      1  C4' PXY d   1      -0.543  -1.896   2.235  0.00  0.00     0.077 C 
ATOM      2  C1' PXY d   1       1.053   0.290  -2.873  0.00  0.00     0.077 C 
ATOM      3  C1  PXY d   1       0.632  -0.294  -1.539  0.00  0.00    -0.082 A 
ATOM      4  C2  PXY d   1       0.201   0.508  -0.580  0.00  0.00     0.003 A 
ATOM      5  C3  PXY d   1      -0.154  -0.000   0.643  0.00  0.00     0.003 A 
ATOM      6  C4  PXY d   1      -0.116  -1.350   0.869  0.00  0.00    -0.082 A 
ATOM      7  C5  PXY d   1       0.313  -2.177  -0.108  0.00  0.00     0.003 A 
ATOM      8  C6  PXY d   1       0.707  -1.637  -1.329  0.00  0.00     0.003 A 
ENDROOT
TORSDOF 0
ENDMDL
