MODEL 1
REMARK minimizedAffinity -2.82218146
REMARK minimizedRMSD -1
REMARK  0 active torsions:
REMARK  status: ('A' for Active; 'I' for Inactive)
ROOT
ATOM      1  C4' PXY d   1       4.419   1.041  -1.264  0.00  0.00     0.077 C 
ATOM      2  C1' PXY d   1      -1.002  -0.713  -2.241  0.00  0.00     0.077 C 
ATOM      3  C1  PXY d   1       0.424  -0.263  -1.992  0.00  0.00    -0.082 A 
ATOM      4  C2  PXY d   1       0.697   0.491  -0.940  0.00  0.00     0.003 A 
ATOM      5  C3  PXY d   1       1.976   0.934  -0.717  0.00  0.00     0.003 A 
ATOM      6  C4  PXY d   1       2.995   0.555  -1.550  0.00  0.00    -0.082 A 
ATOM      7  C5  PXY d   1       2.726  -0.223  -2.619  0.00  0.00     0.003 A 
ATOM      8  C6  PXY d   1       1.415  -0.628  -2.851  0.00  0.00     0.003 A 
ENDROOT
TORSDOF 0
ENDMDL
