MODEL 1
REMARK minimizedAffinity -4.48033762
REMARK minimizedRMSD -1
REMARK  0 active torsions:
REMARK  status: ('A' for Active; 'I' for Inactive)
ROOT
ATOM      1  C4' PXY d   1      -1.366   0.248   1.741  0.00  0.00     0.077 C 
ATOM      2  C1' PXY d   1       2.322  -0.247  -2.683  0.00  0.00     0.077 C 
ATOM      3  C1  PXY d   1       1.363  -0.109  -1.517  0.00  0.00    -0.082 A 
ATOM      4  C2  PXY d   1       0.498  -1.078  -1.263  0.00  0.00     0.003 A 
ATOM      5  C3  PXY d   1      -0.398  -0.955  -0.232  0.00  0.00     0.003 A 
ATOM      6  C4  PXY d   1      -0.373   0.147   0.580  0.00  0.00    -0.082 A 
ATOM      7  C5  PXY d   1       0.514   1.135   0.334  0.00  0.00     0.003 A 
ATOM      8  C6  PXY d   1       1.387   1.010  -0.743  0.00  0.00     0.003 A 
ENDROOT
TORSDOF 0
ENDMDL
