MODEL 1
REMARK minimizedAffinity -0.20150286
REMARK minimizedRMSD -1
REMARK  0 active torsions:
REMARK  status: ('A' for Active; 'I' for Inactive)
ROOT
ATOM      1  C4' PXY d   1      -5.999   6.000   1.777  0.00  0.00     0.077 C 
ATOM      2  C1' PXY d   1      -3.791   0.658   1.686  0.00  0.00     0.077 C 
ATOM      3  C1  PXY d   1      -4.367   2.061   1.697  0.00  0.00    -0.082 A 
ATOM      4  C2  PXY d   1      -4.480   2.712   2.843  0.00  0.00     0.003 A 
ATOM      5  C3  PXY d   1      -5.028   3.968   2.876  0.00  0.00     0.003 A 
ATOM      6  C4  PXY d   1      -5.415   4.586   1.717  0.00  0.00    -0.082 A 
ATOM      7  C5  PXY d   1      -5.293   3.932   0.542  0.00  0.00     0.003 A 
ATOM      8  C6  PXY d   1      -4.772   2.641   0.535  0.00  0.00     0.003 A 
ENDROOT
TORSDOF 0
ENDMDL
