MODEL 1
REMARK minimizedAffinity 0.710027754
REMARK minimizedRMSD -1
REMARK  0 active torsions:
REMARK  status: ('A' for Active; 'I' for Inactive)
ROOT
ATOM      1  C4' PXY d   1      -5.574   4.754   0.080  0.00  0.00     0.077 C 
ATOM      2  C1' PXY d   1      -6.000   4.853   5.844  0.00  0.00     0.077 C 
ATOM      3  C1  PXY d   1      -5.892   4.840   4.332  0.00  0.00    -0.082 A 
ATOM      4  C2  PXY d   1      -5.993   3.693   3.679  0.00  0.00     0.003 A 
ATOM      5  C3  PXY d   1      -5.866   3.659   2.314  0.00  0.00     0.003 A 
ATOM      6  C4  PXY d   1      -5.686   4.816   1.606  0.00  0.00    -0.082 A 
ATOM      7  C5  PXY d   1      -5.593   5.991   2.264  0.00  0.00     0.003 A 
ATOM      8  C6  PXY d   1      -5.683   6.000   3.653  0.00  0.00     0.003 A 
ENDROOT
TORSDOF 0
ENDMDL
