MODEL 1
REMARK minimizedAffinity 0.065165244
REMARK minimizedRMSD -1
REMARK  0 active torsions:
REMARK  status: ('A' for Active; 'I' for Inactive)
ROOT
ATOM      1  C4' PXY d   1      -4.123   3.074   5.813  0.00  0.00     0.077 C 
ATOM      2  C1' PXY d   1      -5.991   5.977   1.176  0.00  0.00     0.077 C 
ATOM      3  C1  PXY d   1      -5.504   5.226   2.399  0.00  0.00    -0.082 A 
ATOM      4  C2  PXY d   1      -4.603   4.266   2.263  0.00  0.00     0.003 A 
ATOM      5  C3  PXY d   1      -4.176   3.555   3.355  0.00  0.00     0.003 A 
ATOM      6  C4  PXY d   1      -4.636   3.865   4.606  0.00  0.00    -0.082 A 
ATOM      7  C5  PXY d   1      -5.548   4.849   4.755  0.00  0.00     0.003 A 
ATOM      8  C6  PXY d   1      -5.999   5.532   3.629  0.00  0.00     0.003 A 
ENDROOT
TORSDOF 0
ENDMDL
