MODEL 1
REMARK minimizedAffinity -2.71926212
REMARK minimizedRMSD -1
REMARK  0 active torsions:
REMARK  status: ('A' for Active; 'I' for Inactive)
ROOT
ATOM      1  C4' PXY d   1      -5.309   2.566   5.954  0.00  0.00     0.077 C 
ATOM      2  C1' PXY d   1      -5.983   5.999   1.352  0.00  0.00     0.077 C 
ATOM      3  C1  PXY d   1      -5.798   5.108   2.564  0.00  0.00    -0.082 A 
ATOM      4  C2  PXY d   1      -5.997   3.804   2.454  0.00  0.00     0.003 A 
ATOM      5  C3  PXY d   1      -5.866   2.987   3.547  0.00  0.00     0.003 A 
ATOM      6  C4  PXY d   1      -5.475   3.503   4.754  0.00  0.00    -0.082 A 
ATOM      7  C5  PXY d   1      -5.260   4.831   4.872  0.00  0.00     0.003 A 
ATOM      8  C6  PXY d   1      -5.439   5.648   3.760  0.00  0.00     0.003 A 
ENDROOT
TORSDOF 0
ENDMDL
