MODEL 1
REMARK minimizedAffinity -0.158263147
REMARK minimizedRMSD -1
REMARK  0 active torsions:
REMARK  status: ('A' for Active; 'I' for Inactive)
ROOT
ATOM      1  C4' PXY d   1      -1.206   0.036   3.034  0.00  0.00     0.077 C 
ATOM      2  C1' PXY d   1      -1.736  -1.177  -2.593  0.00  0.00     0.077 C 
ATOM      3  C1  PXY d   1      -1.584  -0.860  -1.118  0.00  0.00    -0.082 A 
ATOM      4  C2  PXY d   1      -2.596  -1.080  -0.294  0.00  0.00     0.003 A 
ATOM      5  C3  PXY d   1      -2.486  -0.769   1.037  0.00  0.00     0.003 A 
ATOM      6  C4  PXY d   1      -1.311  -0.278   1.539  0.00  0.00    -0.082 A 
ATOM      7  C5  PXY d   1      -0.271  -0.061   0.707  0.00  0.00     0.003 A 
ATOM      8  C6  PXY d   1      -0.416  -0.345  -0.648  0.00  0.00     0.003 A 
ENDROOT
TORSDOF 0
ENDMDL
