MODEL 1
REMARK minimizedAffinity -3.10141349
REMARK minimizedRMSD -1
REMARK  0 active torsions:
REMARK  status: ('A' for Active; 'I' for Inactive)
ROOT
ATOM      1  C4' PXY d   1      -5.223   3.366   5.998  0.00  0.00     0.077 C 
ATOM      2  C1' PXY d   1      -5.249   5.564   0.652  0.00  0.00     0.077 C 
ATOM      3  C1  PXY d   1      -5.246   5.000   2.059  0.00  0.00    -0.082 A 
ATOM      4  C2  PXY d   1      -4.515   3.931   2.333  0.00  0.00     0.003 A 
ATOM      5  C3  PXY d   1      -4.525   3.388   3.592  0.00  0.00     0.003 A 
ATOM      6  C4  PXY d   1      -5.250   3.977   4.594  0.00  0.00    -0.082 A 
ATOM      7  C5  PXY d   1      -5.990   5.073   4.325  0.00  0.00     0.003 A 
ATOM      8  C6  PXY d   1      -5.998   5.584   3.031  0.00  0.00     0.003 A 
ENDROOT
TORSDOF 0
ENDMDL
