MODEL 1
REMARK minimizedAffinity -0.830569506
REMARK minimizedRMSD -1
REMARK  0 active torsions:
REMARK  status: ('A' for Active; 'I' for Inactive)
ROOT
ATOM      1  C4' PXY d   1      -5.664   3.228   5.957  0.00  0.00     0.077 C 
ATOM      2  C1' PXY d   1      -5.945   6.000   0.892  0.00  0.00     0.077 C 
ATOM      3  C1  PXY d   1      -5.866   5.283   2.226  0.00  0.00    -0.082 A 
ATOM      4  C2  PXY d   1      -5.857   3.961   2.258  0.00  0.00     0.003 A 
ATOM      5  C3  PXY d   1      -5.818   3.297   3.457  0.00  0.00     0.003 A 
ATOM      6  C4  PXY d   1      -5.733   3.993   4.633  0.00  0.00    -0.082 A 
ATOM      7  C5  PXY d   1      -5.731   5.343   4.607  0.00  0.00     0.003 A 
ATOM      8  C6  PXY d   1      -5.812   5.998   3.382  0.00  0.00     0.003 A 
ENDROOT
TORSDOF 0
ENDMDL
