MODEL 1
REMARK minimizedAffinity -1.22916746
REMARK minimizedRMSD -1
REMARK  0 active torsions:
REMARK  status: ('A' for Active; 'I' for Inactive)
ROOT
ATOM      1  C4' PXY d   1      -5.759   5.889   0.739  0.00  0.00     0.077 C 
ATOM      2  C1' PXY d   1      -5.984   3.498   5.997  0.00  0.00     0.077 C 
ATOM      3  C1  PXY d   1      -5.918   4.114   4.614  0.00  0.00    -0.082 A 
ATOM      4  C2  PXY d   1      -6.000   5.428   4.478  0.00  0.00     0.003 A 
ATOM      5  C3  PXY d   1      -5.975   6.000   3.233  0.00  0.00     0.003 A 
ATOM      6  C4  PXY d   1      -5.811   5.223   2.117  0.00  0.00    -0.082 A 
ATOM      7  C5  PXY d   1      -5.716   3.883   2.247  0.00  0.00     0.003 A 
ATOM      8  C6  PXY d   1      -5.785   3.319   3.518  0.00  0.00     0.003 A 
ENDROOT
TORSDOF 0
ENDMDL
