MODEL 1
REMARK minimizedAffinity -2.82208872
REMARK minimizedRMSD -1
REMARK  0 active torsions:
REMARK  status: ('A' for Active; 'I' for Inactive)
ROOT
ATOM      1  C4' PXY d   1      -4.300   6.000   1.955  0.00  0.00     0.077 C 
ATOM      2  C1' PXY d   1      -5.999   2.236   6.000  0.00  0.00     0.077 C 
ATOM      3  C1  PXY d   1      -5.551   3.232   4.948  0.00  0.00    -0.082 A 
ATOM      4  C2  PXY d   1      -5.986   3.111   3.705  0.00  0.00     0.003 A 
ATOM      5  C3  PXY d   1      -5.566   3.983   2.734  0.00  0.00     0.003 A 
ATOM      6  C4  PXY d   1      -4.733   5.023   3.051  0.00  0.00    -0.082 A 
ATOM      7  C5  PXY d   1      -4.293   5.160   4.320  0.00  0.00     0.003 A 
ATOM      8  C6  PXY d   1      -4.699   4.239   5.281  0.00  0.00     0.003 A 
ENDROOT
TORSDOF 0
ENDMDL
