MODEL 1
REMARK minimizedAffinity -3.68921161
REMARK minimizedRMSD -1
REMARK  0 active torsions:
REMARK  status: ('A' for Active; 'I' for Inactive)
ROOT
ATOM      1  C4' PXY d   1      -5.124   3.753   5.998  0.00  0.00     0.077 C 
ATOM      2  C1' PXY d   1      -5.645   5.261   0.442  0.00  0.00     0.077 C 
ATOM      3  C1  PXY d   1      -5.498   4.874   1.900  0.00  0.00    -0.082 A 
ATOM      4  C2  PXY d   1      -6.000   3.726   2.326  0.00  0.00     0.003 A 
ATOM      5  C3  PXY d   1      -5.904   3.374   3.648  0.00  0.00     0.003 A 
ATOM      6  C4  PXY d   1      -5.241   4.181   4.533  0.00  0.00    -0.082 A 
ATOM      7  C5  PXY d   1      -4.716   5.349   4.104  0.00  0.00     0.003 A 
ATOM      8  C6  PXY d   1      -4.861   5.707   2.767  0.00  0.00     0.003 A 
ENDROOT
TORSDOF 0
ENDMDL
