MODEL 1
REMARK minimizedAffinity 0.227841914
REMARK minimizedRMSD -1
REMARK  0 active torsions:
REMARK  status: ('A' for Active; 'I' for Inactive)
ROOT
ATOM      1  C4' PXY d   1      -3.815   3.538   5.401  0.00  0.00     0.077 C 
ATOM      2  C1' PXY d   1      -6.000   5.999   0.648  0.00  0.00     0.077 C 
ATOM      3  C1  PXY d   1      -5.438   5.346   1.895  0.00  0.00    -0.082 A 
ATOM      4  C2  PXY d   1      -4.551   5.997   2.631  0.00  0.00     0.003 A 
ATOM      5  C3  PXY d   1      -4.008   5.408   3.744  0.00  0.00     0.003 A 
ATOM      6  C4  PXY d   1      -4.417   4.162   4.138  0.00  0.00    -0.082 A 
ATOM      7  C5  PXY d   1      -5.329   3.497   3.399  0.00  0.00     0.003 A 
ATOM      8  C6  PXY d   1      -5.837   4.095   2.249  0.00  0.00     0.003 A 
ENDROOT
TORSDOF 0
ENDMDL
