MODEL 1
REMARK minimizedAffinity -3.33197427
REMARK minimizedRMSD -1
REMARK  0 active torsions:
REMARK  status: ('A' for Active; 'I' for Inactive)
ROOT
ATOM      1  C4' PXY d   1      -5.963   3.486   5.999  0.00  0.00     0.077 C 
ATOM      2  C1' PXY d   1      -5.246   5.947   0.818  0.00  0.00     0.077 C 
ATOM      3  C1  PXY d   1      -5.442   5.293   2.171  0.00  0.00    -0.082 A 
ATOM      4  C2  PXY d   1      -5.252   6.000   3.273  0.00  0.00     0.003 A 
ATOM      5  C3  PXY d   1      -5.394   5.415   4.505  0.00  0.00     0.003 A 
ATOM      6  C4  PXY d   1      -5.786   4.108   4.611  0.00  0.00    -0.082 A 
ATOM      7  C5  PXY d   1      -5.993   3.383   3.491  0.00  0.00     0.003 A 
ATOM      8  C6  PXY d   1      -5.803   3.984   2.250  0.00  0.00     0.003 A 
ENDROOT
TORSDOF 0
ENDMDL
