MODEL 1
REMARK minimizedAffinity -3.05462909
REMARK minimizedRMSD -1
REMARK  0 active torsions:
REMARK  status: ('A' for Active; 'I' for Inactive)
ROOT
ATOM      1  C4' PXY d   1      -6.000   1.931   5.681  0.00  0.00     0.077 C 
ATOM      2  C1' PXY d   1      -4.511   6.000   1.855  0.00  0.00     0.077 C 
ATOM      3  C1  PXY d   1      -4.898   4.941   2.868  0.00  0.00    -0.082 A 
ATOM      4  C2  PXY d   1      -4.893   3.666   2.516  0.00  0.00     0.003 A 
ATOM      5  C3  PXY d   1      -5.271   2.697   3.410  0.00  0.00     0.003 A 
ATOM      6  C4  PXY d   1      -5.607   3.033   4.694  0.00  0.00    -0.082 A 
ATOM      7  C5  PXY d   1      -5.604   4.332   5.064  0.00  0.00     0.003 A 
ATOM      8  C6  PXY d   1      -5.257   5.303   4.130  0.00  0.00     0.003 A 
ENDROOT
TORSDOF 0
ENDMDL
