MODEL 1
REMARK minimizedAffinity -3.8253262
REMARK minimizedRMSD -1
REMARK  0 active torsions:
REMARK  status: ('A' for Active; 'I' for Inactive)
ROOT
ATOM      1  C4' PXY d   1      -5.846   2.912   6.000  0.00  0.00     0.077 C 
ATOM      2  C1' PXY d   1      -4.878   5.658   1.006  0.00  0.00     0.077 C 
ATOM      3  C1  PXY d   1      -5.132   4.949   2.322  0.00  0.00    -0.082 A 
ATOM      4  C2  PXY d   1      -4.736   3.696   2.477  0.00  0.00     0.003 A 
ATOM      5  C3  PXY d   1      -4.987   3.030   3.649  0.00  0.00     0.003 A 
ATOM      6  C4  PXY d   1      -5.602   3.670   4.692  0.00  0.00    -0.082 A 
ATOM      7  C5  PXY d   1      -6.000   4.952   4.545  0.00  0.00     0.003 A 
ATOM      8  C6  PXY d   1      -5.773   5.597   3.332  0.00  0.00     0.003 A 
ENDROOT
TORSDOF 0
ENDMDL
