MODEL 1
REMARK minimizedAffinity -4.41033459
REMARK minimizedRMSD -1
REMARK  0 active torsions:
REMARK  status: ('A' for Active; 'I' for Inactive)
ROOT
ATOM      1  C4' PXY d   1      -5.259   5.839   0.779  0.00  0.00     0.077 C 
ATOM      2  C1' PXY d   1      -5.095   3.360   5.998  0.00  0.00     0.077 C 
ATOM      3  C1  PXY d   1      -5.143   4.021   4.634  0.00  0.00    -0.082 A 
ATOM      4  C2  PXY d   1      -5.177   3.271   3.545  0.00  0.00     0.003 A 
ATOM      5  C3  PXY d   1      -5.188   3.852   2.303  0.00  0.00     0.003 A 
ATOM      6  C4  PXY d   1      -5.219   5.215   2.176  0.00  0.00    -0.082 A 
ATOM      7  C5  PXY d   1      -5.196   5.987   3.283  0.00  0.00     0.003 A 
ATOM      8  C6  PXY d   1      -5.143   5.378   4.534  0.00  0.00     0.003 A 
ENDROOT
TORSDOF 0
ENDMDL
