MODEL 1
REMARK minimizedAffinity -3.49042106
REMARK minimizedRMSD -1
REMARK  0 active torsions:
REMARK  status: ('A' for Active; 'I' for Inactive)
ROOT
ATOM      1  C4' PXY d   1      -5.163   3.968   5.995  0.00  0.00     0.077 C 
ATOM      2  C1' PXY d   1      -5.208   5.835   0.525  0.00  0.00     0.077 C 
ATOM      3  C1  PXY d   1      -5.207   5.340   1.957  0.00  0.00    -0.082 A 
ATOM      4  C2  PXY d   1      -4.515   5.993   2.875  0.00  0.00     0.003 A 
ATOM      5  C3  PXY d   1      -4.478   5.541   4.169  0.00  0.00     0.003 A 
ATOM      6  C4  PXY d   1      -5.200   4.438   4.538  0.00  0.00    -0.082 A 
ATOM      7  C5  PXY d   1      -5.918   3.771   3.609  0.00  0.00     0.003 A 
ATOM      8  C6  PXY d   1      -5.909   4.223   2.293  0.00  0.00     0.003 A 
ENDROOT
TORSDOF 0
ENDMDL
