MODEL 1
REMARK minimizedAffinity -2.41642761
REMARK minimizedRMSD -1
REMARK  0 active torsions:
REMARK  status: ('A' for Active; 'I' for Inactive)
ROOT
ATOM      1  C4' PXY d   1      -5.193   3.488   5.432  0.00  0.00     0.077 C 
ATOM      2  C1' PXY d   1      -5.634   5.999   0.243  0.00  0.00     0.077 C 
ATOM      3  C1  PXY d   1      -5.519   5.352   1.610  0.00  0.00    -0.082 A 
ATOM      4  C2  PXY d   1      -4.958   4.159   1.724  0.00  0.00     0.003 A 
ATOM      5  C3  PXY d   1      -4.875   3.546   2.947  0.00  0.00     0.003 A 
ATOM      6  C4  PXY d   1      -5.322   4.183   4.074  0.00  0.00    -0.082 A 
ATOM      7  C5  PXY d   1      -5.886   5.405   3.967  0.00  0.00     0.003 A 
ATOM      8  C6  PXY d   1      -5.999   5.993   2.710  0.00  0.00     0.003 A 
ENDROOT
TORSDOF 0
ENDMDL
