MODEL 1
REMARK minimizedAffinity -2.8108449
REMARK minimizedRMSD -1
REMARK  0 active torsions:
REMARK  status: ('A' for Active; 'I' for Inactive)
ROOT
ATOM      1  C4' PXY d   1      -1.443  -1.291   3.492  0.00  0.00     0.077 C 
ATOM      2  C1' PXY d   1      -1.492  -1.038  -2.283  0.00  0.00     0.077 C 
ATOM      3  C1  PXY d   1      -1.467  -1.111  -0.769  0.00  0.00    -0.082 A 
ATOM      4  C2  PXY d   1      -2.605  -1.074  -0.094  0.00  0.00     0.003 A 
ATOM      5  C3  PXY d   1      -2.599  -1.106   1.277  0.00  0.00     0.003 A 
ATOM      6  C4  PXY d   1      -1.420  -1.230   1.962  0.00  0.00    -0.082 A 
ATOM      7  C5  PXY d   1      -0.256  -1.279   1.280  0.00  0.00     0.003 A 
ATOM      8  C6  PXY d   1      -0.281  -1.204  -0.109  0.00  0.00     0.003 A 
ENDROOT
TORSDOF 0
ENDMDL
