MODEL 1
REMARK minimizedAffinity -3.18388534
REMARK minimizedRMSD -1
REMARK  0 active torsions:
REMARK  status: ('A' for Active; 'I' for Inactive)
ROOT
ATOM      1  C4' PXY d   1      -5.243   1.900   5.931  0.00  0.00     0.077 C 
ATOM      2  C1' PXY d   1      -5.997   5.984   1.910  0.00  0.00     0.077 C 
ATOM      3  C1  PXY d   1      -5.795   4.922   2.973  0.00  0.00    -0.082 A 
ATOM      4  C2  PXY d   1      -5.612   3.663   2.612  0.00  0.00     0.003 A 
ATOM      5  C3  PXY d   1      -5.460   2.684   3.561  0.00  0.00     0.003 A 
ATOM      6  C4  PXY d   1      -5.441   3.007   4.892  0.00  0.00    -0.082 A 
ATOM      7  C5  PXY d   1      -5.617   4.292   5.267  0.00  0.00     0.003 A 
ATOM      8  C6  PXY d   1      -5.811   5.263   4.290  0.00  0.00     0.003 A 
ENDROOT
TORSDOF 0
ENDMDL
