MODEL 1
REMARK minimizedAffinity 14.331418
REMARK minimizedRMSD -1
REMARK  0 active torsions:
REMARK  status: ('A' for Active; 'I' for Inactive)
ROOT
ATOM      1  C   UNL d   1       2.396  -0.751  -1.503  0.00  0.00     0.023 A 
ATOM      2  C1  UNL d   1       2.715   0.270  -0.607  0.00  0.00     0.003 A 
ATOM      3  C2  UNL d   1       3.749   1.161  -0.901  0.00  0.00     0.048 A 
ATOM      4  C3  UNL d   1       4.459   1.026  -2.094  0.00  0.00     0.023 A 
ATOM      5  C4  UNL d   1       4.143   0.007  -2.994  0.00  0.00     0.048 A 
ATOM      6  C5  UNL d   1       3.109  -0.882  -2.694  0.00  0.00     0.003 A 
ATOM      7  I   UNL d   1       5.999   2.352  -2.535  0.00  0.00    -0.146 I 
ENDROOT
TORSDOF 0
ENDMDL
