MODEL 1
REMARK minimizedAffinity 7.66447639
REMARK minimizedRMSD -1
REMARK  0 active torsions:
REMARK  status: ('A' for Active; 'I' for Inactive)
ROOT
ATOM      1  C   UNL d   1       5.629   5.629   5.338  0.00  0.00     0.023 A 
ATOM      2  C1  UNL d   1       4.467   5.234   6.000  0.00  0.00     0.003 A 
ATOM      3  C2  UNL d   1       3.517   4.452   5.339  0.00  0.00     0.048 A 
ATOM      4  C3  UNL d   1       3.737   4.068   4.016  0.00  0.00     0.023 A 
ATOM      5  C4  UNL d   1       4.899   4.460   3.350  0.00  0.00     0.048 A 
ATOM      6  C5  UNL d   1       5.845   5.243   4.015  0.00  0.00     0.003 A 
ATOM      7  I   UNL d   1       2.325   2.904   3.031  0.00  0.00    -0.146 I 
ENDROOT
TORSDOF 0
ENDMDL
