MODEL 1
REMARK minimizedAffinity 8.31388378
REMARK minimizedRMSD -1
REMARK  0 active torsions:
REMARK  status: ('A' for Active; 'I' for Inactive)
ROOT
ATOM      1  C   UNL d   1       2.825  -0.348  -0.636  0.00  0.00     0.023 A 
ATOM      2  C1  UNL d   1       3.024  -0.444  -2.014  0.00  0.00     0.003 A 
ATOM      3  C2  UNL d   1       3.892   0.440  -2.658  0.00  0.00     0.048 A 
ATOM      4  C3  UNL d   1       4.559   1.416  -1.919  0.00  0.00     0.023 A 
ATOM      5  C4  UNL d   1       4.364   1.515  -0.541  0.00  0.00     0.048 A 
ATOM      6  C5  UNL d   1       3.494   0.630   0.099  0.00  0.00     0.003 A 
ATOM      7  I   UNL d   1       5.852   2.732  -2.876  0.00  0.00    -0.146 I 
ENDROOT
TORSDOF 0
ENDMDL
