MODEL 1
REMARK minimizedAffinity 9.97359276
REMARK minimizedRMSD -1
REMARK  0 active torsions:
REMARK  status: ('A' for Active; 'I' for Inactive)
ROOT
ATOM      1  C   UNL d   1       2.998  -0.768  -0.917  0.00  0.00     0.023 A 
ATOM      2  C1  UNL d   1       3.267  -0.680  -2.283  0.00  0.00     0.003 A 
ATOM      3  C2  UNL d   1       4.128   0.308  -2.765  0.00  0.00     0.048 A 
ATOM      4  C3  UNL d   1       4.718   1.205  -1.875  0.00  0.00     0.023 A 
ATOM      5  C4  UNL d   1       4.453   1.121  -0.507  0.00  0.00     0.048 A 
ATOM      6  C5  UNL d   1       3.590   0.132  -0.030  0.00  0.00     0.003 A 
ATOM      7  I   UNL d   1       6.000   2.676  -2.589  0.00  0.00    -0.146 I 
ENDROOT
TORSDOF 0
ENDMDL
