MODEL 1
REMARK minimizedAffinity 10.5121756
REMARK minimizedRMSD -1
REMARK  0 active torsions:
REMARK  status: ('A' for Active; 'I' for Inactive)
ROOT
ATOM      1  C   UNL d   1       3.158  -0.743  -1.519  0.00  0.00     0.023 A 
ATOM      2  C1  UNL d   1       3.379   0.310  -0.631  0.00  0.00     0.003 A 
ATOM      3  C2  UNL d   1       4.195   1.380  -1.004  0.00  0.00     0.048 A 
ATOM      4  C3  UNL d   1       4.786   1.392  -2.267  0.00  0.00     0.023 A 
ATOM      5  C4  UNL d   1       4.566   0.341  -3.159  0.00  0.00     0.048 A 
ATOM      6  C5  UNL d   1       3.751  -0.727  -2.782  0.00  0.00     0.003 A 
ATOM      7  I   UNL d   1       6.000   2.984  -2.825  0.00  0.00    -0.146 I 
ENDROOT
TORSDOF 0
ENDMDL
