MODEL 1
REMARK minimizedAffinity 1.8662045
REMARK minimizedRMSD -1
REMARK  0 active torsions:
REMARK  status: ('A' for Active; 'I' for Inactive)
ROOT
ATOM      1  C   UNL d   1      -3.428   2.917   0.220  0.00  0.00     0.023 A 
ATOM      2  C1  UNL d   1      -2.103   3.111  -0.170  0.00  0.00     0.003 A 
ATOM      3  C2  UNL d   1      -1.074   3.000   0.767  0.00  0.00     0.048 A 
ATOM      4  C3  UNL d   1      -1.378   2.693   2.093  0.00  0.00     0.023 A 
ATOM      5  C4  UNL d   1      -2.702   2.497   2.488  0.00  0.00     0.048 A 
ATOM      6  C5  UNL d   1      -3.727   2.610   1.548  0.00  0.00     0.003 A 
ATOM      7  I   UNL d   1       0.152   2.527   3.491  0.00  0.00    -0.146 I 
ENDROOT
TORSDOF 0
ENDMDL
