MODEL 1
REMARK minimizedAffinity 8.1681118
REMARK minimizedRMSD -1
REMARK  0 active torsions:
REMARK  status: ('A' for Active; 'I' for Inactive)
ROOT
ATOM      1  C   UNL d   1       2.586  -0.550  -0.835  0.00  0.00     0.023 A 
ATOM      2  C1  UNL d   1       2.777  -0.646  -2.214  0.00  0.00     0.003 A 
ATOM      3  C2  UNL d   1       3.756   0.128  -2.840  0.00  0.00     0.048 A 
ATOM      4  C3  UNL d   1       4.541   0.996  -2.082  0.00  0.00     0.023 A 
ATOM      5  C4  UNL d   1       4.354   1.095  -0.702  0.00  0.00     0.048 A 
ATOM      6  C5  UNL d   1       3.374   0.320  -0.080  0.00  0.00     0.003 A 
ATOM      7  I   UNL d   1       5.999   2.149  -3.012  0.00  0.00    -0.146 I 
ENDROOT
TORSDOF 0
ENDMDL
