MODEL 1
REMARK minimizedAffinity 5.39612818
REMARK minimizedRMSD -1
REMARK  0 active torsions:
REMARK  status: ('A' for Active; 'I' for Inactive)
ROOT
ATOM      1  C   UNL d   1      -0.455  -2.429  -2.222  0.00  0.00     0.023 A 
ATOM      2  C1  UNL d   1      -0.947  -1.161  -2.529  0.00  0.00     0.003 A 
ATOM      3  C2  UNL d   1      -0.662  -0.079  -1.693  0.00  0.00     0.048 A 
ATOM      4  C3  UNL d   1       0.116  -0.273  -0.553  0.00  0.00     0.023 A 
ATOM      5  C4  UNL d   1       0.611  -1.540  -0.242  0.00  0.00     0.048 A 
ATOM      6  C5  UNL d   1       0.323  -2.619  -1.080  0.00  0.00     0.003 A 
ATOM      7  I   UNL d   1       0.542   1.336   0.693  0.00  0.00    -0.146 I 
ENDROOT
TORSDOF 0
ENDMDL
