MODEL 1
REMARK minimizedAffinity 3.58358884
REMARK minimizedRMSD -1
REMARK  0 active torsions:
REMARK  status: ('A' for Active; 'I' for Inactive)
ROOT
ATOM      1  C   UNL d   1      -0.066  -1.579  -0.549  0.00  0.00     0.023 A 
ATOM      2  C1  UNL d   1       1.291  -1.886  -0.441  0.00  0.00     0.003 A 
ATOM      3  C2  UNL d   1       2.235  -0.861  -0.350  0.00  0.00     0.048 A 
ATOM      4  C3  UNL d   1       1.816   0.468  -0.366  0.00  0.00     0.023 A 
ATOM      5  C4  UNL d   1       0.460   0.781  -0.473  0.00  0.00     0.048 A 
ATOM      6  C5  UNL d   1      -0.481  -0.247  -0.565  0.00  0.00     0.003 A 
ATOM      7  I   UNL d   1       3.220   1.995  -0.230  0.00  0.00    -0.146 I 
ENDROOT
TORSDOF 0
ENDMDL
