MODEL 1
REMARK minimizedAffinity 4.41323948
REMARK minimizedRMSD -1
REMARK  0 active torsions:
REMARK  status: ('A' for Active; 'I' for Inactive)
ROOT
ATOM      1  C   UNL d   1      -0.304   1.969   2.912  0.00  0.00    -0.002 A 
ATOM      2  C1  UNL d   1      -1.211   2.222   1.894  0.00  0.00     0.010 A 
ATOM      3  C2  UNL d   1      -1.096   1.574   0.662  0.00  0.00     0.041 A 
ATOM      4  C3  UNL d   1      -0.044   0.658   0.470  0.00  0.00    -0.075 A 
ATOM      5  S   UNL d   1       0.295  -0.253  -0.954  0.00  0.00     0.015 SA
ATOM      6  C4  UNL d   1       1.651  -1.001  -0.243  0.00  0.00     0.022 A 
ATOM      7  C5  UNL d   1       1.856  -0.577   1.048  0.00  0.00     0.026 A 
ATOM      8  C6  UNL d   1       0.883   0.385   1.481  0.00  0.00    -0.082 A 
ATOM      9  C7  UNL d   1       0.739   1.059   2.718  0.00  0.00     0.045 A 
ENDROOT
TORSDOF 0
ENDMDL
