MODEL 1
REMARK minimizedAffinity 4.08320665
REMARK minimizedRMSD -1
REMARK  0 active torsions:
REMARK  status: ('A' for Active; 'I' for Inactive)
ROOT
ATOM      1  C   UNL d   1      -0.804  -0.338  -2.224  0.00  0.00    -0.002 A 
ATOM      2  C1  UNL d   1      -0.203   0.843  -1.812  0.00  0.00     0.010 A 
ATOM      3  C2  UNL d   1       0.993   0.818  -1.092  0.00  0.00     0.041 A 
ATOM      4  C3  UNL d   1       1.582  -0.426  -0.792  0.00  0.00    -0.075 A 
ATOM      5  S   UNL d   1       3.045  -0.701   0.077  0.00  0.00     0.015 SA
ATOM      6  C4  UNL d   1       2.908  -2.393  -0.079  0.00  0.00     0.022 A 
ATOM      7  C5  UNL d   1       1.780  -2.756  -0.775  0.00  0.00     0.026 A 
ATOM      8  C6  UNL d   1       0.997  -1.629  -1.197  0.00  0.00    -0.082 A 
ATOM      9  C7  UNL d   1      -0.216  -1.571  -1.925  0.00  0.00     0.045 A 
ENDROOT
TORSDOF 0
ENDMDL
