MODEL 1
REMARK minimizedAffinity 9.06375885
REMARK minimizedRMSD -1
REMARK  0 active torsions:
REMARK  status: ('A' for Active; 'I' for Inactive)
ROOT
ATOM      1  C   UNL d   1       2.024  -4.862   0.121  0.00  0.00    -0.002 A 
ATOM      2  C1  UNL d   1       1.417  -3.906  -0.680  0.00  0.00     0.010 A 
ATOM      3  C2  UNL d   1       2.023  -2.665  -0.889  0.00  0.00     0.041 A 
ATOM      4  C3  UNL d   1       3.263  -2.401  -0.274  0.00  0.00    -0.075 A 
ATOM      5  S   UNL d   1       4.191  -0.953  -0.389  0.00  0.00     0.015 SA
ATOM      6  C4  UNL d   1       5.416  -1.570   0.623  0.00  0.00     0.022 A 
ATOM      7  C5  UNL d   1       5.140  -2.848   1.047  0.00  0.00     0.026 A 
ATOM      8  C6  UNL d   1       3.894  -3.349   0.536  0.00  0.00    -0.082 A 
ATOM      9  C7  UNL d   1       3.254  -4.596   0.729  0.00  0.00     0.045 A 
ENDROOT
TORSDOF 0
ENDMDL
