MODEL 1
REMARK minimizedAffinity 15.3114271
REMARK minimizedRMSD -1
REMARK  0 active torsions:
REMARK  status: ('A' for Active; 'I' for Inactive)
ROOT
ATOM      1  C   UNL d   1      -1.088   0.116   3.506  0.00  0.00    -0.002 A 
ATOM      2  C1  UNL d   1       0.222   0.368   3.124  0.00  0.00     0.010 A 
ATOM      3  C2  UNL d   1       0.514   1.384   2.212  0.00  0.00     0.041 A 
ATOM      4  C3  UNL d   1      -0.544   2.151   1.685  0.00  0.00    -0.075 A 
ATOM      5  S   UNL d   1      -0.426   3.447   0.554  0.00  0.00     0.015 SA
ATOM      6  C4  UNL d   1      -2.112   3.697   0.552  0.00  0.00     0.022 A 
ATOM      7  C5  UNL d   1      -2.765   2.821   1.387  0.00  0.00     0.026 A 
ATOM      8  C6  UNL d   1      -1.872   1.916   2.055  0.00  0.00    -0.082 A 
ATOM      9  C7  UNL d   1      -2.135   0.878   2.981  0.00  0.00     0.045 A 
ENDROOT
TORSDOF 0
ENDMDL
