MODEL 1
REMARK minimizedAffinity 11.6632061
REMARK minimizedRMSD -1
REMARK  0 active torsions:
REMARK  status: ('A' for Active; 'I' for Inactive)
ROOT
ATOM      1  C   UNL d   1       2.400  -0.296   0.084  0.00  0.00    -0.002 A 
ATOM      2  C1  UNL d   1       2.527  -0.430   1.459  0.00  0.00     0.010 A 
ATOM      3  C2  UNL d   1       1.633   0.210   2.320  0.00  0.00     0.041 A 
ATOM      4  C3  UNL d   1       0.599   0.993   1.771  0.00  0.00    -0.075 A 
ATOM      5  S   UNL d   1      -0.612   1.867   2.631  0.00  0.00     0.015 SA
ATOM      6  C4  UNL d   1      -1.327   2.439   1.193  0.00  0.00     0.022 A 
ATOM      7  C5  UNL d   1      -0.670   1.984   0.074  0.00  0.00     0.026 A 
ATOM      8  C6  UNL d   1       0.451   1.142   0.389  0.00  0.00    -0.082 A 
ATOM      9  C7  UNL d   1       1.373   0.482  -0.458  0.00  0.00     0.045 A 
ENDROOT
TORSDOF 0
ENDMDL
