MODEL 1
REMARK minimizedAffinity 8.97379112
REMARK minimizedRMSD -1
REMARK  0 active torsions:
REMARK  status: ('A' for Active; 'I' for Inactive)
ROOT
ATOM      1  C   UNL d   1      -1.844   2.694  -0.259  0.00  0.00    -0.002 A 
ATOM      2  C1  UNL d   1      -0.699   3.337  -0.707  0.00  0.00     0.010 A 
ATOM      3  C2  UNL d   1       0.324   3.669   0.183  0.00  0.00     0.041 A 
ATOM      4  C3  UNL d   1       0.176   3.338   1.545  0.00  0.00    -0.075 A 
ATOM      5  S   UNL d   1       1.299   3.645   2.817  0.00  0.00     0.015 SA
ATOM      6  C4  UNL d   1       0.285   2.929   3.985  0.00  0.00     0.022 A 
ATOM      7  C5  UNL d   1      -0.885   2.462   3.436  0.00  0.00     0.026 A 
ATOM      8  C6  UNL d   1      -0.967   2.690   2.020  0.00  0.00    -0.082 A 
ATOM      9  C7  UNL d   1      -1.987   2.368   1.093  0.00  0.00     0.045 A 
ENDROOT
TORSDOF 0
ENDMDL
