MODEL 1
REMARK minimizedAffinity 6.16236448
REMARK minimizedRMSD -1
REMARK  0 active torsions:
REMARK  status: ('A' for Active; 'I' for Inactive)
ROOT
ATOM      1  C   UNL d   1      -2.612   4.114   0.848  0.00  0.00    -0.002 A 
ATOM      2  C1  UNL d   1      -1.227   4.037   0.905  0.00  0.00     0.010 A 
ATOM      3  C2  UNL d   1      -0.600   2.917   1.454  0.00  0.00     0.041 A 
ATOM      4  C3  UNL d   1      -1.395   1.864   1.947  0.00  0.00    -0.075 A 
ATOM      5  S   UNL d   1      -0.847   0.394   2.661  0.00  0.00     0.015 SA
ATOM      6  C4  UNL d   1      -2.437  -0.168   2.906  0.00  0.00     0.022 A 
ATOM      7  C5  UNL d   1      -3.376   0.732   2.460  0.00  0.00     0.026 A 
ATOM      8  C6  UNL d   1      -2.791   1.917   1.899  0.00  0.00    -0.082 A 
ATOM      9  C7  UNL d   1      -3.397   3.067   1.338  0.00  0.00     0.045 A 
ENDROOT
TORSDOF 0
ENDMDL
