MODEL 1
REMARK minimizedAffinity 16.2095146
REMARK minimizedRMSD -1
REMARK  0 active torsions:
REMARK  status: ('A' for Active; 'I' for Inactive)
ROOT
ATOM      1  C   UNL d   1       0.856   1.071  -2.766  0.00  0.00    -0.002 A 
ATOM      2  C1  UNL d   1       0.404   2.071  -1.917  0.00  0.00     0.010 A 
ATOM      3  C2  UNL d   1      -0.860   1.985  -1.328  0.00  0.00     0.041 A 
ATOM      4  C3  UNL d   1      -1.667   0.865  -1.608  0.00  0.00    -0.075 A 
ATOM      5  S   UNL d   1      -3.249   0.546  -1.001  0.00  0.00     0.015 SA
ATOM      6  C4  UNL d   1      -3.360  -0.926  -1.854  0.00  0.00     0.022 A 
ATOM      7  C5  UNL d   1      -2.228  -1.182  -2.589  0.00  0.00     0.026 A 
ATOM      8  C6  UNL d   1      -1.233  -0.155  -2.460  0.00  0.00    -0.082 A 
ATOM      9  C7  UNL d   1       0.052  -0.038  -3.042  0.00  0.00     0.045 A 
ENDROOT
TORSDOF 0
ENDMDL
