MODEL 1
REMARK minimizedAffinity 14.2889814
REMARK minimizedRMSD -1
REMARK  0 active torsions:
REMARK  status: ('A' for Active; 'I' for Inactive)
ROOT
ATOM      1  C   UNL d   1      -0.352   4.461   2.464  0.00  0.00    -0.002 A 
ATOM      2  C1  UNL d   1      -0.550   3.108   2.697  0.00  0.00     0.010 A 
ATOM      3  C2  UNL d   1      -0.559   2.198   1.637  0.00  0.00     0.041 A 
ATOM      4  C3  UNL d   1      -0.363   2.677   0.327  0.00  0.00    -0.075 A 
ATOM      5  S   UNL d   1      -0.334   1.748  -1.126  0.00  0.00     0.015 SA
ATOM      6  C4  UNL d   1      -0.058   3.127  -2.090  0.00  0.00     0.022 A 
ATOM      7  C5  UNL d   1       0.013   4.276  -1.338  0.00  0.00     0.026 A 
ATOM      8  C6  UNL d   1      -0.161   4.036   0.067  0.00  0.00    -0.082 A 
ATOM      9  C7  UNL d   1      -0.158   4.932   1.162  0.00  0.00     0.045 A 
ENDROOT
TORSDOF 0
ENDMDL
