MODEL 1
REMARK minimizedAffinity 4.86239004
REMARK minimizedRMSD -1
REMARK  0 active torsions:
REMARK  status: ('A' for Active; 'I' for Inactive)
ROOT
ATOM      1  C   UNL d   1      -2.524   5.355   0.498  0.00  0.00    -0.002 A 
ATOM      2  C1  UNL d   1      -2.931   4.189   1.131  0.00  0.00     0.010 A 
ATOM      3  C2  UNL d   1      -2.361   2.960   0.791  0.00  0.00     0.041 A 
ATOM      4  C3  UNL d   1      -1.364   2.924  -0.204  0.00  0.00    -0.075 A 
ATOM      5  S   UNL d   1      -0.524   1.534  -0.783  0.00  0.00     0.015 SA
ATOM      6  C4  UNL d   1       0.395   2.456  -1.884  0.00  0.00     0.022 A 
ATOM      7  C5  UNL d   1       0.081   3.793  -1.824  0.00  0.00     0.026 A 
ATOM      8  C6  UNL d   1      -0.937   4.085  -0.855  0.00  0.00    -0.082 A 
ATOM      9  C7  UNL d   1      -1.535   5.315  -0.489  0.00  0.00     0.045 A 
ENDROOT
TORSDOF 0
ENDMDL
