MODEL 1
REMARK minimizedAffinity -0.466393173
REMARK minimizedRMSD -1
REMARK  0 active torsions:
REMARK  status: ('A' for Active; 'I' for Inactive)
ROOT
ATOM      1  C   UNL d   1       0.327   4.629  -1.442  0.00  0.00     0.023 A 
ATOM      2  C1  UNL d   1      -0.170   3.379  -1.810  0.00  0.00     0.003 A 
ATOM      3  C2  UNL d   1      -0.619   2.489  -0.832  0.00  0.00     0.048 A 
ATOM      4  C3  UNL d   1      -0.569   2.857   0.513  0.00  0.00     0.023 A 
ATOM      5  C4  UNL d   1      -0.074   4.107   0.885  0.00  0.00     0.048 A 
ATOM      6  C5  UNL d   1       0.375   4.993  -0.096  0.00  0.00     0.003 A 
ATOM      7  I   UNL d   1      -1.237   1.534   1.970  0.00  0.00    -0.146 I 
ENDROOT
TORSDOF 0
ENDMDL
