MODEL 1
REMARK minimizedAffinity -1.52520776
REMARK minimizedRMSD -1
REMARK  0 active torsions:
REMARK  status: ('A' for Active; 'I' for Inactive)
ROOT
ATOM      1  C   UNL d   1       0.586   3.116   2.438  0.00  0.00     0.023 A 
ATOM      2  C1  UNL d   1      -0.284   2.181   1.875  0.00  0.00     0.003 A 
ATOM      3  C2  UNL d   1      -0.674   2.304   0.540  0.00  0.00     0.048 A 
ATOM      4  C3  UNL d   1      -0.189   3.362  -0.228  0.00  0.00     0.023 A 
ATOM      5  C4  UNL d   1       0.682   4.299   0.331  0.00  0.00     0.048 A 
ATOM      6  C5  UNL d   1       1.068   4.173   1.666  0.00  0.00     0.003 A 
ATOM      7  I   UNL d   1      -0.768   3.547  -2.215  0.00  0.00    -0.146 I 
ENDROOT
TORSDOF 0
ENDMDL
