MODEL 1
REMARK minimizedAffinity 0.557456017
REMARK minimizedRMSD -1
REMARK  0 active torsions:
REMARK  status: ('A' for Active; 'I' for Inactive)
ROOT
ATOM      1  C   UNL d   1       0.232   3.524   2.143  0.00  0.00     0.023 A 
ATOM      2  C1  UNL d   1      -0.117   4.740   1.555  0.00  0.00     0.003 A 
ATOM      3  C2  UNL d   1      -0.416   4.798   0.193  0.00  0.00     0.048 A 
ATOM      4  C3  UNL d   1      -0.364   3.636  -0.577  0.00  0.00     0.023 A 
ATOM      5  C4  UNL d   1      -0.016   2.417   0.007  0.00  0.00     0.048 A 
ATOM      6  C5  UNL d   1       0.282   2.364   1.370  0.00  0.00     0.003 A 
ATOM      7  I   UNL d   1      -0.809   3.720  -2.605  0.00  0.00    -0.146 I 
ENDROOT
TORSDOF 0
ENDMDL
