MODEL 1
REMARK minimizedAffinity 7.61135054
REMARK minimizedRMSD -1
REMARK  0 active torsions:
REMARK  status: ('A' for Active; 'I' for Inactive)
ROOT
ATOM      1  C   UNL d   1       0.479   3.464  -0.024  0.00  0.00     0.023 A 
ATOM      2  C1  UNL d   1      -0.862   3.849  -0.017  0.00  0.00     0.003 A 
ATOM      3  C2  UNL d   1      -1.773   3.196   0.815  0.00  0.00     0.048 A 
ATOM      4  C3  UNL d   1      -1.337   2.159   1.639  0.00  0.00     0.023 A 
ATOM      5  C4  UNL d   1       0.003   1.770   1.636  0.00  0.00     0.048 A 
ATOM      6  C5  UNL d   1       0.911   2.425   0.802  0.00  0.00     0.003 A 
ATOM      7  I   UNL d   1      -2.692   1.186   2.879  0.00  0.00    -0.146 I 
ENDROOT
TORSDOF 0
ENDMDL
