MODEL 1
REMARK minimizedAffinity 4.61049414
REMARK minimizedRMSD -1
REMARK  0 active torsions:
REMARK  status: ('A' for Active; 'I' for Inactive)
ROOT
ATOM      1  C   UNL d   1      -6.000  -4.914   5.012  0.00  0.00     0.023 A 
ATOM      2  C1  UNL d   1      -5.150  -4.907   3.906  0.00  0.00     0.003 A 
ATOM      3  C2  UNL d   1      -4.167  -3.923   3.785  0.00  0.00     0.048 A 
ATOM      4  C3  UNL d   1      -4.037  -2.950   4.775  0.00  0.00     0.023 A 
ATOM      5  C4  UNL d   1      -4.884  -2.953   5.884  0.00  0.00     0.048 A 
ATOM      6  C5  UNL d   1      -5.867  -3.938   6.000  0.00  0.00     0.003 A 
ATOM      7  I   UNL d   1      -2.574  -1.485   4.597  0.00  0.00    -0.146 I 
ENDROOT
TORSDOF 0
ENDMDL
