MODEL 1
REMARK minimizedAffinity 14.6741877
REMARK minimizedRMSD -1
REMARK  0 active torsions:
REMARK  status: ('A' for Active; 'I' for Inactive)
ROOT
ATOM      1  C   UNL d   1       0.309   4.808  -1.655  0.00  0.00     0.023 A 
ATOM      2  C1  UNL d   1      -0.398   3.667  -2.037  0.00  0.00     0.003 A 
ATOM      3  C2  UNL d   1      -0.486   2.576  -1.170  0.00  0.00     0.048 A 
ATOM      4  C3  UNL d   1       0.134   2.633   0.078  0.00  0.00     0.023 A 
ATOM      5  C4  UNL d   1       0.841   3.773   0.464  0.00  0.00     0.048 A 
ATOM      6  C5  UNL d   1       0.927   4.860  -0.406  0.00  0.00     0.003 A 
ATOM      7  I   UNL d   1       0.004   1.011   1.370  0.00  0.00    -0.146 I 
ENDROOT
TORSDOF 0
ENDMDL
