MODEL 1
REMARK minimizedAffinity 9.22288513
REMARK minimizedRMSD -1
REMARK  0 active torsions:
REMARK  status: ('A' for Active; 'I' for Inactive)
ROOT
ATOM      1  C   UNL d   1       0.372   4.383  -2.035  0.00  0.00     0.023 A 
ATOM      2  C1  UNL d   1      -0.302   3.192  -2.306  0.00  0.00     0.003 A 
ATOM      3  C2  UNL d   1      -0.500   2.254  -1.291  0.00  0.00     0.048 A 
ATOM      4  C3  UNL d   1      -0.023   2.514  -0.007  0.00  0.00     0.023 A 
ATOM      5  C4  UNL d   1       0.650   3.705   0.269  0.00  0.00     0.048 A 
ATOM      6  C5  UNL d   1       0.847   4.640  -0.749  0.00  0.00     0.003 A 
ATOM      7  I   UNL d   1      -0.317   1.119   1.506  0.00  0.00    -0.146 I 
ENDROOT
TORSDOF 0
ENDMDL
