MODEL 1
REMARK minimizedAffinity 1.89306796
REMARK minimizedRMSD -1
REMARK  0 active torsions:
REMARK  status: ('A' for Active; 'I' for Inactive)
ROOT
ATOM      1  C   UNL d   1      -5.996  -5.265   4.783  0.00  0.00     0.023 A 
ATOM      2  C1  UNL d   1      -5.931  -4.503   5.950  0.00  0.00     0.003 A 
ATOM      3  C2  UNL d   1      -5.117  -3.369   5.999  0.00  0.00     0.048 A 
ATOM      4  C3  UNL d   1      -4.373  -3.002   4.879  0.00  0.00     0.023 A 
ATOM      5  C4  UNL d   1      -4.436  -3.761   3.709  0.00  0.00     0.048 A 
ATOM      6  C5  UNL d   1      -5.250  -4.895   3.664  0.00  0.00     0.003 A 
ATOM      7  I   UNL d   1      -3.162  -1.315   4.950  0.00  0.00    -0.146 I 
ENDROOT
TORSDOF 0
ENDMDL
