MODEL 1
REMARK minimizedAffinity 5.23913431
REMARK minimizedRMSD -1
REMARK  0 active torsions:
REMARK  status: ('A' for Active; 'I' for Inactive)
ROOT
ATOM      1  C   UNL d   1      -0.062   3.980  -1.438  0.00  0.00     0.023 A 
ATOM      2  C1  UNL d   1       0.198   4.508  -0.173  0.00  0.00     0.003 A 
ATOM      3  C2  UNL d   1      -0.122   3.773   0.971  0.00  0.00     0.048 A 
ATOM      4  C3  UNL d   1      -0.699   2.510   0.842  0.00  0.00     0.023 A 
ATOM      5  C4  UNL d   1      -0.959   1.977  -0.422  0.00  0.00     0.048 A 
ATOM      6  C5  UNL d   1      -0.639   2.716  -1.562  0.00  0.00     0.003 A 
ATOM      7  I   UNL d   1      -1.175   1.413   2.542  0.00  0.00    -0.146 I 
ENDROOT
TORSDOF 0
ENDMDL
