MODEL 1
REMARK minimizedAffinity 1.27096665
REMARK minimizedRMSD -1
REMARK  0 active torsions:
REMARK  status: ('A' for Active; 'I' for Inactive)
ROOT
ATOM      1  C   UNL d   1      -0.061   2.220   3.037  0.00  0.00     0.023 A 
ATOM      2  C1  UNL d   1      -0.941   1.798   2.040  0.00  0.00     0.003 A 
ATOM      3  C2  UNL d   1      -0.822   2.301   0.743  0.00  0.00     0.048 A 
ATOM      4  C3  UNL d   1       0.181   3.224   0.449  0.00  0.00     0.023 A 
ATOM      5  C4  UNL d   1       1.064   3.648   1.443  0.00  0.00     0.048 A 
ATOM      6  C5  UNL d   1       0.941   3.144   2.738  0.00  0.00     0.003 A 
ATOM      7  I   UNL d   1       0.361   3.974  -1.481  0.00  0.00    -0.146 I 
ENDROOT
TORSDOF 0
ENDMDL
