MODEL 1
REMARK minimizedAffinity 2.8717761
REMARK minimizedRMSD -1
REMARK  0 active torsions:
REMARK  status: ('A' for Active; 'I' for Inactive)
ROOT
ATOM      1  C   UNL d   1      -1.276   0.795   3.739  0.00  0.00     0.023 A 
ATOM      2  C1  UNL d   1      -2.286   1.193   2.863  0.00  0.00     0.003 A 
ATOM      3  C2  UNL d   1      -1.972   1.943   1.728  0.00  0.00     0.048 A 
ATOM      4  C3  UNL d   1      -0.646   2.291   1.474  0.00  0.00     0.023 A 
ATOM      5  C4  UNL d   1       0.368   1.893   2.347  0.00  0.00     0.048 A 
ATOM      6  C5  UNL d   1       0.050   1.144   3.481  0.00  0.00     0.003 A 
ATOM      7  I   UNL d   1      -0.176   3.407  -0.215  0.00  0.00    -0.146 I 
ENDROOT
TORSDOF 0
ENDMDL
