MODEL 1
REMARK minimizedAffinity 13.6930599
REMARK minimizedRMSD -1
REMARK  0 active torsions:
REMARK  status: ('A' for Active; 'I' for Inactive)
ROOT
ATOM      1  C   UNL d   1      -1.140   2.816  -1.756  0.00  0.00     0.023 A 
ATOM      2  C1  UNL d   1      -0.134   3.761  -1.557  0.00  0.00     0.003 A 
ATOM      3  C2  UNL d   1       0.178   4.675  -2.566  0.00  0.00     0.048 A 
ATOM      4  C3  UNL d   1      -0.522   4.639  -3.771  0.00  0.00     0.023 A 
ATOM      5  C4  UNL d   1      -1.530   3.696  -3.975  0.00  0.00     0.048 A 
ATOM      6  C5  UNL d   1      -1.838   2.784  -2.964  0.00  0.00     0.003 A 
ATOM      7  I   UNL d   1      -0.060   5.998  -5.274  0.00  0.00    -0.146 I 
ENDROOT
TORSDOF 0
ENDMDL
