MODEL 1
REMARK minimizedAffinity -0.773563802
REMARK minimizedRMSD -1
REMARK  0 active torsions:
REMARK  status: ('A' for Active; 'I' for Inactive)
ROOT
ATOM      1  C   UNL d   1      -0.280   2.400   3.346  0.00  0.00     0.023 A 
ATOM      2  C1  UNL d   1       0.806   3.154   2.901  0.00  0.00     0.003 A 
ATOM      3  C2  UNL d   1       0.906   3.508   1.554  0.00  0.00     0.048 A 
ATOM      4  C3  UNL d   1      -0.084   3.105   0.658  0.00  0.00     0.023 A 
ATOM      5  C4  UNL d   1      -1.172   2.352   1.099  0.00  0.00     0.048 A 
ATOM      6  C5  UNL d   1      -1.268   1.999   2.447  0.00  0.00     0.003 A 
ATOM      7  I   UNL d   1       0.063   3.631  -1.348  0.00  0.00    -0.146 I 
ENDROOT
TORSDOF 0
ENDMDL
