MODEL 1
REMARK minimizedAffinity 10.6078577
REMARK minimizedRMSD -1
REMARK  0 active torsions:
REMARK  status: ('A' for Active; 'I' for Inactive)
ROOT
ATOM      1  C   UNL d   1       5.266  -4.409  -2.343  0.00  0.00     0.023 A 
ATOM      2  C1  UNL d   1       5.975  -4.042  -3.486  0.00  0.00     0.003 A 
ATOM      3  C2  UNL d   1       5.322  -3.394  -4.537  0.00  0.00     0.048 A 
ATOM      4  C3  UNL d   1       3.959  -3.116  -4.437  0.00  0.00     0.023 A 
ATOM      5  C4  UNL d   1       3.245  -3.481  -3.295  0.00  0.00     0.048 A 
ATOM      6  C5  UNL d   1       3.902  -4.129  -2.247  0.00  0.00     0.003 A 
ATOM      7  I   UNL d   1       2.985  -2.152  -6.000  0.00  0.00    -0.146 I 
ENDROOT
TORSDOF 0
ENDMDL
