MODEL 1
REMARK minimizedAffinity 11.7792034
REMARK minimizedRMSD -1
REMARK  0 active torsions:
REMARK  status: ('A' for Active; 'I' for Inactive)
ROOT
ATOM      1  C   UNL d   1       0.511   4.055  -0.239  0.00  0.00     0.023 A 
ATOM      2  C1  UNL d   1       0.210   5.389   0.035  0.00  0.00     0.003 A 
ATOM      3  C2  UNL d   1      -1.072   5.743   0.462  0.00  0.00     0.048 A 
ATOM      4  C3  UNL d   1      -2.047   4.758   0.614  0.00  0.00     0.023 A 
ATOM      5  C4  UNL d   1      -1.750   3.422   0.342  0.00  0.00     0.048 A 
ATOM      6  C5  UNL d   1      -0.467   3.072  -0.086  0.00  0.00     0.003 A 
ATOM      7  I   UNL d   1      -3.955   5.283   1.250  0.00  0.00    -0.146 I 
ENDROOT
TORSDOF 0
ENDMDL
