MODEL 1
REMARK minimizedAffinity 1.17553413
REMARK minimizedRMSD -1
REMARK  0 active torsions:
REMARK  status: ('A' for Active; 'I' for Inactive)
ROOT
ATOM      1  C   UNL d   1      -5.781  -5.749   3.057  0.00  0.00     0.023 A 
ATOM      2  C1  UNL d   1      -5.989  -5.819   4.434  0.00  0.00     0.003 A 
ATOM      3  C2  UNL d   1      -5.386  -4.886   5.281  0.00  0.00     0.048 A 
ATOM      4  C3  UNL d   1      -4.577  -3.886   4.742  0.00  0.00     0.023 A 
ATOM      5  C4  UNL d   1      -4.367  -3.811   3.364  0.00  0.00     0.048 A 
ATOM      6  C5  UNL d   1      -4.972  -4.747   2.522  0.00  0.00     0.003 A 
ATOM      7  I   UNL d   1      -3.678  -2.496   6.000  0.00  0.00    -0.146 I 
ENDROOT
TORSDOF 0
ENDMDL
