MODEL 1
REMARK minimizedAffinity -1.88386846
REMARK minimizedRMSD -1
REMARK  0 active torsions:
REMARK  status: ('A' for Active; 'I' for Inactive)
ROOT
ATOM      1  C   UNL d   1      -4.999  -2.056   0.198  0.00  0.00     0.023 A 
ATOM      2  C1  UNL d   1      -5.931  -2.332  -0.803  0.00  0.00     0.003 A 
ATOM      3  C2  UNL d   1      -6.000  -1.521  -1.937  0.00  0.00     0.048 A 
ATOM      4  C3  UNL d   1      -5.133  -0.436  -2.065  0.00  0.00     0.023 A 
ATOM      5  C4  UNL d   1      -4.198  -0.157  -1.067  0.00  0.00     0.048 A 
ATOM      6  C5  UNL d   1      -4.133  -0.971   0.066  0.00  0.00     0.003 A 
ATOM      7  I   UNL d   1      -5.233   0.773  -3.753  0.00  0.00    -0.146 I 
ENDROOT
TORSDOF 0
ENDMDL
