MODEL 1
REMARK minimizedAffinity 3.69220996
REMARK minimizedRMSD -1
REMARK  0 active torsions:
REMARK  status: ('A' for Active; 'I' for Inactive)
ROOT
ATOM      1  C   UNL d   1      -0.714   1.626   3.368  0.00  0.00     0.023 A 
ATOM      2  C1  UNL d   1      -1.313   0.893   2.343  0.00  0.00     0.003 A 
ATOM      3  C2  UNL d   1      -1.108   1.257   1.011  0.00  0.00     0.048 A 
ATOM      4  C3  UNL d   1      -0.302   2.355   0.710  0.00  0.00     0.023 A 
ATOM      5  C4  UNL d   1       0.299   3.091   1.733  0.00  0.00     0.048 A 
ATOM      6  C5  UNL d   1       0.091   2.724   3.063  0.00  0.00     0.003 A 
ATOM      7  I   UNL d   1       0.005   2.899  -1.272  0.00  0.00    -0.146 I 
ENDROOT
TORSDOF 0
ENDMDL
