MODEL 1
REMARK minimizedAffinity -1.81251538
REMARK minimizedRMSD -1
REMARK  0 active torsions:
REMARK  status: ('A' for Active; 'I' for Inactive)
ROOT
ATOM      1  C   UNL d   1      -2.647  -2.245   5.549  0.00  0.00     0.023 A 
ATOM      2  C1  UNL d   1      -3.968  -2.264   5.998  0.00  0.00     0.003 A 
ATOM      3  C2  UNL d   1      -4.931  -3.001   5.306  0.00  0.00     0.048 A 
ATOM      4  C3  UNL d   1      -4.566  -3.718   4.167  0.00  0.00     0.023 A 
ATOM      5  C4  UNL d   1      -3.245  -3.703   3.715  0.00  0.00     0.048 A 
ATOM      6  C5  UNL d   1      -2.286  -2.963   4.409  0.00  0.00     0.003 A 
ATOM      7  I   UNL d   1      -5.997  -4.817   3.136  0.00  0.00    -0.146 I 
ENDROOT
TORSDOF 0
ENDMDL
