MODEL 1
REMARK minimizedAffinity 17.3621712
REMARK minimizedRMSD -1
REMARK  0 active torsions:
REMARK  status: ('A' for Active; 'I' for Inactive)
ROOT
ATOM      1  C   UNL d   1       4.112   5.958   5.975  0.00  0.00     0.023 A 
ATOM      2  C1  UNL d   1       3.281   4.900   5.608  0.00  0.00     0.003 A 
ATOM      3  C2  UNL d   1       3.795   3.828   4.875  0.00  0.00     0.048 A 
ATOM      4  C3  UNL d   1       5.141   3.821   4.513  0.00  0.00     0.023 A 
ATOM      5  C4  UNL d   1       5.977   4.877   4.879  0.00  0.00     0.048 A 
ATOM      6  C5  UNL d   1       5.458   5.947   5.611  0.00  0.00     0.003 A 
ATOM      7  I   UNL d   1       5.909   2.227   3.423  0.00  0.00    -0.146 I 
ENDROOT
TORSDOF 0
ENDMDL
