MODEL 1
REMARK minimizedAffinity 7.37782669
REMARK minimizedRMSD -1
REMARK  0 active torsions:
REMARK  status: ('A' for Active; 'I' for Inactive)
ROOT
ATOM      1  C   UNL d   1       4.616   5.827   5.998  0.00  0.00     0.023 A 
ATOM      2  C1  UNL d   1       5.607   4.846   5.996  0.00  0.00     0.003 A 
ATOM      3  C2  UNL d   1       5.253   3.495   5.996  0.00  0.00     0.048 A 
ATOM      4  C3  UNL d   1       3.907   3.132   5.998  0.00  0.00     0.023 A 
ATOM      5  C4  UNL d   1       2.911   4.111   5.999  0.00  0.00     0.048 A 
ATOM      6  C5  UNL d   1       3.270   5.461   6.000  0.00  0.00     0.003 A 
ATOM      7  I   UNL d   1       3.378   1.122   5.998  0.00  0.00    -0.146 I 
ENDROOT
TORSDOF 0
ENDMDL
