MODEL 1
REMARK minimizedAffinity 8.43236446
REMARK minimizedRMSD -1
REMARK  0 active torsions:
REMARK  status: ('A' for Active; 'I' for Inactive)
ROOT
ATOM      1  C   UNL d   1       4.180   5.684   6.000  0.00  0.00     0.023 A 
ATOM      2  C1  UNL d   1       5.482   5.746   5.503  0.00  0.00     0.003 A 
ATOM      3  C2  UNL d   1       6.000   4.680   4.765  0.00  0.00     0.048 A 
ATOM      4  C3  UNL d   1       5.210   3.556   4.526  0.00  0.00     0.023 A 
ATOM      5  C4  UNL d   1       3.906   3.490   5.021  0.00  0.00     0.048 A 
ATOM      6  C5  UNL d   1       3.393   4.558   5.759  0.00  0.00     0.003 A 
ATOM      7  I   UNL d   1       5.979   1.968   3.427  0.00  0.00    -0.146 I 
ENDROOT
TORSDOF 0
ENDMDL
