MODEL 1
REMARK minimizedAffinity 12.6989622
REMARK minimizedRMSD -1
REMARK  0 active torsions:
REMARK  status: ('A' for Active; 'I' for Inactive)
ROOT
ATOM      1  C   UNL d   1      -1.997  -1.736   2.318  0.00  0.00     0.023 A 
ATOM      2  C1  UNL d   1      -3.100  -1.428   1.522  0.00  0.00     0.003 A 
ATOM      3  C2  UNL d   1      -2.944  -1.263   0.144  0.00  0.00     0.048 A 
ATOM      4  C3  UNL d   1      -1.682  -1.410  -0.431  0.00  0.00     0.023 A 
ATOM      5  C4  UNL d   1      -0.576  -1.719   0.361  0.00  0.00     0.048 A 
ATOM      6  C5  UNL d   1      -0.736  -1.882   1.738  0.00  0.00     0.003 A 
ATOM      7  I   UNL d   1      -1.448  -1.165  -2.482  0.00  0.00    -0.146 I 
ENDROOT
TORSDOF 0
ENDMDL
