MODEL 1
REMARK minimizedAffinity 10.8652077
REMARK minimizedRMSD -1
REMARK  0 active torsions:
REMARK  status: ('A' for Active; 'I' for Inactive)
ROOT
ATOM      1  C   UNL d   1       3.787   5.999   5.999  0.00  0.00     0.023 A 
ATOM      2  C1  UNL d   1       5.180   5.921   5.997  0.00  0.00     0.003 A 
ATOM      3  C2  UNL d   1       5.814   4.760   5.550  0.00  0.00     0.048 A 
ATOM      4  C3  UNL d   1       5.049   3.681   5.106  0.00  0.00     0.023 A 
ATOM      5  C4  UNL d   1       3.656   3.756   5.106  0.00  0.00     0.048 A 
ATOM      6  C5  UNL d   1       3.026   4.918   5.554  0.00  0.00     0.003 A 
ATOM      7  I   UNL d   1       5.991   1.952   4.441  0.00  0.00    -0.146 I 
ENDROOT
TORSDOF 0
ENDMDL
