MODEL 1
REMARK minimizedAffinity 8.34456444
REMARK minimizedRMSD -1
REMARK  0 active torsions:
REMARK  status: ('A' for Active; 'I' for Inactive)
ROOT
ATOM      1  C   UNL d   1       5.847   3.745   5.999  0.00  0.00     0.023 A 
ATOM      2  C1  UNL d   1       5.780   5.138   6.000  0.00  0.00     0.003 A 
ATOM      3  C2  UNL d   1       4.540   5.779   5.986  0.00  0.00     0.048 A 
ATOM      4  C3  UNL d   1       3.370   5.020   5.972  0.00  0.00     0.023 A 
ATOM      5  C4  UNL d   1       3.432   3.626   5.972  0.00  0.00     0.048 A 
ATOM      6  C5  UNL d   1       4.674   2.989   5.986  0.00  0.00     0.003 A 
ATOM      7  I   UNL d   1       1.522   5.972   5.951  0.00  0.00    -0.146 I 
ENDROOT
TORSDOF 0
ENDMDL
