MODEL 1
REMARK minimizedAffinity 15.9542742
REMARK minimizedRMSD -1
REMARK  0 active torsions:
REMARK  status: ('A' for Active; 'I' for Inactive)
ROOT
ATOM      1  C   UNL d   1      -2.373  -2.232   5.543  0.00  0.00     0.023 A 
ATOM      2  C1  UNL d   1      -1.657  -2.006   4.367  0.00  0.00     0.003 A 
ATOM      3  C2  UNL d   1      -1.155  -3.084   3.636  0.00  0.00     0.048 A 
ATOM      4  C3  UNL d   1      -1.374  -4.386   4.085  0.00  0.00     0.023 A 
ATOM      5  C4  UNL d   1      -2.091  -4.617   5.260  0.00  0.00     0.048 A 
ATOM      6  C5  UNL d   1      -2.590  -3.536   5.989  0.00  0.00     0.003 A 
ATOM      7  I   UNL d   1      -0.629  -5.993   2.997  0.00  0.00    -0.146 I 
ENDROOT
TORSDOF 0
ENDMDL
