MODEL 1
REMARK minimizedAffinity 6.40933084
REMARK minimizedRMSD -1
REMARK  0 active torsions:
REMARK  status: ('A' for Active; 'I' for Inactive)
ROOT
ATOM      1  C   UNL d   1       4.212   5.395   5.998  0.00  0.00     0.023 A 
ATOM      2  C1  UNL d   1       5.283   5.723   5.167  0.00  0.00     0.003 A 
ATOM      3  C2  UNL d   1       5.795   4.776   4.278  0.00  0.00     0.048 A 
ATOM      4  C3  UNL d   1       5.230   3.502   4.225  0.00  0.00     0.023 A 
ATOM      5  C4  UNL d   1       4.157   3.170   5.053  0.00  0.00     0.048 A 
ATOM      6  C5  UNL d   1       3.649   4.120   5.941  0.00  0.00     0.003 A 
ATOM      7  I   UNL d   1       5.990   2.090   2.903  0.00  0.00    -0.146 I 
ENDROOT
TORSDOF 0
ENDMDL
