MODEL 1
REMARK minimizedAffinity 8.75316048
REMARK minimizedRMSD -1
REMARK  0 active torsions:
REMARK  status: ('A' for Active; 'I' for Inactive)
ROOT
ATOM      1  C   UNL d   1       4.151   6.000   6.000  0.00  0.00     0.023 A 
ATOM      2  C1  UNL d   1       3.346   4.879   5.793  0.00  0.00     0.003 A 
ATOM      3  C2  UNL d   1       3.865   3.755   5.148  0.00  0.00     0.048 A 
ATOM      4  C3  UNL d   1       5.190   3.756   4.714  0.00  0.00     0.023 A 
ATOM      5  C4  UNL d   1       6.000   4.875   4.920  0.00  0.00     0.048 A 
ATOM      6  C5  UNL d   1       5.476   5.997   5.564  0.00  0.00     0.003 A 
ATOM      7  I   UNL d   1       5.965   2.083   3.754  0.00  0.00    -0.146 I 
ENDROOT
TORSDOF 0
ENDMDL
