MODEL 1
REMARK minimizedAffinity 18.7835159
REMARK minimizedRMSD -1
REMARK  0 active torsions:
REMARK  status: ('A' for Active; 'I' for Inactive)
ROOT
ATOM      1  C   UNL d   1      -5.512   5.985   0.554  0.00  0.00     0.023 A 
ATOM      2  C1  UNL d   1      -4.208   5.939   0.062  0.00  0.00     0.003 A 
ATOM      3  C2  UNL d   1      -3.388   4.847   0.353  0.00  0.00     0.048 A 
ATOM      4  C3  UNL d   1      -3.880   3.803   1.136  0.00  0.00     0.023 A 
ATOM      5  C4  UNL d   1      -5.185   3.844   1.630  0.00  0.00     0.048 A 
ATOM      6  C5  UNL d   1      -6.000   4.939   1.337  0.00  0.00     0.003 A 
ATOM      7  I   UNL d   1      -2.662   2.176   1.571  0.00  0.00    -0.146 I 
ENDROOT
TORSDOF 0
ENDMDL
