MODEL 1
REMARK minimizedAffinity 7.38916779
REMARK minimizedRMSD -1
REMARK  0 active torsions:
REMARK  status: ('A' for Active; 'I' for Inactive)
ROOT
ATOM      1  C   UNL d   1       5.136   5.916   5.989  0.00  0.00     0.023 A 
ATOM      2  C1  UNL d   1       5.999   4.820   5.985  0.00  0.00     0.003 A 
ATOM      3  C2  UNL d   1       5.482   3.523   5.987  0.00  0.00     0.048 A 
ATOM      4  C3  UNL d   1       4.102   3.328   5.990  0.00  0.00     0.023 A 
ATOM      5  C4  UNL d   1       3.234   4.422   5.993  0.00  0.00     0.048 A 
ATOM      6  C5  UNL d   1       3.755   5.717   5.992  0.00  0.00     0.003 A 
ATOM      7  I   UNL d   1       3.330   1.398   5.991  0.00  0.00    -0.146 I 
ENDROOT
TORSDOF 0
ENDMDL
