MODEL 1
REMARK minimizedAffinity 5.64584303
REMARK minimizedRMSD -1
REMARK  0 active torsions:
REMARK  status: ('A' for Active; 'I' for Inactive)
ROOT
ATOM      1  C   UNL d   1       5.071   5.997   5.979  0.00  0.00     0.023 A 
ATOM      2  C1  UNL d   1       5.975   4.934   5.968  0.00  0.00     0.003 A 
ATOM      3  C2  UNL d   1       5.508   3.618   5.972  0.00  0.00     0.048 A 
ATOM      4  C3  UNL d   1       4.136   3.372   5.985  0.00  0.00     0.023 A 
ATOM      5  C4  UNL d   1       3.227   4.431   5.995  0.00  0.00     0.048 A 
ATOM      6  C5  UNL d   1       3.699   5.745   5.992  0.00  0.00     0.003 A 
ATOM      7  I   UNL d   1       3.438   1.414   5.990  0.00  0.00    -0.146 I 
ENDROOT
TORSDOF 0
ENDMDL
