MODEL 1
REMARK minimizedAffinity 6.46520281
REMARK minimizedRMSD -1
REMARK  0 active torsions:
REMARK  status: ('A' for Active; 'I' for Inactive)
ROOT
ATOM      1  C   UNL d   1       5.131   5.518   5.801  0.00  0.00     0.023 A 
ATOM      2  C1  UNL d   1       3.760   5.308   5.943  0.00  0.00     0.003 A 
ATOM      3  C2  UNL d   1       3.253   4.008   6.000  0.00  0.00     0.048 A 
ATOM      4  C3  UNL d   1       4.125   2.922   5.914  0.00  0.00     0.023 A 
ATOM      5  C4  UNL d   1       5.498   3.128   5.772  0.00  0.00     0.048 A 
ATOM      6  C5  UNL d   1       5.999   4.430   5.715  0.00  0.00     0.003 A 
ATOM      7  I   UNL d   1       3.374   0.986   5.998  0.00  0.00    -0.146 I 
ENDROOT
TORSDOF 0
ENDMDL
