MODEL 1
REMARK minimizedAffinity 12.1804085
REMARK minimizedRMSD -1
REMARK  0 active torsions:
REMARK  status: ('A' for Active; 'I' for Inactive)
ROOT
ATOM      1  C   UNL d   1       4.023   5.997   5.998  0.00  0.00     0.023 A 
ATOM      2  C1  UNL d   1       3.218   4.905   5.676  0.00  0.00     0.003 A 
ATOM      3  C2  UNL d   1       3.782   3.770   5.089  0.00  0.00     0.048 A 
ATOM      4  C3  UNL d   1       5.151   3.733   4.829  0.00  0.00     0.023 A 
ATOM      5  C4  UNL d   1       5.961   4.824   5.151  0.00  0.00     0.048 A 
ATOM      6  C5  UNL d   1       5.393   5.957   5.736  0.00  0.00     0.003 A 
ATOM      7  I   UNL d   1       5.992   2.044   3.957  0.00  0.00    -0.146 I 
ENDROOT
TORSDOF 0
ENDMDL
