MODEL 1
REMARK minimizedAffinity 10.6491261
REMARK minimizedRMSD -1
REMARK  0 active torsions:
REMARK  status: ('A' for Active; 'I' for Inactive)
ROOT
ATOM      1  C   UNL d   1       6.000   3.714   5.429  0.00  0.00     0.023 A 
ATOM      2  C1  UNL d   1       5.970   5.091   5.653  0.00  0.00     0.003 A 
ATOM      3  C2  UNL d   1       4.747   5.748   5.807  0.00  0.00     0.048 A 
ATOM      4  C3  UNL d   1       3.559   5.022   5.738  0.00  0.00     0.023 A 
ATOM      5  C4  UNL d   1       3.584   3.644   5.515  0.00  0.00     0.048 A 
ATOM      6  C5  UNL d   1       4.809   2.992   5.360  0.00  0.00     0.003 A 
ATOM      7  I   UNL d   1       1.738   5.997   5.967  0.00  0.00    -0.146 I 
ENDROOT
TORSDOF 0
ENDMDL
