MODEL 1
REMARK minimizedAffinity -2.64317822
REMARK minimizedRMSD -1
REMARK  0 active torsions:
REMARK  status: ('A' for Active; 'I' for Inactive)
ROOT
ATOM      1  C   UNL d   1       1.151   0.012   0.189  0.00  0.00     0.172 C 
ATOM      2  N   UNL d   1      -0.144  -0.372  -0.320  0.00  0.00    -0.070 N 
ATOM      3  C1  UNL d   1      -1.121  -1.019   0.388  0.00  0.00    -0.004 A 
ATOM      4  C2  UNL d   1      -2.199  -1.202  -0.451  0.00  0.00    -0.047 A 
ATOM      5  C3  UNL d   1      -1.858  -0.648  -1.707  0.00  0.00    -0.047 A 
ATOM      6  C4  UNL d   1      -0.580  -0.141  -1.598  0.00  0.00    -0.004 A 
ENDROOT
TORSDOF 0
ENDMDL
