MODEL 1
REMARK minimizedAffinity -2.98838925
REMARK minimizedRMSD -1
REMARK  0 active torsions:
REMARK  status: ('A' for Active; 'I' for Inactive)
ROOT
ATOM      1  C   UNL d   1       0.519  -2.035   0.904  0.00  0.00     0.172 C 
ATOM      2  N   UNL d   1      -0.149  -1.073   0.059  0.00  0.00    -0.070 N 
ATOM      3  C1  UNL d   1      -1.180  -1.346  -0.801  0.00  0.00    -0.004 A 
ATOM      4  C2  UNL d   1      -1.536  -0.167  -1.420  0.00  0.00    -0.047 A 
ATOM      5  C3  UNL d   1      -0.689   0.849  -0.915  0.00  0.00    -0.047 A 
ATOM      6  C4  UNL d   1       0.159   0.260  -0.002  0.00  0.00    -0.004 A 
ENDROOT
TORSDOF 0
ENDMDL
