MODEL 1
REMARK minimizedAffinity -1.15357542
REMARK minimizedRMSD -1
REMARK  0 active torsions:
REMARK  status: ('A' for Active; 'I' for Inactive)
ROOT
ATOM      1  C   UNL d   1       2.019   1.487   0.668  0.00  0.00     0.172 C 
ATOM      2  N   UNL d   1       0.868   0.962  -0.029  0.00  0.00    -0.070 N 
ATOM      3  C1  UNL d   1       0.234  -0.219   0.252  0.00  0.00    -0.004 A 
ATOM      4  C2  UNL d   1      -0.813  -0.357  -0.634  0.00  0.00    -0.047 A 
ATOM      5  C3  UNL d   1      -0.807   0.780  -1.477  0.00  0.00    -0.047 A 
ATOM      6  C4  UNL d   1       0.243   1.580  -1.080  0.00  0.00    -0.004 A 
ENDROOT
TORSDOF 0
ENDMDL
