MODEL 1
REMARK minimizedAffinity -2.33688617
REMARK minimizedRMSD -1
REMARK  0 active torsions:
REMARK  status: ('A' for Active; 'I' for Inactive)
ROOT
ATOM      1  C   UNL d   1       0.966   0.421  -0.044  0.00  0.00     0.172 C 
ATOM      2  N   UNL d   1      -0.354  -0.016  -0.433  0.00  0.00    -0.070 N 
ATOM      3  C1  UNL d   1      -0.965  -1.172  -0.026  0.00  0.00    -0.004 A 
ATOM      4  C2  UNL d   1      -2.210  -1.222  -0.615  0.00  0.00    -0.047 A 
ATOM      5  C3  UNL d   1      -2.351  -0.056  -1.406  0.00  0.00    -0.047 A 
ATOM      6  C4  UNL d   1      -1.188   0.672  -1.275  0.00  0.00    -0.004 A 
ENDROOT
TORSDOF 0
ENDMDL
