MODEL 1
REMARK minimizedAffinity -2.15305066
REMARK minimizedRMSD -1
REMARK  0 active torsions:
REMARK  status: ('A' for Active; 'I' for Inactive)
ROOT
ATOM      1  C   UNL d   1      -0.362   0.159  -0.228  0.00  0.00     0.172 C 
ATOM      2  N   UNL d   1       0.851   0.731   0.307  0.00  0.00    -0.070 N 
ATOM      3  C1  UNL d   1       2.123   0.302   0.035  0.00  0.00    -0.004 A 
ATOM      4  C2  UNL d   1       2.997   1.104   0.736  0.00  0.00    -0.047 A 
ATOM      5  C3  UNL d   1       2.224   2.047   1.455  0.00  0.00    -0.047 A 
ATOM      6  C4  UNL d   1       0.899   1.793   1.171  0.00  0.00    -0.004 A 
ENDROOT
TORSDOF 0
ENDMDL
