MODEL 1
REMARK minimizedAffinity -2.81481051
REMARK minimizedRMSD -1
REMARK  0 active torsions:
REMARK  status: ('A' for Active; 'I' for Inactive)
ROOT
ATOM      1  C   UNL d   1       2.419   2.482   1.787  0.00  0.00     0.172 C 
ATOM      2  N   UNL d   1       1.680   1.469   1.072  0.00  0.00    -0.070 N 
ATOM      3  C1  UNL d   1       0.336   1.496   0.811  0.00  0.00    -0.004 A 
ATOM      4  C2  UNL d   1       0.019   0.353   0.110  0.00  0.00    -0.047 A 
ATOM      5  C3  UNL d   1       1.213  -0.387  -0.056  0.00  0.00    -0.047 A 
ATOM      6  C4  UNL d   1       2.226   0.327   0.549  0.00  0.00    -0.004 A 
ENDROOT
TORSDOF 0
ENDMDL
