MODEL 1
REMARK minimizedAffinity -2.61878633
REMARK minimizedRMSD -1
REMARK  0 active torsions:
REMARK  status: ('A' for Active; 'I' for Inactive)
ROOT
ATOM      1  C   UNL d   1       0.436  -1.351   0.890  0.00  0.00     0.172 C 
ATOM      2  N   UNL d   1       0.241  -0.245  -0.018  0.00  0.00    -0.070 N 
ATOM      3  C1  UNL d   1       0.063  -0.345  -1.372  0.00  0.00    -0.004 A 
ATOM      4  C2  UNL d   1      -0.087   0.930  -1.873  0.00  0.00    -0.047 A 
ATOM      5  C3  UNL d   1       0.005   1.827  -0.783  0.00  0.00    -0.047 A 
ATOM      6  C4  UNL d   1       0.209   1.074   0.353  0.00  0.00    -0.004 A 
ENDROOT
TORSDOF 0
ENDMDL
