MODEL 1
REMARK minimizedAffinity -0.89198786
REMARK minimizedRMSD -1
REMARK  0 active torsions:
REMARK  status: ('A' for Active; 'I' for Inactive)
ROOT
ATOM      1  C   UNL d   1      -2.246  -0.352  -1.404  0.00  0.00     0.172 C 
ATOM      2  N   UNL d   1      -0.984  -0.176  -0.725  0.00  0.00    -0.070 N 
ATOM      3  C1  UNL d   1       0.077   0.555  -1.188  0.00  0.00    -0.004 A 
ATOM      4  C2  UNL d   1       1.085   0.475  -0.252  0.00  0.00    -0.047 A 
ATOM      5  C3  UNL d   1       0.615  -0.333   0.810  0.00  0.00    -0.047 A 
ATOM      6  C4  UNL d   1      -0.669  -0.722   0.492  0.00  0.00    -0.004 A 
ENDROOT
TORSDOF 0
ENDMDL
