MODEL 1
REMARK minimizedAffinity -0.892632723
REMARK minimizedRMSD -1
REMARK  0 active torsions:
REMARK  status: ('A' for Active; 'I' for Inactive)
ROOT
ATOM      1  C   UNL d   1      -2.335  -2.858  -0.034  0.00  0.00     0.172 C 
ATOM      2  N   UNL d   1      -1.683  -1.604  -0.334  0.00  0.00    -0.070 N 
ATOM      3  C1  UNL d   1      -0.503  -1.169   0.207  0.00  0.00    -0.004 A 
ATOM      4  C2  UNL d   1      -0.221   0.067  -0.335  0.00  0.00    -0.047 A 
ATOM      5  C3  UNL d   1      -1.269   0.386  -1.231  0.00  0.00    -0.047 A 
ATOM      6  C4  UNL d   1      -2.160  -0.667  -1.211  0.00  0.00    -0.004 A 
ENDROOT
TORSDOF 0
ENDMDL
