MODEL 1
REMARK minimizedAffinity -1.97118068
REMARK minimizedRMSD -1
REMARK  0 active torsions:
REMARK  status: ('A' for Active; 'I' for Inactive)
ROOT
ATOM      1  C   UNL d   1      -1.550  -0.213  -1.447  0.00  0.00     0.172 C 
ATOM      2  N   UNL d   1      -0.426   0.159  -0.621  0.00  0.00    -0.070 N 
ATOM      3  C1  UNL d   1       0.821  -0.405  -0.669  0.00  0.00    -0.004 A 
ATOM      4  C2  UNL d   1       1.606   0.225   0.273  0.00  0.00    -0.047 A 
ATOM      5  C3  UNL d   1       0.802   1.201   0.910  0.00  0.00    -0.047 A 
ATOM      6  C4  UNL d   1      -0.451   1.138   0.337  0.00  0.00    -0.004 A 
ENDROOT
TORSDOF 0
ENDMDL
