MODEL 1
REMARK minimizedAffinity -1.75892878
REMARK minimizedRMSD -1
REMARK  0 active torsions:
REMARK  status: ('A' for Active; 'I' for Inactive)
ROOT
ATOM      1  C   UNL d   1       0.987   0.226   0.356  0.00  0.00     0.172 C 
ATOM      2  N   UNL d   1       1.792   1.351   0.769  0.00  0.00    -0.070 N 
ATOM      3  C1  UNL d   1       1.678   2.020   1.958  0.00  0.00    -0.004 A 
ATOM      4  C2  UNL d   1       2.622   3.025   1.969  0.00  0.00    -0.047 A 
ATOM      5  C3  UNL d   1       3.326   2.957   0.744  0.00  0.00    -0.047 A 
ATOM      6  C4  UNL d   1       2.792   1.912   0.020  0.00  0.00    -0.004 A 
ENDROOT
TORSDOF 0
ENDMDL
