MODEL 1
REMARK minimizedAffinity -3.26747203
REMARK minimizedRMSD -1
REMARK  0 active torsions:
REMARK  status: ('A' for Active; 'I' for Inactive)
ROOT
ATOM      1  C   UNL d   1      -1.766  -0.585  -1.333  0.00  0.00     0.172 C 
ATOM      2  N   UNL d   1      -0.811   0.282  -0.684  0.00  0.00    -0.070 N 
ATOM      3  C1  UNL d   1      -0.974   1.623  -0.460  0.00  0.00    -0.004 A 
ATOM      4  C2  UNL d   1       0.156   2.084   0.181  0.00  0.00    -0.047 A 
ATOM      5  C3  UNL d   1       1.028   0.982   0.348  0.00  0.00    -0.047 A 
ATOM      6  C4  UNL d   1       0.404  -0.121  -0.197  0.00  0.00    -0.004 A 
ENDROOT
TORSDOF 0
ENDMDL
