MODEL 1
REMARK minimizedAffinity -2.14992499
REMARK minimizedRMSD -1
REMARK  0 active torsions:
REMARK  status: ('A' for Active; 'I' for Inactive)
ROOT
ATOM      1  C   UNL d   1       2.179   2.195   1.194  0.00  0.00     0.172 C 
ATOM      2  N   UNL d   1       1.337   1.323   0.410  0.00  0.00    -0.070 N 
ATOM      3  C1  UNL d   1      -0.019   1.443   0.262  0.00  0.00    -0.004 A 
ATOM      4  C2  UNL d   1      -0.447   0.422  -0.559  0.00  0.00    -0.047 A 
ATOM      5  C3  UNL d   1       0.691  -0.339  -0.916  0.00  0.00    -0.047 A 
ATOM      6  C4  UNL d   1       1.782   0.240  -0.302  0.00  0.00    -0.004 A 
ENDROOT
TORSDOF 0
ENDMDL
