MODEL 1
REMARK minimizedAffinity -0.301478475
REMARK minimizedRMSD -1
REMARK  0 active torsions:
REMARK  status: ('A' for Active; 'I' for Inactive)
ROOT
ATOM      1  C   UNL d   1       0.269   1.078  -0.632  0.00  0.00     0.172 C 
ATOM      2  N   UNL d   1      -0.698   0.056  -0.958  0.00  0.00    -0.070 N 
ATOM      3  C1  UNL d   1      -0.786  -0.608  -2.152  0.00  0.00    -0.004 A 
ATOM      4  C2  UNL d   1      -1.834  -1.499  -2.064  0.00  0.00    -0.047 A 
ATOM      5  C3  UNL d   1      -2.395  -1.365  -0.771  0.00  0.00    -0.047 A 
ATOM      6  C4  UNL d   1      -1.673  -0.396  -0.108  0.00  0.00    -0.004 A 
ENDROOT
TORSDOF 0
ENDMDL
