MODEL 1
REMARK minimizedAffinity 1.31572855
REMARK minimizedRMSD -1
REMARK  0 active torsions:
REMARK  status: ('A' for Active; 'I' for Inactive)
ROOT
ATOM      1  C   UNL d   1       5.781   4.633  -4.232  0.00  0.00     0.023 A 
ATOM      2  C1  UNL d   1       4.534   4.082  -4.526  0.00  0.00     0.003 A 
ATOM      3  C2  UNL d   1       3.502   4.145  -3.587  0.00  0.00     0.048 A 
ATOM      4  C3  UNL d   1       3.724   4.762  -2.356  0.00  0.00     0.023 A 
ATOM      5  C4  UNL d   1       4.971   5.315  -2.058  0.00  0.00     0.048 A 
ATOM      6  C5  UNL d   1       5.999   5.249  -2.999  0.00  0.00     0.003 A 
ATOM      7  I   UNL d   1       2.191   4.857  -0.957  0.00  0.00    -0.146 I 
ENDROOT
TORSDOF 0
ENDMDL
