MODEL 1
REMARK minimizedAffinity 10.5708227
REMARK minimizedRMSD -1
REMARK  0 active torsions:
REMARK  status: ('A' for Active; 'I' for Inactive)
ROOT
ATOM      1  C   UNL d   1       3.893   4.408  -5.018  0.00  0.00     0.023 A 
ATOM      2  C1  UNL d   1       4.988   3.730  -4.482  0.00  0.00     0.003 A 
ATOM      3  C2  UNL d   1       5.585   4.185  -3.305  0.00  0.00     0.048 A 
ATOM      4  C3  UNL d   1       5.081   5.319  -2.668  0.00  0.00     0.023 A 
ATOM      5  C4  UNL d   1       3.985   6.000  -3.200  0.00  0.00     0.048 A 
ATOM      6  C5  UNL d   1       3.392   5.541  -4.378  0.00  0.00     0.003 A 
ATOM      7  I   UNL d   1       5.969   5.999  -0.916  0.00  0.00    -0.146 I 
ENDROOT
TORSDOF 0
ENDMDL
