MODEL 1
REMARK minimizedAffinity 4.41351557
REMARK minimizedRMSD -1
REMARK  0 active torsions:
REMARK  status: ('A' for Active; 'I' for Inactive)
ROOT
ATOM      1  C   UNL d   1      -0.144  -3.456  -3.981  0.00  0.00     0.023 A 
ATOM      2  C1  UNL d   1       0.018  -2.161  -3.487  0.00  0.00     0.003 A 
ATOM      3  C2  UNL d   1      -0.189  -1.899  -2.131  0.00  0.00     0.048 A 
ATOM      4  C3  UNL d   1      -0.557  -2.937  -1.275  0.00  0.00     0.023 A 
ATOM      5  C4  UNL d   1      -0.718  -4.234  -1.765  0.00  0.00     0.048 A 
ATOM      6  C5  UNL d   1      -0.511  -4.491  -3.121  0.00  0.00     0.003 A 
ATOM      7  I   UNL d   1      -0.865  -2.550   0.744  0.00  0.00    -0.146 I 
ENDROOT
TORSDOF 0
ENDMDL
