MODEL 1
REMARK minimizedAffinity 0.286375284
REMARK minimizedRMSD -1
REMARK  0 active torsions:
REMARK  status: ('A' for Active; 'I' for Inactive)
ROOT
ATOM      1  C   UNL d   1       2.981  -1.377   4.186  0.00  0.00     0.023 A 
ATOM      2  C1  UNL d   1       3.336  -2.483   3.414  0.00  0.00     0.003 A 
ATOM      3  C2  UNL d   1       4.202  -3.448   3.931  0.00  0.00     0.048 A 
ATOM      4  C3  UNL d   1       4.709  -3.302   5.222  0.00  0.00     0.023 A 
ATOM      5  C4  UNL d   1       4.356  -2.197   5.999  0.00  0.00     0.048 A 
ATOM      6  C5  UNL d   1       3.490  -1.235   5.477  0.00  0.00     0.003 A 
ATOM      7  I   UNL d   1       5.999  -4.737   5.994  0.00  0.00    -0.146 I 
ENDROOT
TORSDOF 0
ENDMDL
