MODEL 1
REMARK minimizedAffinity -0.545986652
REMARK minimizedRMSD -1
REMARK  0 active torsions:
REMARK  status: ('A' for Active; 'I' for Inactive)
ROOT
ATOM      1  C   UNL d   1       6.000   4.738  -4.970  0.00  0.00     0.023 A 
ATOM      2  C1  UNL d   1       5.027   3.739  -4.956  0.00  0.00     0.003 A 
ATOM      3  C2  UNL d   1       4.045   3.732  -3.963  0.00  0.00     0.048 A 
ATOM      4  C3  UNL d   1       4.041   4.729  -2.988  0.00  0.00     0.023 A 
ATOM      5  C4  UNL d   1       5.012   5.731  -2.998  0.00  0.00     0.048 A 
ATOM      6  C5  UNL d   1       5.993   5.733  -3.992  0.00  0.00     0.003 A 
ATOM      7  I   UNL d   1       2.581   4.721  -1.509  0.00  0.00    -0.146 I 
ENDROOT
TORSDOF 0
ENDMDL
