MODEL 1
REMARK minimizedAffinity 6.38443279
REMARK minimizedRMSD -1
REMARK  0 active torsions:
REMARK  status: ('A' for Active; 'I' for Inactive)
ROOT
ATOM      1  C   UNL d   1       0.766  -2.280  -3.335  0.00  0.00     0.023 A 
ATOM      2  C1  UNL d   1      -0.182  -3.297  -3.450  0.00  0.00     0.003 A 
ATOM      3  C2  UNL d   1      -1.150  -3.466  -2.457  0.00  0.00     0.048 A 
ATOM      4  C3  UNL d   1      -1.164  -2.614  -1.353  0.00  0.00     0.023 A 
ATOM      5  C4  UNL d   1      -0.217  -1.596  -1.234  0.00  0.00     0.048 A 
ATOM      6  C5  UNL d   1       0.749  -1.431  -2.229  0.00  0.00     0.003 A 
ATOM      7  I   UNL d   1      -2.603  -2.864   0.125  0.00  0.00    -0.146 I 
ENDROOT
TORSDOF 0
ENDMDL
