MODEL 1
REMARK minimizedAffinity 3.30263162
REMARK minimizedRMSD -1
REMARK  0 active torsions:
REMARK  status: ('A' for Active; 'I' for Inactive)
ROOT
ATOM      1  C   UNL d   1       2.452  -1.731   4.232  0.00  0.00     0.023 A 
ATOM      2  C1  UNL d   1       3.024  -1.449   5.473  0.00  0.00     0.003 A 
ATOM      3  C2  UNL d   1       4.034  -2.269   5.980  0.00  0.00     0.048 A 
ATOM      4  C3  UNL d   1       4.469  -3.369   5.241  0.00  0.00     0.023 A 
ATOM      5  C4  UNL d   1       3.900  -3.654   3.998  0.00  0.00     0.048 A 
ATOM      6  C5  UNL d   1       2.890  -2.833   3.496  0.00  0.00     0.003 A 
ATOM      7  I   UNL d   1       5.973  -4.590   5.994  0.00  0.00    -0.146 I 
ENDROOT
TORSDOF 0
ENDMDL
