MODEL 1
REMARK minimizedAffinity 10.060626
REMARK minimizedRMSD -1
REMARK  0 active torsions:
REMARK  status: ('A' for Active; 'I' for Inactive)
ROOT
ATOM      1  C   UNL d   1       3.834   4.661  -4.713  0.00  0.00     0.023 A 
ATOM      2  C1  UNL d   1       5.105   4.177  -4.403  0.00  0.00     0.003 A 
ATOM      3  C2  UNL d   1       5.728   4.558  -3.213  0.00  0.00     0.048 A 
ATOM      4  C3  UNL d   1       5.075   5.424  -2.337  0.00  0.00     0.023 A 
ATOM      5  C4  UNL d   1       3.803   5.911  -2.643  0.00  0.00     0.048 A 
ATOM      6  C5  UNL d   1       3.184   5.527  -3.834  0.00  0.00     0.003 A 
ATOM      7  I   UNL d   1       6.000   5.993  -0.566  0.00  0.00    -0.146 I 
ENDROOT
TORSDOF 0
ENDMDL
