MODEL 1
REMARK minimizedAffinity 1.49679494
REMARK minimizedRMSD -1
REMARK  0 active torsions:
REMARK  status: ('A' for Active; 'I' for Inactive)
ROOT
ATOM      1  C   UNL d   1       4.433   4.585  -5.288  0.00  0.00     0.023 A 
ATOM      2  C1  UNL d   1       5.548   3.970  -4.719  0.00  0.00     0.003 A 
ATOM      3  C2  UNL d   1       5.999   4.367  -3.459  0.00  0.00     0.048 A 
ATOM      4  C3  UNL d   1       5.330   5.380  -2.772  0.00  0.00     0.023 A 
ATOM      5  C4  UNL d   1       4.214   5.998  -3.337  0.00  0.00     0.048 A 
ATOM      6  C5  UNL d   1       3.767   5.598  -4.598  0.00  0.00     0.003 A 
ATOM      7  I   UNL d   1       6.000   5.972  -0.896  0.00  0.00    -0.146 I 
ENDROOT
TORSDOF 0
ENDMDL
