MODEL 1
REMARK minimizedAffinity 9.16424751
REMARK minimizedRMSD -1
REMARK  0 active torsions:
REMARK  status: ('A' for Active; 'I' for Inactive)
ROOT
ATOM      1  C   UNL d   1       0.538  -2.093  -4.271  0.00  0.00     0.023 A 
ATOM      2  C1  UNL d   1       1.427  -1.842  -3.225  0.00  0.00     0.003 A 
ATOM      3  C2  UNL d   1       1.028  -2.049  -1.903  0.00  0.00     0.048 A 
ATOM      4  C3  UNL d   1      -0.261  -2.508  -1.634  0.00  0.00     0.023 A 
ATOM      5  C4  UNL d   1      -1.154  -2.761  -2.677  0.00  0.00     0.048 A 
ATOM      6  C5  UNL d   1      -0.750  -2.552  -3.997  0.00  0.00     0.003 A 
ATOM      7  I   UNL d   1      -0.858  -2.818   0.333  0.00  0.00    -0.146 I 
ENDROOT
TORSDOF 0
ENDMDL
