MODEL 1
REMARK minimizedAffinity 1.96805882
REMARK minimizedRMSD -1
REMARK  0 active torsions:
REMARK  status: ('A' for Active; 'I' for Inactive)
ROOT
ATOM      1  C   UNL d   1       5.061   4.907  -4.851  0.00  0.00     0.023 A 
ATOM      2  C1  UNL d   1       4.674   5.990  -4.061  0.00  0.00     0.003 A 
ATOM      3  C2  UNL d   1       4.942   5.988  -2.691  0.00  0.00     0.048 A 
ATOM      4  C3  UNL d   1       5.598   4.900  -2.117  0.00  0.00     0.023 A 
ATOM      5  C4  UNL d   1       5.988   3.814  -2.903  0.00  0.00     0.048 A 
ATOM      6  C5  UNL d   1       5.717   3.821  -4.272  0.00  0.00     0.003 A 
ATOM      7  I   UNL d   1       5.998   4.894  -0.077  0.00  0.00    -0.146 I 
ENDROOT
TORSDOF 0
ENDMDL
