MODEL 1
REMARK minimizedAffinity 3.58734298
REMARK minimizedRMSD -1
REMARK  0 active torsions:
REMARK  status: ('A' for Active; 'I' for Inactive)
ROOT
ATOM      1  C   UNL d   1      -1.139  -2.355  -1.090  0.00  0.00     0.023 A 
ATOM      2  C1  UNL d   1      -1.039  -1.916  -2.411  0.00  0.00     0.003 A 
ATOM      3  C2  UNL d   1       0.207  -1.864  -3.038  0.00  0.00     0.048 A 
ATOM      4  C3  UNL d   1       1.349  -2.253  -2.339  0.00  0.00     0.023 A 
ATOM      5  C4  UNL d   1       1.254  -2.693  -1.018  0.00  0.00     0.048 A 
ATOM      6  C5  UNL d   1       0.006  -2.743  -0.395  0.00  0.00     0.003 A 
ATOM      7  I   UNL d   1       3.206  -2.176  -3.270  0.00  0.00    -0.146 I 
ENDROOT
TORSDOF 0
ENDMDL
