MODEL 1
REMARK minimizedAffinity -3.03624082
REMARK minimizedRMSD -1
REMARK  0 active torsions:
REMARK  status: ('A' for Active; 'I' for Inactive)
ROOT
ATOM      1  C   UNL d   1       4.026   5.476  -2.086  0.00  0.00     0.023 A 
ATOM      2  C1  UNL d   1       3.207   4.871  -3.040  0.00  0.00     0.003 A 
ATOM      3  C2  UNL d   1       3.772   4.265  -4.164  0.00  0.00     0.048 A 
ATOM      4  C3  UNL d   1       5.157   4.266  -4.327  0.00  0.00     0.023 A 
ATOM      5  C4  UNL d   1       5.980   4.870  -3.375  0.00  0.00     0.048 A 
ATOM      6  C5  UNL d   1       5.411   5.476  -2.254  0.00  0.00     0.003 A 
ATOM      7  I   UNL d   1       6.000   3.364  -5.999  0.00  0.00    -0.146 I 
ENDROOT
TORSDOF 0
ENDMDL
