MODEL 1
REMARK minimizedAffinity -0.139634565
REMARK minimizedRMSD -1
REMARK  0 active torsions:
REMARK  status: ('A' for Active; 'I' for Inactive)
ROOT
ATOM      1  C   UNL d   1       4.119   5.871  -2.736  0.00  0.00     0.023 A 
ATOM      2  C1  UNL d   1       5.459   5.493  -2.644  0.00  0.00     0.003 A 
ATOM      3  C2  UNL d   1       6.000   4.604  -3.575  0.00  0.00     0.048 A 
ATOM      4  C3  UNL d   1       5.196   4.098  -4.596  0.00  0.00     0.023 A 
ATOM      5  C4  UNL d   1       3.856   4.474  -4.692  0.00  0.00     0.048 A 
ATOM      6  C5  UNL d   1       3.319   5.362  -3.759  0.00  0.00     0.003 A 
ATOM      7  I   UNL d   1       6.000   2.775  -5.983  0.00  0.00    -0.146 I 
ENDROOT
TORSDOF 0
ENDMDL
