MODEL 1
REMARK minimizedAffinity -6.04898977
REMARK minimizedRMSD -1
REMARK  2 active torsions:
REMARK  status: ('A' for Active; 'I' for Inactive)
REMARK    1  A    between atoms: C1_2  and  C2_3 
REMARK    2  A    between atoms: C2_3  and  C3_4 
ROOT
ATOM      1  C3  UNL d   1      -0.532  -0.300   0.629  0.00  0.00    -0.075 A 
ATOM      2  C4  UNL d   1      -1.535   0.479   1.224  0.00  0.00     0.002 A 
ATOM      3  C5  UNL d   1      -2.700  -0.117   1.709  0.00  0.00     0.002 A 
ATOM      4  C6  UNL d   1      -2.881  -1.494   1.595  0.00  0.00    -0.004 A 
ATOM      5  C7  UNL d   1      -1.899  -2.275   0.991  0.00  0.00     0.002 A 
ATOM      6  C8  UNL d   1      -0.730  -1.682   0.509  0.00  0.00     0.002 A 
ENDROOT
BRANCH   1   7
ATOM      7  C2  UNL d   1       0.744   0.335   0.130  0.00  0.00     0.056 C 
BRANCH   7   8
ATOM      8  C1  UNL d   1       0.692   1.864   0.055  0.00  0.00     0.007 C 
ATOM      9  C   UNL d   1       1.387   2.429  -1.177  0.00  0.00     0.009 C 
ENDBRANCH   7   8
ENDBRANCH   1   7
TORSDOF 2
ENDMDL
