MODEL 1
REMARK minimizedAffinity -5.26844406
REMARK minimizedRMSD -1
REMARK  2 active torsions:
REMARK  status: ('A' for Active; 'I' for Inactive)
REMARK    1  A    between atoms: C1_2  and  C2_3 
REMARK    2  A    between atoms: C2_3  and  C3_4 
ROOT
ATOM      1  C3  UNL d   1      -1.794  -1.405   0.678  0.00  0.00    -0.075 A 
ATOM      2  C4  UNL d   1      -1.154  -2.113   1.705  0.00  0.00     0.002 A 
ATOM      3  C5  UNL d   1       0.235  -2.242   1.718  0.00  0.00     0.002 A 
ATOM      4  C6  UNL d   1       0.999  -1.676   0.701  0.00  0.00    -0.004 A 
ATOM      5  C7  UNL d   1       0.373  -0.985  -0.334  0.00  0.00     0.002 A 
ATOM      6  C8  UNL d   1      -1.016  -0.850  -0.347  0.00  0.00     0.002 A 
ENDROOT
BRANCH   1   7
ATOM      7  C2  UNL d   1      -3.295  -1.237   0.674  0.00  0.00     0.056 C 
BRANCH   7   8
ATOM      8  C1  UNL d   1      -3.764   0.179   1.024  0.00  0.00     0.007 C 
ATOM      9  C   UNL d   1      -2.639   1.081   1.514  0.00  0.00     0.009 C 
ENDBRANCH   7   8
ENDBRANCH   1   7
TORSDOF 2
ENDMDL
