MODEL 1
REMARK minimizedAffinity -5.18423223
REMARK minimizedRMSD -1
REMARK  2 active torsions:
REMARK  status: ('A' for Active; 'I' for Inactive)
REMARK    1  A    between atoms: C1_2  and  C2_3 
REMARK    2  A    between atoms: C2_3  and  C3_4 
ROOT
ATOM      1  C3  UNL d   1       0.292   0.162  -0.023  0.00  0.00    -0.075 A 
ATOM      2  C4  UNL d   1       1.038  -1.000   0.222  0.00  0.00     0.002 A 
ATOM      3  C5  UNL d   1       0.398  -2.223   0.427  0.00  0.00     0.002 A 
ATOM      4  C6  UNL d   1      -0.993  -2.297   0.399  0.00  0.00    -0.004 A 
ATOM      5  C7  UNL d   1      -1.744  -1.146   0.172  0.00  0.00     0.002 A 
ATOM      6  C8  UNL d   1      -1.106   0.078  -0.037  0.00  0.00     0.002 A 
ENDROOT
BRANCH   1   7
ATOM      7  C2  UNL d   1       0.980   1.482  -0.275  0.00  0.00     0.056 C 
BRANCH   7   8
ATOM      8  C1  UNL d   1       0.479   2.219  -1.521  0.00  0.00     0.007 C 
ATOM      9  C   UNL d   1       0.783   1.482  -2.818  0.00  0.00     0.009 C 
ENDBRANCH   7   8
ENDBRANCH   1   7
TORSDOF 2
ENDMDL
