MODEL 1
REMARK minimizedAffinity -3.91982937
REMARK minimizedRMSD -1
REMARK  2 active torsions:
REMARK  status: ('A' for Active; 'I' for Inactive)
REMARK    1  A    between atoms: C1_2  and  C2_3 
REMARK    2  A    between atoms: C2_3  and  C3_4 
ROOT
ATOM      1  C3  UNL d   1       0.670   0.427  -0.385  0.00  0.00    -0.075 A 
ATOM      2  C4  UNL d   1       1.120  -0.821   0.068  0.00  0.00     0.002 A 
ATOM      3  C5  UNL d   1       0.227  -1.734   0.632  0.00  0.00     0.002 A 
ATOM      4  C6  UNL d   1      -1.121  -1.407   0.758  0.00  0.00    -0.004 A 
ATOM      5  C7  UNL d   1      -1.576  -0.163   0.326  0.00  0.00     0.002 A 
ATOM      6  C8  UNL d   1      -0.686   0.750  -0.242  0.00  0.00     0.002 A 
ENDROOT
BRANCH   1   7
ATOM      7  C2  UNL d   1       1.626   1.407  -1.023  0.00  0.00     0.056 C 
BRANCH   7   8
ATOM      8  C1  UNL d   1       1.335   1.690  -2.500  0.00  0.00     0.007 C 
ATOM      9  C   UNL d   1       2.484   1.306  -3.423  0.00  0.00     0.009 C 
ENDBRANCH   7   8
ENDBRANCH   1   7
TORSDOF 2
ENDMDL
