MODEL 1
REMARK minimizedAffinity -5.53267384
REMARK minimizedRMSD -1
REMARK  2 active torsions:
REMARK  status: ('A' for Active; 'I' for Inactive)
REMARK    1  A    between atoms: C1_2  and  C2_3 
REMARK    2  A    between atoms: C2_3  and  C3_4 
ROOT
ATOM      1  C3  UNL d   1       0.092   0.133   0.292  0.00  0.00    -0.075 A 
ATOM      2  C4  UNL d   1       0.990  -0.921   0.513  0.00  0.00     0.002 A 
ATOM      3  C5  UNL d   1       0.531  -2.161   0.959  0.00  0.00     0.002 A 
ATOM      4  C6  UNL d   1      -0.827  -2.360   1.198  0.00  0.00    -0.004 A 
ATOM      5  C7  UNL d   1      -1.726  -1.315   0.998  0.00  0.00     0.002 A 
ATOM      6  C8  UNL d   1      -1.270  -0.074   0.548  0.00  0.00     0.002 A 
ENDROOT
BRANCH   1   7
ATOM      7  C2  UNL d   1       0.578   1.469  -0.218  0.00  0.00     0.056 C 
BRANCH   7   8
ATOM      8  C1  UNL d   1       1.353   1.388  -1.537  0.00  0.00     0.007 C 
ATOM      9  C   UNL d   1       1.153   2.608  -2.426  0.00  0.00     0.009 C 
ENDBRANCH   7   8
ENDBRANCH   1   7
TORSDOF 2
ENDMDL
