MODEL 1
REMARK minimizedAffinity -3.73032761
REMARK minimizedRMSD -1
REMARK  2 active torsions:
REMARK  status: ('A' for Active; 'I' for Inactive)
REMARK    1  A    between atoms: C1_2  and  C2_3 
REMARK    2  A    between atoms: C2_3  and  C3_4 
ROOT
ATOM      1  C3  UNL d   1       2.571   1.946  -3.140  0.00  0.00    -0.075 A 
ATOM      2  C4  UNL d   1       1.623   2.149  -4.153  0.00  0.00     0.002 A 
ATOM      3  C5  UNL d   1       0.265   2.235  -3.845  0.00  0.00     0.002 A 
ATOM      4  C6  UNL d   1      -0.163   2.109  -2.525  0.00  0.00    -0.004 A 
ATOM      5  C7  UNL d   1       0.769   1.891  -1.512  0.00  0.00     0.002 A 
ATOM      6  C8  UNL d   1       2.129   1.809  -1.817  0.00  0.00     0.002 A 
ENDROOT
BRANCH   1   7
ATOM      7  C2  UNL d   1       4.045   1.882  -3.463  0.00  0.00     0.056 C 
BRANCH   7   8
ATOM      8  C1  UNL d   1       4.955   1.890  -2.230  0.00  0.00     0.007 C 
ATOM      9  C   UNL d   1       6.000   2.997  -2.263  0.00  0.00     0.009 C 
ENDBRANCH   7   8
ENDBRANCH   1   7
TORSDOF 2
ENDMDL
