MODEL 1
REMARK minimizedAffinity -4.99315405
REMARK minimizedRMSD -1
REMARK  2 active torsions:
REMARK  status: ('A' for Active; 'I' for Inactive)
REMARK    1  A    between atoms: C1_2  and  C2_3 
REMARK    2  A    between atoms: C2_3  and  C3_4 
ROOT
ATOM      1  C3  UNL d   1       0.038  -0.023  -0.016  0.00  0.00    -0.075 A 
ATOM      2  C4  UNL d   1      -1.300  -0.352   0.246  0.00  0.00     0.002 A 
ATOM      3  C5  UNL d   1      -1.638  -1.621   0.717  0.00  0.00     0.002 A 
ATOM      4  C6  UNL d   1      -0.647  -2.578   0.921  0.00  0.00    -0.004 A 
ATOM      5  C7  UNL d   1       0.684  -2.267   0.649  0.00  0.00     0.002 A 
ATOM      6  C8  UNL d   1       1.025  -0.997   0.182  0.00  0.00     0.002 A 
ENDROOT
BRANCH   1   7
ATOM      7  C2  UNL d   1       0.413   1.359  -0.498  0.00  0.00     0.056 C 
BRANCH   7   8
ATOM      8  C1  UNL d   1       1.222   1.367  -1.799  0.00  0.00     0.007 C 
ATOM      9  C   UNL d   1       0.726   2.394  -2.808  0.00  0.00     0.009 C 
ENDBRANCH   7   8
ENDBRANCH   1   7
TORSDOF 2
ENDMDL
