MODEL 1
REMARK minimizedAffinity -4.47951126
REMARK minimizedRMSD -1
REMARK  2 active torsions:
REMARK  status: ('A' for Active; 'I' for Inactive)
REMARK    1  A    between atoms: C1_2  and  C2_3 
REMARK    2  A    between atoms: C2_3  and  C3_4 
ROOT
ATOM      1  C3  UNL d   1       0.070  -0.005   0.226  0.00  0.00    -0.075 A 
ATOM      2  C4  UNL d   1       0.402  -1.325   0.562  0.00  0.00     0.002 A 
ATOM      3  C5  UNL d   1      -0.556  -2.178   1.113  0.00  0.00     0.002 A 
ATOM      4  C6  UNL d   1      -1.851  -1.720   1.344  0.00  0.00    -0.004 A 
ATOM      5  C7  UNL d   1      -2.187  -0.405   1.029  0.00  0.00     0.002 A 
ATOM      6  C8  UNL d   1      -1.232   0.449   0.474  0.00  0.00     0.002 A 
ENDROOT
BRANCH   1   7
ATOM      7  C2  UNL d   1       1.093   0.914  -0.398  0.00  0.00     0.056 C 
BRANCH   7   8
ATOM      8  C1  UNL d   1       0.605   1.621  -1.667  0.00  0.00     0.007 C 
ATOM      9  C   UNL d   1       1.738   2.038  -2.595  0.00  0.00     0.009 C 
ENDBRANCH   7   8
ENDBRANCH   1   7
TORSDOF 2
ENDMDL
