MODEL 1
REMARK minimizedAffinity -2.78292751
REMARK minimizedRMSD -1
REMARK  2 active torsions:
REMARK  status: ('A' for Active; 'I' for Inactive)
REMARK    1  A    between atoms: C1_2  and  C2_3 
REMARK    2  A    between atoms: C2_3  and  C3_4 
ROOT
ATOM      1  C3  UNL d   1       0.683   1.216  -1.924  0.00  0.00    -0.075 A 
ATOM      2  C4  UNL d   1       0.813   1.446  -0.547  0.00  0.00     0.002 A 
ATOM      3  C5  UNL d   1       0.668   0.398   0.363  0.00  0.00     0.002 A 
ATOM      4  C6  UNL d   1       0.381  -0.888  -0.091  0.00  0.00    -0.004 A 
ATOM      5  C7  UNL d   1       0.234  -1.124  -1.456  0.00  0.00     0.002 A 
ATOM      6  C8  UNL d   1       0.383  -0.079  -2.368  0.00  0.00     0.002 A 
ENDROOT
BRANCH   1   7
ATOM      7  C2  UNL d   1       0.869   2.340  -2.916  0.00  0.00     0.056 C 
BRANCH   7   8
ATOM      8  C1  UNL d   1       2.076   2.161  -3.842  0.00  0.00     0.007 C 
ATOM      9  C   UNL d   1       3.406   2.148  -3.099  0.00  0.00     0.009 C 
ENDBRANCH   7   8
ENDBRANCH   1   7
TORSDOF 2
ENDMDL
