MODEL 1
REMARK minimizedAffinity -3.87206221
REMARK minimizedRMSD -1
REMARK  2 active torsions:
REMARK  status: ('A' for Active; 'I' for Inactive)
REMARK    1  A    between atoms: C1_2  and  C2_3 
REMARK    2  A    between atoms: C2_3  and  C3_4 
ROOT
ATOM      1  C3  UNL d   1       0.414   0.031  -0.058  0.00  0.00    -0.075 A 
ATOM      2  C4  UNL d   1      -0.680   0.483   0.693  0.00  0.00     0.002 A 
ATOM      3  C5  UNL d   1      -1.381  -0.393   1.522  0.00  0.00     0.002 A 
ATOM      4  C6  UNL d   1      -1.004  -1.731   1.603  0.00  0.00    -0.004 A 
ATOM      5  C7  UNL d   1       0.071  -2.196   0.848  0.00  0.00     0.002 A 
ATOM      6  C8  UNL d   1       0.777  -1.320   0.021  0.00  0.00     0.002 A 
ENDROOT
BRANCH   1   7
ATOM      7  C2  UNL d   1       1.195   0.980  -0.935  0.00  0.00     0.056 C 
BRANCH   7   8
ATOM      8  C1  UNL d   1       0.612   1.153  -2.342  0.00  0.00     0.007 C 
ATOM      9  C   UNL d   1       1.609   1.732  -3.338  0.00  0.00     0.009 C 
ENDBRANCH   7   8
ENDBRANCH   1   7
TORSDOF 2
ENDMDL
