MODEL 1
REMARK minimizedAffinity -5.34756804
REMARK minimizedRMSD -1
REMARK  2 active torsions:
REMARK  status: ('A' for Active; 'I' for Inactive)
REMARK    1  A    between atoms: C1_2  and  C2_3 
REMARK    2  A    between atoms: C2_3  and  C3_4 
ROOT
ATOM      1  C3  UNL d   1      -0.100  -0.091  -0.093  0.00  0.00    -0.075 A 
ATOM      2  C4  UNL d   1      -1.500  -0.002  -0.064  0.00  0.00     0.002 A 
ATOM      3  C5  UNL d   1      -2.273  -1.110   0.286  0.00  0.00     0.002 A 
ATOM      4  C6  UNL d   1      -1.659  -2.320   0.601  0.00  0.00    -0.004 A 
ATOM      5  C7  UNL d   1      -0.270  -2.424   0.559  0.00  0.00     0.002 A 
ATOM      6  C8  UNL d   1       0.506  -1.316   0.214  0.00  0.00     0.002 A 
ENDROOT
BRANCH   1   7
ATOM      7  C2  UNL d   1       0.743   1.112  -0.442  0.00  0.00     0.056 C 
BRANCH   7   8
ATOM      8  C1  UNL d   1       0.611   1.565  -1.900  0.00  0.00     0.007 C 
ATOM      9  C   UNL d   1       1.862   2.252  -2.431  0.00  0.00     0.009 C 
ENDBRANCH   7   8
ENDBRANCH   1   7
TORSDOF 2
ENDMDL
