MODEL 1
REMARK minimizedAffinity -4.80212831
REMARK minimizedRMSD -1
REMARK  3 active torsions:
REMARK  status: ('A' for Active; 'I' for Inactive)
REMARK    1  A    between atoms: C3'_2  and  C2'_3 
REMARK    2  A    between atoms: C2'_3  and  C1'_4 
REMARK    3  A    between atoms: C1'_4  and  C1_5 
ROOT
ATOM      1  C1  N4B d   1       0.170   0.506  -0.433  0.00  0.00    -0.075 A 
ATOM      2  C2  N4B d   1      -0.680   1.577  -0.788  0.00  0.00     0.002 A 
ATOM      3  C3  N4B d   1      -1.694   1.958   0.055  0.00  0.00     0.002 A 
ATOM      4  C4  N4B d   1      -1.889   1.275   1.246  0.00  0.00    -0.004 A 
ATOM      5  C5  N4B d   1      -1.048   0.258   1.594  0.00  0.00     0.002 A 
ATOM      6  C6  N4B d   1      -0.023  -0.134   0.758  0.00  0.00     0.002 A 
ENDROOT
BRANCH   1   7
ATOM      7  C1' N4B d   1       1.238  -0.003  -1.362  0.00  0.00     0.057 C 
BRANCH   7   8
ATOM      8  C2' N4B d   1       1.355  -1.516  -1.209  0.00  0.00     0.009 C 
BRANCH   8   9
ATOM      9  C3' N4B d   1       0.865  -2.252  -2.444  0.00  0.00     0.004 C 
ATOM     10  C4' N4B d   1       0.648  -3.716  -2.200  0.00  0.00     0.003 C 
ENDBRANCH   8   9
ENDBRANCH   7   8
ENDBRANCH   1   7
TORSDOF 3
ENDMDL
