MODEL 1
REMARK minimizedAffinity -5.92350101
REMARK minimizedRMSD -1
REMARK  3 active torsions:
REMARK  status: ('A' for Active; 'I' for Inactive)
REMARK    1  A    between atoms: C3'_2  and  C2'_3 
REMARK    2  A    between atoms: C2'_3  and  C1'_4 
REMARK    3  A    between atoms: C1'_4  and  C1_5 
ROOT
ATOM      1  C1  N4B d   1      -0.294   0.053   0.583  0.00  0.00    -0.075 A 
ATOM      2  C2  N4B d   1      -0.964   1.014  -0.204  0.00  0.00     0.002 A 
ATOM      3  C3  N4B d   1      -1.606   2.068   0.398  0.00  0.00     0.002 A 
ATOM      4  C4  N4B d   1      -1.607   2.171   1.781  0.00  0.00    -0.004 A 
ATOM      5  C5  N4B d   1      -0.935   1.253   2.533  0.00  0.00     0.002 A 
ATOM      6  C6  N4B d   1      -0.282   0.190   1.941  0.00  0.00     0.002 A 
ENDROOT
BRANCH   1   7
ATOM      7  C1' N4B d   1       0.349  -1.164  -0.025  0.00  0.00     0.057 C 
BRANCH   7   8
ATOM      8  C2' N4B d   1       0.350  -1.023  -1.544  0.00  0.00     0.009 C 
BRANCH   8   9
ATOM      9  C3' N4B d   1      -0.202  -2.261  -2.230  0.00  0.00     0.004 C 
ATOM     10  C4' N4B d   1       0.596  -3.495  -1.930  0.00  0.00     0.003 C 
ENDBRANCH   8   9
ENDBRANCH   7   8
ENDBRANCH   1   7
TORSDOF 3
ENDMDL
