MODEL 1
REMARK minimizedAffinity -6.03704691
REMARK minimizedRMSD -1
REMARK  3 active torsions:
REMARK  status: ('A' for Active; 'I' for Inactive)
REMARK    1  A    between atoms: C3'_2  and  C2'_3 
REMARK    2  A    between atoms: C2'_3  and  C1'_4 
REMARK    3  A    between atoms: C1'_4  and  C1_5 
ROOT
ATOM      1  C1  N4B d   1       0.155   0.187   0.075  0.00  0.00    -0.075 A 
ATOM      2  C2  N4B d   1      -0.003  -0.572   1.255  0.00  0.00     0.002 A 
ATOM      3  C3  N4B d   1      -0.920  -0.186   2.201  0.00  0.00     0.002 A 
ATOM      4  C4  N4B d   1      -1.673   0.961   2.000  0.00  0.00    -0.004 A 
ATOM      5  C5  N4B d   1      -1.532   1.674   0.845  0.00  0.00     0.002 A 
ATOM      6  C6  N4B d   1      -0.617   1.296  -0.117  0.00  0.00     0.002 A 
ENDROOT
BRANCH   1   7
ATOM      7  C1' N4B d   1       1.205  -0.147  -0.950  0.00  0.00     0.057 C 
BRANCH   7   8
ATOM      8  C2' N4B d   1       1.137  -1.638  -1.268  0.00  0.00     0.009 C 
BRANCH   8   9
ATOM      9  C3' N4B d   1       0.066  -1.951  -2.298  0.00  0.00     0.004 C 
ATOM     10  C4' N4B d   1       0.302  -3.252  -3.005  0.00  0.00     0.003 C 
ENDBRANCH   8   9
ENDBRANCH   7   8
ENDBRANCH   1   7
TORSDOF 3
ENDMDL
