MODEL 1
REMARK minimizedAffinity -4.75414419
REMARK minimizedRMSD -1
REMARK  3 active torsions:
REMARK  status: ('A' for Active; 'I' for Inactive)
REMARK    1  A    between atoms: C3'_2  and  C2'_3 
REMARK    2  A    between atoms: C2'_3  and  C1'_4 
REMARK    3  A    between atoms: C1'_4  and  C1_5 
ROOT
ATOM      1  C1  N4B d   1       0.155  -0.164  -0.114  0.00  0.00    -0.075 A 
ATOM      2  C2  N4B d   1      -0.214  -0.874   1.050  0.00  0.00     0.002 A 
ATOM      3  C3  N4B d   1      -1.194  -0.378   1.874  0.00  0.00     0.002 A 
ATOM      4  C4  N4B d   1      -1.803   0.829   1.567  0.00  0.00    -0.004 A 
ATOM      5  C5  N4B d   1      -1.458   1.496   0.428  0.00  0.00     0.002 A 
ATOM      6  C6  N4B d   1      -0.478   1.008  -0.412  0.00  0.00     0.002 A 
ENDROOT
BRANCH   1   7
ATOM      7  C1' N4B d   1       1.280  -0.623  -1.001  0.00  0.00     0.057 C 
BRANCH   7   8
ATOM      8  C2' N4B d   1       1.219  -2.141  -1.142  0.00  0.00     0.009 C 
BRANCH   8   9
ATOM      9  C3' N4B d   1       0.577  -2.565  -2.451  0.00  0.00     0.004 C 
ATOM     10  C4' N4B d   1      -0.437  -3.656  -2.275  0.00  0.00     0.003 C 
ENDBRANCH   8   9
ENDBRANCH   7   8
ENDBRANCH   1   7
TORSDOF 3
ENDMDL
