MODEL 1
REMARK minimizedAffinity -4.826437
REMARK minimizedRMSD -1
REMARK  3 active torsions:
REMARK  status: ('A' for Active; 'I' for Inactive)
REMARK    1  A    between atoms: C3'_2  and  C2'_3 
REMARK    2  A    between atoms: C2'_3  and  C1'_4 
REMARK    3  A    between atoms: C1'_4  and  C1_5 
ROOT
ATOM      1  C1  N4B d   1      -0.408   0.564   0.361  0.00  0.00    -0.075 A 
ATOM      2  C2  N4B d   1      -1.308   0.693   1.442  0.00  0.00     0.002 A 
ATOM      3  C3  N4B d   1      -1.898   1.906   1.702  0.00  0.00     0.002 A 
ATOM      4  C4  N4B d   1      -1.591   3.002   0.910  0.00  0.00    -0.004 A 
ATOM      5  C5  N4B d   1      -0.740   2.863  -0.147  0.00  0.00     0.002 A 
ATOM      6  C6  N4B d   1      -0.142   1.649  -0.422  0.00  0.00     0.002 A 
ENDROOT
BRANCH   1   7
ATOM      7  C1' N4B d   1       0.328  -0.720   0.091  0.00  0.00     0.057 C 
BRANCH   7   8
ATOM      8  C2' N4B d   1       1.377  -0.478  -0.991  0.00  0.00     0.009 C 
BRANCH   8   9
ATOM      9  C3' N4B d   1       1.234  -1.451  -2.149  0.00  0.00     0.004 C 
ATOM     10  C4' N4B d   1       1.466  -2.875  -1.742  0.00  0.00     0.003 C 
ENDBRANCH   8   9
ENDBRANCH   7   8
ENDBRANCH   1   7
TORSDOF 3
ENDMDL
