MODEL 1
REMARK minimizedAffinity -6.13977242
REMARK minimizedRMSD -1
REMARK  3 active torsions:
REMARK  status: ('A' for Active; 'I' for Inactive)
REMARK    1  A    between atoms: C3'_2  and  C2'_3 
REMARK    2  A    between atoms: C2'_3  and  C1'_4 
REMARK    3  A    between atoms: C1'_4  and  C1_5 
ROOT
ATOM      1  C1  N4B d   1       0.052   1.552  -0.542  0.00  0.00    -0.075 A 
ATOM      2  C2  N4B d   1      -0.316   0.929   0.671  0.00  0.00     0.002 A 
ATOM      3  C3  N4B d   1      -1.101   1.599   1.577  0.00  0.00     0.002 A 
ATOM      4  C4  N4B d   1      -1.513   2.894   1.302  0.00  0.00    -0.004 A 
ATOM      5  C5  N4B d   1      -1.175   3.480   0.117  0.00  0.00     0.002 A 
ATOM      6  C6  N4B d   1      -0.390   2.817  -0.805  0.00  0.00     0.002 A 
ENDROOT
BRANCH   1   7
ATOM      7  C1' N4B d   1       0.979   0.892  -1.525  0.00  0.00     0.057 C 
BRANCH   7   8
ATOM      8  C2' N4B d   1       0.753  -0.617  -1.491  0.00  0.00     0.009 C 
BRANCH   8   9
ATOM      9  C3' N4B d   1       0.036  -1.112  -2.735  0.00  0.00     0.004 C 
ATOM     10  C4' N4B d   1       0.335  -2.549  -3.044  0.00  0.00     0.003 C 
ENDBRANCH   8   9
ENDBRANCH   7   8
ENDBRANCH   1   7
TORSDOF 3
ENDMDL
