MODEL 1
REMARK minimizedAffinity -3.4714427
REMARK minimizedRMSD -1
REMARK  3 active torsions:
REMARK  status: ('A' for Active; 'I' for Inactive)
REMARK    1  A    between atoms: C3'_2  and  C2'_3 
REMARK    2  A    between atoms: C2'_3  and  C1'_4 
REMARK    3  A    between atoms: C1'_4  and  C1_5 
ROOT
ATOM      1  C1  N4B d   1      -0.978   1.135  -0.147  0.00  0.00    -0.075 A 
ATOM      2  C2  N4B d   1      -0.284   2.033  -0.987  0.00  0.00     0.002 A 
ATOM      3  C3  N4B d   1       0.951   1.694  -1.483  0.00  0.00     0.002 A 
ATOM      4  C4  N4B d   1       1.518   0.476  -1.139  0.00  0.00    -0.004 A 
ATOM      5  C5  N4B d   1       0.830  -0.397  -0.347  0.00  0.00     0.002 A 
ATOM      6  C6  N4B d   1      -0.414  -0.071   0.155  0.00  0.00     0.002 A 
ENDROOT
BRANCH   1   7
ATOM      7  C1' N4B d   1      -2.292   1.497   0.489  0.00  0.00     0.057 C 
BRANCH   7   8
ATOM      8  C2' N4B d   1      -2.041   2.466   1.641  0.00  0.00     0.009 C 
BRANCH   8   9
ATOM      9  C3' N4B d   1      -1.006   1.933   2.616  0.00  0.00     0.004 C 
ATOM     10  C4' N4B d   1       0.006   2.967   3.011  0.00  0.00     0.003 C 
ENDBRANCH   8   9
ENDBRANCH   7   8
ENDBRANCH   1   7
TORSDOF 3
ENDMDL
