MODEL 1
REMARK minimizedAffinity 9.47134972
REMARK minimizedRMSD -1
REMARK  0 active torsions:
REMARK  status: ('A' for Active; 'I' for Inactive)
ROOT
ATOM      1  C2' OXE d   1      -6.000   3.452  -3.902  0.00  0.00     0.078 C 
ATOM      2  C1' OXE d   1      -5.778   5.765  -2.328  0.00  0.00     0.078 C 
ATOM      3  C1  OXE d   1      -5.836   4.435  -1.619  0.00  0.00    -0.078 A 
ATOM      4  C2  OXE d   1      -5.992   3.312  -2.395  0.00  0.00    -0.078 A 
ATOM      5  C3  OXE d   1      -5.996   2.055  -1.796  0.00  0.00     0.003 A 
ATOM      6  C4  OXE d   1      -5.998   1.935  -0.401  0.00  0.00    -0.002 A 
ATOM      7  C5  OXE d   1      -5.881   3.070   0.410  0.00  0.00    -0.002 A 
ATOM      8  C6  OXE d   1      -5.756   4.321  -0.184  0.00  0.00     0.003 A 
ENDROOT
TORSDOF 0
ENDMDL
