MODEL 1
REMARK minimizedAffinity 6.13003254
REMARK minimizedRMSD -1
REMARK  0 active torsions:
REMARK  status: ('A' for Active; 'I' for Inactive)
ROOT
ATOM      1  C2' OXE d   1      -3.836  -0.305  -1.153  0.00  0.00     0.078 C 
ATOM      2  C1' OXE d   1      -2.632  -2.419   0.248  0.00  0.00     0.078 C 
ATOM      3  C1  OXE d   1      -2.074  -1.032   0.450  0.00  0.00    -0.078 A 
ATOM      4  C2  OXE d   1      -2.639  -0.011  -0.276  0.00  0.00    -0.078 A 
ATOM      5  C3  OXE d   1      -2.198   1.295  -0.086  0.00  0.00     0.003 A 
ATOM      6  C4  OXE d   1      -1.083   1.557   0.720  0.00  0.00    -0.002 A 
ATOM      7  C5  OXE d   1      -0.468   0.526   1.437  0.00  0.00    -0.002 A 
ATOM      8  C6  OXE d   1      -0.976  -0.765   1.346  0.00  0.00     0.003 A 
ENDROOT
TORSDOF 0
ENDMDL
