MODEL 1
REMARK minimizedAffinity 2.41543746
REMARK minimizedRMSD -1
REMARK  0 active torsions:
REMARK  status: ('A' for Active; 'I' for Inactive)
ROOT
ATOM      1  C2' OXE d   1       1.439  -0.410   2.267  0.00  0.00     0.078 C 
ATOM      2  C1' OXE d   1      -1.002   0.762   1.527  0.00  0.00     0.078 C 
ATOM      3  C1  OXE d   1      -0.852  -0.728   1.342  0.00  0.00    -0.078 A 
ATOM      4  C2  OXE d   1       0.362  -1.286   1.663  0.00  0.00    -0.078 A 
ATOM      5  C3  OXE d   1       0.536  -2.663   1.564  0.00  0.00     0.003 A 
ATOM      6  C4  OXE d   1      -0.462  -3.464   0.995  0.00  0.00    -0.002 A 
ATOM      7  C5  OXE d   1      -1.692  -2.910   0.625  0.00  0.00    -0.002 A 
ATOM      8  C6  OXE d   1      -1.918  -1.554   0.831  0.00  0.00     0.003 A 
ENDROOT
TORSDOF 0
ENDMDL
