MODEL 1
REMARK minimizedAffinity 2.96942472
REMARK minimizedRMSD -1
REMARK  0 active torsions:
REMARK  status: ('A' for Active; 'I' for Inactive)
ROOT
ATOM      1  C2' OXE d   1       0.246   0.217   1.975  0.00  0.00     0.078 C 
ATOM      2  C1' OXE d   1       1.100  -2.247   0.938  0.00  0.00     0.078 C 
ATOM      3  C1  OXE d   1      -0.284  -1.772   0.572  0.00  0.00    -0.078 A 
ATOM      4  C2  OXE d   1      -0.711  -0.587   1.122  0.00  0.00    -0.078 A 
ATOM      5  C3  OXE d   1      -1.958  -0.075   0.774  0.00  0.00     0.003 A 
ATOM      6  C4  OXE d   1      -2.841  -0.830  -0.008  0.00  0.00    -0.002 A 
ATOM      7  C5  OXE d   1      -2.440  -2.058  -0.546  0.00  0.00    -0.002 A 
ATOM      8  C6  OXE d   1      -1.153  -2.522  -0.301  0.00  0.00     0.003 A 
ENDROOT
TORSDOF 0
ENDMDL
