MODEL 1
REMARK minimizedAffinity 9.15625858
REMARK minimizedRMSD -1
REMARK  0 active torsions:
REMARK  status: ('A' for Active; 'I' for Inactive)
ROOT
ATOM      1  C2' OXE d   1      -5.987   5.510  -4.261  0.00  0.00     0.078 C 
ATOM      2  C1' OXE d   1      -4.753   3.040  -3.752  0.00  0.00     0.078 C 
ATOM      3  C1  OXE d   1      -5.064   3.928  -2.573  0.00  0.00    -0.078 A 
ATOM      4  C2  OXE d   1      -5.625   5.154  -2.835  0.00  0.00    -0.078 A 
ATOM      5  C3  OXE d   1      -5.982   5.989  -1.780  0.00  0.00     0.003 A 
ATOM      6  C4  OXE d   1      -5.634   5.657  -0.465  0.00  0.00    -0.002 A 
ATOM      7  C5  OXE d   1      -5.026   4.430  -0.180  0.00  0.00    -0.002 A 
ATOM      8  C6  OXE d   1      -4.773   3.538  -1.215  0.00  0.00     0.003 A 
ENDROOT
TORSDOF 0
ENDMDL
