MODEL 1
REMARK minimizedAffinity 4.39914513
REMARK minimizedRMSD -1
REMARK  0 active torsions:
REMARK  status: ('A' for Active; 'I' for Inactive)
ROOT
ATOM      1  C2' OXE d   1      -1.489  -2.373   0.813  0.00  0.00     0.078 C 
ATOM      2  C1' OXE d   1       1.125  -1.449   1.249  0.00  0.00     0.078 C 
ATOM      3  C1  OXE d   1       0.069  -0.431   0.899  0.00  0.00    -0.078 A 
ATOM      4  C2  OXE d   1      -1.198  -0.898   0.641  0.00  0.00    -0.078 A 
ATOM      5  C3  OXE d   1      -2.222   0.004   0.367  0.00  0.00     0.003 A 
ATOM      6  C4  OXE d   1      -1.942   1.366   0.201  0.00  0.00    -0.002 A 
ATOM      7  C5  OXE d   1      -0.650   1.857   0.420  0.00  0.00    -0.002 A 
ATOM      8  C6  OXE d   1       0.355   0.979   0.811  0.00  0.00     0.003 A 
ENDROOT
TORSDOF 0
ENDMDL
