MODEL 1
REMARK minimizedAffinity -1.10230541
REMARK minimizedRMSD -1
REMARK  0 active torsions:
REMARK  status: ('A' for Active; 'I' for Inactive)
ROOT
ATOM      1  C2' OXE d   1       5.999   2.164  -3.727  0.00  0.00     0.078 C 
ATOM      2  C1' OXE d   1       5.987   4.646  -5.039  0.00  0.00     0.078 C 
ATOM      3  C1  OXE d   1       5.983   4.648  -3.531  0.00  0.00    -0.078 A 
ATOM      4  C2  OXE d   1       5.942   3.429  -2.897  0.00  0.00    -0.078 A 
ATOM      5  C3  OXE d   1       5.992   3.372  -1.507  0.00  0.00     0.003 A 
ATOM      6  C4  OXE d   1       5.929   4.546  -0.747  0.00  0.00    -0.002 A 
ATOM      7  C5  OXE d   1       5.930   5.798  -1.373  0.00  0.00    -0.002 A 
ATOM      8  C6  OXE d   1       6.000   5.866  -2.760  0.00  0.00     0.003 A 
ENDROOT
TORSDOF 0
ENDMDL
