MODEL 1
REMARK minimizedAffinity 2.83037901
REMARK minimizedRMSD -1
REMARK  0 active torsions:
REMARK  status: ('A' for Active; 'I' for Inactive)
ROOT
ATOM      1  C2' OXE d   1       6.000   4.933  -0.918  0.00  0.00     0.078 C 
ATOM      2  C1' OXE d   1       3.484   3.743  -0.555  0.00  0.00     0.078 C 
ATOM      3  C1  OXE d   1       4.127   3.628  -1.914  0.00  0.00    -0.078 A 
ATOM      4  C2  OXE d   1       5.337   4.253  -2.096  0.00  0.00    -0.078 A 
ATOM      5  C3  OXE d   1       6.000   4.132  -3.314  0.00  0.00     0.003 A 
ATOM      6  C4  OXE d   1       5.376   3.509  -4.402  0.00  0.00    -0.002 A 
ATOM      7  C5  OXE d   1       4.126   2.900  -4.250  0.00  0.00    -0.002 A 
ATOM      8  C6  OXE d   1       3.508   2.913  -3.004  0.00  0.00     0.003 A 
ENDROOT
TORSDOF 0
ENDMDL
