MODEL 1
REMARK minimizedAffinity 3.78540015
REMARK minimizedRMSD -1
REMARK  0 active torsions:
REMARK  status: ('A' for Active; 'I' for Inactive)
ROOT
ATOM      1  C2' OXE d   1      -0.033  -2.255   0.397  0.00  0.00     0.078 C 
ATOM      2  C1' OXE d   1       1.485  -2.542   2.741  0.00  0.00     0.078 C 
ATOM      3  C1  OXE d   1       1.338  -1.156   2.164  0.00  0.00    -0.078 A 
ATOM      4  C2  OXE d   1       0.633  -1.032   0.991  0.00  0.00    -0.078 A 
ATOM      5  C3  OXE d   1       0.421   0.231   0.445  0.00  0.00     0.003 A 
ATOM      6  C4  OXE d   1       1.048   1.355   0.995  0.00  0.00    -0.002 A 
ATOM      7  C5  OXE d   1       1.803   1.245   2.167  0.00  0.00    -0.002 A 
ATOM      8  C6  OXE d   1       1.923   0.005   2.786  0.00  0.00     0.003 A 
ENDROOT
TORSDOF 0
ENDMDL
