MODEL 1
REMARK minimizedAffinity 4.6819191
REMARK minimizedRMSD -1
REMARK  3 active torsions:
REMARK  status: ('A' for Active; 'I' for Inactive)
REMARK    1  A    between atoms: C3'_2  and  C2'_3 
REMARK    2  A    between atoms: C2'_3  and  C1'_4 
REMARK    3  A    between atoms: C1'_4  and  C1_5 
ROOT
ATOM      1  C1  N4B d   1       0.550  -0.904   0.954  0.00  0.00    -0.075 A 
ATOM      2  C2  N4B d   1       1.853  -0.885   0.409  0.00  0.00     0.002 A 
ATOM      3  C3  N4B d   1       2.943  -0.797   1.238  0.00  0.00     0.002 A 
ATOM      4  C4  N4B d   1       2.756  -0.708   2.610  0.00  0.00    -0.004 A 
ATOM      5  C5  N4B d   1       1.496  -0.753   3.130  0.00  0.00     0.002 A 
ATOM      6  C6  N4B d   1       0.391  -0.846   2.309  0.00  0.00     0.002 A 
ENDROOT
BRANCH   1   7
ATOM      7  C1' N4B d   1      -0.676  -0.913   0.083  0.00  0.00     0.057 C 
BRANCH   7   8
ATOM      8  C2' N4B d   1      -1.693   0.079   0.639  0.00  0.00     0.009 C 
BRANCH   8   9
ATOM      9  C3' N4B d   1      -2.809   0.364  -0.351  0.00  0.00     0.004 C 
ATOM     10  C4' N4B d   1      -3.401   1.732  -0.181  0.00  0.00     0.003 C 
ENDBRANCH   8   9
ENDBRANCH   7   8
ENDBRANCH   1   7
TORSDOF 3
ENDMDL
