MODEL 1
REMARK minimizedAffinity -2.09878278
REMARK minimizedRMSD -1
REMARK  3 active torsions:
REMARK  status: ('A' for Active; 'I' for Inactive)
REMARK    1  A    between atoms: C3'_2  and  C2'_3 
REMARK    2  A    between atoms: C2'_3  and  C1'_4 
REMARK    3  A    between atoms: C1'_4  and  C1_5 
ROOT
ATOM      1  C1  N4B d   1       4.546   4.764  -0.726  0.00  0.00    -0.075 A 
ATOM      2  C2  N4B d   1       5.762   5.430  -0.455  0.00  0.00     0.002 A 
ATOM      3  C3  N4B d   1       5.972   5.999   0.777  0.00  0.00     0.002 A 
ATOM      4  C4  N4B d   1       4.979   5.932   1.742  0.00  0.00    -0.004 A 
ATOM      5  C5  N4B d   1       3.818   5.265   1.481  0.00  0.00     0.002 A 
ATOM      6  C6  N4B d   1       3.594   4.685   0.248  0.00  0.00     0.002 A 
ENDROOT
BRANCH   1   7
ATOM      7  C1' N4B d   1       4.236   4.200  -2.086  0.00  0.00     0.057 C 
BRANCH   7   8
ATOM      8  C2' N4B d   1       4.479   2.694  -2.071  0.00  0.00     0.009 C 
BRANCH   8   9
ATOM      9  C3' N4B d   1       3.750   1.990  -3.203  0.00  0.00     0.004 C 
ATOM     10  C4' N4B d   1       2.809   2.895  -3.940  0.00  0.00     0.003 C 
ENDBRANCH   8   9
ENDBRANCH   7   8
ENDBRANCH   1   7
TORSDOF 3
ENDMDL
