MODEL 1
REMARK minimizedAffinity 0.387262046
REMARK minimizedRMSD -1
REMARK  3 active torsions:
REMARK  status: ('A' for Active; 'I' for Inactive)
REMARK    1  A    between atoms: C3'_2  and  C2'_3 
REMARK    2  A    between atoms: C2'_3  and  C1'_4 
REMARK    3  A    between atoms: C1'_4  and  C1_5 
ROOT
ATOM      1  C1  N4B d   1       2.174  -0.203   1.607  0.00  0.00    -0.075 A 
ATOM      2  C2  N4B d   1       0.833  -0.222   2.049  0.00  0.00     0.002 A 
ATOM      3  C3  N4B d   1      -0.084  -1.030   1.423  0.00  0.00     0.002 A 
ATOM      4  C4  N4B d   1       0.310  -1.809   0.346  0.00  0.00    -0.004 A 
ATOM      5  C5  N4B d   1       1.613  -1.804  -0.059  0.00  0.00     0.002 A 
ATOM      6  C6  N4B d   1       2.547  -1.000   0.564  0.00  0.00     0.002 A 
ENDROOT
BRANCH   1   7
ATOM      7  C1' N4B d   1       3.194   0.728   2.205  0.00  0.00     0.057 C 
BRANCH   7   8
ATOM      8  C2' N4B d   1       2.916   2.150   1.725  0.00  0.00     0.009 C 
BRANCH   8   9
ATOM      9  C3' N4B d   1       3.697   3.181   2.522  0.00  0.00     0.004 C 
ATOM     10  C4' N4B d   1       3.658   4.545   1.901  0.00  0.00     0.003 C 
ENDBRANCH   8   9
ENDBRANCH   7   8
ENDBRANCH   1   7
TORSDOF 3
ENDMDL
