MODEL 1
REMARK minimizedAffinity -0.0606527962
REMARK minimizedRMSD -1
REMARK  3 active torsions:
REMARK  status: ('A' for Active; 'I' for Inactive)
REMARK    1  A    between atoms: C3'_2  and  C2'_3 
REMARK    2  A    between atoms: C2'_3  and  C1'_4 
REMARK    3  A    between atoms: C1'_4  and  C1_5 
ROOT
ATOM      1  C1  N4B d   1       2.091  -2.017  -0.102  0.00  0.00    -0.075 A 
ATOM      2  C2  N4B d   1       1.154  -3.061   0.063  0.00  0.00     0.002 A 
ATOM      3  C3  N4B d   1      -0.112  -2.781   0.517  0.00  0.00     0.002 A 
ATOM      4  C4  N4B d   1      -0.456  -1.474   0.829  0.00  0.00    -0.004 A 
ATOM      5  C5  N4B d   1       0.447  -0.469   0.643  0.00  0.00     0.002 A 
ATOM      6  C6  N4B d   1       1.722  -0.735   0.184  0.00  0.00     0.002 A 
ENDROOT
BRANCH   1   7
ATOM      7  C1' N4B d   1       3.513  -2.285  -0.513  0.00  0.00     0.057 C 
BRANCH   7   8
ATOM      8  C2' N4B d   1       3.781  -3.785  -0.443  0.00  0.00     0.009 C 
BRANCH   8   9
ATOM      9  C3' N4B d   1       5.219  -4.123  -0.797  0.00  0.00     0.004 C 
ATOM     10  C4' N4B d   1       5.623  -5.493  -0.342  0.00  0.00     0.003 C 
ENDBRANCH   8   9
ENDBRANCH   7   8
ENDBRANCH   1   7
TORSDOF 3
ENDMDL
