MODEL 1
REMARK minimizedAffinity 1.50784636
REMARK minimizedRMSD -1
REMARK  3 active torsions:
REMARK  status: ('A' for Active; 'I' for Inactive)
REMARK    1  A    between atoms: C3'_2  and  C2'_3 
REMARK    2  A    between atoms: C2'_3  and  C1'_4 
REMARK    3  A    between atoms: C1'_4  and  C1_5 
ROOT
ATOM      1  C1  N4B d   1       3.769   3.068  -1.961  0.00  0.00    -0.075 A 
ATOM      2  C2  N4B d   1       3.927   1.671  -2.091  0.00  0.00     0.002 A 
ATOM      3  C3  N4B d   1       3.282   0.997  -3.099  0.00  0.00     0.002 A 
ATOM      4  C4  N4B d   1       2.463   1.694  -3.974  0.00  0.00    -0.004 A 
ATOM      5  C5  N4B d   1       2.336   3.048  -3.858  0.00  0.00     0.002 A 
ATOM      6  C6  N4B d   1       2.981   3.738  -2.852  0.00  0.00     0.002 A 
ENDROOT
BRANCH   1   7
ATOM      7  C1' N4B d   1       4.386   3.835  -0.823  0.00  0.00     0.057 C 
BRANCH   7   8
ATOM      8  C2' N4B d   1       3.785   5.237  -0.781  0.00  0.00     0.009 C 
BRANCH   8   9
ATOM      9  C3' N4B d   1       4.133   5.965   0.506  0.00  0.00     0.004 C 
ATOM     10  C4' N4B d   1       3.691   5.223   1.732  0.00  0.00     0.003 C 
ENDBRANCH   8   9
ENDBRANCH   7   8
ENDBRANCH   1   7
TORSDOF 3
ENDMDL
