MODEL 1
REMARK minimizedAffinity -1.44778776
REMARK minimizedRMSD -1
REMARK  3 active torsions:
REMARK  status: ('A' for Active; 'I' for Inactive)
REMARK    1  A    between atoms: C3'_2  and  C2'_3 
REMARK    2  A    between atoms: C2'_3  and  C1'_4 
REMARK    3  A    between atoms: C1'_4  and  C1_5 
ROOT
ATOM      1  C1  N4B d   1       2.215  -2.568   0.005  0.00  0.00    -0.075 A 
ATOM      2  C2  N4B d   1       2.241  -1.255   0.526  0.00  0.00     0.002 A 
ATOM      3  C3  N4B d   1       1.127  -0.738   1.141  0.00  0.00     0.002 A 
ATOM      4  C4  N4B d   1      -0.026  -1.505   1.229  0.00  0.00    -0.004 A 
ATOM      5  C5  N4B d   1      -0.035  -2.780   0.745  0.00  0.00     0.002 A 
ATOM      6  C6  N4B d   1       1.079  -3.314   0.129  0.00  0.00     0.002 A 
ENDROOT
BRANCH   1   7
ATOM      7  C1' N4B d   1       3.380  -3.145  -0.751  0.00  0.00     0.057 C 
BRANCH   7   8
ATOM      8  C2' N4B d   1       4.358  -3.771   0.238  0.00  0.00     0.009 C 
BRANCH   8   9
ATOM      9  C3' N4B d   1       4.142  -5.267   0.382  0.00  0.00     0.004 C 
ATOM     10  C4' N4B d   1       5.390  -5.999   0.778  0.00  0.00     0.003 C 
ENDBRANCH   8   9
ENDBRANCH   7   8
ENDBRANCH   1   7
TORSDOF 3
ENDMDL
