MODEL 1
REMARK minimizedAffinity -0.951619804
REMARK minimizedRMSD -1
REMARK  3 active torsions:
REMARK  status: ('A' for Active; 'I' for Inactive)
REMARK    1  A    between atoms: C3'_2  and  C2'_3 
REMARK    2  A    between atoms: C2'_3  and  C1'_4 
REMARK    3  A    between atoms: C1'_4  and  C1_5 
ROOT
ATOM      1  C1  N4B d   1       1.140  -2.634   0.173  0.00  0.00    -0.075 A 
ATOM      2  C2  N4B d   1      -0.225  -2.349  -0.054  0.00  0.00     0.002 A 
ATOM      3  C3  N4B d   1      -0.770  -1.181   0.419  0.00  0.00     0.002 A 
ATOM      4  C4  N4B d   1       0.021  -0.296   1.136  0.00  0.00    -0.004 A 
ATOM      5  C5  N4B d   1       1.344  -0.567   1.329  0.00  0.00     0.002 A 
ATOM      6  C6  N4B d   1       1.907  -1.735   0.856  0.00  0.00     0.002 A 
ENDROOT
BRANCH   1   7
ATOM      7  C1' N4B d   1       1.760  -3.938  -0.251  0.00  0.00     0.057 C 
BRANCH   7   8
ATOM      8  C2' N4B d   1       3.117  -4.091   0.429  0.00  0.00     0.009 C 
BRANCH   8   9
ATOM      9  C3' N4B d   1       3.973  -5.151  -0.243  0.00  0.00     0.004 C 
ATOM     10  C4' N4B d   1       4.724  -6.000   0.738  0.00  0.00     0.003 C 
ENDBRANCH   8   9
ENDBRANCH   7   8
ENDBRANCH   1   7
TORSDOF 3
ENDMDL
