MODEL 1
REMARK minimizedAffinity 3.9705503
REMARK minimizedRMSD -1
REMARK  3 active torsions:
REMARK  status: ('A' for Active; 'I' for Inactive)
REMARK    1  A    between atoms: C3'_2  and  C2'_3 
REMARK    2  A    between atoms: C2'_3  and  C1'_4 
REMARK    3  A    between atoms: C1'_4  and  C1_5 
ROOT
ATOM      1  C1  N4B d   1       1.274  -3.136   0.622  0.00  0.00    -0.075 A 
ATOM      2  C2  N4B d   1       1.997  -1.947   0.381  0.00  0.00     0.002 A 
ATOM      3  C3  N4B d   1       1.415  -0.728   0.627  0.00  0.00     0.002 A 
ATOM      4  C4  N4B d   1       0.110  -0.672   1.092  0.00  0.00    -0.004 A 
ATOM      5  C5  N4B d   1      -0.573  -1.825   1.346  0.00  0.00     0.002 A 
ATOM      6  C6  N4B d   1       0.001  -3.058   1.108  0.00  0.00     0.002 A 
ENDROOT
BRANCH   1   7
ATOM      7  C1' N4B d   1       1.838  -4.490   0.288  0.00  0.00     0.057 C 
BRANCH   7   8
ATOM      8  C2' N4B d   1       3.344  -4.368   0.079  0.00  0.00     0.009 C 
BRANCH   8   9
ATOM      9  C3' N4B d   1       3.973  -5.694  -0.314  0.00  0.00     0.004 C 
ATOM     10  C4' N4B d   1       5.218  -5.999   0.464  0.00  0.00     0.003 C 
ENDBRANCH   8   9
ENDBRANCH   7   8
ENDBRANCH   1   7
TORSDOF 3
ENDMDL
