MODEL 1
REMARK minimizedAffinity -5.54571486
REMARK minimizedRMSD -1
REMARK  2 active torsions:
REMARK  status: ('A' for Active; 'I' for Inactive)
REMARK    1  A    between atoms: C2'_3  and  C1'_4 
REMARK    2  A    between atoms: C1'_4  and  C1_5 
ROOT
ATOM      1  C1  I4B d   1      -0.005  -0.254  -0.014  0.00  0.00    -0.075 A 
ATOM      2  C2  I4B d   1       0.636   0.258   1.086  0.00  0.00     0.003 A 
ATOM      3  C3  I4B d   1      -0.103   0.904   2.106  0.00  0.00     0.002 A 
ATOM      4  C4  I4B d   1      -1.467   1.059   1.963  0.00  0.00    -0.004 A 
ATOM      5  C5  I4B d   1      -2.119   0.519   0.858  0.00  0.00     0.002 A 
ATOM      6  C6  I4B d   1      -1.386  -0.152  -0.131  0.00  0.00     0.003 A 
ENDROOT
BRANCH   1   7
ATOM      7  C1' I4B d   1       0.810  -0.900  -1.089  0.00  0.00     0.060 C 
BRANCH   7   8
ATOM      8  C2' I4B d   1       0.760  -0.009  -2.313  0.00  0.00    -0.013 C 
ATOM      9  C4' I4B d   1       2.108   0.596  -2.603  0.00  0.00     0.013 C 
ATOM     10  C3' I4B d   1       0.278  -0.836  -3.468  0.00  0.00     0.013 C 
ENDBRANCH   7   8
ENDBRANCH   1   7
TORSDOF 2
ENDMDL
