MODEL 1
REMARK minimizedAffinity -3.82970595
REMARK minimizedRMSD -1
REMARK  2 active torsions:
REMARK  status: ('A' for Active; 'I' for Inactive)
REMARK    1  A    between atoms: C2'_3  and  C1'_4 
REMARK    2  A    between atoms: C1'_4  and  C1_5 
ROOT
ATOM      1  C1  I4B d   1       0.229  -0.470  -0.973  0.00  0.00    -0.075 A 
ATOM      2  C2  I4B d   1       1.254  -0.198  -0.102  0.00  0.00     0.003 A 
ATOM      3  C3  I4B d   1       0.976   0.312   1.189  0.00  0.00     0.002 A 
ATOM      4  C4  I4B d   1      -0.330   0.581   1.547  0.00  0.00    -0.004 A 
ATOM      5  C5  I4B d   1      -1.369   0.282   0.671  0.00  0.00     0.002 A 
ATOM      6  C6  I4B d   1      -1.090  -0.258  -0.592  0.00  0.00     0.003 A 
ENDROOT
BRANCH   1   7
ATOM      7  C1' I4B d   1       0.561  -0.977  -2.341  0.00  0.00     0.060 C 
BRANCH   7   8
ATOM      8  C2' I4B d   1       0.646   0.215  -3.272  0.00  0.00    -0.013 C 
ATOM      9  C4' I4B d   1       2.065   0.465  -3.709  0.00  0.00     0.013 C 
ATOM     10  C3' I4B d   1      -0.244  -0.054  -4.450  0.00  0.00     0.013 C 
ENDBRANCH   7   8
ENDBRANCH   1   7
TORSDOF 2
ENDMDL
