MODEL 1
REMARK minimizedAffinity -5.01106548
REMARK minimizedRMSD -1
REMARK  2 active torsions:
REMARK  status: ('A' for Active; 'I' for Inactive)
REMARK    1  A    between atoms: C2'_3  and  C1'_4 
REMARK    2  A    between atoms: C1'_4  and  C1_5 
ROOT
ATOM      1  C1  I4B d   1       0.394  -0.038   1.315  0.00  0.00    -0.075 A 
ATOM      2  C2  I4B d   1       1.477   0.175   2.131  0.00  0.00     0.003 A 
ATOM      3  C3  I4B d   1       1.332   0.919   3.327  0.00  0.00     0.002 A 
ATOM      4  C4  I4B d   1       0.107   1.471   3.641  0.00  0.00    -0.004 A 
ATOM      5  C5  I4B d   1      -0.995   1.235   2.823  0.00  0.00     0.002 A 
ATOM      6  C6  I4B d   1      -0.854   0.466   1.660  0.00  0.00     0.003 A 
ENDROOT
BRANCH   1   7
ATOM      7  C1' I4B d   1       0.589  -0.800   0.043  0.00  0.00     0.060 C 
BRANCH   7   8
ATOM      8  C2' I4B d   1      -0.406  -0.277  -0.972  0.00  0.00    -0.013 C 
ATOM      9  C4' I4B d   1       0.213  -0.175  -2.341  0.00  0.00     0.013 C 
ATOM     10  C3' I4B d   1      -1.588  -1.200  -0.980  0.00  0.00     0.013 C 
ENDBRANCH   7   8
ENDBRANCH   1   7
TORSDOF 2
ENDMDL
