MODEL 1
REMARK minimizedAffinity -3.34867454
REMARK minimizedRMSD -1
REMARK  2 active torsions:
REMARK  status: ('A' for Active; 'I' for Inactive)
REMARK    1  A    between atoms: C2'_3  and  C1'_4 
REMARK    2  A    between atoms: C1'_4  and  C1_5 
ROOT
ATOM      1  C1  I4B d   1       0.626  -0.456  -0.422  0.00  0.00    -0.075 A 
ATOM      2  C2  I4B d   1       1.765  -0.703   0.302  0.00  0.00     0.003 A 
ATOM      3  C3  I4B d   1       1.908  -0.176   1.608  0.00  0.00     0.002 A 
ATOM      4  C4  I4B d   1       0.916   0.631   2.128  0.00  0.00    -0.004 A 
ATOM      5  C5  I4B d   1      -0.248   0.862   1.401  0.00  0.00     0.002 A 
ATOM      6  C6  I4B d   1      -0.400   0.306   0.122  0.00  0.00     0.003 A 
ENDROOT
BRANCH   1   7
ATOM      7  C1' I4B d   1       0.523  -1.001  -1.811  0.00  0.00     0.060 C 
BRANCH   7   8
ATOM      8  C2' I4B d   1       0.578   0.166  -2.776  0.00  0.00    -0.013 C 
ATOM      9  C4' I4B d   1       1.923   0.842  -2.738  0.00  0.00     0.013 C 
ATOM     10  C3' I4B d   1       0.272  -0.354  -4.149  0.00  0.00     0.013 C 
ENDBRANCH   7   8
ENDBRANCH   1   7
TORSDOF 2
ENDMDL
