MODEL 1
REMARK minimizedAffinity -5.59786797
REMARK minimizedRMSD -1
REMARK  2 active torsions:
REMARK  status: ('A' for Active; 'I' for Inactive)
REMARK    1  A    between atoms: C2'_3  and  C1'_4 
REMARK    2  A    between atoms: C1'_4  and  C1_5 
ROOT
ATOM      1  C1  I4B d   1       0.585   0.581   1.187  0.00  0.00    -0.075 A 
ATOM      2  C2  I4B d   1       1.564  -0.043   1.920  0.00  0.00     0.003 A 
ATOM      3  C3  I4B d   1       1.428  -0.179   3.323  0.00  0.00     0.002 A 
ATOM      4  C4  I4B d   1       0.328   0.365   3.954  0.00  0.00    -0.004 A 
ATOM      5  C5  I4B d   1      -0.675   0.977   3.207  0.00  0.00     0.002 A 
ATOM      6  C6  I4B d   1      -0.552   1.075   1.814  0.00  0.00     0.003 A 
ENDROOT
BRANCH   1   7
ATOM      7  C1' I4B d   1       0.777   0.736  -0.288  0.00  0.00     0.060 C 
BRANCH   7   8
ATOM      8  C2' I4B d   1      -0.029  -0.344  -0.980  0.00  0.00    -0.013 C 
ATOM      9  C4' I4B d   1      -1.507  -0.086  -0.854  0.00  0.00     0.013 C 
ATOM     10  C3' I4B d   1       0.393  -0.387  -2.418  0.00  0.00     0.013 C 
ENDBRANCH   7   8
ENDBRANCH   1   7
TORSDOF 2
ENDMDL
