MODEL 1
REMARK minimizedAffinity -5.70461702
REMARK minimizedRMSD -1
REMARK  2 active torsions:
REMARK  status: ('A' for Active; 'I' for Inactive)
REMARK    1  A    between atoms: C2'_3  and  C1'_4 
REMARK    2  A    between atoms: C1'_4  and  C1_5 
ROOT
ATOM      1  C1  I4B d   1       0.364  -0.199  -2.990  0.00  0.00    -0.075 A 
ATOM      2  C2  I4B d   1       1.013   0.988  -2.757  0.00  0.00     0.003 A 
ATOM      3  C3  I4B d   1       1.139   1.946  -3.791  0.00  0.00     0.002 A 
ATOM      4  C4  I4B d   1       0.649   1.657  -5.049  0.00  0.00    -0.004 A 
ATOM      5  C5  I4B d   1      -0.028   0.463  -5.277  0.00  0.00     0.002 A 
ATOM      6  C6  I4B d   1      -0.183  -0.466  -4.238  0.00  0.00     0.003 A 
ENDROOT
BRANCH   1   7
ATOM      7  C1' I4B d   1       0.277  -1.203  -1.884  0.00  0.00     0.060 C 
BRANCH   7   8
ATOM      8  C2' I4B d   1       0.092  -0.448  -0.583  0.00  0.00    -0.013 C 
ATOM      9  C4' I4B d   1      -1.289  -0.660  -0.021  0.00  0.00     0.013 C 
ATOM     10  C3' I4B d   1       1.145  -0.917   0.377  0.00  0.00     0.013 C 
ENDBRANCH   7   8
ENDBRANCH   1   7
TORSDOF 2
ENDMDL
