MODEL 1
REMARK minimizedAffinity -2.84699631
REMARK minimizedRMSD -1
REMARK  2 active torsions:
REMARK  status: ('A' for Active; 'I' for Inactive)
REMARK    1  A    between atoms: C2'_3  and  C1'_4 
REMARK    2  A    between atoms: C1'_4  and  C1_5 
ROOT
ATOM      1  C1  I4B d   1       0.734  -0.218  -2.098  0.00  0.00    -0.075 A 
ATOM      2  C2  I4B d   1       1.812   0.548  -2.466  0.00  0.00     0.003 A 
ATOM      3  C3  I4B d   1       2.012   0.892  -3.825  0.00  0.00     0.002 A 
ATOM      4  C4  I4B d   1       1.143   0.410  -4.782  0.00  0.00    -0.004 A 
ATOM      5  C5  I4B d   1       0.037  -0.347  -4.405  0.00  0.00     0.002 A 
ATOM      6  C6  I4B d   1      -0.176  -0.653  -3.053  0.00  0.00     0.003 A 
ENDROOT
BRANCH   1   7
ATOM      7  C1' I4B d   1       0.572  -0.590  -0.659  0.00  0.00     0.060 C 
BRANCH   7   8
ATOM      8  C2' I4B d   1      -0.432   0.362  -0.040  0.00  0.00    -0.013 C 
ATOM      9  C4' I4B d   1      -1.568  -0.387   0.606  0.00  0.00     0.013 C 
ATOM     10  C3' I4B d   1       0.293   1.214   0.959  0.00  0.00     0.013 C 
ENDBRANCH   7   8
ENDBRANCH   1   7
TORSDOF 2
ENDMDL
