MODEL 1
REMARK minimizedAffinity 0.302464783
REMARK minimizedRMSD -1
REMARK  2 active torsions:
REMARK  status: ('A' for Active; 'I' for Inactive)
REMARK    1  A    between atoms: C2'_3  and  C1'_4 
REMARK    2  A    between atoms: C1'_4  and  C1_5 
ROOT
ATOM      1  C1  I4B d   1       1.123   0.317  -4.877  0.00  0.00    -0.075 A 
ATOM      2  C2  I4B d   1       1.065   1.177  -3.808  0.00  0.00     0.003 A 
ATOM      3  C3  I4B d   1       2.235   1.476  -3.069  0.00  0.00     0.002 A 
ATOM      4  C4  I4B d   1       3.424   0.857  -3.400  0.00  0.00    -0.004 A 
ATOM      5  C5  I4B d   1       3.486   0.004  -4.498  0.00  0.00     0.002 A 
ATOM      6  C6  I4B d   1       2.331  -0.259  -5.249  0.00  0.00     0.003 A 
ENDROOT
BRANCH   1   7
ATOM      7  C1' I4B d   1      -0.139  -0.001  -5.615  0.00  0.00     0.060 C 
BRANCH   7   8
ATOM      8  C2' I4B d   1      -0.309  -1.507  -5.620  0.00  0.00    -0.013 C 
ATOM      9  C4' I4B d   1       0.035  -2.099  -4.279  0.00  0.00     0.013 C 
ATOM     10  C3' I4B d   1      -1.727  -1.811  -6.000  0.00  0.00     0.013 C 
ENDBRANCH   7   8
ENDBRANCH   1   7
TORSDOF 2
ENDMDL
