MODEL 1
REMARK minimizedAffinity 0.175247416
REMARK minimizedRMSD -1
REMARK  2 active torsions:
REMARK  status: ('A' for Active; 'I' for Inactive)
REMARK    1  A    between atoms: C2'_3  and  C1'_4 
REMARK    2  A    between atoms: C1'_4  and  C1_5 
ROOT
ATOM      1  C1  I4B d   1       1.649   0.408  -2.220  0.00  0.00    -0.075 A 
ATOM      2  C2  I4B d   1       2.808   0.912  -2.754  0.00  0.00     0.003 A 
ATOM      3  C3  I4B d   1       2.837   1.366  -4.095  0.00  0.00     0.002 A 
ATOM      4  C4  I4B d   1       1.705   1.251  -4.876  0.00  0.00    -0.004 A 
ATOM      5  C5  I4B d   1       0.524   0.761  -4.326  0.00  0.00     0.002 A 
ATOM      6  C6  I4B d   1       0.492   0.348  -2.986  0.00  0.00     0.003 A 
ENDROOT
BRANCH   1   7
ATOM      7  C1' I4B d   1       1.662  -0.092  -0.811  0.00  0.00     0.060 C 
BRANCH   7   8
ATOM      8  C2' I4B d   1       0.236  -0.084  -0.298  0.00  0.00    -0.013 C 
ATOM      9  C4' I4B d   1      -0.224  -1.474   0.055  0.00  0.00     0.013 C 
ATOM     10  C3' I4B d   1       0.177   0.825   0.893  0.00  0.00     0.013 C 
ENDBRANCH   7   8
ENDBRANCH   1   7
TORSDOF 2
ENDMDL
