MODEL 1
REMARK minimizedAffinity 0.108743317
REMARK minimizedRMSD -1
REMARK  2 active torsions:
REMARK  status: ('A' for Active; 'I' for Inactive)
REMARK    1  A    between atoms: C2'_3  and  C1'_4 
REMARK    2  A    between atoms: C1'_4  and  C1_5 
ROOT
ATOM      1  C1  I4B d   1       0.105  -0.564  -4.133  0.00  0.00    -0.075 A 
ATOM      2  C2  I4B d   1      -0.257  -1.843  -3.791  0.00  0.00     0.003 A 
ATOM      3  C3  I4B d   1      -1.210  -2.546  -4.567  0.00  0.00     0.002 A 
ATOM      4  C4  I4B d   1      -1.809  -1.918  -5.640  0.00  0.00    -0.004 A 
ATOM      5  C5  I4B d   1      -1.424  -0.629  -5.999  0.00  0.00     0.002 A 
ATOM      6  C6  I4B d   1      -0.452   0.048  -5.248  0.00  0.00     0.003 A 
ENDROOT
BRANCH   1   7
ATOM      7  C1' I4B d   1       1.090   0.161  -3.272  0.00  0.00     0.060 C 
BRANCH   7   8
ATOM      8  C2' I4B d   1       2.304   0.483  -4.120  0.00  0.00    -0.013 C 
ATOM      9  C4' I4B d   1       2.605   1.958  -4.105  0.00  0.00     0.013 C 
ATOM     10  C3' I4B d   1       3.461  -0.311  -3.591  0.00  0.00     0.013 C 
ENDBRANCH   7   8
ENDBRANCH   1   7
TORSDOF 2
ENDMDL
