MODEL 1
REMARK minimizedAffinity -3.46875143
REMARK minimizedRMSD -1
REMARK  2 active torsions:
REMARK  status: ('A' for Active; 'I' for Inactive)
REMARK    1  A    between atoms: C1_2  and  C2_3 
REMARK    2  A    between atoms: C2_3  and  C3_4 
ROOT
ATOM      1  C3  UNL d   1      -0.302  -1.178  -0.233  0.00  0.00    -0.075 A 
ATOM      2  C4  UNL d   1      -0.066  -1.119  -1.614  0.00  0.00     0.002 A 
ATOM      3  C5  UNL d   1      -0.324  -2.226  -2.424  0.00  0.00     0.002 A 
ATOM      4  C6  UNL d   1      -0.809  -3.405  -1.864  0.00  0.00    -0.004 A 
ATOM      5  C7  UNL d   1      -1.032  -3.480  -0.491  0.00  0.00     0.002 A 
ATOM      6  C8  UNL d   1      -0.779  -2.373   0.321  0.00  0.00     0.002 A 
ENDROOT
BRANCH   1   7
ATOM      7  C2  UNL d   1      -0.053   0.025   0.645  0.00  0.00     0.056 C 
BRANCH   7   8
ATOM      8  C1  UNL d   1       0.129   1.335  -0.129  0.00  0.00     0.007 C 
ATOM      9  C   UNL d   1       1.153   2.268   0.503  0.00  0.00     0.009 C 
ENDBRANCH   7   8
ENDBRANCH   1   7
TORSDOF 2
ENDMDL
