MODEL 1
REMARK minimizedAffinity -4.81783533
REMARK minimizedRMSD -1
REMARK  2 active torsions:
REMARK  status: ('A' for Active; 'I' for Inactive)
REMARK    1  A    between atoms: C1_2  and  C2_3 
REMARK    2  A    between atoms: C2_3  and  C3_4 
ROOT
ATOM      1  C3  UNL d   1      -0.265   1.336   0.365  0.00  0.00    -0.075 A 
ATOM      2  C4  UNL d   1      -0.689   0.694   1.538  0.00  0.00     0.002 A 
ATOM      3  C5  UNL d   1      -1.078  -0.646   1.511  0.00  0.00     0.002 A 
ATOM      4  C6  UNL d   1      -1.056  -1.357   0.313  0.00  0.00    -0.004 A 
ATOM      5  C7  UNL d   1      -0.652  -0.725  -0.861  0.00  0.00     0.002 A 
ATOM      6  C8  UNL d   1      -0.259   0.615  -0.836  0.00  0.00     0.002 A 
ENDROOT
BRANCH   1   7
ATOM      7  C2  UNL d   1       0.185   2.777   0.393  0.00  0.00     0.056 C 
BRANCH   7   8
ATOM      8  C1  UNL d   1       1.703   2.959   0.292  0.00  0.00     0.007 C 
ATOM      9  C   UNL d   1       2.343   3.410   1.598  0.00  0.00     0.009 C 
ENDBRANCH   7   8
ENDBRANCH   1   7
TORSDOF 2
ENDMDL
