MODEL 1
REMARK minimizedAffinity -4.68397474
REMARK minimizedRMSD -1
REMARK  2 active torsions:
REMARK  status: ('A' for Active; 'I' for Inactive)
REMARK    1  A    between atoms: C1_2  and  C2_3 
REMARK    2  A    between atoms: C2_3  and  C3_4 
ROOT
ATOM      1  C3  UNL d   1       0.169   1.078   0.016  0.00  0.00    -0.075 A 
ATOM      2  C4  UNL d   1       0.493   0.616  -1.267  0.00  0.00     0.002 A 
ATOM      3  C5  UNL d   1       0.226  -0.703  -1.634  0.00  0.00     0.002 A 
ATOM      4  C6  UNL d   1      -0.359  -1.578  -0.721  0.00  0.00    -0.004 A 
ATOM      5  C7  UNL d   1      -0.670  -1.134   0.562  0.00  0.00     0.002 A 
ATOM      6  C8  UNL d   1      -0.408   0.186   0.930  0.00  0.00     0.002 A 
ENDROOT
BRANCH   1   7
ATOM      7  C2  UNL d   1       0.429   2.513   0.410  0.00  0.00     0.056 C 
BRANCH   7   8
ATOM      8  C1  UNL d   1       1.915   2.869   0.522  0.00  0.00     0.007 C 
ATOM      9  C   UNL d   1       2.250   3.651   1.786  0.00  0.00     0.009 C 
ENDBRANCH   7   8
ENDBRANCH   1   7
TORSDOF 2
ENDMDL
