MODEL 1
REMARK minimizedAffinity -2.75040531
REMARK minimizedRMSD -1
REMARK  2 active torsions:
REMARK  status: ('A' for Active; 'I' for Inactive)
REMARK    1  A    between atoms: C1_2  and  C2_3 
REMARK    2  A    between atoms: C2_3  and  C3_4 
ROOT
ATOM      1  C3  UNL d   1      -0.036   1.309   0.486  0.00  0.00    -0.075 A 
ATOM      2  C4  UNL d   1      -0.320   0.753   1.742  0.00  0.00     0.002 A 
ATOM      3  C5  UNL d   1      -0.654  -0.596   1.860  0.00  0.00     0.002 A 
ATOM      4  C6  UNL d   1      -0.720  -1.403   0.726  0.00  0.00    -0.004 A 
ATOM      5  C7  UNL d   1      -0.457  -0.857  -0.528  0.00  0.00     0.002 A 
ATOM      6  C8  UNL d   1      -0.117   0.492  -0.649  0.00  0.00     0.002 A 
ENDROOT
BRANCH   1   7
ATOM      7  C2  UNL d   1       0.356   2.761   0.355  0.00  0.00     0.056 C 
BRANCH   7   8
ATOM      8  C1  UNL d   1       1.859   3.018   0.507  0.00  0.00     0.007 C 
ATOM      9  C   UNL d   1       2.214   3.763   1.787  0.00  0.00     0.009 C 
ENDBRANCH   7   8
ENDBRANCH   1   7
TORSDOF 2
ENDMDL
