MODEL 1
REMARK minimizedAffinity -5.4029932
REMARK minimizedRMSD -1
REMARK  2 active torsions:
REMARK  status: ('A' for Active; 'I' for Inactive)
REMARK    1  A    between atoms: C1_2  and  C2_3 
REMARK    2  A    between atoms: C2_3  and  C3_4 
ROOT
ATOM      1  C3  UNL d   1       0.407  -1.403  -0.392  0.00  0.00    -0.075 A 
ATOM      2  C4  UNL d   1       0.655  -1.434  -1.772  0.00  0.00     0.002 A 
ATOM      3  C5  UNL d   1       0.345  -2.568  -2.523  0.00  0.00     0.002 A 
ATOM      4  C6  UNL d   1      -0.207  -3.688  -1.903  0.00  0.00    -0.004 A 
ATOM      5  C7  UNL d   1      -0.442  -3.674  -0.530  0.00  0.00     0.002 A 
ATOM      6  C8  UNL d   1      -0.137  -2.539   0.223  0.00  0.00     0.002 A 
ENDROOT
BRANCH   1   7
ATOM      7  C2  UNL d   1       0.714  -0.168   0.421  0.00  0.00     0.056 C 
BRANCH   7   8
ATOM      8  C1  UNL d   1      -0.028   1.087  -0.049  0.00  0.00     0.007 C 
ATOM      9  C   UNL d   1       0.660   2.381   0.365  0.00  0.00     0.009 C 
ENDBRANCH   7   8
ENDBRANCH   1   7
TORSDOF 2
ENDMDL
