MODEL 1
REMARK minimizedAffinity -1.71504223
REMARK minimizedRMSD -1
REMARK  2 active torsions:
REMARK  status: ('A' for Active; 'I' for Inactive)
REMARK    1  A    between atoms: C1_2  and  C2_3 
REMARK    2  A    between atoms: C2_3  and  C3_4 
ROOT
ATOM      1  C3  UNL d   1       0.831   1.712   0.273  0.00  0.00    -0.075 A 
ATOM      2  C4  UNL d   1       1.285   0.691   1.121  0.00  0.00     0.002 A 
ATOM      3  C5  UNL d   1       0.458  -0.387   1.436  0.00  0.00     0.002 A 
ATOM      4  C6  UNL d   1      -0.833  -0.454   0.916  0.00  0.00    -0.004 A 
ATOM      5  C7  UNL d   1      -1.300   0.563   0.086  0.00  0.00     0.002 A 
ATOM      6  C8  UNL d   1      -0.473   1.641  -0.234  0.00  0.00     0.002 A 
ENDROOT
BRANCH   1   7
ATOM      7  C2  UNL d   1       1.732   2.867  -0.095  0.00  0.00     0.056 C 
BRANCH   7   8
ATOM      8  C1  UNL d   1       2.342   3.591   1.110  0.00  0.00     0.007 C 
ATOM      9  C   UNL d   1       1.384   3.709   2.287  0.00  0.00     0.009 C 
ENDBRANCH   7   8
ENDBRANCH   1   7
TORSDOF 2
ENDMDL
