MODEL 1
REMARK minimizedAffinity -1.84467316
REMARK minimizedRMSD -1
REMARK  2 active torsions:
REMARK  status: ('A' for Active; 'I' for Inactive)
REMARK    1  A    between atoms: C1_2  and  C2_3 
REMARK    2  A    between atoms: C2_3  and  C3_4 
ROOT
ATOM      1  C3  UNL d   1      -0.340   0.932  -0.016  0.00  0.00    -0.075 A 
ATOM      2  C4  UNL d   1       0.093  -0.322  -0.471  0.00  0.00     0.002 A 
ATOM      3  C5  UNL d   1      -0.334  -1.490   0.160  0.00  0.00     0.002 A 
ATOM      4  C6  UNL d   1      -1.189  -1.421   1.258  0.00  0.00    -0.004 A 
ATOM      5  C7  UNL d   1      -1.612  -0.180   1.729  0.00  0.00     0.002 A 
ATOM      6  C8  UNL d   1      -1.190   0.991   1.097  0.00  0.00     0.002 A 
ENDROOT
BRANCH   1   7
ATOM      7  C2  UNL d   1       0.095   2.200  -0.713  0.00  0.00     0.056 C 
BRANCH   7   8
ATOM      8  C1  UNL d   1       0.775   3.216   0.210  0.00  0.00     0.007 C 
ATOM      9  C   UNL d   1       2.244   3.440  -0.123  0.00  0.00     0.009 C 
ENDBRANCH   7   8
ENDBRANCH   1   7
TORSDOF 2
ENDMDL
