MODEL 1
REMARK minimizedAffinity -5.04662657
REMARK minimizedRMSD -1
REMARK  2 active torsions:
REMARK  status: ('A' for Active; 'I' for Inactive)
REMARK    1  A    between atoms: C1_2  and  C2_3 
REMARK    2  A    between atoms: C2_3  and  C3_4 
ROOT
ATOM      1  C3  UNL d   1      -0.384   0.738   0.338  0.00  0.00    -0.075 A 
ATOM      2  C4  UNL d   1       0.254  -0.315  -0.333  0.00  0.00     0.002 A 
ATOM      3  C5  UNL d   1      -0.122  -1.638  -0.094  0.00  0.00     0.002 A 
ATOM      4  C6  UNL d   1      -1.131  -1.923   0.824  0.00  0.00    -0.004 A 
ATOM      5  C7  UNL d   1      -1.759  -0.885   1.508  0.00  0.00     0.002 A 
ATOM      6  C8  UNL d   1      -1.388   0.439   1.267  0.00  0.00     0.002 A 
ENDROOT
BRANCH   1   7
ATOM      7  C2  UNL d   1      -0.002   2.173   0.062  0.00  0.00     0.056 C 
BRANCH   7   8
ATOM      8  C1  UNL d   1       1.508   2.403  -0.069  0.00  0.00     0.007 C 
ATOM      9  C   UNL d   1       1.997   3.626   0.695  0.00  0.00     0.009 C 
ENDBRANCH   7   8
ENDBRANCH   1   7
TORSDOF 2
ENDMDL
