MODEL 1
REMARK minimizedAffinity -4.31399584
REMARK minimizedRMSD -1
REMARK  2 active torsions:
REMARK  status: ('A' for Active; 'I' for Inactive)
REMARK    1  A    between atoms: C1_2  and  C2_3 
REMARK    2  A    between atoms: C2_3  and  C3_4 
ROOT
ATOM      1  C3  UNL d   1      -0.208   0.185   0.105  0.00  0.00    -0.075 A 
ATOM      2  C4  UNL d   1      -0.712   0.020   1.403  0.00  0.00     0.002 A 
ATOM      3  C5  UNL d   1      -1.100  -1.240   1.858  0.00  0.00     0.002 A 
ATOM      4  C6  UNL d   1      -0.998  -2.348   1.020  0.00  0.00    -0.004 A 
ATOM      5  C7  UNL d   1      -0.513  -2.193  -0.278  0.00  0.00     0.002 A 
ATOM      6  C8  UNL d   1      -0.121  -0.934  -0.734  0.00  0.00     0.002 A 
ENDROOT
BRANCH   1   7
ATOM      7  C2  UNL d   1       0.241   1.542  -0.383  0.00  0.00     0.056 C 
BRANCH   7   8
ATOM      8  C1  UNL d   1       1.607   1.978   0.156  0.00  0.00     0.007 C 
ATOM      9  C   UNL d   1       1.714   3.482   0.375  0.00  0.00     0.009 C 
ENDBRANCH   7   8
ENDBRANCH   1   7
TORSDOF 2
ENDMDL
