MODEL 1
REMARK minimizedAffinity -4.16631413
REMARK minimizedRMSD -1
REMARK  2 active torsions:
REMARK  status: ('A' for Active; 'I' for Inactive)
REMARK    1  A    between atoms: C1_2  and  C2_3 
REMARK    2  A    between atoms: C2_3  and  C3_4 
ROOT
ATOM      1  C3  UNL d   1      -0.279   0.739  -0.297  0.00  0.00    -0.075 A 
ATOM      2  C4  UNL d   1      -0.785   0.635   1.007  0.00  0.00     0.002 A 
ATOM      3  C5  UNL d   1      -1.128  -0.609   1.537  0.00  0.00     0.002 A 
ATOM      4  C6  UNL d   1      -0.980  -1.762   0.769  0.00  0.00    -0.004 A 
ATOM      5  C7  UNL d   1      -0.494  -1.669  -0.534  0.00  0.00     0.002 A 
ATOM      6  C8  UNL d   1      -0.145  -0.426  -1.065  0.00  0.00     0.002 A 
ENDROOT
BRANCH   1   7
ATOM      7  C2  UNL d   1       0.123   2.079  -0.866  0.00  0.00     0.056 C 
BRANCH   7   8
ATOM      8  C1  UNL d   1       0.479   3.125   0.195  0.00  0.00     0.007 C 
ATOM      9  C   UNL d   1       1.964   3.460   0.234  0.00  0.00     0.009 C 
ENDBRANCH   7   8
ENDBRANCH   1   7
TORSDOF 2
ENDMDL
