MODEL 1
REMARK minimizedAffinity -2.46662354
REMARK minimizedRMSD -1
REMARK  2 active torsions:
REMARK  status: ('A' for Active; 'I' for Inactive)
REMARK    1  A    between atoms: C1_2  and  C2_3 
REMARK    2  A    between atoms: C2_3  and  C3_4 
ROOT
ATOM      1  C3  UNL d   1       0.482   0.824   0.859  0.00  0.00    -0.075 A 
ATOM      2  C4  UNL d   1       1.395   1.713   1.445  0.00  0.00     0.002 A 
ATOM      3  C5  UNL d   1       1.639   2.960   0.868  0.00  0.00     0.002 A 
ATOM      4  C6  UNL d   1       0.983   3.329  -0.304  0.00  0.00    -0.004 A 
ATOM      5  C7  UNL d   1       0.087   2.447  -0.904  0.00  0.00     0.002 A 
ATOM      6  C8  UNL d   1      -0.162   1.201  -0.327  0.00  0.00     0.002 A 
ENDROOT
BRANCH   1   7
ATOM      7  C2  UNL d   1       0.192  -0.515   1.494  0.00  0.00     0.056 C 
BRANCH   7   8
ATOM      8  C1  UNL d   1      -1.123  -1.152   1.032  0.00  0.00     0.007 C 
ATOM      9  C   UNL d   1      -1.002  -2.645   0.758  0.00  0.00     0.009 C 
ENDBRANCH   7   8
ENDBRANCH   1   7
TORSDOF 2
ENDMDL
