MODEL 1
REMARK minimizedAffinity -3.13678622
REMARK minimizedRMSD -1
REMARK  2 active torsions:
REMARK  status: ('A' for Active; 'I' for Inactive)
REMARK    1  A    between atoms: C1_2  and  C2_3 
REMARK    2  A    between atoms: C2_3  and  C3_4 
ROOT
ATOM      1  C3  UNL d   1      -0.375  -0.688   0.065  0.00  0.00    -0.075 A 
ATOM      2  C4  UNL d   1      -0.043  -0.821  -1.291  0.00  0.00     0.002 A 
ATOM      3  C5  UNL d   1      -0.208  -2.043  -1.944  0.00  0.00     0.002 A 
ATOM      4  C6  UNL d   1      -0.694  -3.147  -1.249  0.00  0.00    -0.004 A 
ATOM      5  C7  UNL d   1      -1.012  -3.031   0.103  0.00  0.00     0.002 A 
ATOM      6  C8  UNL d   1      -0.852  -1.808   0.757  0.00  0.00     0.002 A 
ENDROOT
BRANCH   1   7
ATOM      7  C2  UNL d   1      -0.227   0.640   0.770  0.00  0.00     0.056 C 
BRANCH   7   8
ATOM      8  C1  UNL d   1       0.236   1.781  -0.141  0.00  0.00     0.007 C 
ATOM      9  C   UNL d   1       1.200   2.742   0.543  0.00  0.00     0.009 C 
ENDBRANCH   7   8
ENDBRANCH   1   7
TORSDOF 2
ENDMDL
