MODEL 1
REMARK minimizedAffinity -3.00326395
REMARK minimizedRMSD -1
REMARK  2 active torsions:
REMARK  status: ('A' for Active; 'I' for Inactive)
REMARK    1  A    between atoms: C1_2  and  C2_3 
REMARK    2  A    between atoms: C2_3  and  C3_4 
ROOT
ATOM      1  C3  UNL d   1       0.290   1.199   0.140  0.00  0.00    -0.075 A 
ATOM      2  C4  UNL d   1       0.268   0.549   1.383  0.00  0.00     0.002 A 
ATOM      3  C5  UNL d   1      -0.246  -0.743   1.496  0.00  0.00     0.002 A 
ATOM      4  C6  UNL d   1      -0.752  -1.396   0.375  0.00  0.00    -0.004 A 
ATOM      5  C7  UNL d   1      -0.750  -0.754  -0.861  0.00  0.00     0.002 A 
ATOM      6  C8  UNL d   1      -0.232   0.538  -0.979  0.00  0.00     0.002 A 
ENDROOT
BRANCH   1   7
ATOM      7  C2  UNL d   1       0.872   2.586   0.005  0.00  0.00     0.056 C 
BRANCH   7   8
ATOM      8  C1  UNL d   1       2.404   2.622   0.000  0.00  0.00     0.007 C 
ATOM      9  C   UNL d   1       3.000   3.000   1.350  0.00  0.00     0.009 C 
ENDBRANCH   7   8
ENDBRANCH   1   7
TORSDOF 2
ENDMDL
