MODEL 1
REMARK minimizedAffinity -0.665142298
REMARK minimizedRMSD -1
REMARK  2 active torsions:
REMARK  status: ('A' for Active; 'I' for Inactive)
REMARK    1  A    between atoms: C1_2  and  C2_3 
REMARK    2  A    between atoms: C2_3  and  C3_4 
ROOT
ATOM      1  C3  UNL d   1      -0.762  -1.934  -0.521  0.00  0.00    -0.075 A 
ATOM      2  C4  UNL d   1      -0.273  -0.845  -1.258  0.00  0.00     0.002 A 
ATOM      3  C5  UNL d   1      -0.103   0.400  -0.653  0.00  0.00     0.002 A 
ATOM      4  C6  UNL d   1      -0.428   0.576   0.691  0.00  0.00    -0.004 A 
ATOM      5  C7  UNL d   1      -0.930  -0.495   1.428  0.00  0.00     0.002 A 
ATOM      6  C8  UNL d   1      -1.097  -1.744   0.826  0.00  0.00     0.002 A 
ENDROOT
BRANCH   1   7
ATOM      7  C2  UNL d   1      -0.920  -3.292  -1.163  0.00  0.00     0.056 C 
BRANCH   7   8
ATOM      8  C1  UNL d   1      -0.812  -3.276  -2.691  0.00  0.00     0.007 C 
ATOM      9  C   UNL d   1      -2.110  -3.660  -3.389  0.00  0.00     0.009 C 
ENDBRANCH   7   8
ENDBRANCH   1   7
TORSDOF 2
ENDMDL
