MODEL 1
REMARK minimizedAffinity -4.83563042
REMARK minimizedRMSD -1
REMARK  2 active torsions:
REMARK  status: ('A' for Active; 'I' for Inactive)
REMARK    1  A    between atoms: C2'_3  and  C1'_4 
REMARK    2  A    between atoms: C1'_4  and  C1_5 
ROOT
ATOM      1  C1  I4B d   1      -0.392  -0.630  -0.304  0.00  0.00    -0.075 A 
ATOM      2  C2  I4B d   1      -0.792  -1.721   0.426  0.00  0.00     0.003 A 
ATOM      3  C3  I4B d   1      -0.808  -3.007  -0.165  0.00  0.00     0.002 A 
ATOM      4  C4  I4B d   1      -0.466  -3.148  -1.495  0.00  0.00    -0.004 A 
ATOM      5  C5  I4B d   1      -0.039  -2.044  -2.227  0.00  0.00     0.002 A 
ATOM      6  C6  I4B d   1       0.010  -0.779  -1.625  0.00  0.00     0.003 A 
ENDROOT
BRANCH   1   7
ATOM      7  C1' I4B d   1      -0.419   0.719   0.342  0.00  0.00     0.060 C 
BRANCH   7   8
ATOM      8  C2' I4B d   1       0.995   1.062   0.766  0.00  0.00    -0.013 C 
ATOM      9  C4' I4B d   1       1.292   2.522   0.546  0.00  0.00     0.013 C 
ATOM     10  C3' I4B d   1       1.148   0.690   2.211  0.00  0.00     0.013 C 
ENDBRANCH   7   8
ENDBRANCH   1   7
TORSDOF 2
ENDMDL
