MODEL 1
REMARK minimizedAffinity -1.21497571
REMARK minimizedRMSD -1
REMARK  2 active torsions:
REMARK  status: ('A' for Active; 'I' for Inactive)
REMARK    1  A    between atoms: C2'_3  and  C1'_4 
REMARK    2  A    between atoms: C1'_4  and  C1_5 
ROOT
ATOM      1  C1  I4B d   1       0.079   1.140  -0.181  0.00  0.00    -0.075 A 
ATOM      2  C2  I4B d   1      -0.422   0.346   0.820  0.00  0.00     0.003 A 
ATOM      3  C3  I4B d   1      -0.773  -1.000   0.555  0.00  0.00     0.002 A 
ATOM      4  C4  I4B d   1      -0.656  -1.492  -0.729  0.00  0.00    -0.004 A 
ATOM      5  C5  I4B d   1      -0.127  -0.692  -1.738  0.00  0.00     0.002 A 
ATOM      6  C6  I4B d   1       0.255   0.628  -1.460  0.00  0.00     0.003 A 
ENDROOT
BRANCH   1   7
ATOM      7  C1' I4B d   1       0.409   2.566   0.127  0.00  0.00     0.060 C 
BRANCH   7   8
ATOM      8  C2' I4B d   1       1.730   2.590   0.869  0.00  0.00    -0.013 C 
ATOM      9  C4' I4B d   1       2.840   3.103  -0.011  0.00  0.00     0.013 C 
ATOM     10  C3' I4B d   1       1.562   3.449   2.086  0.00  0.00     0.013 C 
ENDBRANCH   7   8
ENDBRANCH   1   7
TORSDOF 2
ENDMDL
