MODEL 1
REMARK minimizedAffinity -4.34477997
REMARK minimizedRMSD -1
REMARK  2 active torsions:
REMARK  status: ('A' for Active; 'I' for Inactive)
REMARK    1  A    between atoms: C2'_3  and  C1'_4 
REMARK    2  A    between atoms: C1'_4  and  C1_5 
ROOT
ATOM      1  C1  I4B d   1       0.058   1.385   0.244  0.00  0.00    -0.075 A 
ATOM      2  C2  I4B d   1      -0.393   2.681   0.205  0.00  0.00     0.003 A 
ATOM      3  C3  I4B d   1       0.506   3.755   0.414  0.00  0.00     0.002 A 
ATOM      4  C4  I4B d   1       1.828   3.488   0.707  0.00  0.00    -0.004 A 
ATOM      5  C5  I4B d   1       2.288   2.174   0.723  0.00  0.00     0.002 A 
ATOM      6  C6  I4B d   1       1.400   1.116   0.478  0.00  0.00     0.003 A 
ENDROOT
BRANCH   1   7
ATOM      7  C1' I4B d   1      -0.925   0.274   0.052  0.00  0.00     0.060 C 
BRANCH   7   8
ATOM      8  C2' I4B d   1      -0.325  -0.987   0.641  0.00  0.00    -0.013 C 
ATOM      9  C4' I4B d   1      -0.791  -1.202   2.057  0.00  0.00     0.013 C 
ATOM     10  C3' I4B d   1      -0.714  -2.139  -0.237  0.00  0.00     0.013 C 
ENDBRANCH   7   8
ENDBRANCH   1   7
TORSDOF 2
ENDMDL
