MODEL 1
REMARK minimizedAffinity -2.92688107
REMARK minimizedRMSD -1
REMARK  2 active torsions:
REMARK  status: ('A' for Active; 'I' for Inactive)
REMARK    1  A    between atoms: C2'_3  and  C1'_4 
REMARK    2  A    between atoms: C1'_4  and  C1_5 
ROOT
ATOM      1  C1  I4B d   1      -0.160   0.142  -0.228  0.00  0.00    -0.075 A 
ATOM      2  C2  I4B d   1      -0.511  -0.078   1.081  0.00  0.00     0.003 A 
ATOM      3  C3  I4B d   1      -0.919  -1.366   1.504  0.00  0.00     0.002 A 
ATOM      4  C4  I4B d   1      -1.010  -2.387   0.580  0.00  0.00    -0.004 A 
ATOM      5  C5  I4B d   1      -0.632  -2.169  -0.742  0.00  0.00     0.002 A 
ATOM      6  C6  I4B d   1      -0.193  -0.899  -1.146  0.00  0.00     0.003 A 
ENDROOT
BRANCH   1   7
ATOM      7  C1' I4B d   1       0.234   1.522  -0.646  0.00  0.00     0.060 C 
BRANCH   7   8
ATOM      8  C2' I4B d   1       0.988   2.161   0.503  0.00  0.00    -0.013 C 
ATOM      9  C4' I4B d   1       2.426   2.416   0.137  0.00  0.00     0.013 C 
ATOM     10  C3' I4B d   1       0.287   3.437   0.864  0.00  0.00     0.013 C 
ENDBRANCH   7   8
ENDBRANCH   1   7
TORSDOF 2
ENDMDL
