MODEL 1
REMARK minimizedAffinity -2.9655478
REMARK minimizedRMSD -1
REMARK  2 active torsions:
REMARK  status: ('A' for Active; 'I' for Inactive)
REMARK    1  A    between atoms: C2'_3  and  C1'_4 
REMARK    2  A    between atoms: C1'_4  and  C1_5 
ROOT
ATOM      1  C1  I4B d   1       0.551   0.606  -0.113  0.00  0.00    -0.075 A 
ATOM      2  C2  I4B d   1       1.745   0.749   0.548  0.00  0.00     0.003 A 
ATOM      3  C3  I4B d   1       2.269   2.039   0.803  0.00  0.00     0.002 A 
ATOM      4  C4  I4B d   1       1.595   3.150   0.339  0.00  0.00    -0.004 A 
ATOM      5  C5  I4B d   1       0.373   3.004  -0.311  0.00  0.00     0.002 A 
ATOM      6  C6  I4B d   1      -0.159   1.725  -0.527  0.00  0.00     0.003 A 
ENDROOT
BRANCH   1   7
ATOM      7  C1' I4B d   1       0.043  -0.773  -0.395  0.00  0.00     0.060 C 
BRANCH   7   8
ATOM      8  C2' I4B d   1      -0.218  -1.455   0.933  0.00  0.00    -0.013 C 
ATOM      9  C4' I4B d   1      -1.343  -0.786   1.677  0.00  0.00     0.013 C 
ATOM     10  C3' I4B d   1      -0.530  -2.896   0.660  0.00  0.00     0.013 C 
ENDBRANCH   7   8
ENDBRANCH   1   7
TORSDOF 2
ENDMDL
