MODEL 1
REMARK minimizedAffinity -3.97167182
REMARK minimizedRMSD -1
REMARK  2 active torsions:
REMARK  status: ('A' for Active; 'I' for Inactive)
REMARK    1  A    between atoms: C2'_3  and  C1'_4 
REMARK    2  A    between atoms: C1'_4  and  C1_5 
ROOT
ATOM      1  C1  I4B d   1       0.217   0.778   0.554  0.00  0.00    -0.075 A 
ATOM      2  C2  I4B d   1       0.742   0.527   1.797  0.00  0.00     0.003 A 
ATOM      3  C3  I4B d   1       0.243  -0.542   2.580  0.00  0.00     0.002 A 
ATOM      4  C4  I4B d   1      -0.809  -1.298   2.105  0.00  0.00    -0.004 A 
ATOM      5  C5  I4B d   1      -1.325  -1.057   0.835  0.00  0.00     0.002 A 
ATOM      6  C6  I4B d   1      -0.801  -0.020   0.049  0.00  0.00     0.003 A 
ENDROOT
BRANCH   1   7
ATOM      7  C1' I4B d   1       0.746   1.935  -0.232  0.00  0.00     0.060 C 
BRANCH   7   8
ATOM      8  C2' I4B d   1       1.416   2.889   0.736  0.00  0.00    -0.013 C 
ATOM      9  C4' I4B d   1       2.820   3.215   0.297  0.00  0.00     0.013 C 
ATOM     10  C3' I4B d   1       0.575   4.128   0.822  0.00  0.00     0.013 C 
ENDBRANCH   7   8
ENDBRANCH   1   7
TORSDOF 2
ENDMDL
