MODEL 1
REMARK minimizedAffinity -2.646703
REMARK minimizedRMSD -1
REMARK  2 active torsions:
REMARK  status: ('A' for Active; 'I' for Inactive)
REMARK    1  A    between atoms: C2'_3  and  C1'_4 
REMARK    2  A    between atoms: C1'_4  and  C1_5 
ROOT
ATOM      1  C1  I4B d   1      -0.389   0.227  -0.068  0.00  0.00    -0.075 A 
ATOM      2  C2  I4B d   1       0.284  -0.862  -0.563  0.00  0.00     0.003 A 
ATOM      3  C3  I4B d   1      -0.007  -2.161  -0.079  0.00  0.00     0.002 A 
ATOM      4  C4  I4B d   1      -0.936  -2.318   0.929  0.00  0.00    -0.004 A 
ATOM      5  C5  I4B d   1      -1.634  -1.216   1.414  0.00  0.00     0.002 A 
ATOM      6  C6  I4B d   1      -1.368   0.063   0.904  0.00  0.00     0.003 A 
ENDROOT
BRANCH   1   7
ATOM      7  C1' I4B d   1      -0.034   1.587  -0.578  0.00  0.00     0.060 C 
BRANCH   7   8
ATOM      8  C2' I4B d   1       0.974   2.195   0.377  0.00  0.00    -0.013 C 
ATOM      9  C4' I4B d   1       2.323   2.342  -0.276  0.00  0.00     0.013 C 
ATOM     10  C3' I4B d   1       0.443   3.523   0.827  0.00  0.00     0.013 C 
ENDBRANCH   7   8
ENDBRANCH   1   7
TORSDOF 2
ENDMDL
