MODEL 1
REMARK minimizedAffinity -1.74011922
REMARK minimizedRMSD -1
REMARK  2 active torsions:
REMARK  status: ('A' for Active; 'I' for Inactive)
REMARK    1  A    between atoms: C2'_3  and  C1'_4 
REMARK    2  A    between atoms: C1'_4  and  C1_5 
ROOT
ATOM      1  C1  I4B d   1       0.612   0.766  -0.034  0.00  0.00    -0.075 A 
ATOM      2  C2  I4B d   1       0.673   0.385   1.283  0.00  0.00     0.003 A 
ATOM      3  C3  I4B d   1      -0.224  -0.588   1.786  0.00  0.00     0.002 A 
ATOM      4  C4  I4B d   1      -1.193  -1.113   0.955  0.00  0.00    -0.004 A 
ATOM      5  C5  I4B d   1      -1.238  -0.742  -0.386  0.00  0.00     0.002 A 
ATOM      6  C6  I4B d   1      -0.322   0.194  -0.887  0.00  0.00     0.003 A 
ENDROOT
BRANCH   1   7
ATOM      7  C1' I4B d   1       1.554   1.821  -0.523  0.00  0.00     0.060 C 
BRANCH   7   8
ATOM      8  C2' I4B d   1       1.692   2.865   0.566  0.00  0.00    -0.013 C 
ATOM      9  C4' I4B d   1       3.024   3.564   0.485  0.00  0.00     0.013 C 
ATOM     10  C3' I4B d   1       0.560   3.838   0.420  0.00  0.00     0.013 C 
ENDBRANCH   7   8
ENDBRANCH   1   7
TORSDOF 2
ENDMDL
