MODEL 1
REMARK minimizedAffinity -2.74409604
REMARK minimizedRMSD -1
REMARK  2 active torsions:
REMARK  status: ('A' for Active; 'I' for Inactive)
REMARK    1  A    between atoms: C2'_3  and  C1'_4 
REMARK    2  A    between atoms: C1'_4  and  C1_5 
ROOT
ATOM      1  C1  I4B d   1      -0.230   0.566   0.209  0.00  0.00    -0.075 A 
ATOM      2  C2  I4B d   1      -0.399   0.339   1.552  0.00  0.00     0.003 A 
ATOM      3  C3  I4B d   1      -0.480  -0.985   2.047  0.00  0.00     0.002 A 
ATOM      4  C4  I4B d   1      -0.439  -2.044   1.163  0.00  0.00    -0.004 A 
ATOM      5  C5  I4B d   1      -0.245  -1.813  -0.195  0.00  0.00     0.002 A 
ATOM      6  C6  I4B d   1      -0.127  -0.500  -0.675  0.00  0.00     0.003 A 
ENDROOT
BRANCH   1   7
ATOM      7  C1' I4B d   1      -0.182   1.978  -0.283  0.00  0.00     0.060 C 
BRANCH   7   8
ATOM      8  C2' I4B d   1       0.759   2.754   0.616  0.00  0.00    -0.013 C 
ATOM      9  C4' I4B d   1       2.020   3.135  -0.114  0.00  0.00     0.013 C 
ATOM     10  C3' I4B d   1       0.031   3.968   1.110  0.00  0.00     0.013 C 
ENDBRANCH   7   8
ENDBRANCH   1   7
TORSDOF 2
ENDMDL
