MODEL 1
REMARK minimizedAffinity -0.279020905
REMARK minimizedRMSD -1
REMARK  0 active torsions:
REMARK  status: ('A' for Active; 'I' for Inactive)
ROOT
ATOM      1  O1  BZF d   1       0.689  -0.841  -0.398  0.00  0.00    -0.204 OA
ATOM      2  C2  BZF d   1       1.787  -0.744   0.435  0.00  0.00     0.174 A 
ATOM      3  C3  BZF d   1       1.479  -0.060   1.556  0.00  0.00    -0.012 A 
ATOM      4  C3A BZF d   1       0.077   0.212   1.457  0.00  0.00    -0.107 A 
ATOM      5  C4  BZF d   1      -0.815   0.848   2.271  0.00  0.00     0.055 A 
ATOM      6  C5  BZF d   1      -2.097   1.009   1.848  0.00  0.00    -0.016 A 
ATOM      7  C6  BZF d   1      -2.518   0.552   0.617  0.00  0.00     0.022 A 
ATOM      8  C7  BZF d   1      -1.670  -0.089  -0.224  0.00  0.00     0.029 A 
ATOM      9  C7A BZF d   1      -0.382  -0.283   0.214  0.00  0.00     0.058 A 
ENDROOT
TORSDOF 0
ENDMDL
