MODEL 1
REMARK minimizedAffinity -0.220202014
REMARK minimizedRMSD -1
REMARK  0 active torsions:
REMARK  status: ('A' for Active; 'I' for Inactive)
ROOT
ATOM      1  O1  BZF d   1       0.235  -0.921  -1.286  0.00  0.00    -0.204 OA
ATOM      2  C2  BZF d   1       0.234   0.210  -0.494  0.00  0.00     0.174 A 
ATOM      3  C3  BZF d   1      -0.926   0.318   0.185  0.00  0.00    -0.012 A 
ATOM      4  C3A BZF d   1      -1.662  -0.865  -0.138  0.00  0.00    -0.107 A 
ATOM      5  C4  BZF d   1      -2.884  -1.343   0.240  0.00  0.00     0.055 A 
ATOM      6  C5  BZF d   1      -3.343  -2.496  -0.313  0.00  0.00    -0.016 A 
ATOM      7  C6  BZF d   1      -2.608  -3.194  -1.250  0.00  0.00     0.022 A 
ATOM      8  C7  BZF d   1      -1.388  -2.763  -1.652  0.00  0.00     0.029 A 
ATOM      9  C7A BZF d   1      -0.908  -1.615  -1.070  0.00  0.00     0.058 A 
ENDROOT
TORSDOF 0
ENDMDL
