MODEL 1
REMARK minimizedAffinity -4.81752491
REMARK minimizedRMSD -1
REMARK  0 active torsions:
REMARK  status: ('A' for Active; 'I' for Inactive)
ROOT
ATOM      1  O1  BZF d   1      -1.135  -0.846   0.096  0.00  0.00    -0.204 OA
ATOM      2  C2  BZF d   1       0.075  -1.193  -0.475  0.00  0.00     0.174 A 
ATOM      3  C3  BZF d   1       1.070  -0.420   0.007  0.00  0.00    -0.012 A 
ATOM      4  C3A BZF d   1       0.458   0.401   1.006  0.00  0.00    -0.107 A 
ATOM      5  C4  BZF d   1       0.933   1.364   1.850  0.00  0.00     0.055 A 
ATOM      6  C5  BZF d   1       0.061   2.028   2.652  0.00  0.00    -0.016 A 
ATOM      7  C6  BZF d   1      -1.293   1.760   2.632  0.00  0.00     0.022 A 
ATOM      8  C7  BZF d   1      -1.810   0.811   1.815  0.00  0.00     0.029 A 
ATOM      9  C7A BZF d   1      -0.927   0.115   1.027  0.00  0.00     0.058 A 
ENDROOT
TORSDOF 0
ENDMDL
