MODEL 1
REMARK minimizedAffinity -1.89468706
REMARK minimizedRMSD -1
REMARK  0 active torsions:
REMARK  status: ('A' for Active; 'I' for Inactive)
ROOT
ATOM      1  O1  BZF d   1      -0.468  -1.531  -4.060  0.00  0.00    -0.204 OA
ATOM      2  C2  BZF d   1      -0.998  -1.476  -5.335  0.00  0.00     0.174 A 
ATOM      3  C3  BZF d   1      -0.538  -0.395  -5.998  0.00  0.00    -0.012 A 
ATOM      4  C3A BZF d   1       0.405   0.216  -5.113  0.00  0.00    -0.107 A 
ATOM      5  C4  BZF d   1       1.208   1.317  -5.210  0.00  0.00     0.055 A 
ATOM      6  C5  BZF d   1       1.958   1.684  -4.139  0.00  0.00    -0.016 A 
ATOM      7  C6  BZF d   1       1.927   0.978  -2.954  0.00  0.00     0.022 A 
ATOM      8  C7  BZF d   1       1.151  -0.124  -2.811  0.00  0.00     0.029 A 
ATOM      9  C7A BZF d   1       0.416  -0.517  -3.903  0.00  0.00     0.058 A 
ENDROOT
TORSDOF 0
ENDMDL
