MODEL 1
REMARK minimizedAffinity 0.354446381
REMARK minimizedRMSD -1
REMARK  0 active torsions:
REMARK  status: ('A' for Active; 'I' for Inactive)
ROOT
ATOM      1  O1  BZF d   1       1.910  -1.440  -0.993  0.00  0.00    -0.204 OA
ATOM      2  C2  BZF d   1       0.761  -0.982  -0.379  0.00  0.00     0.174 A 
ATOM      3  C3  BZF d   1       0.277   0.102  -1.018  0.00  0.00    -0.012 A 
ATOM      4  C3A BZF d   1       1.128   0.280  -2.154  0.00  0.00    -0.107 A 
ATOM      5  C4  BZF d   1       1.147   1.181  -3.180  0.00  0.00     0.055 A 
ATOM      6  C5  BZF d   1       2.156   1.125  -4.089  0.00  0.00    -0.016 A 
ATOM      7  C6  BZF d   1       3.163   0.186  -4.000  0.00  0.00     0.022 A 
ATOM      8  C7  BZF d   1       3.183  -0.732  -3.003  0.00  0.00     0.029 A 
ATOM      9  C7A BZF d   1       2.147  -0.698  -2.101  0.00  0.00     0.058 A 
ENDROOT
TORSDOF 0
ENDMDL
