MODEL 1
REMARK minimizedAffinity -0.120008402
REMARK minimizedRMSD -1
REMARK  0 active torsions:
REMARK  status: ('A' for Active; 'I' for Inactive)
ROOT
ATOM      1  O1  BZF d   1      -0.411  -1.749  -0.730  0.00  0.00    -0.204 OA
ATOM      2  C2  BZF d   1      -1.737  -1.412  -0.919  0.00  0.00     0.174 A 
ATOM      3  C3  BZF d   1      -2.067  -0.334  -0.178  0.00  0.00    -0.012 A 
ATOM      4  C3A BZF d   1      -0.848   0.080   0.447  0.00  0.00    -0.107 A 
ATOM      5  C4  BZF d   1      -0.527   1.104   1.292  0.00  0.00     0.055 A 
ATOM      6  C5  BZF d   1       0.739   1.187   1.778  0.00  0.00    -0.016 A 
ATOM      7  C6  BZF d   1       1.707   0.262   1.444  0.00  0.00     0.022 A 
ATOM      8  C7  BZF d   1       1.437  -0.768   0.606  0.00  0.00     0.029 A 
ATOM      9  C7A BZF d   1       0.167  -0.836   0.087  0.00  0.00     0.058 A 
ENDROOT
TORSDOF 0
ENDMDL
