MODEL 1
REMARK minimizedAffinity 4.34238338
REMARK minimizedRMSD -1
REMARK  0 active torsions:
REMARK  status: ('A' for Active; 'I' for Inactive)
ROOT
ATOM      1  O1  BZF d   1      -0.313   0.841  -0.912  0.00  0.00    -0.204 OA
ATOM      2  C2  BZF d   1       0.310  -0.048  -0.059  0.00  0.00     0.174 A 
ATOM      3  C3  BZF d   1       1.309  -0.697  -0.690  0.00  0.00    -0.012 A 
ATOM      4  C3A BZF d   1       1.370  -0.115  -1.996  0.00  0.00    -0.107 A 
ATOM      5  C4  BZF d   1       2.169  -0.328  -3.082  0.00  0.00     0.055 A 
ATOM      6  C5  BZF d   1       1.921   0.357  -4.229  0.00  0.00    -0.016 A 
ATOM      7  C6  BZF d   1       0.880   1.257  -4.327  0.00  0.00     0.022 A 
ATOM      8  C7  BZF d   1       0.063   1.505  -3.274  0.00  0.00     0.029 A 
ATOM      9  C7A BZF d   1       0.332   0.839  -2.103  0.00  0.00     0.058 A 
ENDROOT
TORSDOF 0
ENDMDL
