MODEL 1
REMARK minimizedAffinity -3.07177806
REMARK minimizedRMSD -1
REMARK  0 active torsions:
REMARK  status: ('A' for Active; 'I' for Inactive)
ROOT
ATOM      1  O1  BZF d   1      -2.213   0.040   2.725  0.00  0.00    -0.204 OA
ATOM      2  C2  BZF d   1      -2.940  -0.817   1.921  0.00  0.00     0.174 A 
ATOM      3  C3  BZF d   1      -2.388  -0.905   0.694  0.00  0.00    -0.012 A 
ATOM      4  C3A BZF d   1      -1.193  -0.122   0.761  0.00  0.00    -0.107 A 
ATOM      5  C4  BZF d   1      -0.206   0.165  -0.138  0.00  0.00     0.055 A 
ATOM      6  C5  BZF d   1       0.786   1.021   0.220  0.00  0.00    -0.016 A 
ATOM      7  C6  BZF d   1       0.820   1.612   1.466  0.00  0.00     0.022 A 
ATOM      8  C7  BZF d   1      -0.133   1.354   2.394  0.00  0.00     0.029 A 
ATOM      9  C7A BZF d   1      -1.120   0.464   2.046  0.00  0.00     0.058 A 
ENDROOT
TORSDOF 0
ENDMDL
