MODEL 1
REMARK minimizedAffinity -2.85958338
REMARK minimizedRMSD -1
REMARK  0 active torsions:
REMARK  status: ('A' for Active; 'I' for Inactive)
ROOT
ATOM      1  O1  BZF d   1      -1.301  -1.009  -0.285  0.00  0.00    -0.204 OA
ATOM      2  C2  BZF d   1      -0.486  -0.866  -1.392  0.00  0.00     0.174 A 
ATOM      3  C3  BZF d   1       0.500   0.021  -1.148  0.00  0.00    -0.012 A 
ATOM      4  C3A BZF d   1       0.343   0.391   0.225  0.00  0.00    -0.107 A 
ATOM      5  C4  BZF d   1       1.029   1.229   1.056  0.00  0.00     0.055 A 
ATOM      6  C5  BZF d   1       0.573   1.424   2.321  0.00  0.00    -0.016 A 
ATOM      7  C6  BZF d   1      -0.567   0.802   2.786  0.00  0.00     0.022 A 
ATOM      8  C7  BZF d   1      -1.279  -0.042   2.000  0.00  0.00     0.029 A 
ATOM      9  C7A BZF d   1      -0.802  -0.266   0.732  0.00  0.00     0.058 A 
ENDROOT
TORSDOF 0
ENDMDL
