MODEL 1
REMARK minimizedAffinity 1.77981102
REMARK minimizedRMSD -1
REMARK  0 active torsions:
REMARK  status: ('A' for Active; 'I' for Inactive)
ROOT
ATOM      1  C2' OXE d   1      -4.279  -4.081  -6.000  0.00  0.00     0.078 C 
ATOM      2  C1' OXE d   1      -5.645  -1.628  -5.983  0.00  0.00     0.078 C 
ATOM      3  C1  OXE d   1      -4.137  -1.594  -5.983  0.00  0.00    -0.078 A 
ATOM      4  C2  OXE d   1      -3.477  -2.799  -5.943  0.00  0.00    -0.078 A 
ATOM      5  C3  OXE d   1      -2.086  -2.825  -5.996  0.00  0.00     0.003 A 
ATOM      6  C4  OXE d   1      -1.352  -1.635  -5.934  0.00  0.00    -0.002 A 
ATOM      7  C5  OXE d   1      -2.004  -0.397  -5.933  0.00  0.00    -0.002 A 
ATOM      8  C6  OXE d   1      -3.392  -0.359  -6.000  0.00  0.00     0.003 A 
ENDROOT
TORSDOF 0
ENDMDL
