MODEL 1
REMARK minimizedAffinity 1.44960546
REMARK minimizedRMSD -1
REMARK  0 active torsions:
REMARK  status: ('A' for Active; 'I' for Inactive)
ROOT
ATOM      1  C2' OXE d   1      -5.623   3.441   4.286  0.00  0.00     0.078 C 
ATOM      2  C1' OXE d   1      -5.480   0.763   5.116  0.00  0.00     0.078 C 
ATOM      3  C1  OXE d   1      -4.872   1.119   3.783  0.00  0.00    -0.078 A 
ATOM      4  C2  OXE d   1      -4.988   2.423   3.363  0.00  0.00    -0.078 A 
ATOM      5  C3  OXE d   1      -4.397   2.817   2.166  0.00  0.00     0.003 A 
ATOM      6  C4  OXE d   1      -3.820   1.867   1.314  0.00  0.00    -0.002 A 
ATOM      7  C5  OXE d   1      -3.727   0.527   1.704  0.00  0.00    -0.002 A 
ATOM      8  C6  OXE d   1      -4.209   0.145   2.951  0.00  0.00     0.003 A 
ENDROOT
TORSDOF 0
ENDMDL
