MODEL 1
REMARK minimizedAffinity 14.7153254
REMARK minimizedRMSD -1
REMARK  0 active torsions:
REMARK  status: ('A' for Active; 'I' for Inactive)
ROOT
ATOM      1  C2' OXE d   1      -3.884  -3.717  -5.980  0.00  0.00     0.078 C 
ATOM      2  C1' OXE d   1      -4.538  -0.987  -5.939  0.00  0.00     0.078 C 
ATOM      3  C1  OXE d   1      -3.076  -1.361  -5.956  0.00  0.00    -0.078 A 
ATOM      4  C2  OXE d   1      -2.766  -2.699  -5.929  0.00  0.00    -0.078 A 
ATOM      5  C3  OXE d   1      -1.434  -3.099  -5.998  0.00  0.00     0.003 A 
ATOM      6  C4  OXE d   1      -0.405  -2.151  -5.940  0.00  0.00    -0.002 A 
ATOM      7  C5  OXE d   1      -0.700  -0.784  -5.928  0.00  0.00    -0.002 A 
ATOM      8  C6  OXE d   1      -2.027  -0.372  -5.978  0.00  0.00     0.003 A 
ENDROOT
TORSDOF 0
ENDMDL
