MODEL 1
REMARK minimizedAffinity 4.89536524
REMARK minimizedRMSD -1
REMARK  0 active torsions:
REMARK  status: ('A' for Active; 'I' for Inactive)
ROOT
ATOM      1  C2' OXE d   1      -5.529  -1.201  -5.950  0.00  0.00     0.078 C 
ATOM      2  C1' OXE d   1      -4.624  -3.858  -5.998  0.00  0.00     0.078 C 
ATOM      3  C1  OXE d   1      -3.588  -2.762  -5.977  0.00  0.00    -0.078 A 
ATOM      4  C2  OXE d   1      -4.039  -1.464  -6.000  0.00  0.00    -0.078 A 
ATOM      5  C3  OXE d   1      -3.127  -0.415  -5.926  0.00  0.00     0.003 A 
ATOM      6  C4  OXE d   1      -1.751  -0.667  -5.983  0.00  0.00    -0.002 A 
ATOM      7  C5  OXE d   1      -1.270  -1.981  -6.000  0.00  0.00    -0.002 A 
ATOM      8  C6  OXE d   1      -2.172  -3.038  -5.954  0.00  0.00     0.003 A 
ENDROOT
TORSDOF 0
ENDMDL
