MODEL 1
REMARK minimizedAffinity 0.973895669
REMARK minimizedRMSD -1
REMARK  0 active torsions:
REMARK  status: ('A' for Active; 'I' for Inactive)
ROOT
ATOM      1  C2' OXE d   1      -4.802  -3.991  -5.996  0.00  0.00     0.078 C 
ATOM      2  C1' OXE d   1      -5.851  -1.387  -5.976  0.00  0.00     0.078 C 
ATOM      3  C1  OXE d   1      -4.351  -1.541  -5.980  0.00  0.00    -0.078 A 
ATOM      4  C2  OXE d   1      -3.846  -2.819  -5.942  0.00  0.00    -0.078 A 
ATOM      5  C3  OXE d   1      -2.470  -3.018  -5.999  0.00  0.00     0.003 A 
ATOM      6  C4  OXE d   1      -1.592  -1.929  -5.939  0.00  0.00    -0.002 A 
ATOM      7  C5  OXE d   1      -2.085  -0.620  -5.937  0.00  0.00    -0.002 A 
ATOM      8  C6  OXE d   1      -3.458  -0.408  -6.000  0.00  0.00     0.003 A 
ENDROOT
TORSDOF 0
ENDMDL
