MODEL 1
REMARK minimizedAffinity 11.1158819
REMARK minimizedRMSD -1
REMARK  0 active torsions:
REMARK  status: ('A' for Active; 'I' for Inactive)
ROOT
ATOM      1  C2' OXE d   1      -3.525  -3.471  -6.000  0.00  0.00     0.078 C 
ATOM      2  C1' OXE d   1      -4.086  -0.895  -5.036  0.00  0.00     0.078 C 
ATOM      3  C1  OXE d   1      -2.642  -1.255  -5.280  0.00  0.00    -0.078 A 
ATOM      4  C2  OXE d   1      -2.373  -2.533  -5.707  0.00  0.00    -0.078 A 
ATOM      5  C3  OXE d   1      -1.063  -2.901  -6.000  0.00  0.00     0.003 A 
ATOM      6  C4  OXE d   1      -0.003  -2.031  -5.717  0.00  0.00    -0.002 A 
ATOM      7  C5  OXE d   1      -0.252  -0.739  -5.243  0.00  0.00    -0.002 A 
ATOM      8  C6  OXE d   1      -1.566  -0.321  -5.060  0.00  0.00     0.003 A 
ENDROOT
TORSDOF 0
ENDMDL
