MODEL 1
REMARK minimizedAffinity 2.39104557
REMARK minimizedRMSD -1
REMARK  0 active torsions:
REMARK  status: ('A' for Active; 'I' for Inactive)
ROOT
ATOM      1  C2' OXE d   1      -3.654   0.169   1.830  0.00  0.00     0.078 C 
ATOM      2  C1' OXE d   1      -4.897   2.657   2.218  0.00  0.00     0.078 C 
ATOM      3  C1  OXE d   1      -4.917   1.674   3.362  0.00  0.00    -0.078 A 
ATOM      4  C2  OXE d   1      -4.348   0.442   3.147  0.00  0.00    -0.078 A 
ATOM      5  C3  OXE d   1      -4.292  -0.482   4.187  0.00  0.00     0.003 A 
ATOM      6  C4  OXE d   1      -4.944  -0.227   5.399  0.00  0.00    -0.002 A 
ATOM      7  C5  OXE d   1      -5.565   1.007   5.625  0.00  0.00    -0.002 A 
ATOM      8  C6  OXE d   1      -5.523   1.982   4.634  0.00  0.00     0.003 A 
ENDROOT
TORSDOF 0
ENDMDL
