MODEL 1
REMARK minimizedAffinity 7.49880362
REMARK minimizedRMSD -1
REMARK  0 active torsions:
REMARK  status: ('A' for Active; 'I' for Inactive)
ROOT
ATOM      1  C2' OXE d   1      -5.461  -2.058  -4.972  0.00  0.00     0.078 C 
ATOM      2  C1' OXE d   1      -4.205  -4.373  -5.941  0.00  0.00     0.078 C 
ATOM      3  C1  OXE d   1      -3.355  -3.144  -5.739  0.00  0.00    -0.078 A 
ATOM      4  C2  OXE d   1      -3.986  -2.002  -5.309  0.00  0.00    -0.078 A 
ATOM      5  C3  OXE d   1      -3.240  -0.856  -5.053  0.00  0.00     0.003 A 
ATOM      6  C4  OXE d   1      -1.878  -0.810  -5.377  0.00  0.00    -0.002 A 
ATOM      7  C5  OXE d   1      -1.223  -1.950  -5.853  0.00  0.00    -0.002 A 
ATOM      8  C6  OXE d   1      -1.936  -3.135  -5.999  0.00  0.00     0.003 A 
ENDROOT
TORSDOF 0
ENDMDL
