MODEL 1
REMARK minimizedAffinity 2.69197965
REMARK minimizedRMSD -1
REMARK  0 active torsions:
REMARK  status: ('A' for Active; 'I' for Inactive)
ROOT
ATOM      1  C2' OXE d   1      -5.894   2.210   5.731  0.00  0.00     0.078 C 
ATOM      2  C1' OXE d   1      -4.322  -0.101   5.475  0.00  0.00     0.078 C 
ATOM      3  C1  OXE d   1      -4.291   0.899   4.347  0.00  0.00    -0.078 A 
ATOM      4  C2  OXE d   1      -5.099   2.005   4.460  0.00  0.00    -0.078 A 
ATOM      5  C3  OXE d   1      -5.068   2.985   3.473  0.00  0.00     0.003 A 
ATOM      6  C4  OXE d   1      -4.338   2.783   2.295  0.00  0.00    -0.002 A 
ATOM      7  C5  OXE d   1      -3.539   1.645   2.142  0.00  0.00    -0.002 A 
ATOM      8  C6  OXE d   1      -3.471   0.716   3.175  0.00  0.00     0.003 A 
ENDROOT
TORSDOF 0
ENDMDL
