MODEL 1
REMARK minimizedAffinity 0.604884386
REMARK minimizedRMSD -1
REMARK  0 active torsions:
REMARK  status: ('A' for Active; 'I' for Inactive)
ROOT
ATOM      1  C2' OXE d   1      -4.048  -4.337  -5.981  0.00  0.00     0.078 C 
ATOM      2  C1' OXE d   1      -5.782  -2.130  -5.964  0.00  0.00     0.078 C 
ATOM      3  C1  OXE d   1      -4.299  -1.859  -5.953  0.00  0.00    -0.078 A 
ATOM      4  C2  OXE d   1      -3.458  -2.945  -5.914  0.00  0.00    -0.078 A 
ATOM      5  C3  OXE d   1      -2.080  -2.752  -5.957  0.00  0.00     0.003 A 
ATOM      6  C4  OXE d   1      -1.542  -1.462  -5.885  0.00  0.00    -0.002 A 
ATOM      7  C5  OXE d   1      -2.381  -0.342  -5.883  0.00  0.00    -0.002 A 
ATOM      8  C6  OXE d   1      -3.758  -0.522  -5.960  0.00  0.00     0.003 A 
ENDROOT
TORSDOF 0
ENDMDL
