MODEL 1
REMARK minimizedAffinity 1.30509377
REMARK minimizedRMSD -1
REMARK  0 active torsions:
REMARK  status: ('A' for Active; 'I' for Inactive)
ROOT
ATOM      1  C2' OXE d   1      -4.572  -4.084  -6.000  0.00  0.00     0.078 C 
ATOM      2  C1' OXE d   1      -5.744  -1.533  -5.963  0.00  0.00     0.078 C 
ATOM      3  C1  OXE d   1      -4.238  -1.615  -5.968  0.00  0.00    -0.078 A 
ATOM      4  C2  OXE d   1      -3.673  -2.868  -5.939  0.00  0.00    -0.078 A 
ATOM      5  C3  OXE d   1      -2.289  -3.001  -5.998  0.00  0.00     0.003 A 
ATOM      6  C4  OXE d   1      -1.465  -1.871  -5.931  0.00  0.00    -0.002 A 
ATOM      7  C5  OXE d   1      -2.020  -0.587  -5.920  0.00  0.00    -0.002 A 
ATOM      8  C6  OXE d   1      -3.401  -0.441  -5.981  0.00  0.00     0.003 A 
ENDROOT
TORSDOF 0
ENDMDL
