MODEL 1
REMARK minimizedAffinity 10.436017
REMARK minimizedRMSD -1
REMARK  0 active torsions:
REMARK  status: ('A' for Active; 'I' for Inactive)
ROOT
ATOM      1  C2' OXE d   1      -1.742  -1.481   2.117  0.00  0.00     0.078 C 
ATOM      2  C1' OXE d   1      -4.371  -2.020   1.294  0.00  0.00     0.078 C 
ATOM      3  C1  OXE d   1      -3.886  -0.594   1.212  0.00  0.00    -0.078 A 
ATOM      4  C2  OXE d   1      -2.614  -0.332   1.660  0.00  0.00    -0.078 A 
ATOM      5  C3  OXE d   1      -2.098   0.957   1.555  0.00  0.00     0.003 A 
ATOM      6  C4  OXE d   1      -2.915   2.016   1.141  0.00  0.00    -0.002 A 
ATOM      7  C5  OXE d   1      -4.227   1.777   0.717  0.00  0.00    -0.002 A 
ATOM      8  C6  OXE d   1      -4.713   0.474   0.706  0.00  0.00     0.003 A 
ENDROOT
TORSDOF 0
ENDMDL
