MODEL 1
REMARK minimizedAffinity 1.69826901
REMARK minimizedRMSD -1
REMARK  0 active torsions:
REMARK  status: ('A' for Active; 'I' for Inactive)
ROOT
ATOM      1  C2' OXE d   1       5.131  -3.765   2.157  0.00  0.00     0.078 C 
ATOM      2  C1' OXE d   1       4.931  -0.976   2.402  0.00  0.00     0.078 C 
ATOM      3  C1  OXE d   1       5.325  -1.763   3.626  0.00  0.00    -0.078 A 
ATOM      4  C2  OXE d   1       5.375  -3.131   3.510  0.00  0.00    -0.078 A 
ATOM      5  C3  OXE d   1       5.786  -3.901   4.594  0.00  0.00     0.003 A 
ATOM      6  C4  OXE d   1       5.999  -3.308   5.844  0.00  0.00    -0.002 A 
ATOM      7  C5  OXE d   1       5.915  -1.920   5.995  0.00  0.00    -0.002 A 
ATOM      8  C6  OXE d   1       5.621  -1.131   4.888  0.00  0.00     0.003 A 
ENDROOT
TORSDOF 0
ENDMDL
