MODEL 1
REMARK minimizedAffinity 11.9379148
REMARK minimizedRMSD -1
REMARK  0 active torsions:
REMARK  status: ('A' for Active; 'I' for Inactive)
ROOT
ATOM      1  C2' OXE d   1       3.942   1.096  -2.485  0.00  0.00     0.078 C 
ATOM      2  C1' OXE d   1       3.685   0.475  -5.211  0.00  0.00     0.078 C 
ATOM      3  C1  OXE d   1       2.480   0.272  -4.326  0.00  0.00    -0.078 A 
ATOM      4  C2  OXE d   1       2.629   0.534  -2.986  0.00  0.00    -0.078 A 
ATOM      5  C3  OXE d   1       1.534   0.416  -2.135  0.00  0.00     0.003 A 
ATOM      6  C4  OXE d   1       0.325  -0.114  -2.603  0.00  0.00    -0.002 A 
ATOM      7  C5  OXE d   1       0.165  -0.425  -3.958  0.00  0.00    -0.002 A 
ATOM      8  C6  OXE d   1       1.217  -0.198  -4.839  0.00  0.00     0.003 A 
ENDROOT
TORSDOF 0
ENDMDL
