MODEL 1
REMARK minimizedAffinity 6.87910318
REMARK minimizedRMSD -1
REMARK  0 active torsions:
REMARK  status: ('A' for Active; 'I' for Inactive)
ROOT
ATOM      1  C2' OXE d   1      -1.873   0.076  -5.907  0.00  0.00     0.078 C 
ATOM      2  C1' OXE d   1      -1.103  -2.623  -5.988  0.00  0.00     0.078 C 
ATOM      3  C1  OXE d   1      -2.579  -2.313  -5.960  0.00  0.00    -0.078 A 
ATOM      4  C2  OXE d   1      -2.946  -0.991  -5.873  0.00  0.00    -0.078 A 
ATOM      5  C3  OXE d   1      -4.294  -0.647  -5.899  0.00  0.00     0.003 A 
ATOM      6  C4  OXE d   1      -5.280  -1.640  -5.857  0.00  0.00    -0.002 A 
ATOM      7  C5  OXE d   1      -4.928  -2.993  -5.905  0.00  0.00    -0.002 A 
ATOM      8  C6  OXE d   1      -3.586  -3.344  -5.999  0.00  0.00     0.003 A 
ENDROOT
TORSDOF 0
ENDMDL
