MODEL 1
REMARK minimizedAffinity 3.22446775
REMARK minimizedRMSD -1
REMARK  0 active torsions:
REMARK  status: ('A' for Active; 'I' for Inactive)
ROOT
ATOM      1  C2' OXE d   1      -3.049  -4.664  -5.999  0.00  0.00     0.078 C 
ATOM      2  C1' OXE d   1      -5.289  -2.972  -5.969  0.00  0.00     0.078 C 
ATOM      3  C1  OXE d   1      -3.924  -2.331  -5.974  0.00  0.00    -0.078 A 
ATOM      4  C2  OXE d   1      -2.834  -3.167  -5.941  0.00  0.00    -0.078 A 
ATOM      5  C3  OXE d   1      -1.551  -2.629  -6.000  0.00  0.00     0.003 A 
ATOM      6  C4  OXE d   1      -1.360  -1.243  -5.936  0.00  0.00    -0.002 A 
ATOM      7  C5  OXE d   1      -2.457  -0.375  -5.928  0.00  0.00    -0.002 A 
ATOM      8  C6  OXE d   1      -3.743  -0.901  -5.989  0.00  0.00     0.003 A 
ENDROOT
TORSDOF 0
ENDMDL
