MODEL 1
REMARK minimizedAffinity -3.43853974
REMARK minimizedRMSD -1
REMARK  1 active torsions:
REMARK  status: ('A' for Active; 'I' for Inactive)
REMARK    1  A    between atoms: C3_4  and  O_7 
ROOT
ATOM      1  C   UNL d   1       1.934   1.230   0.939  0.00  0.00    -0.033 A 
ATOM      2  C1  UNL d   1       1.951  -0.097   0.506  0.00  0.00     0.039 A 
ATOM      3  C2  UNL d   1       0.813  -0.657  -0.079  0.00  0.00    -0.080 A 
ATOM      4  C3  UNL d   1      -0.333   0.121  -0.225  0.00  0.00     0.150 A 
ATOM      5  C4  UNL d   1      -0.355   1.445   0.201  0.00  0.00    -0.007 A 
ATOM      6  C5  UNL d   1       0.782   2.001   0.785  0.00  0.00     0.039 A 
ENDROOT
BRANCH   4   7
ATOM      7  O   UNL d   1      -1.469  -0.383  -0.785  0.00  0.00    -0.526 OA
ATOM      8  H5  UNL d   1      -1.316  -1.317  -1.005  0.00  0.00     0.418 HD
ENDBRANCH   4   7
TORSDOF 1
ENDMDL
