MODEL 1
REMARK minimizedAffinity -3.53670812
REMARK minimizedRMSD -1
REMARK  1 active torsions:
REMARK  status: ('A' for Active; 'I' for Inactive)
REMARK    1  A    between atoms: C3_4  and  O_7 
ROOT
ATOM      1  C   UNL d   1       3.003   0.400   0.614  0.00  0.00    -0.033 A 
ATOM      2  C1  UNL d   1       2.233   1.483   0.186  0.00  0.00     0.039 A 
ATOM      3  C2  UNL d   1       0.861   1.328  -0.021  0.00  0.00    -0.080 A 
ATOM      4  C3  UNL d   1       0.271   0.088   0.205  0.00  0.00     0.150 A 
ATOM      5  C4  UNL d   1       1.031  -0.995   0.636  0.00  0.00    -0.007 A 
ATOM      6  C5  UNL d   1       2.402  -0.839   0.841  0.00  0.00     0.039 A 
ENDROOT
BRANCH   4   7
ATOM      7  O   UNL d   1      -1.063  -0.113   0.013  0.00  0.00    -0.526 OA
ATOM      8  H5  UNL d   1      -1.455   0.715  -0.312  0.00  0.00     0.418 HD
ENDBRANCH   4   7
TORSDOF 1
ENDMDL
