MODEL 1
REMARK minimizedAffinity -5.17087317
REMARK minimizedRMSD -1
REMARK  1 active torsions:
REMARK  status: ('A' for Active; 'I' for Inactive)
REMARK    1  A    between atoms: C3_4  and  O_7 
ROOT
ATOM      1  C   UNL d   1       3.359  -0.863   1.027  0.00  0.00    -0.033 A 
ATOM      2  C1  UNL d   1       2.500  -1.935   1.279  0.00  0.00     0.039 A 
ATOM      3  C2  UNL d   1       1.136  -1.818   1.004  0.00  0.00    -0.080 A 
ATOM      4  C3  UNL d   1       0.644  -0.626   0.478  0.00  0.00     0.150 A 
ATOM      5  C4  UNL d   1       1.495   0.444   0.221  0.00  0.00    -0.007 A 
ATOM      6  C5  UNL d   1       2.857   0.326   0.497  0.00  0.00     0.039 A 
ENDROOT
BRANCH   4   7
ATOM      7  O   UNL d   1      -0.680  -0.464   0.198  0.00  0.00    -0.526 OA
ATOM      8  H5  UNL d   1      -1.150  -1.275   0.453  0.00  0.00     0.418 HD
ENDBRANCH   4   7
TORSDOF 1
ENDMDL
