MODEL 1
REMARK minimizedAffinity -5.6858778
REMARK minimizedRMSD -1
REMARK  1 active torsions:
REMARK  status: ('A' for Active; 'I' for Inactive)
REMARK    1  A    between atoms: C3_4  and  O_7 
ROOT
ATOM      1  C   UNL d   1       2.906  -0.784   1.300  0.00  0.00    -0.033 A 
ATOM      2  C1  UNL d   1       1.945  -1.786   1.451  0.00  0.00     0.039 A 
ATOM      3  C2  UNL d   1       0.614  -1.535   1.113  0.00  0.00    -0.080 A 
ATOM      4  C3  UNL d   1       0.257  -0.280   0.626  0.00  0.00     0.150 A 
ATOM      5  C4  UNL d   1       1.210   0.721   0.469  0.00  0.00    -0.007 A 
ATOM      6  C5  UNL d   1       2.539   0.468   0.807  0.00  0.00     0.039 A 
ENDROOT
BRANCH   4   7
ATOM      7  O   UNL d   1      -1.030   0.013   0.287  0.00  0.00    -0.526 OA
ATOM      8  H5  UNL d   1      -1.583  -0.764   0.475  0.00  0.00     0.418 HD
ENDBRANCH   4   7
TORSDOF 1
ENDMDL
