MODEL 1
REMARK minimizedAffinity -4.2728672
REMARK minimizedRMSD -1
REMARK  1 active torsions:
REMARK  status: ('A' for Active; 'I' for Inactive)
REMARK    1  A    between atoms: C3_4  and  O_7 
ROOT
ATOM      1  C   UNL d   1       1.680   1.478   0.220  0.00  0.00    -0.033 A 
ATOM      2  C1  UNL d   1       2.867   0.948   0.730  0.00  0.00     0.039 A 
ATOM      3  C2  UNL d   1       2.865  -0.303   1.351  0.00  0.00    -0.080 A 
ATOM      4  C3  UNL d   1       1.672  -1.012   1.454  0.00  0.00     0.150 A 
ATOM      5  C4  UNL d   1       0.487  -0.492   0.945  0.00  0.00    -0.007 A 
ATOM      6  C5  UNL d   1       0.490   0.758   0.326  0.00  0.00     0.039 A 
ENDROOT
BRANCH   4   7
ATOM      7  O   UNL d   1       1.619  -2.235   2.056  0.00  0.00    -0.526 OA
ATOM      8  H5  UNL d   1       2.507  -2.454   2.385  0.00  0.00     0.418 HD
ENDBRANCH   4   7
TORSDOF 1
ENDMDL
