MODEL 1
REMARK minimizedAffinity -4.86103773
REMARK minimizedRMSD -1
REMARK  1 active torsions:
REMARK  status: ('A' for Active; 'I' for Inactive)
REMARK    1  A    between atoms: C3_4  and  O_7 
ROOT
ATOM      1  C   UNL d   1       2.832   0.076   0.992  0.00  0.00    -0.033 A 
ATOM      2  C1  UNL d   1       2.439   1.262   0.370  0.00  0.00     0.039 A 
ATOM      3  C2  UNL d   1       1.112   1.439  -0.025  0.00  0.00    -0.080 A 
ATOM      4  C3  UNL d   1       0.189   0.423   0.208  0.00  0.00     0.150 A 
ATOM      5  C4  UNL d   1       0.572  -0.760   0.830  0.00  0.00    -0.007 A 
ATOM      6  C5  UNL d   1       1.899  -0.935   1.223  0.00  0.00     0.039 A 
ENDROOT
BRANCH   4   7
ATOM      7  O   UNL d   1      -1.117   0.548  -0.165  0.00  0.00    -0.526 OA
ATOM      8  H5  UNL d   1      -1.230   1.405  -0.609  0.00  0.00     0.418 HD
ENDBRANCH   4   7
TORSDOF 1
ENDMDL
