MODEL 1
REMARK minimizedAffinity -4.50588465
REMARK minimizedRMSD -1
REMARK  1 active torsions:
REMARK  status: ('A' for Active; 'I' for Inactive)
REMARK    1  A    between atoms: C3_4  and  O_7 
ROOT
ATOM      1  C   UNL d   1       2.792  -0.884   0.453  0.00  0.00    -0.033 A 
ATOM      2  C1  UNL d   1       2.753   0.500   0.273  0.00  0.00     0.039 A 
ATOM      3  C2  UNL d   1       1.540   1.138   0.006  0.00  0.00    -0.080 A 
ATOM      4  C3  UNL d   1       0.374   0.381  -0.078  0.00  0.00     0.150 A 
ATOM      5  C4  UNL d   1       0.405  -0.998   0.104  0.00  0.00    -0.007 A 
ATOM      6  C5  UNL d   1       1.617  -1.632   0.370  0.00  0.00     0.039 A 
ENDROOT
BRANCH   4   7
ATOM      7  O   UNL d   1      -0.833   0.958  -0.341  0.00  0.00    -0.526 OA
ATOM      8  H5  UNL d   1      -0.696   1.911  -0.472  0.00  0.00     0.418 HD
ENDBRANCH   4   7
TORSDOF 1
ENDMDL
