MODEL 1
REMARK minimizedAffinity -0.986928821
REMARK minimizedRMSD -1
REMARK  1 active torsions:
REMARK  status: ('A' for Active; 'I' for Inactive)
REMARK    1  A    between atoms: C3_4  and  O_7 
ROOT
ATOM      1  C   UNL d   1       0.293   1.265  -1.009  0.00  0.00    -0.033 A 
ATOM      2  C1  UNL d   1      -0.033  -0.001  -1.501  0.00  0.00     0.039 A 
ATOM      3  C2  UNL d   1      -0.304  -1.047  -0.616  0.00  0.00    -0.080 A 
ATOM      4  C3  UNL d   1      -0.247  -0.814   0.755  0.00  0.00     0.150 A 
ATOM      5  C4  UNL d   1       0.074   0.445   1.251  0.00  0.00    -0.007 A 
ATOM      6  C5  UNL d   1       0.345   1.488   0.367  0.00  0.00     0.039 A 
ENDROOT
BRANCH   4   7
ATOM      7  O   UNL d   1      -0.498  -1.805   1.657  0.00  0.00    -0.526 OA
ATOM      8  H5  UNL d   1      -0.677  -2.626   1.170  0.00  0.00     0.418 HD
ENDBRANCH   4   7
TORSDOF 1
ENDMDL
