MODEL 1
REMARK minimizedAffinity -5.51088524
REMARK minimizedRMSD -1
REMARK  1 active torsions:
REMARK  status: ('A' for Active; 'I' for Inactive)
REMARK    1  A    between atoms: C3_4  and  O_7 
ROOT
ATOM      1  C   UNL d   1       2.909   0.298   0.777  0.00  0.00    -0.033 A 
ATOM      2  C1  UNL d   1       2.223   1.514   0.803  0.00  0.00     0.039 A 
ATOM      3  C2  UNL d   1       0.858   1.554   0.513  0.00  0.00    -0.080 A 
ATOM      4  C3  UNL d   1       0.191   0.373   0.199  0.00  0.00     0.150 A 
ATOM      5  C4  UNL d   1       0.867  -0.842   0.174  0.00  0.00    -0.007 A 
ATOM      6  C5  UNL d   1       2.231  -0.880   0.464  0.00  0.00     0.039 A 
ENDROOT
BRANCH   4   7
ATOM      7  O   UNL d   1      -1.139   0.363  -0.097  0.00  0.00    -0.526 OA
ATOM      8  H5  UNL d   1      -1.468   1.277  -0.069  0.00  0.00     0.418 HD
ENDBRANCH   4   7
TORSDOF 1
ENDMDL
