MODEL 1
REMARK minimizedAffinity -1.64474082
REMARK minimizedRMSD -1
REMARK  1 active torsions:
REMARK  status: ('A' for Active; 'I' for Inactive)
REMARK    1  A    between atoms: C3_4  and  O_7 
ROOT
ATOM      1  C   UNL d   1       5.999   3.345  -4.361  0.00  0.00    -0.033 A 
ATOM      2  C1  UNL d   1       6.000   2.167  -3.611  0.00  0.00     0.039 A 
ATOM      3  C2  UNL d   1       5.280   1.055  -4.052  0.00  0.00    -0.080 A 
ATOM      4  C3  UNL d   1       4.565   1.134  -5.244  0.00  0.00     0.150 A 
ATOM      5  C4  UNL d   1       4.562   2.302  -5.999  0.00  0.00    -0.007 A 
ATOM      6  C5  UNL d   1       5.281   3.412  -5.556  0.00  0.00     0.039 A 
ENDROOT
BRANCH   4   7
ATOM      7  O   UNL d   1       3.843   0.076  -5.713  0.00  0.00    -0.526 OA
ATOM      8  H5  UNL d   1       3.914  -0.652  -5.074  0.00  0.00     0.418 HD
ENDBRANCH   4   7
TORSDOF 1
ENDMDL
