MODEL 1
REMARK minimizedAffinity 5.88570738
REMARK minimizedRMSD -1
REMARK  2 active torsions:
REMARK  status: ('A' for Active; 'I' for Inactive)
REMARK    1  A    between atoms: C1_2  and  C2_3 
REMARK    2  A    between atoms: C2_3  and  C3_4 
ROOT
ATOM      1  C3  UNL d   1      -2.588  -1.573  -2.100  0.00  0.00    -0.075 A 
ATOM      2  C4  UNL d   1      -2.493  -2.646  -2.998  0.00  0.00     0.002 A 
ATOM      3  C5  UNL d   1      -1.709  -2.541  -4.148  0.00  0.00     0.002 A 
ATOM      4  C6  UNL d   1      -1.020  -1.361  -4.419  0.00  0.00    -0.004 A 
ATOM      5  C7  UNL d   1      -1.120  -0.283  -3.542  0.00  0.00     0.002 A 
ATOM      6  C8  UNL d   1      -1.900  -0.387  -2.389  0.00  0.00     0.002 A 
ENDROOT
BRANCH   1   7
ATOM      7  C2  UNL d   1      -3.411  -1.691  -0.840  0.00  0.00     0.056 C 
BRANCH   7   8
ATOM      8  C1  UNL d   1      -2.784  -2.588   0.233  0.00  0.00     0.007 C 
ATOM      9  C   UNL d   1      -1.576  -1.957   0.913  0.00  0.00     0.009 C 
ENDBRANCH   7   8
ENDBRANCH   1   7
TORSDOF 2
ENDMDL
