MODEL 1
REMARK minimizedAffinity 6.42789459
REMARK minimizedRMSD -1
REMARK  2 active torsions:
REMARK  status: ('A' for Active; 'I' for Inactive)
REMARK    1  A    between atoms: C1_2  and  C2_3 
REMARK    2  A    between atoms: C2_3  and  C3_4 
ROOT
ATOM      1  C3  UNL d   1      -0.987  -2.117  -4.222  0.00  0.00    -0.075 A 
ATOM      2  C4  UNL d   1      -1.690  -1.391  -3.250  0.00  0.00     0.002 A 
ATOM      3  C5  UNL d   1      -2.737  -1.982  -2.544  0.00  0.00     0.002 A 
ATOM      4  C6  UNL d   1      -3.102  -3.301  -2.806  0.00  0.00    -0.004 A 
ATOM      5  C7  UNL d   1      -2.421  -4.027  -3.781  0.00  0.00     0.002 A 
ATOM      6  C8  UNL d   1      -1.369  -3.439  -4.486  0.00  0.00     0.002 A 
ENDROOT
BRANCH   1   7
ATOM      7  C2  UNL d   1       0.167  -1.493  -4.969  0.00  0.00     0.056 C 
BRANCH   7   8
ATOM      8  C1  UNL d   1       1.536  -1.744  -4.327  0.00  0.00     0.007 C 
ATOM      9  C   UNL d   1       1.588  -1.356  -2.856  0.00  0.00     0.009 C 
ENDBRANCH   7   8
ENDBRANCH   1   7
TORSDOF 2
ENDMDL
