MODEL 1
REMARK minimizedAffinity 1.54299009
REMARK minimizedRMSD -1
REMARK  2 active torsions:
REMARK  status: ('A' for Active; 'I' for Inactive)
REMARK    1  A    between atoms: C1_2  and  C2_3 
REMARK    2  A    between atoms: C2_3  and  C3_4 
ROOT
ATOM      1  C3  UNL d   1       2.241  -5.962   3.174  0.00  0.00    -0.075 A 
ATOM      2  C4  UNL d   1       1.639  -5.966   4.441  0.00  0.00     0.002 A 
ATOM      3  C5  UNL d   1       0.249  -5.965   4.565  0.00  0.00     0.002 A 
ATOM      4  C6  UNL d   1      -0.555  -5.949   3.428  0.00  0.00    -0.004 A 
ATOM      5  C7  UNL d   1       0.032  -5.928   2.165  0.00  0.00     0.002 A 
ATOM      6  C8  UNL d   1       1.422  -5.934   2.037  0.00  0.00     0.002 A 
ENDROOT
BRANCH   1   7
ATOM      7  C2  UNL d   1       3.744  -5.993   3.033  0.00  0.00     0.056 C 
BRANCH   7   8
ATOM      8  C1  UNL d   1       4.496  -6.000   4.368  0.00  0.00     0.007 C 
ATOM      9  C   UNL d   1       6.000  -5.818   4.210  0.00  0.00     0.009 C 
ENDBRANCH   7   8
ENDBRANCH   1   7
TORSDOF 2
ENDMDL
