MODEL 1
REMARK minimizedAffinity 3.93900299
REMARK minimizedRMSD -1
REMARK  2 active torsions:
REMARK  status: ('A' for Active; 'I' for Inactive)
REMARK    1  A    between atoms: C1_2  and  C2_3 
REMARK    2  A    between atoms: C2_3  and  C3_4 
ROOT
ATOM      1  C3  UNL d   1       0.500  -5.726   2.468  0.00  0.00    -0.075 A 
ATOM      2  C4  UNL d   1      -0.029  -6.000   3.738  0.00  0.00     0.002 A 
ATOM      3  C5  UNL d   1       0.710  -5.720   4.888  0.00  0.00     0.002 A 
ATOM      4  C6  UNL d   1       1.987  -5.175   4.783  0.00  0.00    -0.004 A 
ATOM      5  C7  UNL d   1       2.529  -4.914   3.527  0.00  0.00     0.002 A 
ATOM      6  C8  UNL d   1       1.791  -5.189   2.374  0.00  0.00     0.002 A 
ENDROOT
BRANCH   1   7
ATOM      7  C2  UNL d   1      -0.305  -5.999   1.220  0.00  0.00     0.056 C 
BRANCH   7   8
ATOM      8  C1  UNL d   1      -1.821  -5.991   1.442  0.00  0.00     0.007 C 
ATOM      9  C   UNL d   1      -2.618  -5.988   0.145  0.00  0.00     0.009 C 
ENDBRANCH   7   8
ENDBRANCH   1   7
TORSDOF 2
ENDMDL
