MODEL 1
REMARK minimizedAffinity 4.31385183
REMARK minimizedRMSD -1
REMARK  2 active torsions:
REMARK  status: ('A' for Active; 'I' for Inactive)
REMARK    1  A    between atoms: C1_2  and  C2_3 
REMARK    2  A    between atoms: C2_3  and  C3_4 
ROOT
ATOM      1  C3  UNL d   1       0.639  -0.091   1.544  0.00  0.00    -0.075 A 
ATOM      2  C4  UNL d   1       1.597  -1.111   1.451  0.00  0.00     0.002 A 
ATOM      3  C5  UNL d   1       2.929  -0.864   1.785  0.00  0.00     0.002 A 
ATOM      4  C6  UNL d   1       3.322   0.405   2.204  0.00  0.00    -0.004 A 
ATOM      5  C7  UNL d   1       2.382   1.430   2.284  0.00  0.00     0.002 A 
ATOM      6  C8  UNL d   1       1.047   1.185   1.956  0.00  0.00     0.002 A 
ENDROOT
BRANCH   1   7
ATOM      7  C2  UNL d   1      -0.810  -0.359   1.213  0.00  0.00     0.056 C 
BRANCH   7   8
ATOM      8  C1  UNL d   1      -1.520  -1.271   2.219  0.00  0.00     0.007 C 
ATOM      9  C   UNL d   1      -2.666  -2.065   1.604  0.00  0.00     0.009 C 
ENDBRANCH   7   8
ENDBRANCH   1   7
TORSDOF 2
ENDMDL
