MODEL 1
REMARK minimizedAffinity 5.28686953
REMARK minimizedRMSD -1
REMARK  2 active torsions:
REMARK  status: ('A' for Active; 'I' for Inactive)
REMARK    1  A    between atoms: C1_2  and  C2_3 
REMARK    2  A    between atoms: C2_3  and  C3_4 
ROOT
ATOM      1  C3  UNL d   1      -1.136  -5.978   1.612  0.00  0.00    -0.075 A 
ATOM      2  C4  UNL d   1      -2.447  -5.962   2.109  0.00  0.00     0.002 A 
ATOM      3  C5  UNL d   1      -3.536  -5.970   1.236  0.00  0.00     0.002 A 
ATOM      4  C6  UNL d   1      -3.328  -5.983  -0.141  0.00  0.00    -0.004 A 
ATOM      5  C7  UNL d   1      -2.030  -5.982  -0.646  0.00  0.00     0.002 A 
ATOM      6  C8  UNL d   1      -0.939  -5.979   0.225  0.00  0.00     0.002 A 
ENDROOT
BRANCH   1   7
ATOM      7  C2  UNL d   1       0.046  -5.999   2.551  0.00  0.00     0.056 C 
BRANCH   7   8
ATOM      8  C1  UNL d   1       1.393  -5.750   1.864  0.00  0.00     0.007 C 
ATOM      9  C   UNL d   1       2.586  -5.963   2.787  0.00  0.00     0.009 C 
ENDBRANCH   7   8
ENDBRANCH   1   7
TORSDOF 2
ENDMDL
