MODEL 1
REMARK minimizedAffinity 6.91463375
REMARK minimizedRMSD -1
REMARK  2 active torsions:
REMARK  status: ('A' for Active; 'I' for Inactive)
REMARK    1  A    between atoms: C1_2  and  C2_3 
REMARK    2  A    between atoms: C2_3  and  C3_4 
ROOT
ATOM      1  C3  UNL d   1       1.864  -5.979   2.997  0.00  0.00    -0.075 A 
ATOM      2  C4  UNL d   1       1.627  -5.962   4.379  0.00  0.00     0.002 A 
ATOM      3  C5  UNL d   1       0.323  -5.975   4.875  0.00  0.00     0.002 A 
ATOM      4  C6  UNL d   1      -0.759  -5.995   3.997  0.00  0.00    -0.004 A 
ATOM      5  C7  UNL d   1      -0.536  -5.995   2.622  0.00  0.00     0.002 A 
ATOM      6  C8  UNL d   1       0.768  -5.987   2.123  0.00  0.00     0.002 A 
ENDROOT
BRANCH   1   7
ATOM      7  C2  UNL d   1       3.273  -5.995   2.455  0.00  0.00     0.056 C 
BRANCH   7   8
ATOM      8  C1  UNL d   1       4.310  -5.370   3.394  0.00  0.00     0.007 C 
ATOM      9  C   UNL d   1       5.697  -5.982   3.250  0.00  0.00     0.009 C 
ENDBRANCH   7   8
ENDBRANCH   1   7
TORSDOF 2
ENDMDL
