MODEL 1
REMARK minimizedAffinity 3.45739889
REMARK minimizedRMSD -1
REMARK  2 active torsions:
REMARK  status: ('A' for Active; 'I' for Inactive)
REMARK    1  A    between atoms: C1_2  and  C2_3 
REMARK    2  A    between atoms: C2_3  and  C3_4 
ROOT
ATOM      1  C3  UNL d   1      -4.012  -1.467   2.789  0.00  0.00    -0.075 A 
ATOM      2  C4  UNL d   1      -2.737  -1.314   3.351  0.00  0.00     0.002 A 
ATOM      3  C5  UNL d   1      -1.616  -1.857   2.722  0.00  0.00     0.002 A 
ATOM      4  C6  UNL d   1      -1.757  -2.566   1.531  0.00  0.00    -0.004 A 
ATOM      5  C7  UNL d   1      -3.021  -2.737   0.972  0.00  0.00     0.002 A 
ATOM      6  C8  UNL d   1      -4.144  -2.192   1.597  0.00  0.00     0.002 A 
ENDROOT
BRANCH   1   7
ATOM      7  C2  UNL d   1      -5.226  -0.857   3.450  0.00  0.00     0.056 C 
BRANCH   7   8
ATOM      8  C1  UNL d   1      -4.906  -0.030   4.699  0.00  0.00     0.007 C 
ATOM      9  C   UNL d   1      -5.177  -0.776   5.999  0.00  0.00     0.009 C 
ENDBRANCH   7   8
ENDBRANCH   1   7
TORSDOF 2
ENDMDL
