MODEL 1
REMARK minimizedAffinity -0.580023885
REMARK minimizedRMSD -1
REMARK  2 active torsions:
REMARK  status: ('A' for Active; 'I' for Inactive)
REMARK    1  A    between atoms: C1_2  and  C2_3 
REMARK    2  A    between atoms: C2_3  and  C3_4 
ROOT
ATOM      1  C3  UNL d   1      -3.759  -1.149   3.539  0.00  0.00    -0.075 A 
ATOM      2  C4  UNL d   1      -2.360  -1.182   3.627  0.00  0.00     0.002 A 
ATOM      3  C5  UNL d   1      -1.624  -2.089   2.862  0.00  0.00     0.002 A 
ATOM      4  C6  UNL d   1      -2.276  -2.977   2.011  0.00  0.00    -0.004 A 
ATOM      5  C7  UNL d   1      -3.667  -2.964   1.928  0.00  0.00     0.002 A 
ATOM      6  C8  UNL d   1      -4.405  -2.055   2.688  0.00  0.00     0.002 A 
ENDROOT
BRANCH   1   7
ATOM      7  C2  UNL d   1      -4.559  -0.151   4.341  0.00  0.00     0.056 C 
BRANCH   7   8
ATOM      8  C1  UNL d   1      -4.372   1.303   3.894  0.00  0.00     0.007 C 
ATOM      9  C   UNL d   1      -5.297   2.276   4.612  0.00  0.00     0.009 C 
ENDBRANCH   7   8
ENDBRANCH   1   7
TORSDOF 2
ENDMDL
