MODEL 1
REMARK minimizedAffinity -0.0219431538
REMARK minimizedRMSD -1
REMARK  2 active torsions:
REMARK  status: ('A' for Active; 'I' for Inactive)
REMARK    1  A    between atoms: C1_2  and  C2_3 
REMARK    2  A    between atoms: C2_3  and  C3_4 
ROOT
ATOM      1  C3  UNL d   1      -3.575   0.458   3.722  0.00  0.00    -0.075 A 
ATOM      2  C4  UNL d   1      -4.461  -0.395   4.396  0.00  0.00     0.002 A 
ATOM      3  C5  UNL d   1      -5.667   0.092   4.901  0.00  0.00     0.002 A 
ATOM      4  C6  UNL d   1      -5.998   1.436   4.747  0.00  0.00    -0.004 A 
ATOM      5  C7  UNL d   1      -5.118   2.297   4.094  0.00  0.00     0.002 A 
ATOM      6  C8  UNL d   1      -3.912   1.811   3.585  0.00  0.00     0.002 A 
ENDROOT
BRANCH   1   7
ATOM      7  C2  UNL d   1      -2.281  -0.068   3.148  0.00  0.00     0.056 C 
BRANCH   7   8
ATOM      8  C1  UNL d   1      -1.241   1.018   2.854  0.00  0.00     0.007 C 
ATOM      9  C   UNL d   1      -0.217   0.601   1.808  0.00  0.00     0.009 C 
ENDBRANCH   7   8
ENDBRANCH   1   7
TORSDOF 2
ENDMDL
