MODEL 1
REMARK minimizedAffinity -4.68421555
REMARK minimizedRMSD -1
REMARK  2 active torsions:
REMARK  status: ('A' for Active; 'I' for Inactive)
REMARK    1  A    between atoms: C1_2  and  C2_3 
REMARK    2  A    between atoms: C2_3  and  C3_4 
ROOT
ATOM      1  C3  UNL d   1       0.383  -0.127  -0.785  0.00  0.00    -0.075 A 
ATOM      2  C4  UNL d   1      -0.867  -0.597  -0.357  0.00  0.00     0.002 A 
ATOM      3  C5  UNL d   1      -1.203  -0.582   0.997  0.00  0.00     0.002 A 
ATOM      4  C6  UNL d   1      -0.293  -0.108   1.939  0.00  0.00    -0.004 A 
ATOM      5  C7  UNL d   1       0.958   0.346   1.527  0.00  0.00     0.002 A 
ATOM      6  C8  UNL d   1       1.296   0.336   0.172  0.00  0.00     0.002 A 
ENDROOT
BRANCH   1   7
ATOM      7  C2  UNL d   1       0.743  -0.113  -2.252  0.00  0.00     0.056 C 
BRANCH   7   8
ATOM      8  C1  UNL d   1       0.517  -1.452  -2.962  0.00  0.00     0.007 C 
ATOM      9  C   UNL d   1       1.808  -2.216  -3.229  0.00  0.00     0.009 C 
ENDBRANCH   7   8
ENDBRANCH   1   7
TORSDOF 2
ENDMDL
