MODEL 1
REMARK minimizedAffinity -1.51813102
REMARK minimizedRMSD -1
REMARK  2 active torsions:
REMARK  status: ('A' for Active; 'I' for Inactive)
REMARK    1  A    between atoms: C1_2  and  C2_3 
REMARK    2  A    between atoms: C2_3  and  C3_4 
ROOT
ATOM      1  C3  UNL d   1      -0.395  -0.159  -1.216  0.00  0.00    -0.075 A 
ATOM      2  C4  UNL d   1      -0.087  -0.380   0.134  0.00  0.00     0.002 A 
ATOM      3  C5  UNL d   1      -1.066  -0.231   1.117  0.00  0.00     0.002 A 
ATOM      4  C6  UNL d   1      -2.359   0.150   0.765  0.00  0.00    -0.004 A 
ATOM      5  C7  UNL d   1      -2.671   0.388  -0.571  0.00  0.00     0.002 A 
ATOM      6  C8  UNL d   1      -1.695   0.236  -1.557  0.00  0.00     0.002 A 
ENDROOT
BRANCH   1   7
ATOM      7  C2  UNL d   1       0.652  -0.347  -2.288  0.00  0.00     0.056 C 
BRANCH   7   8
ATOM      8  C1  UNL d   1       0.240  -1.319  -3.398  0.00  0.00     0.007 C 
ATOM      9  C   UNL d   1       1.425  -1.896  -4.162  0.00  0.00     0.009 C 
ENDBRANCH   7   8
ENDBRANCH   1   7
TORSDOF 2
ENDMDL
