MODEL 1
REMARK minimizedAffinity -3.33062863
REMARK minimizedRMSD -1
REMARK  2 active torsions:
REMARK  status: ('A' for Active; 'I' for Inactive)
REMARK    1  A    between atoms: C1_2  and  C2_3 
REMARK    2  A    between atoms: C2_3  and  C3_4 
ROOT
ATOM      1  C3  UNL d   1      -1.074   0.722   1.207  0.00  0.00    -0.075 A 
ATOM      2  C4  UNL d   1      -0.360   0.634   0.003  0.00  0.00     0.002 A 
ATOM      3  C5  UNL d   1       1.023   0.454   0.011  0.00  0.00     0.002 A 
ATOM      4  C6  UNL d   1       1.711   0.371   1.220  0.00  0.00    -0.004 A 
ATOM      5  C7  UNL d   1       1.014   0.473   2.422  0.00  0.00     0.002 A 
ATOM      6  C8  UNL d   1      -0.371   0.649   2.417  0.00  0.00     0.002 A 
ENDROOT
BRANCH   1   7
ATOM      7  C2  UNL d   1      -2.575   0.886   1.205  0.00  0.00     0.056 C 
BRANCH   7   8
ATOM      8  C1  UNL d   1      -3.178   1.125   2.593  0.00  0.00     0.007 C 
ATOM      9  C   UNL d   1      -4.245   2.212   2.605  0.00  0.00     0.009 C 
ENDBRANCH   7   8
ENDBRANCH   1   7
TORSDOF 2
ENDMDL
