MODEL 1
REMARK minimizedAffinity -3.77604365
REMARK minimizedRMSD -1
REMARK  2 active torsions:
REMARK  status: ('A' for Active; 'I' for Inactive)
REMARK    1  A    between atoms: C1_2  and  C2_3 
REMARK    2  A    between atoms: C2_3  and  C3_4 
ROOT
ATOM      1  C3  UNL d   1       0.002   0.380  -0.015  0.00  0.00    -0.075 A 
ATOM      2  C4  UNL d   1      -1.195  -0.114   0.523  0.00  0.00     0.002 A 
ATOM      3  C5  UNL d   1      -1.332  -0.294   1.900  0.00  0.00     0.002 A 
ATOM      4  C6  UNL d   1      -0.273   0.008   2.754  0.00  0.00    -0.004 A 
ATOM      5  C7  UNL d   1       0.927   0.484   2.229  0.00  0.00     0.002 A 
ATOM      6  C8  UNL d   1       1.065   0.669   0.852  0.00  0.00     0.002 A 
ENDROOT
BRANCH   1   7
ATOM      7  C2  UNL d   1       0.147   0.605  -1.501  0.00  0.00     0.056 C 
BRANCH   7   8
ATOM      8  C1  UNL d   1       0.590  -0.638  -2.280  0.00  0.00     0.007 C 
ATOM      9  C   UNL d   1       1.461  -0.311  -3.486  0.00  0.00     0.009 C 
ENDBRANCH   7   8
ENDBRANCH   1   7
TORSDOF 2
ENDMDL
