MODEL 1
REMARK minimizedAffinity -1.43213844
REMARK minimizedRMSD -1
REMARK  2 active torsions:
REMARK  status: ('A' for Active; 'I' for Inactive)
REMARK    1  A    between atoms: C1_2  and  C2_3 
REMARK    2  A    between atoms: C2_3  and  C3_4 
ROOT
ATOM      1  C3  UNL d   1       0.177   0.029  -2.048  0.00  0.00    -0.075 A 
ATOM      2  C4  UNL d   1       0.557  -0.353  -0.753  0.00  0.00     0.002 A 
ATOM      3  C5  UNL d   1      -0.272  -0.086   0.336  0.00  0.00     0.002 A 
ATOM      4  C6  UNL d   1      -1.484   0.574   0.148  0.00  0.00    -0.004 A 
ATOM      5  C7  UNL d   1      -1.865   0.973  -1.132  0.00  0.00     0.002 A 
ATOM      6  C8  UNL d   1      -1.039   0.703  -2.225  0.00  0.00     0.002 A 
ENDROOT
BRANCH   1   7
ATOM      7  C2  UNL d   1       1.056  -0.284  -3.236  0.00  0.00     0.056 C 
BRANCH   7   8
ATOM      8  C1  UNL d   1       0.532  -1.423  -4.117  0.00  0.00     0.007 C 
ATOM      9  C   UNL d   1       1.000  -2.798  -3.661  0.00  0.00     0.009 C 
ENDBRANCH   7   8
ENDBRANCH   1   7
TORSDOF 2
ENDMDL
