MODEL 1
REMARK minimizedAffinity -5.04361296
REMARK minimizedRMSD -1
REMARK  2 active torsions:
REMARK  status: ('A' for Active; 'I' for Inactive)
REMARK    1  A    between atoms: C1_2  and  C2_3 
REMARK    2  A    between atoms: C2_3  and  C3_4 
ROOT
ATOM      1  C3  UNL d   1       0.027   0.018  -0.247  0.00  0.00    -0.075 A 
ATOM      2  C4  UNL d   1      -1.004  -0.591   0.483  0.00  0.00     0.002 A 
ATOM      3  C5  UNL d   1      -0.891  -0.759   1.863  0.00  0.00     0.002 A 
ATOM      4  C6  UNL d   1       0.255  -0.330   2.529  0.00  0.00    -0.004 A 
ATOM      5  C7  UNL d   1       1.292   0.262   1.812  0.00  0.00     0.002 A 
ATOM      6  C8  UNL d   1       1.181   0.435   0.431  0.00  0.00     0.002 A 
ENDROOT
BRANCH   1   7
ATOM      7  C2  UNL d   1      -0.100   0.229  -1.737  0.00  0.00     0.056 C 
BRANCH   7   8
ATOM      8  C1  UNL d   1       0.906  -0.574  -2.569  0.00  0.00     0.007 C 
ATOM      9  C   UNL d   1       0.257  -1.359  -3.701  0.00  0.00     0.009 C 
ENDBRANCH   7   8
ENDBRANCH   1   7
TORSDOF 2
ENDMDL
