MODEL 1
REMARK minimizedAffinity -4.55908298
REMARK minimizedRMSD -1
REMARK  2 active torsions:
REMARK  status: ('A' for Active; 'I' for Inactive)
REMARK    1  A    between atoms: C1_2  and  C2_3 
REMARK    2  A    between atoms: C2_3  and  C3_4 
ROOT
ATOM      1  C3  UNL d   1      -0.415   0.368   0.374  0.00  0.00    -0.075 A 
ATOM      2  C4  UNL d   1      -1.775   0.517   0.682  0.00  0.00     0.002 A 
ATOM      3  C5  UNL d   1      -2.188   0.687   2.004  0.00  0.00     0.002 A 
ATOM      4  C6  UNL d   1      -1.249   0.698   3.034  0.00  0.00    -0.004 A 
ATOM      5  C7  UNL d   1       0.103   0.534   2.741  0.00  0.00     0.002 A 
ATOM      6  C8  UNL d   1       0.519   0.369   1.418  0.00  0.00     0.002 A 
ENDROOT
BRANCH   1   7
ATOM      7  C2  UNL d   1       0.040   0.214  -1.057  0.00  0.00     0.056 C 
BRANCH   7   8
ATOM      8  C1  UNL d   1       0.109  -1.239  -1.537  0.00  0.00     0.007 C 
ATOM      9  C   UNL d   1       0.848  -1.401  -2.859  0.00  0.00     0.009 C 
ENDBRANCH   7   8
ENDBRANCH   1   7
TORSDOF 2
ENDMDL
