MODEL 1
REMARK minimizedAffinity -3.14347339
REMARK minimizedRMSD -1
REMARK  2 active torsions:
REMARK  status: ('A' for Active; 'I' for Inactive)
REMARK    1  A    between atoms: C1_2  and  C2_3 
REMARK    2  A    between atoms: C2_3  and  C3_4 
ROOT
ATOM      1  C3  UNL d   1       0.539   0.211  -0.498  0.00  0.00    -0.075 A 
ATOM      2  C4  UNL d   1       0.574   1.282   0.407  0.00  0.00     0.002 A 
ATOM      3  C5  UNL d   1       0.888   1.065   1.749  0.00  0.00     0.002 A 
ATOM      4  C6  UNL d   1       1.160  -0.223   2.204  0.00  0.00    -0.004 A 
ATOM      5  C7  UNL d   1       1.112  -1.296   1.318  0.00  0.00     0.002 A 
ATOM      6  C8  UNL d   1       0.802  -1.082  -0.026  0.00  0.00     0.002 A 
ENDROOT
BRANCH   1   7
ATOM      7  C2  UNL d   1       0.228   0.443  -1.958  0.00  0.00     0.056 C 
BRANCH   7   8
ATOM      8  C1  UNL d   1       1.289  -0.110  -2.916  0.00  0.00     0.007 C 
ATOM      9  C   UNL d   1       0.837  -1.363  -3.653  0.00  0.00     0.009 C 
ENDBRANCH   7   8
ENDBRANCH   1   7
TORSDOF 2
ENDMDL
