MODEL 1
REMARK minimizedAffinity -2.92078638
REMARK minimizedRMSD -1
REMARK  1 active torsions:
REMARK  status: ('A' for Active; 'I' for Inactive)
REMARK    1  A    between atoms: C1_2  and  C2_3 
ROOT
ATOM      1  C2  UNL d   1      -0.548  -0.295   0.973  0.00  0.00    -0.073 A 
ATOM      2  C3  UNL d   1      -0.238  -1.638   0.732  0.00  0.00    -0.002 A 
ATOM      3  C4  UNL d   1       0.692  -1.982  -0.250  0.00  0.00     0.004 A 
ATOM      4  C5  UNL d   1       1.327  -0.988  -0.995  0.00  0.00    -0.004 A 
ATOM      5  C6  UNL d   1       1.039   0.361  -0.761  0.00  0.00    -0.075 A 
ATOM      6  C7  UNL d   1       1.711   1.442  -1.555  0.00  0.00     0.076 C 
ATOM      7  C8  UNL d   1       0.102   0.698   0.225  0.00  0.00     0.001 A 
ENDROOT
BRANCH   1   8
ATOM      8  C1  UNL d   1      -1.547   0.081   2.036  0.00  0.00     0.053 C 
ATOM      9  C   UNL d   1      -2.975   0.042   1.516  0.00  0.00     0.018 C 
ENDBRANCH   1   8
TORSDOF 1
ENDMDL
