MODEL 1
REMARK minimizedAffinity -2.80304289
REMARK minimizedRMSD -1
REMARK  1 active torsions:
REMARK  status: ('A' for Active; 'I' for Inactive)
REMARK    1  A    between atoms: C1_2  and  C2_3 
ROOT
ATOM      1  C2  UNL d   1      -2.901   2.434   3.865  0.00  0.00    -0.073 A 
ATOM      2  C3  UNL d   1      -4.176   2.756   3.387  0.00  0.00    -0.002 A 
ATOM      3  C4  UNL d   1      -4.854   1.878   2.540  0.00  0.00     0.004 A 
ATOM      4  C5  UNL d   1      -4.268   0.668   2.169  0.00  0.00    -0.004 A 
ATOM      5  C6  UNL d   1      -2.999   0.323   2.646  0.00  0.00    -0.075 A 
ATOM      6  C7  UNL d   1      -2.354  -0.974   2.254  0.00  0.00     0.076 C 
ATOM      7  C8  UNL d   1      -2.324   1.211   3.494  0.00  0.00     0.001 A 
ENDROOT
BRANCH   1   8
ATOM      8  C1  UNL d   1      -2.167   3.375   4.785  0.00  0.00     0.053 C 
ATOM      9  C   UNL d   1      -3.001   3.750   6.000  0.00  0.00     0.018 C 
ENDBRANCH   1   8
TORSDOF 1
ENDMDL
