MODEL 1
REMARK minimizedAffinity -3.61540198
REMARK minimizedRMSD -1
REMARK  1 active torsions:
REMARK  status: ('A' for Active; 'I' for Inactive)
REMARK    1  A    between atoms: C1_2  and  C2_3 
ROOT
ATOM      1  C2  UNL d   1       0.173   0.335  -0.830  0.00  0.00    -0.073 A 
ATOM      2  C3  UNL d   1       0.071  -0.609  -1.858  0.00  0.00    -0.002 A 
ATOM      3  C4  UNL d   1       1.175  -0.900  -2.660  0.00  0.00     0.004 A 
ATOM      4  C5  UNL d   1       2.392  -0.257  -2.439  0.00  0.00    -0.004 A 
ATOM      5  C6  UNL d   1       2.518   0.681  -1.409  0.00  0.00    -0.075 A 
ATOM      6  C7  UNL d   1       3.820   1.383  -1.160  0.00  0.00     0.076 C 
ATOM      7  C8  UNL d   1       1.404   0.970  -0.609  0.00  0.00     0.001 A 
ENDROOT
BRANCH   1   8
ATOM      8  C1  UNL d   1      -1.014   0.648   0.043  0.00  0.00     0.053 C 
ATOM      9  C   UNL d   1      -0.779   0.247   1.491  0.00  0.00     0.018 C 
ENDBRANCH   1   8
TORSDOF 1
ENDMDL
