MODEL 1
REMARK minimizedAffinity -1.27873468
REMARK minimizedRMSD -1
REMARK  1 active torsions:
REMARK  status: ('A' for Active; 'I' for Inactive)
REMARK    1  A    between atoms: C1_2  and  C2_3 
ROOT
ATOM      1  C2  UNL d   1       0.285   0.536  -0.022  0.00  0.00    -0.073 A 
ATOM      2  C3  UNL d   1      -0.200  -0.485  -0.846  0.00  0.00    -0.002 A 
ATOM      3  C4  UNL d   1       0.609  -1.031  -1.843  0.00  0.00     0.004 A 
ATOM      4  C5  UNL d   1       1.913  -0.568  -2.020  0.00  0.00    -0.004 A 
ATOM      5  C6  UNL d   1       2.420   0.443  -1.199  0.00  0.00    -0.075 A 
ATOM      6  C7  UNL d   1       3.820   0.954  -1.378  0.00  0.00     0.076 C 
ATOM      7  C8  UNL d   1       1.600   0.989  -0.202  0.00  0.00     0.001 A 
ENDROOT
BRANCH   1   8
ATOM      8  C1  UNL d   1      -0.583   1.125   1.060  0.00  0.00     0.053 C 
ATOM      9  C   UNL d   1      -1.892   0.366   1.217  0.00  0.00     0.018 C 
ENDBRANCH   1   8
TORSDOF 1
ENDMDL
