MODEL 1
REMARK minimizedAffinity -2.14394855
REMARK minimizedRMSD -1
REMARK  1 active torsions:
REMARK  status: ('A' for Active; 'I' for Inactive)
REMARK    1  A    between atoms: C1_2  and  C2_3 
ROOT
ATOM      1  C2  UNL d   1      -0.687  -0.059   0.664  0.00  0.00    -0.073 A 
ATOM      2  C3  UNL d   1      -0.690  -1.459   0.644  0.00  0.00    -0.002 A 
ATOM      3  C4  UNL d   1       0.154  -2.153  -0.224  0.00  0.00     0.004 A 
ATOM      4  C5  UNL d   1       1.012  -1.457  -1.075  0.00  0.00    -0.004 A 
ATOM      5  C6  UNL d   1       1.038  -0.059  -1.062  0.00  0.00    -0.075 A 
ATOM      6  C7  UNL d   1       1.953   0.705  -1.973  0.00  0.00     0.076 C 
ATOM      7  C8  UNL d   1       0.186   0.631  -0.189  0.00  0.00     0.001 A 
ENDROOT
BRANCH   1   8
ATOM      8  C1  UNL d   1      -1.591   0.695   1.604  0.00  0.00     0.053 C 
ATOM      9  C   UNL d   1      -3.058   0.528   1.240  0.00  0.00     0.018 C 
ENDBRANCH   1   8
TORSDOF 1
ENDMDL
