MODEL 1
REMARK minimizedAffinity -4.22341633
REMARK minimizedRMSD -1
REMARK  1 active torsions:
REMARK  status: ('A' for Active; 'I' for Inactive)
REMARK    1  A    between atoms: C1_2  and  C2_3 
ROOT
ATOM      1  C2  UNL d   1       0.276   0.810   0.033  0.00  0.00    -0.073 A 
ATOM      2  C3  UNL d   1       0.127   0.206   1.287  0.00  0.00    -0.002 A 
ATOM      3  C4  UNL d   1      -0.043  -1.175   1.389  0.00  0.00     0.004 A 
ATOM      4  C5  UNL d   1      -0.057  -1.967   0.240  0.00  0.00    -0.004 A 
ATOM      5  C6  UNL d   1       0.102  -1.383  -1.021  0.00  0.00    -0.075 A 
ATOM      6  C7  UNL d   1       0.086  -2.221  -2.266  0.00  0.00     0.076 C 
ATOM      7  C8  UNL d   1       0.269   0.005  -1.115  0.00  0.00     0.001 A 
ENDROOT
BRANCH   1   8
ATOM      8  C1  UNL d   1       0.466   2.301  -0.081  0.00  0.00     0.053 C 
ATOM      9  C   UNL d   1       1.935   2.684  -0.163  0.00  0.00     0.018 C 
ENDBRANCH   1   8
TORSDOF 1
ENDMDL
