MODEL 1
REMARK minimizedAffinity -6.16630459
REMARK minimizedRMSD -1
REMARK  1 active torsions:
REMARK  status: ('A' for Active; 'I' for Inactive)
REMARK    1  A    between atoms: C1_2  and  C2_3 
ROOT
ATOM      1  C2  UNL d   1       1.176   0.448  -1.364  0.00  0.00    -0.073 A 
ATOM      2  C3  UNL d   1       1.526   1.725  -0.911  0.00  0.00    -0.002 A 
ATOM      3  C4  UNL d   1       1.281   2.096   0.412  0.00  0.00     0.004 A 
ATOM      4  C5  UNL d   1       0.692   1.192   1.296  0.00  0.00    -0.004 A 
ATOM      5  C6  UNL d   1       0.347  -0.093   0.866  0.00  0.00    -0.075 A 
ATOM      6  C7  UNL d   1      -0.290  -1.076   1.805  0.00  0.00     0.076 C 
ATOM      7  C8  UNL d   1       0.593  -0.457  -0.465  0.00  0.00     0.001 A 
ENDROOT
BRANCH   1   8
ATOM      8  C1  UNL d   1       1.444   0.041  -2.790  0.00  0.00     0.053 C 
ATOM      9  C   UNL d   1       2.021  -1.363  -2.883  0.00  0.00     0.018 C 
ENDBRANCH   1   8
TORSDOF 1
ENDMDL
