MODEL 1
REMARK minimizedAffinity -4.89609432
REMARK minimizedRMSD -1
REMARK  1 active torsions:
REMARK  status: ('A' for Active; 'I' for Inactive)
REMARK    1  A    between atoms: C1_2  and  C2_3 
ROOT
ATOM      1  C2  UNL d   1       0.113   0.442   0.443  0.00  0.00    -0.073 A 
ATOM      2  C3  UNL d   1       0.557   1.702   0.026  0.00  0.00    -0.002 A 
ATOM      3  C4  UNL d   1       1.581   1.812  -0.916  0.00  0.00     0.004 A 
ATOM      4  C5  UNL d   1       2.165   0.666  -1.455  0.00  0.00    -0.004 A 
ATOM      5  C6  UNL d   1       1.726  -0.602  -1.060  0.00  0.00    -0.075 A 
ATOM      6  C7  UNL d   1       2.346  -1.845  -1.629  0.00  0.00     0.076 C 
ATOM      7  C8  UNL d   1       0.700  -0.705  -0.112  0.00  0.00     0.001 A 
ENDROOT
BRANCH   1   8
ATOM      8  C1  UNL d   1      -0.997   0.318   1.455  0.00  0.00     0.053 C 
ATOM      9  C   UNL d   1      -2.368   0.297   0.798  0.00  0.00     0.018 C 
ENDBRANCH   1   8
TORSDOF 1
ENDMDL
