MODEL 1
REMARK minimizedAffinity -2.59643245
REMARK minimizedRMSD -1
REMARK  1 active torsions:
REMARK  status: ('A' for Active; 'I' for Inactive)
REMARK    1  A    between atoms: C1_2  and  C2_3 
ROOT
ATOM      1  C2  UNL d   1       0.249   0.114   0.047  0.00  0.00    -0.073 A 
ATOM      2  C3  UNL d   1       0.856  -0.901  -0.702  0.00  0.00    -0.002 A 
ATOM      3  C4  UNL d   1       1.842  -0.591  -1.639  0.00  0.00     0.004 A 
ATOM      4  C5  UNL d   1       2.237   0.733  -1.832  0.00  0.00    -0.004 A 
ATOM      5  C6  UNL d   1       1.651   1.759  -1.084  0.00  0.00    -0.075 A 
ATOM      6  C7  UNL d   1       2.063   3.189  -1.281  0.00  0.00     0.076 C 
ATOM      7  C8  UNL d   1       0.659   1.441  -0.147  0.00  0.00     0.001 A 
ENDROOT
BRANCH   1   8
ATOM      8  C1  UNL d   1      -0.812  -0.216   1.065  0.00  0.00     0.053 C 
ATOM      9  C   UNL d   1      -2.145   0.434   0.730  0.00  0.00     0.018 C 
ENDBRANCH   1   8
TORSDOF 1
ENDMDL
