MODEL 1
REMARK minimizedAffinity -4.60555553
REMARK minimizedRMSD -1
REMARK  1 active torsions:
REMARK  status: ('A' for Active; 'I' for Inactive)
REMARK    1  A    between atoms: C1_2  and  C2_3 
ROOT
ATOM      1  C2  UNL d   1       0.633  -0.433   0.349  0.00  0.00    -0.073 A 
ATOM      2  C3  UNL d   1       1.181  -1.265  -0.634  0.00  0.00    -0.002 A 
ATOM      3  C4  UNL d   1       1.928  -0.722  -1.680  0.00  0.00     0.004 A 
ATOM      4  C5  UNL d   1       2.141   0.654  -1.751  0.00  0.00    -0.004 A 
ATOM      5  C6  UNL d   1       1.612   1.501  -0.772  0.00  0.00    -0.075 A 
ATOM      6  C7  UNL d   1       1.829   2.984  -0.834  0.00  0.00     0.076 C 
ATOM      7  C8  UNL d   1       0.860   0.949   0.274  0.00  0.00     0.001 A 
ENDROOT
BRANCH   1   8
ATOM      8  C1  UNL d   1      -0.169  -1.015   1.484  0.00  0.00     0.053 C 
ATOM      9  C   UNL d   1      -1.453  -0.239   1.731  0.00  0.00     0.018 C 
ENDBRANCH   1   8
TORSDOF 1
ENDMDL
