MODEL 1
REMARK minimizedAffinity -6.19279337
REMARK minimizedRMSD -1
REMARK  0 active torsions:
REMARK  status: ('A' for Active; 'I' for Inactive)
ROOT
ATOM      1  C2' OXE d   1      -0.513   0.299  -2.677  0.00  0.00     0.078 C 
ATOM      2  C1' OXE d   1       0.653   0.388  -0.125  0.00  0.00     0.078 C 
ATOM      3  C1  OXE d   1      -0.740  -0.179  -0.243  0.00  0.00    -0.078 A 
ATOM      4  C2  OXE d   1      -1.321  -0.175  -1.488  0.00  0.00    -0.078 A 
ATOM      5  C3  OXE d   1      -2.583  -0.737  -1.662  0.00  0.00     0.003 A 
ATOM      6  C4  OXE d   1      -3.327  -1.164  -0.556  0.00  0.00    -0.002 A 
ATOM      7  C5  OXE d   1      -2.770  -1.139   0.727  0.00  0.00    -0.002 A 
ATOM      8  C6  OXE d   1      -1.465  -0.690   0.895  0.00  0.00     0.003 A 
ENDROOT
TORSDOF 0
ENDMDL
