MODEL 1
REMARK minimizedAffinity -5.33531332
REMARK minimizedRMSD -1
REMARK  0 active torsions:
REMARK  status: ('A' for Active; 'I' for Inactive)
ROOT
ATOM      1  C2' OXE d   1      -3.062  -1.021  -0.000  0.00  0.00     0.078 C 
ATOM      2  C1' OXE d   1      -1.284  -1.873   1.997  0.00  0.00     0.078 C 
ATOM      3  C1  OXE d   1      -0.720  -1.077   0.847  0.00  0.00    -0.078 A 
ATOM      4  C2  OXE d   1      -1.589  -0.704  -0.150  0.00  0.00    -0.078 A 
ATOM      5  C3  OXE d   1      -1.132   0.078  -1.206  0.00  0.00     0.003 A 
ATOM      6  C4  OXE d   1       0.233   0.358  -1.342  0.00  0.00    -0.002 A 
ATOM      7  C5  OXE d   1       1.142  -0.046  -0.358  0.00  0.00    -0.002 A 
ATOM      8  C6  OXE d   1       0.676  -0.726   0.762  0.00  0.00     0.003 A 
ENDROOT
TORSDOF 0
ENDMDL
