MODEL 1
REMARK minimizedAffinity -4.90578699
REMARK minimizedRMSD -1
REMARK  0 active torsions:
REMARK  status: ('A' for Active; 'I' for Inactive)
ROOT
ATOM      1  C2' OXE d   1       1.518  -0.260   0.242  0.00  0.00     0.078 C 
ATOM      2  C1' OXE d   1      -0.506  -1.851   1.362  0.00  0.00     0.078 C 
ATOM      3  C1  OXE d   1      -0.884  -0.918   0.238  0.00  0.00    -0.078 A 
ATOM      4  C2  OXE d   1       0.103  -0.110  -0.272  0.00  0.00    -0.078 A 
ATOM      5  C3  OXE d   1      -0.180   0.729  -1.346  0.00  0.00     0.003 A 
ATOM      6  C4  OXE d   1      -1.494   0.870  -1.809  0.00  0.00    -0.002 A 
ATOM      7  C5  OXE d   1      -2.522   0.084  -1.276  0.00  0.00    -0.002 A 
ATOM      8  C6  OXE d   1      -2.227  -0.843  -0.283  0.00  0.00     0.003 A 
ENDROOT
TORSDOF 0
ENDMDL
