MODEL 1
REMARK minimizedAffinity -1.50170434
REMARK minimizedRMSD -1
REMARK  0 active torsions:
REMARK  status: ('A' for Active; 'I' for Inactive)
ROOT
ATOM      1  C2' OXE d   1      -0.361   0.594  -1.854  0.00  0.00     0.078 C 
ATOM      2  C1' OXE d   1      -2.215  -0.985  -0.458  0.00  0.00     0.078 C 
ATOM      3  C1  OXE d   1      -0.816  -0.884   0.099  0.00  0.00    -0.078 A 
ATOM      4  C2  OXE d   1       0.097  -0.147  -0.616  0.00  0.00    -0.078 A 
ATOM      5  C3  OXE d   1       1.386   0.024  -0.118  0.00  0.00     0.003 A 
ATOM      6  C4  OXE d   1       1.803  -0.673   1.022  0.00  0.00    -0.002 A 
ATOM      7  C5  OXE d   1       0.900  -1.461   1.743  0.00  0.00    -0.002 A 
ATOM      8  C6  OXE d   1      -0.422  -1.543   1.320  0.00  0.00     0.003 A 
ENDROOT
TORSDOF 0
ENDMDL
