MODEL 1
REMARK minimizedAffinity -4.96841574
REMARK minimizedRMSD -1
REMARK  0 active torsions:
REMARK  status: ('A' for Active; 'I' for Inactive)
ROOT
ATOM      1  C2' OXE d   1      -1.144   0.904  -2.287  0.00  0.00     0.078 C 
ATOM      2  C1' OXE d   1      -2.831  -0.513  -0.547  0.00  0.00     0.078 C 
ATOM      3  C1  OXE d   1      -1.350  -0.532  -0.262  0.00  0.00    -0.078 A 
ATOM      4  C2  OXE d   1      -0.527   0.126  -1.145  0.00  0.00    -0.078 A 
ATOM      5  C3  OXE d   1       0.842   0.185  -0.899  0.00  0.00     0.003 A 
ATOM      6  C4  OXE d   1       1.405  -0.546   0.154  0.00  0.00    -0.002 A 
ATOM      7  C5  OXE d   1       0.589  -1.255   1.042  0.00  0.00    -0.002 A 
ATOM      8  C6  OXE d   1      -0.791  -1.223   0.873  0.00  0.00     0.003 A 
ENDROOT
TORSDOF 0
ENDMDL
