MODEL 1
REMARK minimizedAffinity -2.53911734
REMARK minimizedRMSD -1
REMARK  0 active torsions:
REMARK  status: ('A' for Active; 'I' for Inactive)
ROOT
ATOM      1  C2' OXE d   1      -0.004   0.373  -2.311  0.00  0.00     0.078 C 
ATOM      2  C1' OXE d   1       1.047   0.573   0.285  0.00  0.00     0.078 C 
ATOM      3  C1  OXE d   1      -0.364   0.062   0.135  0.00  0.00    -0.078 A 
ATOM      4  C2  OXE d   1      -0.887   0.012  -1.135  0.00  0.00    -0.078 A 
ATOM      5  C3  OXE d   1      -2.165  -0.503  -1.335  0.00  0.00     0.003 A 
ATOM      6  C4  OXE d   1      -2.978  -0.825  -0.242  0.00  0.00    -0.002 A 
ATOM      7  C5  OXE d   1      -2.479  -0.743   1.062  0.00  0.00    -0.002 A 
ATOM      8  C6  OXE d   1      -1.163  -0.343   1.265  0.00  0.00     0.003 A 
ENDROOT
TORSDOF 0
ENDMDL
