MODEL 1
REMARK minimizedAffinity -4.88376474
REMARK minimizedRMSD -1
REMARK  0 active torsions:
REMARK  status: ('A' for Active; 'I' for Inactive)
ROOT
ATOM      1  C2' OXE d   1       1.330   0.620  -0.171  0.00  0.00     0.078 C 
ATOM      2  C1' OXE d   1       0.170   1.081  -2.685  0.00  0.00     0.078 C 
ATOM      3  C1  OXE d   1      -0.700   0.481  -1.608  0.00  0.00    -0.078 A 
ATOM      4  C2  OXE d   1      -0.111   0.216  -0.395  0.00  0.00    -0.078 A 
ATOM      5  C3  OXE d   1      -0.882  -0.286   0.650  0.00  0.00     0.003 A 
ATOM      6  C4  OXE d   1      -2.212  -0.666   0.431  0.00  0.00    -0.002 A 
ATOM      7  C5  OXE d   1      -2.819  -0.441  -0.809  0.00  0.00    -0.002 A 
ATOM      8  C6  OXE d   1      -2.091   0.169  -1.824  0.00  0.00     0.003 A 
ENDROOT
TORSDOF 0
ENDMDL
