MODEL 1
REMARK minimizedAffinity -3.13216352
REMARK minimizedRMSD -1
REMARK  0 active torsions:
REMARK  status: ('A' for Active; 'I' for Inactive)
ROOT
ATOM      1  C2' OXE d   1       1.138   0.327   0.196  0.00  0.00     0.078 C 
ATOM      2  C1' OXE d   1      -0.539  -1.600   1.360  0.00  0.00     0.078 C 
ATOM      3  C1  OXE d   1      -1.094  -0.780   0.223  0.00  0.00    -0.078 A 
ATOM      4  C2  OXE d   1      -0.282   0.193  -0.310  0.00  0.00    -0.078 A 
ATOM      5  C3  OXE d   1      -0.725   0.941  -1.397  0.00  0.00     0.003 A 
ATOM      6  C4  OXE d   1      -2.043   0.817  -1.853  0.00  0.00    -0.002 A 
ATOM      7  C5  OXE d   1      -2.900  -0.140  -1.298  0.00  0.00    -0.002 A 
ATOM      8  C6  OXE d   1      -2.428  -0.974  -0.290  0.00  0.00     0.003 A 
ENDROOT
TORSDOF 0
ENDMDL
