MODEL 1
REMARK minimizedAffinity -2.66586924
REMARK minimizedRMSD -1
REMARK  0 active torsions:
REMARK  status: ('A' for Active; 'I' for Inactive)
ROOT
ATOM      1  C2' OXE d   1      -1.093   0.661  -1.791  0.00  0.00     0.078 C 
ATOM      2  C1' OXE d   1      -2.945  -0.995  -0.483  0.00  0.00     0.078 C 
ATOM      3  C1  OXE d   1      -1.523  -0.995   0.020  0.00  0.00    -0.078 A 
ATOM      4  C2  OXE d   1      -0.613  -0.217  -0.655  0.00  0.00    -0.078 A 
ATOM      5  C3  OXE d   1       0.699  -0.138  -0.199  0.00  0.00     0.003 A 
ATOM      6  C4  OXE d   1       1.137  -0.960   0.846  0.00  0.00    -0.002 A 
ATOM      7  C5  OXE d   1       0.236  -1.790   1.522  0.00  0.00    -0.002 A 
ATOM      8  C6  OXE d   1      -1.103  -1.787   1.150  0.00  0.00     0.003 A 
ENDROOT
TORSDOF 0
ENDMDL
