MODEL 1
REMARK minimizedAffinity -3.40095472
REMARK minimizedRMSD -1
REMARK  0 active torsions:
REMARK  status: ('A' for Active; 'I' for Inactive)
ROOT
ATOM      1  C2' OXE d   1      -1.444  -1.527   2.187  0.00  0.00     0.078 C 
ATOM      2  C1' OXE d   1      -3.288  -0.876   0.173  0.00  0.00     0.078 C 
ATOM      3  C1  OXE d   1      -1.844  -0.503  -0.049  0.00  0.00    -0.078 A 
ATOM      4  C2  OXE d   1      -0.956  -0.783   0.962  0.00  0.00    -0.078 A 
ATOM      5  C3  OXE d   1       0.397  -0.510   0.787  0.00  0.00     0.003 A 
ATOM      6  C4  OXE d   1       0.839   0.187  -0.345  0.00  0.00    -0.002 A 
ATOM      7  C5  OXE d   1      -0.055   0.517  -1.369  0.00  0.00    -0.002 A 
ATOM      8  C6  OXE d   1      -1.389   0.142  -1.256  0.00  0.00     0.003 A 
ENDROOT
TORSDOF 0
ENDMDL
