MODEL 1
REMARK minimizedAffinity -5.1858511
REMARK minimizedRMSD -1
REMARK  0 active torsions:
REMARK  status: ('A' for Active; 'I' for Inactive)
ROOT
ATOM      1  C2' OXE d   1       0.038   0.719  -2.172  0.00  0.00     0.078 C 
ATOM      2  C1' OXE d   1       1.117   0.222   0.371  0.00  0.00     0.078 C 
ATOM      3  C1  OXE d   1      -0.306  -0.207   0.114  0.00  0.00    -0.078 A 
ATOM      4  C2  OXE d   1      -0.841   0.082  -1.118  0.00  0.00    -0.078 A 
ATOM      5  C3  OXE d   1      -2.131  -0.340  -1.426  0.00  0.00     0.003 A 
ATOM      6  C4  OXE d   1      -2.941  -0.920  -0.442  0.00  0.00    -0.002 A 
ATOM      7  C5  OXE d   1      -2.429  -1.187   0.832  0.00  0.00    -0.002 A 
ATOM      8  C6  OXE d   1      -1.103  -0.877   1.113  0.00  0.00     0.003 A 
ENDROOT
TORSDOF 0
ENDMDL
