MODEL 1
REMARK minimizedAffinity -2.80438256
REMARK minimizedRMSD -1
REMARK  0 active torsions:
REMARK  status: ('A' for Active; 'I' for Inactive)
ROOT
ATOM      1  C2' OXE d   1      -0.473  -2.178   1.856  0.00  0.00     0.078 C 
ATOM      2  C1' OXE d   1      -2.450  -1.614  -0.056  0.00  0.00     0.078 C 
ATOM      3  C1  OXE d   1      -1.123  -0.910  -0.188  0.00  0.00    -0.078 A 
ATOM      4  C2  OXE d   1      -0.178  -1.157   0.779  0.00  0.00    -0.078 A 
ATOM      5  C3  OXE d   1       1.083  -0.575   0.675  0.00  0.00     0.003 A 
ATOM      6  C4  OXE d   1       1.345   0.376  -0.319  0.00  0.00    -0.002 A 
ATOM      7  C5  OXE d   1       0.382   0.672  -1.290  0.00  0.00    -0.002 A 
ATOM      8  C6  OXE d   1      -0.839   0.007  -1.264  0.00  0.00     0.003 A 
ENDROOT
TORSDOF 0
ENDMDL
