MODEL 1
REMARK minimizedAffinity -1.20892704
REMARK minimizedRMSD -1
REMARK  0 active torsions:
REMARK  status: ('A' for Active; 'I' for Inactive)
ROOT
ATOM      1  C2' OXE d   1      -2.384  -0.645   0.026  0.00  0.00     0.078 C 
ATOM      2  C1' OXE d   1      -0.923  -1.983   2.015  0.00  0.00     0.078 C 
ATOM      3  C1  OXE d   1      -0.168  -1.067   1.084  0.00  0.00    -0.078 A 
ATOM      4  C2  OXE d   1      -0.884  -0.453   0.084  0.00  0.00    -0.078 A 
ATOM      5  C3  OXE d   1      -0.247   0.445  -0.768  0.00  0.00     0.003 A 
ATOM      6  C4  OXE d   1       1.143   0.609  -0.714  0.00  0.00    -0.002 A 
ATOM      7  C5  OXE d   1       1.896  -0.039   0.271  0.00  0.00    -0.002 A 
ATOM      8  C6  OXE d   1       1.251  -0.845   1.202  0.00  0.00     0.003 A 
ENDROOT
TORSDOF 0
ENDMDL
