MODEL 1
REMARK minimizedAffinity -4.41321707
REMARK minimizedRMSD -1
REMARK  0 active torsions:
REMARK  status: ('A' for Active; 'I' for Inactive)
ROOT
ATOM      1  C2' OXE d   1       1.346  -0.031   0.431  0.00  0.00     0.078 C 
ATOM      2  C1' OXE d   1      -0.466  -1.471   2.019  0.00  0.00     0.078 C 
ATOM      3  C1  OXE d   1      -0.977  -0.881   0.728  0.00  0.00    -0.078 A 
ATOM      4  C2  OXE d   1      -0.095  -0.138  -0.020  0.00  0.00    -0.078 A 
ATOM      5  C3  OXE d   1      -0.499   0.383  -1.246  0.00  0.00     0.003 A 
ATOM      6  C4  OXE d   1      -1.836   0.288  -1.650  0.00  0.00    -0.002 A 
ATOM      7  C5  OXE d   1      -2.760  -0.431  -0.884  0.00  0.00    -0.002 A 
ATOM      8  C6  OXE d   1      -2.337  -1.056   0.284  0.00  0.00     0.003 A 
ENDROOT
TORSDOF 0
ENDMDL
