MODEL 1
REMARK minimizedAffinity -4.18505526
REMARK minimizedRMSD -1
REMARK  0 active torsions:
REMARK  status: ('A' for Active; 'I' for Inactive)
ROOT
ATOM      1  C2' OXE d   1      -0.718  -1.286   2.335  0.00  0.00     0.078 C 
ATOM      2  C1' OXE d   1       1.127  -0.004   0.653  0.00  0.00     0.078 C 
ATOM      3  C1  OXE d   1      -0.277  -0.200   0.138  0.00  0.00    -0.078 A 
ATOM      4  C2  OXE d   1      -1.160  -0.870   0.949  0.00  0.00    -0.078 A 
ATOM      5  C3  OXE d   1      -2.483  -1.030   0.545  0.00  0.00     0.003 A 
ATOM      6  C4  OXE d   1      -2.881  -0.651  -0.743  0.00  0.00    -0.002 A 
ATOM      7  C5  OXE d   1      -1.987  -0.002  -1.600  0.00  0.00    -0.002 A 
ATOM      8  C6  OXE d   1      -0.696   0.268  -1.161  0.00  0.00     0.003 A 
ENDROOT
TORSDOF 0
ENDMDL
