MODEL 1
REMARK minimizedAffinity -5.94378948
REMARK minimizedRMSD -1
REMARK  0 active torsions:
REMARK  status: ('A' for Active; 'I' for Inactive)
ROOT
ATOM      1  C2' OXE d   1      -1.225  -1.785   2.090  0.00  0.00     0.078 C 
ATOM      2  C1' OXE d   1      -2.859  -1.029  -0.064  0.00  0.00     0.078 C 
ATOM      3  C1  OXE d   1      -1.430  -0.545  -0.061  0.00  0.00    -0.078 A 
ATOM      4  C2  OXE d   1      -0.651  -0.881   1.020  0.00  0.00    -0.078 A 
ATOM      5  C3  OXE d   1       0.689  -0.507   1.047  0.00  0.00     0.003 A 
ATOM      6  C4  OXE d   1       1.209   0.338   0.059  0.00  0.00    -0.002 A 
ATOM      7  C5  OXE d   1       0.422   0.724  -1.031  0.00  0.00    -0.002 A 
ATOM      8  C6  OXE d   1      -0.884   0.258  -1.127  0.00  0.00     0.003 A 
ENDROOT
TORSDOF 0
ENDMDL
