MODEL 1
REMARK minimizedAffinity -0.66609633
REMARK minimizedRMSD -1
REMARK  0 active torsions:
REMARK  status: ('A' for Active; 'I' for Inactive)
ROOT
ATOM      1  C2' OXE d   1      -0.487   1.224  -1.450  0.00  0.00     0.078 C 
ATOM      2  C1' OXE d   1      -2.295  -0.521  -0.198  0.00  0.00     0.078 C 
ATOM      3  C1  OXE d   1      -0.861  -0.538   0.270  0.00  0.00    -0.078 A 
ATOM      4  C2  OXE d   1       0.026   0.285  -0.380  0.00  0.00    -0.078 A 
ATOM      5  C3  OXE d   1       1.349   0.348   0.049  0.00  0.00     0.003 A 
ATOM      6  C4  OXE d   1       1.818  -0.531   1.032  0.00  0.00    -0.002 A 
ATOM      7  C5  OXE d   1       0.939  -1.406   1.680  0.00  0.00    -0.002 A 
ATOM      8  C6  OXE d   1      -0.409  -1.392   1.341  0.00  0.00     0.003 A 
ENDROOT
TORSDOF 0
ENDMDL
