MODEL 1
REMARK minimizedAffinity -1.30411434
REMARK minimizedRMSD -1
REMARK  0 active torsions:
REMARK  status: ('A' for Active; 'I' for Inactive)
ROOT
ATOM      1  C2' OXE d   1       3.784   2.062  -1.412  0.00  0.00     0.078 C 
ATOM      2  C1' OXE d   1       1.845   0.261  -0.473  0.00  0.00     0.078 C 
ATOM      3  C1  OXE d   1       2.292   1.363   0.456  0.00  0.00    -0.078 A 
ATOM      4  C2  OXE d   1       3.274   2.211   0.006  0.00  0.00    -0.078 A 
ATOM      5  C3  OXE d   1       3.684   3.277   0.802  0.00  0.00     0.003 A 
ATOM      6  C4  OXE d   1       3.215   3.401   2.115  0.00  0.00    -0.002 A 
ATOM      7  C5  OXE d   1       2.243   2.524   2.608  0.00  0.00    -0.002 A 
ATOM      8  C6  OXE d   1       1.741   1.528   1.779  0.00  0.00     0.003 A 
ENDROOT
TORSDOF 0
ENDMDL
