MODEL 1
REMARK minimizedAffinity -3.53687382
REMARK minimizedRMSD -1
REMARK  0 active torsions:
REMARK  status: ('A' for Active; 'I' for Inactive)
ROOT
ATOM      1  C2' OXE d   1      -1.250  -1.456   1.918  0.00  0.00     0.078 C 
ATOM      2  C1' OXE d   1      -3.274  -1.143  -0.002  0.00  0.00     0.078 C 
ATOM      3  C1  OXE d   1      -1.881  -0.695  -0.368  0.00  0.00    -0.078 A 
ATOM      4  C2  OXE d   1      -0.906  -0.809   0.594  0.00  0.00    -0.078 A 
ATOM      5  C3  OXE d   1       0.407  -0.462   0.290  0.00  0.00     0.003 A 
ATOM      6  C4  OXE d   1       0.714   0.144  -0.934  0.00  0.00    -0.002 A 
ATOM      7  C5  OXE d   1      -0.271   0.306  -1.914  0.00  0.00    -0.002 A 
ATOM      8  C6  OXE d   1      -1.562  -0.146  -1.663  0.00  0.00     0.003 A 
ENDROOT
TORSDOF 0
ENDMDL
