MODEL 1
REMARK minimizedAffinity -2.04976559
REMARK minimizedRMSD -1
REMARK  0 active torsions:
REMARK  status: ('A' for Active; 'I' for Inactive)
ROOT
ATOM      1  C   UNL d   1       2.775   1.019   0.037  0.00  0.00     0.124 A 
ATOM      2  C1  UNL d   1       2.131   2.058   0.694  0.00  0.00     0.062 A 
ATOM      3  C2  UNL d   1       0.795   1.931   1.064  0.00  0.00     0.162 A 
ATOM      4  C3  UNL d   1       0.094   0.759   0.779  0.00  0.00    -0.034 A 
ATOM      5  C4  UNL d   1       0.749  -0.282   0.118  0.00  0.00     0.162 A 
ATOM      6  C5  UNL d   1       2.084  -0.150  -0.250  0.00  0.00     0.062 A 
ATOM      7  F   UNL d   1       2.705  -1.155  -0.885  0.00  0.00    -0.097 F 
ATOM      8  F1  UNL d   1       0.105  -1.422  -0.172  0.00  0.00    -0.096 F 
ATOM      9  I   UNL d   1      -1.903   0.565   1.331  0.00  0.00    -0.060 I 
ATOM     10  F2  UNL d   1       0.198   2.951   1.698  0.00  0.00    -0.096 F 
ATOM     11  F3  UNL d   1       2.796   3.188   0.972  0.00  0.00    -0.097 F 
ATOM     12  F4  UNL d   1       4.060   1.144  -0.318  0.00  0.00    -0.092 F 
ENDROOT
TORSDOF 0
ENDMDL
