MODEL 1
REMARK minimizedAffinity -3.97213268
REMARK minimizedRMSD -1
REMARK  0 active torsions:
REMARK  status: ('A' for Active; 'I' for Inactive)
ROOT
ATOM      1  C   UNL d   1       1.909   1.701   0.855  0.00  0.00     0.124 A 
ATOM      2  C1  UNL d   1       2.326   0.578   0.155  0.00  0.00     0.062 A 
ATOM      3  C2  UNL d   1       1.390  -0.315  -0.358  0.00  0.00     0.162 A 
ATOM      4  C3  UNL d   1       0.026  -0.088  -0.173  0.00  0.00    -0.034 A 
ATOM      5  C4  UNL d   1      -0.386   1.044   0.533  0.00  0.00     0.162 A 
ATOM      6  C5  UNL d   1       0.554   1.933   1.044  0.00  0.00     0.062 A 
ATOM      7  F   UNL d   1       0.150   3.018   1.720  0.00  0.00    -0.097 F 
ATOM      8  F1  UNL d   1      -1.689   1.293   0.729  0.00  0.00    -0.096 F 
ATOM      9  I   UNL d   1      -1.378  -1.420  -0.938  0.00  0.00    -0.060 I 
ATOM     10  F2  UNL d   1       1.821  -1.393  -1.030  0.00  0.00    -0.096 F 
ATOM     11  F3  UNL d   1       3.635   0.351  -0.028  0.00  0.00    -0.097 F 
ATOM     12  F4  UNL d   1       2.813   2.558   1.348  0.00  0.00    -0.092 F 
ENDROOT
TORSDOF 0
ENDMDL
