MODEL 1
REMARK minimizedAffinity -2.50019503
REMARK minimizedRMSD -1
REMARK  0 active torsions:
REMARK  status: ('A' for Active; 'I' for Inactive)
ROOT
ATOM      1  C   UNL d   1      -0.282  -1.093   0.309  0.00  0.00     0.124 A 
ATOM      2  C1  UNL d   1       0.828  -0.858  -0.491  0.00  0.00     0.062 A 
ATOM      3  C2  UNL d   1       1.658   0.230  -0.235  0.00  0.00     0.162 A 
ATOM      4  C3  UNL d   1       1.382   1.090   0.828  0.00  0.00    -0.034 A 
ATOM      5  C4  UNL d   1       0.264   0.848   1.628  0.00  0.00     0.162 A 
ATOM      6  C5  UNL d   1      -0.563  -0.240   1.367  0.00  0.00     0.062 A 
ATOM      7  F   UNL d   1      -1.634  -0.466   2.141  0.00  0.00    -0.097 F 
ATOM      8  F1  UNL d   1      -0.030   1.655   2.658  0.00  0.00    -0.096 F 
ATOM      9  I   UNL d   1       2.621   2.717   1.215  0.00  0.00    -0.060 I 
ATOM     10  F2  UNL d   1       2.724   0.433  -1.024  0.00  0.00    -0.096 F 
ATOM     11  F3  UNL d   1       1.101  -1.679  -1.515  0.00  0.00    -0.097 F 
ATOM     12  F4  UNL d   1      -1.079  -2.139   0.059  0.00  0.00    -0.092 F 
ENDROOT
TORSDOF 0
ENDMDL
