MODEL 1
REMARK minimizedAffinity 0.238053799
REMARK minimizedRMSD -1
REMARK  0 active torsions:
REMARK  status: ('A' for Active; 'I' for Inactive)
ROOT
ATOM      1  C   UNL d   1       2.035   1.008   1.071  0.00  0.00     0.124 A 
ATOM      2  C1  UNL d   1       0.749   1.125   1.580  0.00  0.00     0.062 A 
ATOM      3  C2  UNL d   1      -0.298   0.407   1.011  0.00  0.00     0.162 A 
ATOM      4  C3  UNL d   1      -0.063  -0.437  -0.075  0.00  0.00    -0.034 A 
ATOM      5  C4  UNL d   1       1.232  -0.549  -0.583  0.00  0.00     0.162 A 
ATOM      6  C5  UNL d   1       2.275   0.171  -0.010  0.00  0.00     0.062 A 
ATOM      7  F   UNL d   1       3.517   0.057  -0.503  0.00  0.00    -0.097 F 
ATOM      8  F1  UNL d   1       1.493  -1.351  -1.626  0.00  0.00    -0.096 F 
ATOM      9  I   UNL d   1      -1.626  -1.513  -0.930  0.00  0.00    -0.060 I 
ATOM     10  F2  UNL d   1      -1.530   0.540   1.523  0.00  0.00    -0.096 F 
ATOM     11  F3  UNL d   1       0.514   1.934   2.624  0.00  0.00    -0.097 F 
ATOM     12  F4  UNL d   1       3.040   1.701   1.621  0.00  0.00    -0.092 F 
ENDROOT
TORSDOF 0
ENDMDL
