MODEL 1
REMARK minimizedAffinity -1.7661804
REMARK minimizedRMSD -1
REMARK  0 active torsions:
REMARK  status: ('A' for Active; 'I' for Inactive)
ROOT
ATOM      1  C   UNL d   1       0.004   0.912   0.935  0.00  0.00     0.124 A 
ATOM      2  C1  UNL d   1      -0.670  -0.297   1.040  0.00  0.00     0.062 A 
ATOM      3  C2  UNL d   1      -1.218  -0.894  -0.092  0.00  0.00     0.162 A 
ATOM      4  C3  UNL d   1      -1.093  -0.284  -1.340  0.00  0.00    -0.034 A 
ATOM      5  C4  UNL d   1      -0.414   0.932  -1.438  0.00  0.00     0.162 A 
ATOM      6  C5  UNL d   1       0.131   1.525  -0.304  0.00  0.00     0.062 A 
ATOM      7  F   UNL d   1       0.782   2.693  -0.407  0.00  0.00    -0.097 F 
ATOM      8  F1  UNL d   1      -0.276   1.547  -2.622  0.00  0.00    -0.096 F 
ATOM      9  I   UNL d   1      -1.910  -1.173  -3.035  0.00  0.00    -0.060 I 
ATOM     10  F2  UNL d   1      -1.864  -2.062   0.039  0.00  0.00    -0.096 F 
ATOM     11  F3  UNL d   1      -0.796  -0.891   2.235  0.00  0.00    -0.097 F 
ATOM     12  F4  UNL d   1       0.529   1.484   2.025  0.00  0.00    -0.092 F 
ENDROOT
TORSDOF 0
ENDMDL
