MODEL 1
REMARK minimizedAffinity -3.89155865
REMARK minimizedRMSD -1
REMARK  0 active torsions:
REMARK  status: ('A' for Active; 'I' for Inactive)
ROOT
ATOM      1  C   UNL d   1       2.478   2.266   0.577  0.00  0.00     0.124 A 
ATOM      2  C1  UNL d   1       1.130   2.516   0.794  0.00  0.00     0.062 A 
ATOM      3  C2  UNL d   1       0.182   1.537   0.512  0.00  0.00     0.162 A 
ATOM      4  C3  UNL d   1       0.578   0.297   0.010  0.00  0.00    -0.034 A 
ATOM      5  C4  UNL d   1       1.936   0.053  -0.206  0.00  0.00     0.162 A 
ATOM      6  C5  UNL d   1       2.880   1.035   0.078  0.00  0.00     0.062 A 
ATOM      7  F   UNL d   1       4.181   0.791  -0.133  0.00  0.00    -0.097 F 
ATOM      8  F1  UNL d   1       2.352  -1.128  -0.688  0.00  0.00    -0.096 F 
ATOM      9  I   UNL d   1      -0.836  -1.169  -0.414  0.00  0.00    -0.060 I 
ATOM     10  F2  UNL d   1      -1.114   1.807   0.731  0.00  0.00    -0.096 F 
ATOM     11  F3  UNL d   1       0.740   3.705   1.276  0.00  0.00    -0.097 F 
ATOM     12  F4  UNL d   1       3.388   3.210   0.849  0.00  0.00    -0.092 F 
ENDROOT
TORSDOF 0
ENDMDL
