MODEL 1
REMARK minimizedAffinity -3.81401539
REMARK minimizedRMSD -1
REMARK  0 active torsions:
REMARK  status: ('A' for Active; 'I' for Inactive)
ROOT
ATOM      1  C   UNL d   1       1.878   2.255   1.411  0.00  0.00     0.124 A 
ATOM      2  C1  UNL d   1       0.661   1.809   1.909  0.00  0.00     0.062 A 
ATOM      3  C2  UNL d   1      -0.017   0.773   1.275  0.00  0.00     0.162 A 
ATOM      4  C3  UNL d   1       0.519   0.174   0.135  0.00  0.00    -0.034 A 
ATOM      5  C4  UNL d   1       1.743   0.628  -0.361  0.00  0.00     0.162 A 
ATOM      6  C5  UNL d   1       2.417   1.664   0.277  0.00  0.00     0.062 A 
ATOM      7  F   UNL d   1       3.592   2.094  -0.206  0.00  0.00    -0.097 F 
ATOM      8  F1  UNL d   1       2.287   0.074  -1.454  0.00  0.00    -0.096 F 
ATOM      9  I   UNL d   1      -0.492  -1.377  -0.816  0.00  0.00    -0.060 I 
ATOM     10  F2  UNL d   1      -1.191   0.362   1.778  0.00  0.00    -0.096 F 
ATOM     11  F3  UNL d   1       0.138   2.379   3.004  0.00  0.00    -0.097 F 
ATOM     12  F4  UNL d   1       2.528   3.253   2.023  0.00  0.00    -0.092 F 
ENDROOT
TORSDOF 0
ENDMDL
