MODEL 1
REMARK minimizedAffinity -2.67396283
REMARK minimizedRMSD -1
REMARK  0 active torsions:
REMARK  status: ('A' for Active; 'I' for Inactive)
ROOT
ATOM      1  C   UNL d   1       1.802   1.535   1.212  0.00  0.00     0.124 A 
ATOM      2  C1  UNL d   1       0.435   1.560   1.454  0.00  0.00     0.062 A 
ATOM      3  C2  UNL d   1      -0.404   0.642   0.828  0.00  0.00     0.162 A 
ATOM      4  C3  UNL d   1       0.122  -0.309  -0.046  0.00  0.00    -0.034 A 
ATOM      5  C4  UNL d   1       1.498  -0.328  -0.285  0.00  0.00     0.162 A 
ATOM      6  C5  UNL d   1       2.332   0.592   0.344  0.00  0.00     0.062 A 
ATOM      7  F   UNL d   1       3.652   0.566   0.109  0.00  0.00    -0.097 F 
ATOM      8  F1  UNL d   1       2.037  -1.230  -1.119  0.00  0.00    -0.096 F 
ATOM      9  I   UNL d   1      -1.128  -1.684  -0.984  0.00  0.00    -0.060 I 
ATOM     10  F2  UNL d   1      -1.720   0.690   1.080  0.00  0.00    -0.096 F 
ATOM     11  F3  UNL d   1      -0.080   2.472   2.292  0.00  0.00    -0.097 F 
ATOM     12  F4  UNL d   1       2.606   2.420   1.815  0.00  0.00    -0.092 F 
ENDROOT
TORSDOF 0
ENDMDL
