MODEL 1
REMARK minimizedAffinity -2.91009617
REMARK minimizedRMSD -1
REMARK  0 active torsions:
REMARK  status: ('A' for Active; 'I' for Inactive)
ROOT
ATOM      1  C   UNL d   1       0.252  -0.099   0.844  0.00  0.00     0.124 A 
ATOM      2  C1  UNL d   1      -1.074   0.268   0.658  0.00  0.00     0.062 A 
ATOM      3  C2  UNL d   1      -1.749  -0.110  -0.499  0.00  0.00     0.162 A 
ATOM      4  C3  UNL d   1      -1.099  -0.861  -1.479  0.00  0.00    -0.034 A 
ATOM      5  C4  UNL d   1       0.235  -1.225  -1.285  0.00  0.00     0.162 A 
ATOM      6  C5  UNL d   1       0.905  -0.844  -0.127  0.00  0.00     0.062 A 
ATOM      7  F   UNL d   1       2.186  -1.199   0.051  0.00  0.00    -0.097 F 
ATOM      8  F1  UNL d   1       0.889  -1.946  -2.208  0.00  0.00    -0.096 F 
ATOM      9  I   UNL d   1      -2.105  -1.428  -3.211  0.00  0.00    -0.060 I 
ATOM     10  F2  UNL d   1      -3.029   0.258  -0.652  0.00  0.00    -0.096 F 
ATOM     11  F3  UNL d   1      -1.706   0.989   1.595  0.00  0.00    -0.097 F 
ATOM     12  F4  UNL d   1       0.899   0.268   1.958  0.00  0.00    -0.092 F 
ENDROOT
TORSDOF 0
ENDMDL
