MODEL 1
REMARK minimizedAffinity -4.8090992
REMARK minimizedRMSD -1
REMARK  0 active torsions:
REMARK  status: ('A' for Active; 'I' for Inactive)
ROOT
ATOM      1  C   UNL d   1       1.706   1.867   1.273  0.00  0.00     0.124 A 
ATOM      2  C1  UNL d   1       0.448   1.542   1.760  0.00  0.00     0.062 A 
ATOM      3  C2  UNL d   1      -0.301   0.539   1.150  0.00  0.00     0.162 A 
ATOM      4  C3  UNL d   1       0.207  -0.146   0.047  0.00  0.00    -0.034 A 
ATOM      5  C4  UNL d   1       1.473   0.188  -0.438  0.00  0.00     0.162 A 
ATOM      6  C5  UNL d   1       2.217   1.191   0.175  0.00  0.00     0.062 A 
ATOM      7  F   UNL d   1       3.433   1.504  -0.297  0.00  0.00    -0.097 F 
ATOM      8  F1  UNL d   1       1.992  -0.451  -1.497  0.00  0.00    -0.096 F 
ATOM      9  I   UNL d   1      -0.910  -1.645  -0.868  0.00  0.00    -0.060 I 
ATOM     10  F2  UNL d   1      -1.514   0.246   1.642  0.00  0.00    -0.096 F 
ATOM     11  F3  UNL d   1      -0.049   2.195   2.821  0.00  0.00    -0.097 F 
ATOM     12  F4  UNL d   1       2.424   2.833   1.861  0.00  0.00    -0.092 F 
ENDROOT
TORSDOF 0
ENDMDL
