MODEL 1
REMARK minimizedAffinity -2.07942677
REMARK minimizedRMSD -1
REMARK  0 active torsions:
REMARK  status: ('A' for Active; 'I' for Inactive)
ROOT
ATOM      1  C   UNL d   1       2.618   1.759   0.157  0.00  0.00     0.124 A 
ATOM      2  C1  UNL d   1       1.287   2.073   0.394  0.00  0.00     0.062 A 
ATOM      3  C2  UNL d   1       0.290   1.138   0.133  0.00  0.00     0.162 A 
ATOM      4  C3  UNL d   1       0.620  -0.122  -0.367  0.00  0.00    -0.034 A 
ATOM      5  C4  UNL d   1       1.961  -0.430  -0.604  0.00  0.00     0.162 A 
ATOM      6  C5  UNL d   1       2.954   0.509  -0.342  0.00  0.00     0.062 A 
ATOM      7  F   UNL d   1       4.239   0.204  -0.572  0.00  0.00    -0.097 F 
ATOM      8  F1  UNL d   1       2.313  -1.631  -1.085  0.00  0.00    -0.096 F 
ATOM      9  I   UNL d   1      -0.868  -1.523  -0.759  0.00  0.00    -0.060 I 
ATOM     10  F2  UNL d   1      -0.988   1.468   0.372  0.00  0.00    -0.096 F 
ATOM     11  F3  UNL d   1       0.960   3.281   0.875  0.00  0.00    -0.097 F 
ATOM     12  F4  UNL d   1       3.575   2.662   0.408  0.00  0.00    -0.092 F 
ENDROOT
TORSDOF 0
ENDMDL
