MODEL 1
REMARK minimizedAffinity -4.57627821
REMARK minimizedRMSD -1
REMARK  0 active torsions:
REMARK  status: ('A' for Active; 'I' for Inactive)
ROOT
ATOM      1  C   UNL d   1       2.492   2.191   0.230  0.00  0.00     0.124 A 
ATOM      2  C1  UNL d   1       2.916   0.869   0.211  0.00  0.00     0.062 A 
ATOM      3  C2  UNL d   1       2.015  -0.152  -0.076  0.00  0.00     0.162 A 
ATOM      4  C3  UNL d   1       0.679   0.144  -0.346  0.00  0.00    -0.034 A 
ATOM      5  C4  UNL d   1       0.259   1.476  -0.324  0.00  0.00     0.162 A 
ATOM      6  C5  UNL d   1       1.164   2.492  -0.037  0.00  0.00     0.062 A 
ATOM      7  F   UNL d   1       0.751   3.768  -0.019  0.00  0.00    -0.097 F 
ATOM      8  F1  UNL d   1      -1.018   1.796  -0.579  0.00  0.00    -0.096 F 
ATOM      9  I   UNL d   1      -0.672  -1.379  -0.775  0.00  0.00    -0.060 I 
ATOM     10  F2  UNL d   1       2.453  -1.419  -0.088  0.00  0.00    -0.096 F 
ATOM     11  F3  UNL d   1       4.199   0.575   0.470  0.00  0.00    -0.097 F 
ATOM     12  F4  UNL d   1       3.361   3.171   0.507  0.00  0.00    -0.092 F 
ENDROOT
TORSDOF 0
ENDMDL
