MODEL 1
REMARK minimizedAffinity -1.16838753
REMARK minimizedRMSD -1
REMARK  0 active torsions:
REMARK  status: ('A' for Active; 'I' for Inactive)
ROOT
ATOM      1  C   UNL d   1       1.700   0.856   1.144  0.00  0.00     0.124 A 
ATOM      2  C1  UNL d   1       2.077   0.097   0.045  0.00  0.00     0.062 A 
ATOM      3  C2  UNL d   1       1.113  -0.551  -0.722  0.00  0.00     0.162 A 
ATOM      4  C3  UNL d   1      -0.238  -0.442  -0.392  0.00  0.00    -0.034 A 
ATOM      5  C4  UNL d   1      -0.609   0.322   0.715  0.00  0.00     0.162 A 
ATOM      6  C5  UNL d   1       0.358   0.968   1.479  0.00  0.00     0.062 A 
ATOM      7  F   UNL d   1      -0.007   1.701   2.541  0.00  0.00    -0.097 F 
ATOM      8  F1  UNL d   1      -1.899   0.448   1.060  0.00  0.00    -0.096 F 
ATOM      9  I   UNL d   1      -1.683  -1.409  -1.536  0.00  0.00    -0.060 I 
ATOM     10  F2  UNL d   1       1.505  -1.277  -1.779  0.00  0.00    -0.096 F 
ATOM     11  F3  UNL d   1       3.373  -0.013  -0.280  0.00  0.00    -0.097 F 
ATOM     12  F4  UNL d   1       2.630   1.478   1.881  0.00  0.00    -0.092 F 
ENDROOT
TORSDOF 0
ENDMDL
