MODEL 1
REMARK minimizedAffinity -5.35401201
REMARK minimizedRMSD -1
REMARK  0 active torsions:
REMARK  status: ('A' for Active; 'I' for Inactive)
ROOT
ATOM      1  C   UNL d   1       2.096   1.524   1.027  0.00  0.00     0.124 A 
ATOM      2  C1  UNL d   1       2.625   0.476   0.287  0.00  0.00     0.062 A 
ATOM      3  C2  UNL d   1       1.784  -0.486  -0.266  0.00  0.00     0.162 A 
ATOM      4  C3  UNL d   1       0.404  -0.403  -0.081  0.00  0.00    -0.034 A 
ATOM      5  C4  UNL d   1      -0.121   0.654   0.666  0.00  0.00     0.162 A 
ATOM      6  C5  UNL d   1       0.724   1.612   1.216  0.00  0.00     0.062 A 
ATOM      7  F   UNL d   1       0.211   2.624   1.931  0.00  0.00    -0.097 F 
ATOM      8  F1  UNL d   1      -1.443   0.764   0.863  0.00  0.00    -0.096 F 
ATOM      9  I   UNL d   1      -0.858  -1.838  -0.905  0.00  0.00    -0.060 I 
ATOM     10  F2  UNL d   1       2.322  -1.487  -0.977  0.00  0.00    -0.096 F 
ATOM     11  F3  UNL d   1       3.951   0.388   0.103  0.00  0.00    -0.097 F 
ATOM     12  F4  UNL d   1       2.908   2.447   1.558  0.00  0.00    -0.092 F 
ENDROOT
TORSDOF 0
ENDMDL
