MODEL 1
REMARK minimizedAffinity -5.44870758
REMARK minimizedRMSD -1
REMARK  0 active torsions:
REMARK  status: ('A' for Active; 'I' for Inactive)
ROOT
ATOM      1  C   UNL d   1       0.306  -0.726   0.199  0.00  0.00     0.124 A 
ATOM      2  C1  UNL d   1      -0.212   0.096   1.191  0.00  0.00     0.062 A 
ATOM      3  C2  UNL d   1       0.491   1.225   1.602  0.00  0.00     0.162 A 
ATOM      4  C3  UNL d   1       1.720   1.539   1.021  0.00  0.00    -0.034 A 
ATOM      5  C4  UNL d   1       2.235   0.707   0.025  0.00  0.00     0.162 A 
ATOM      6  C5  UNL d   1       1.528  -0.420  -0.383  0.00  0.00     0.062 A 
ATOM      7  F   UNL d   1       2.029  -1.213  -1.341  0.00  0.00    -0.097 F 
ATOM      8  F1  UNL d   1       3.413   0.979  -0.554  0.00  0.00    -0.096 F 
ATOM      9  I   UNL d   1       2.775   3.225   1.634  0.00  0.00    -0.060 I 
ATOM     10  F2  UNL d   1      -0.033   2.001   2.562  0.00  0.00    -0.096 F 
ATOM     11  F3  UNL d   1      -1.392  -0.198   1.755  0.00  0.00    -0.097 F 
ATOM     12  F4  UNL d   1      -0.373  -1.811  -0.195  0.00  0.00    -0.092 F 
ENDROOT
TORSDOF 0
ENDMDL
