MODEL 1
REMARK minimizedAffinity 3.14888406
REMARK minimizedRMSD -1
REMARK  0 active torsions:
REMARK  status: ('A' for Active; 'I' for Inactive)
ROOT
ATOM      1  C   UNL d   1       1.541   0.307  -0.312  0.00  0.00     0.124 A 
ATOM      2  C1  UNL d   1       0.275  -0.077  -0.730  0.00  0.00     0.062 A 
ATOM      3  C2  UNL d   1      -0.825   0.116   0.102  0.00  0.00     0.162 A 
ATOM      4  C3  UNL d   1      -0.663   0.697   1.360  0.00  0.00    -0.034 A 
ATOM      5  C4  UNL d   1       0.615   1.079   1.773  0.00  0.00     0.162 A 
ATOM      6  C5  UNL d   1       1.710   0.885   0.939  0.00  0.00     0.062 A 
ATOM      7  F   UNL d   1       2.933   1.256   1.344  0.00  0.00    -0.097 F 
ATOM      8  F1  UNL d   1       0.806   1.641   2.976  0.00  0.00    -0.096 F 
ATOM      9  I   UNL d   1      -2.304   0.987   2.606  0.00  0.00    -0.060 I 
ATOM     10  F2  UNL d   1      -2.037  -0.264  -0.328  0.00  0.00    -0.096 F 
ATOM     11  F3  UNL d   1       0.109  -0.635  -1.937  0.00  0.00    -0.097 F 
ATOM     12  F4  UNL d   1       2.598   0.120  -1.114  0.00  0.00    -0.092 F 
ENDROOT
TORSDOF 0
ENDMDL
