MODEL 1
REMARK minimizedAffinity -3.15779281
REMARK minimizedRMSD -1
REMARK  0 active torsions:
REMARK  status: ('A' for Active; 'I' for Inactive)
ROOT
ATOM      1  C   UNL d   1       2.258   2.155   1.445  0.00  0.00     0.124 A 
ATOM      2  C1  UNL d   1       1.025   1.745   1.935  0.00  0.00     0.062 A 
ATOM      3  C2  UNL d   1       0.346   0.692   1.330  0.00  0.00     0.162 A 
ATOM      4  C3  UNL d   1       0.899   0.039   0.229  0.00  0.00    -0.034 A 
ATOM      5  C4  UNL d   1       2.138   0.456  -0.259  0.00  0.00     0.162 A 
ATOM      6  C5  UNL d   1       2.813   1.510   0.349  0.00  0.00     0.062 A 
ATOM      7  F   UNL d   1       4.004   1.904  -0.126  0.00  0.00    -0.097 F 
ATOM      8  F1  UNL d   1       2.698  -0.149  -1.317  0.00  0.00    -0.096 F 
ATOM      9  I   UNL d   1      -0.113  -1.537  -0.679  0.00  0.00    -0.060 I 
ATOM     10  F2  UNL d   1      -0.843   0.317   1.825  0.00  0.00    -0.096 F 
ATOM     11  F3  UNL d   1       0.486   2.367   2.994  0.00  0.00    -0.097 F 
ATOM     12  F4  UNL d   1       2.908   3.169   2.029  0.00  0.00    -0.092 F 
ENDROOT
TORSDOF 0
ENDMDL
