MODEL 1
REMARK minimizedAffinity -1.23560393
REMARK minimizedRMSD -1
REMARK  1 active torsions:
REMARK  status: ('A' for Active; 'I' for Inactive)
REMARK    1  A    between atoms: C1_2  and  C2_3 
ROOT
ATOM      1  C2  UNL d   1      -3.083   2.180  -3.387  0.00  0.00    -0.076 A 
ATOM      2  C3  UNL d   1      -2.956   3.572  -3.231  0.00  0.00     0.004 A 
ATOM      3  C4  UNL d   1      -4.079   4.397  -3.219  0.00  0.00    -0.003 A 
ATOM      4  C5  UNL d   1      -5.348   3.845  -3.361  0.00  0.00     0.000 A 
ATOM      5  C6  UNL d   1      -5.493   2.465  -3.499  0.00  0.00     0.000 A 
ATOM      6  C7  UNL d   1      -4.372   1.616  -3.497  0.00  0.00    -0.073 A 
ATOM      7  C8  UNL d   1      -4.587   0.136  -3.654  0.00  0.00     0.078 C 
ENDROOT
BRANCH   1   8
ATOM      8  C1  UNL d   1      -1.828   1.338  -3.420  0.00  0.00     0.053 C 
ATOM      9  C   UNL d   1      -0.573   2.170  -3.638  0.00  0.00     0.018 C 
ENDBRANCH   1   8
TORSDOF 1
ENDMDL
