MODEL 1
REMARK minimizedAffinity 11.3322039
REMARK minimizedRMSD -1
REMARK  1 active torsions:
REMARK  status: ('A' for Active; 'I' for Inactive)
REMARK    1  A    between atoms: C1_2  and  C2_3 
ROOT
ATOM      1  C2  UNL d   1       2.457  -2.116   3.147  0.00  0.00    -0.076 A 
ATOM      2  C3  UNL d   1       2.998  -2.244   1.855  0.00  0.00     0.004 A 
ATOM      3  C4  UNL d   1       3.961  -3.211   1.573  0.00  0.00    -0.003 A 
ATOM      4  C5  UNL d   1       4.399  -4.066   2.578  0.00  0.00     0.000 A 
ATOM      5  C6  UNL d   1       3.862  -3.965   3.861  0.00  0.00     0.000 A 
ATOM      6  C7  UNL d   1       2.878  -3.006   4.158  0.00  0.00    -0.073 A 
ATOM      7  C8  UNL d   1       2.337  -2.938   5.559  0.00  0.00     0.078 C 
ENDROOT
BRANCH   1   8
ATOM      8  C1  UNL d   1       1.435  -1.031   3.400  0.00  0.00     0.053 C 
ATOM      9  C   UNL d   1       0.967  -0.361   2.117  0.00  0.00     0.018 C 
ENDBRANCH   1   8
TORSDOF 1
ENDMDL
