MODEL 1
REMARK minimizedAffinity 10.9233494
REMARK minimizedRMSD -1
REMARK  1 active torsions:
REMARK  status: ('A' for Active; 'I' for Inactive)
REMARK    1  A    between atoms: C1_2  and  C2_3 
ROOT
ATOM      1  C2  UNL d   1       3.978  -4.609  -4.884  0.00  0.00    -0.076 A 
ATOM      2  C3  UNL d   1       2.726  -4.470  -4.259  0.00  0.00     0.004 A 
ATOM      3  C4  UNL d   1       2.174  -3.211  -4.032  0.00  0.00    -0.003 A 
ATOM      4  C5  UNL d   1       2.863  -2.070  -4.426  0.00  0.00     0.000 A 
ATOM      5  C6  UNL d   1       4.098  -2.189  -5.063  0.00  0.00     0.000 A 
ATOM      6  C7  UNL d   1       4.662  -3.452  -5.314  0.00  0.00    -0.073 A 
ATOM      7  C8  UNL d   1       5.999  -3.522  -5.999  0.00  0.00     0.078 C 
ENDROOT
BRANCH   1   8
ATOM      8  C1  UNL d   1       4.539  -5.999  -5.080  0.00  0.00     0.053 C 
ATOM      9  C   UNL d   1       6.000  -5.983  -5.503  0.00  0.00     0.018 C 
ENDBRANCH   1   8
TORSDOF 1
ENDMDL
