MODEL 1
REMARK minimizedAffinity 7.39350653
REMARK minimizedRMSD -1
REMARK  1 active torsions:
REMARK  status: ('A' for Active; 'I' for Inactive)
REMARK    1  A    between atoms: C1_2  and  C2_3 
ROOT
ATOM      1  C2  UNL d   1       3.665  -3.699  -4.513  0.00  0.00    -0.076 A 
ATOM      2  C3  UNL d   1       3.703  -5.035  -4.078  0.00  0.00     0.004 A 
ATOM      3  C4  UNL d   1       4.650  -5.927  -4.580  0.00  0.00    -0.003 A 
ATOM      4  C5  UNL d   1       5.574  -5.497  -5.526  0.00  0.00     0.000 A 
ATOM      5  C6  UNL d   1       5.562  -4.170  -5.956  0.00  0.00     0.000 A 
ATOM      6  C7  UNL d   1       4.625  -3.254  -5.447  0.00  0.00    -0.073 A 
ATOM      7  C8  UNL d   1       4.655  -1.837  -5.951  0.00  0.00     0.078 C 
ENDROOT
BRANCH   1   8
ATOM      8  C1  UNL d   1       2.599  -2.785  -3.953  0.00  0.00     0.053 C 
ATOM      9  C   UNL d   1       3.172  -1.712  -3.041  0.00  0.00     0.018 C 
ENDBRANCH   1   8
TORSDOF 1
ENDMDL
