MODEL 1
REMARK minimizedAffinity 14.2014465
REMARK minimizedRMSD -1
REMARK  1 active torsions:
REMARK  status: ('A' for Active; 'I' for Inactive)
REMARK    1  A    between atoms: C1_2  and  C2_3 
ROOT
ATOM      1  C2  UNL d   1       3.482  -4.364   1.826  0.00  0.00    -0.076 A 
ATOM      2  C3  UNL d   1       2.918  -5.635   1.623  0.00  0.00     0.004 A 
ATOM      3  C4  UNL d   1       1.734  -5.789   0.904  0.00  0.00    -0.003 A 
ATOM      4  C5  UNL d   1       1.094  -4.673   0.376  0.00  0.00     0.000 A 
ATOM      5  C6  UNL d   1       1.648  -3.406   0.553  0.00  0.00     0.000 A 
ATOM      6  C7  UNL d   1       2.850  -3.235   1.261  0.00  0.00    -0.073 A 
ATOM      7  C8  UNL d   1       3.400  -1.845   1.426  0.00  0.00     0.078 C 
ENDROOT
BRANCH   1   8
ATOM      8  C1  UNL d   1       4.754  -4.256   2.637  0.00  0.00     0.053 C 
ATOM      9  C   UNL d   1       6.000  -4.506   1.802  0.00  0.00     0.018 C 
ENDBRANCH   1   8
TORSDOF 1
ENDMDL
