MODEL 1
REMARK minimizedAffinity 12.3405724
REMARK minimizedRMSD -1
REMARK  0 active torsions:
REMARK  status: ('A' for Active; 'I' for Inactive)
ROOT
ATOM      1  C   UNL d   1      -3.436  -1.765  -2.659  0.00  0.00    -0.002 A 
ATOM      2  C1  UNL d   1      -4.065  -0.736  -3.345  0.00  0.00     0.010 A 
ATOM      3  C2  UNL d   1      -3.867   0.594  -2.967  0.00  0.00     0.041 A 
ATOM      4  C3  UNL d   1      -3.017   0.874  -1.879  0.00  0.00    -0.075 A 
ATOM      5  S   UNL d   1      -2.626   2.426  -1.238  0.00  0.00     0.015 SA
ATOM      6  C4  UNL d   1      -1.614   1.759  -0.040  0.00  0.00     0.022 A 
ATOM      7  C5  UNL d   1      -1.565   0.387  -0.112  0.00  0.00     0.026 A 
ATOM      8  C6  UNL d   1      -2.372  -0.146  -1.173  0.00  0.00    -0.082 A 
ATOM      9  C7  UNL d   1      -2.594  -1.483  -1.580  0.00  0.00     0.045 A 
ENDROOT
TORSDOF 0
ENDMDL
