MODEL 1
REMARK minimizedAffinity 10.0176544
REMARK minimizedRMSD -1
REMARK  0 active torsions:
REMARK  status: ('A' for Active; 'I' for Inactive)
ROOT
ATOM      1  C   UNL d   1      -2.173   3.058   1.440  0.00  0.00    -0.002 A 
ATOM      2  C1  UNL d   1      -3.468   2.660   1.139  0.00  0.00     0.010 A 
ATOM      3  C2  UNL d   1      -4.555   3.197   1.831  0.00  0.00     0.041 A 
ATOM      4  C3  UNL d   1      -4.317   4.153   2.838  0.00  0.00    -0.075 A 
ATOM      5  S   UNL d   1      -5.494   4.948   3.816  0.00  0.00     0.015 SA
ATOM      6  C4  UNL d   1      -4.306   5.836   4.655  0.00  0.00     0.022 A 
ATOM      7  C5  UNL d   1      -3.037   5.545   4.213  0.00  0.00     0.026 A 
ATOM      8  C6  UNL d   1      -3.022   4.571   3.159  0.00  0.00    -0.082 A 
ATOM      9  C7  UNL d   1      -1.941   4.006   2.440  0.00  0.00     0.045 A 
ENDROOT
TORSDOF 0
ENDMDL
