MODEL 1
REMARK minimizedAffinity 13.7482719
REMARK minimizedRMSD -1
REMARK  0 active torsions:
REMARK  status: ('A' for Active; 'I' for Inactive)
ROOT
ATOM      1  C   UNL d   1       1.116  -0.788   2.201  0.00  0.00    -0.002 A 
ATOM      2  C1  UNL d   1       2.315  -0.854   1.506  0.00  0.00     0.010 A 
ATOM      3  C2  UNL d   1       3.268  -1.824   1.825  0.00  0.00     0.041 A 
ATOM      4  C3  UNL d   1       2.991  -2.737   2.862  0.00  0.00    -0.075 A 
ATOM      5  S   UNL d   1       4.008  -4.010   3.425  0.00  0.00     0.015 SA
ATOM      6  C4  UNL d   1       2.874  -4.497   4.600  0.00  0.00     0.022 A 
ATOM      7  C5  UNL d   1       1.741  -3.718   4.577  0.00  0.00     0.026 A 
ATOM      8  C6  UNL d   1       1.790  -2.691   3.575  0.00  0.00    -0.082 A 
ATOM      9  C7  UNL d   1       0.845  -1.696   3.229  0.00  0.00     0.045 A 
ENDROOT
TORSDOF 0
ENDMDL
