MODEL 1
REMARK minimizedAffinity 5.75400591
REMARK minimizedRMSD -1
REMARK  0 active torsions:
REMARK  status: ('A' for Active; 'I' for Inactive)
ROOT
ATOM      1  C   UNL d   1       1.955   0.122   3.503  0.00  0.00    -0.002 A 
ATOM      2  C1  UNL d   1       2.345  -0.204   2.212  0.00  0.00     0.010 A 
ATOM      3  C2  UNL d   1       2.545  -1.537   1.846  0.00  0.00     0.041 A 
ATOM      4  C3  UNL d   1       2.342  -2.546   2.808  0.00  0.00    -0.075 A 
ATOM      5  S   UNL d   1       2.526  -4.246   2.585  0.00  0.00     0.015 SA
ATOM      6  C4  UNL d   1       2.089  -4.579   4.199  0.00  0.00     0.022 A 
ATOM      7  C5  UNL d   1       1.808  -3.433   4.904  0.00  0.00     0.026 A 
ATOM      8  C6  UNL d   1       1.948  -2.243   4.114  0.00  0.00    -0.082 A 
ATOM      9  C7  UNL d   1       1.754  -0.882   4.455  0.00  0.00     0.045 A 
ENDROOT
TORSDOF 0
ENDMDL
