MODEL 1
REMARK minimizedAffinity 11.1906538
REMARK minimizedRMSD -1
REMARK  0 active torsions:
REMARK  status: ('A' for Active; 'I' for Inactive)
ROOT
ATOM      1  C   UNL d   1       2.206  -2.087   3.047  0.00  0.00    -0.002 A 
ATOM      2  C1  UNL d   1       3.455  -2.300   3.612  0.00  0.00     0.010 A 
ATOM      3  C2  UNL d   1       3.651  -3.327   4.538  0.00  0.00     0.041 A 
ATOM      4  C3  UNL d   1       2.559  -4.145   4.889  0.00  0.00    -0.075 A 
ATOM      5  S   UNL d   1       2.562  -5.464   5.999  0.00  0.00     0.015 SA
ATOM      6  C4  UNL d   1       0.906  -5.776   5.749  0.00  0.00     0.022 A 
ATOM      7  C5  UNL d   1       0.348  -4.905   4.844  0.00  0.00     0.026 A 
ATOM      8  C6  UNL d   1       1.291  -3.951   4.332  0.00  0.00    -0.082 A 
ATOM      9  C7  UNL d   1       1.125  -2.901   3.397  0.00  0.00     0.045 A 
ENDROOT
TORSDOF 0
ENDMDL
