MODEL 1
REMARK minimizedAffinity 9.37345219
REMARK minimizedRMSD -1
REMARK  0 active torsions:
REMARK  status: ('A' for Active; 'I' for Inactive)
ROOT
ATOM      1  C   UNL d   1      -6.000   4.221  -2.888  0.00  0.00    -0.002 A 
ATOM      2  C1  UNL d   1      -6.000   4.227  -1.500  0.00  0.00     0.010 A 
ATOM      3  C2  UNL d   1      -5.143   3.387  -0.786  0.00  0.00     0.041 A 
ATOM      4  C3  UNL d   1      -4.275   2.535  -1.498  0.00  0.00    -0.075 A 
ATOM      5  S   UNL d   1      -3.138   1.421  -0.835  0.00  0.00     0.015 SA
ATOM      6  C4  UNL d   1      -2.625   0.912  -2.379  0.00  0.00     0.022 A 
ATOM      7  C5  UNL d   1      -3.294   1.565  -3.386  0.00  0.00     0.026 A 
ATOM      8  C6  UNL d   1      -4.256   2.512  -2.895  0.00  0.00    -0.082 A 
ATOM      9  C7  UNL d   1      -5.138   3.374  -3.590  0.00  0.00     0.045 A 
ENDROOT
TORSDOF 0
ENDMDL
