MODEL 1
REMARK minimizedAffinity -1.57444465
REMARK minimizedRMSD -1
REMARK  0 active torsions:
REMARK  status: ('A' for Active; 'I' for Inactive)
ROOT
ATOM      1  O1  BZF d   1       0.020  -1.186   2.303  0.00  0.00    -0.204 OA
ATOM      2  C2  BZF d   1      -1.010  -0.392   2.768  0.00  0.00     0.174 A 
ATOM      3  C3  BZF d   1      -1.436   0.451   1.805  0.00  0.00    -0.012 A 
ATOM      4  C3A BZF d   1      -0.683   0.103   0.639  0.00  0.00    -0.107 A 
ATOM      5  C4  BZF d   1      -0.666   0.572  -0.643  0.00  0.00     0.055 A 
ATOM      6  C5  BZF d   1       0.240   0.066  -1.520  0.00  0.00    -0.016 A 
ATOM      7  C6  BZF d   1       1.146  -0.906  -1.148  0.00  0.00     0.022 A 
ATOM      8  C7  BZF d   1       1.164  -1.407   0.112  0.00  0.00     0.029 A 
ATOM      9  C7A BZF d   1       0.228  -0.921   0.991  0.00  0.00     0.058 A 
ENDROOT
TORSDOF 0
ENDMDL
