MODEL 1
REMARK minimizedAffinity -1.62808752
REMARK minimizedRMSD -1
REMARK  0 active torsions:
REMARK  status: ('A' for Active; 'I' for Inactive)
ROOT
ATOM      1  O1  BZF d   1       1.874  -1.793  -0.101  0.00  0.00    -0.204 OA
ATOM      2  C2  BZF d   1       1.623  -1.349  -1.385  0.00  0.00     0.174 A 
ATOM      3  C3  BZF d   1       0.524  -0.568  -1.415  0.00  0.00    -0.012 A 
ATOM      4  C3A BZF d   1       0.112  -0.445  -0.050  0.00  0.00    -0.107 A 
ATOM      5  C4  BZF d   1      -0.910   0.219   0.566  0.00  0.00     0.055 A 
ATOM      6  C5  BZF d   1      -1.079   0.074   1.906  0.00  0.00    -0.016 A 
ATOM      7  C6  BZF d   1      -0.249  -0.730   2.660  0.00  0.00     0.022 A 
ATOM      8  C7  BZF d   1       0.781  -1.405   2.094  0.00  0.00     0.029 A 
ATOM      9  C7A BZF d   1       0.975  -1.235   0.745  0.00  0.00     0.058 A 
ENDROOT
TORSDOF 0
ENDMDL
