MODEL 1
REMARK minimizedAffinity 1.41538429
REMARK minimizedRMSD -1
REMARK  0 active torsions:
REMARK  status: ('A' for Active; 'I' for Inactive)
ROOT
ATOM      1  O1  BZF d   1       0.914   1.178  -0.701  0.00  0.00    -0.204 OA
ATOM      2  C2  BZF d   1       0.201   0.149  -0.117  0.00  0.00     0.174 A 
ATOM      3  C3  BZF d   1      -1.091   0.184  -0.501  0.00  0.00    -0.012 A 
ATOM      4  C3A BZF d   1      -1.172   1.250  -1.452  0.00  0.00    -0.107 A 
ATOM      5  C4  BZF d   1      -2.192   1.766  -2.200  0.00  0.00     0.055 A 
ATOM      6  C5  BZF d   1      -1.955   2.855  -2.978  0.00  0.00    -0.016 A 
ATOM      7  C6  BZF d   1      -0.715   3.456  -3.027  0.00  0.00     0.022 A 
ATOM      8  C7  BZF d   1       0.329   2.978  -2.307  0.00  0.00     0.029 A 
ATOM      9  C7A BZF d   1       0.102   1.857  -1.546  0.00  0.00     0.058 A 
ENDROOT
TORSDOF 0
ENDMDL
