MODEL 1
REMARK minimizedAffinity 0.433507264
REMARK minimizedRMSD -1
REMARK  0 active torsions:
REMARK  status: ('A' for Active; 'I' for Inactive)
ROOT
ATOM      1  O1  BZF d   1      -0.513   2.003  -2.672  0.00  0.00    -0.204 OA
ATOM      2  C2  BZF d   1      -1.530   2.920  -2.491  0.00  0.00     0.174 A 
ATOM      3  C3  BZF d   1      -2.169   2.703  -1.323  0.00  0.00    -0.012 A 
ATOM      4  C3A BZF d   1      -1.450   1.638  -0.694  0.00  0.00    -0.107 A 
ATOM      5  C4  BZF d   1      -1.592   0.984   0.497  0.00  0.00     0.055 A 
ATOM      6  C5  BZF d   1      -0.769  -0.060   0.779  0.00  0.00    -0.016 A 
ATOM      7  C6  BZF d   1       0.201  -0.480  -0.107  0.00  0.00     0.022 A 
ATOM      8  C7  BZF d   1       0.383   0.140  -1.298  0.00  0.00     0.029 A 
ATOM      9  C7A BZF d   1      -0.425   1.217  -1.572  0.00  0.00     0.058 A 
ENDROOT
TORSDOF 0
ENDMDL
