MODEL 1
REMARK minimizedAffinity -2.65073514
REMARK minimizedRMSD -1
REMARK  0 active torsions:
REMARK  status: ('A' for Active; 'I' for Inactive)
ROOT
ATOM      1  O1  BZF d   1       0.583  -1.452   0.822  0.00  0.00    -0.204 OA
ATOM      2  C2  BZF d   1       0.116  -0.830   1.963  0.00  0.00     0.174 A 
ATOM      3  C3  BZF d   1      -0.516   0.321   1.656  0.00  0.00    -0.012 A 
ATOM      4  C3A BZF d   1      -0.520   0.379   0.226  0.00  0.00    -0.107 A 
ATOM      5  C4  BZF d   1      -1.016   1.276  -0.676  0.00  0.00     0.055 A 
ATOM      6  C5  BZF d   1      -0.787   1.075  -2.000  0.00  0.00    -0.016 A 
ATOM      7  C6  BZF d   1      -0.063  -0.007  -2.457  0.00  0.00     0.022 A 
ATOM      8  C7  BZF d   1       0.445  -0.926  -1.600  0.00  0.00     0.029 A 
ATOM      9  C7A BZF d   1       0.187  -0.744  -0.263  0.00  0.00     0.058 A 
ENDROOT
TORSDOF 0
ENDMDL
