MODEL 1
REMARK minimizedAffinity 9.33805084
REMARK minimizedRMSD -1
REMARK  0 active torsions:
REMARK  status: ('A' for Active; 'I' for Inactive)
ROOT
ATOM      1  O1  BZF d   1      -2.794   2.397  -3.195  0.00  0.00    -0.204 OA
ATOM      2  C2  BZF d   1      -3.530   3.311  -2.465  0.00  0.00     0.174 A 
ATOM      3  C3  BZF d   1      -4.838   3.238  -2.787  0.00  0.00    -0.012 A 
ATOM      4  C3A BZF d   1      -4.938   2.151  -3.712  0.00  0.00    -0.107 A 
ATOM      5  C4  BZF d   1      -5.983   1.578  -4.378  0.00  0.00     0.055 A 
ATOM      6  C5  BZF d   1      -5.734   0.580  -5.265  0.00  0.00    -0.016 A 
ATOM      7  C6  BZF d   1      -4.453   0.133  -5.514  0.00  0.00     0.022 A 
ATOM      8  C7  BZF d   1      -3.384   0.667  -4.874  0.00  0.00     0.029 A 
ATOM      9  C7A BZF d   1      -3.636   1.654  -3.953  0.00  0.00     0.058 A 
ENDROOT
TORSDOF 0
ENDMDL
