MODEL 1
REMARK minimizedAffinity -6.72401285
REMARK minimizedRMSD -1
REMARK  0 active torsions:
REMARK  status: ('A' for Active; 'I' for Inactive)
ROOT
ATOM      1  O1  BZF d   1       0.580  -0.536  -0.729  0.00  0.00    -0.204 OA
ATOM      2  C2  BZF d   1      -0.586   0.139  -0.422  0.00  0.00     0.174 A 
ATOM      3  C3  BZF d   1      -0.768   0.195   0.914  0.00  0.00    -0.012 A 
ATOM      4  C3A BZF d   1       0.401  -0.406   1.478  0.00  0.00    -0.107 A 
ATOM      5  C4  BZF d   1       0.815  -0.631   2.760  0.00  0.00     0.055 A 
ATOM      6  C5  BZF d   1       1.975  -1.307   2.971  0.00  0.00    -0.016 A 
ATOM      7  C6  BZF d   1       2.742  -1.776   1.924  0.00  0.00     0.022 A 
ATOM      8  C7  BZF d   1       2.374  -1.573   0.636  0.00  0.00     0.029 A 
ATOM      9  C7A BZF d   1       1.220  -0.862   0.419  0.00  0.00     0.058 A 
ENDROOT
TORSDOF 0
ENDMDL
