MODEL 1
REMARK minimizedAffinity -5.70281744
REMARK minimizedRMSD -1
REMARK  0 active torsions:
REMARK  status: ('A' for Active; 'I' for Inactive)
ROOT
ATOM      1  O1  BZF d   1       0.981  -0.403  -0.434  0.00  0.00    -0.204 OA
ATOM      2  C2  BZF d   1      -0.358  -0.159  -0.198  0.00  0.00     0.174 A 
ATOM      3  C3  BZF d   1      -0.673  -0.419   1.088  0.00  0.00    -0.012 A 
ATOM      4  C3A BZF d   1       0.566  -0.764   1.716  0.00  0.00    -0.107 A 
ATOM      5  C4  BZF d   1       0.907  -1.109   2.992  0.00  0.00     0.055 A 
ATOM      6  C5  BZF d   1       2.192  -1.458   3.261  0.00  0.00    -0.016 A 
ATOM      7  C6  BZF d   1       3.160  -1.478   2.278  0.00  0.00     0.022 A 
ATOM      8  C7  BZF d   1       2.870  -1.139   0.998  0.00  0.00     0.029 A 
ATOM      9  C7A BZF d   1       1.579  -0.754   0.730  0.00  0.00     0.058 A 
ENDROOT
TORSDOF 0
ENDMDL
