MODEL 1
REMARK minimizedAffinity -4.09462833
REMARK minimizedRMSD -1
REMARK  0 active torsions:
REMARK  status: ('A' for Active; 'I' for Inactive)
ROOT
ATOM      1  O1  BZF d   1      -0.853   1.770  -3.528  0.00  0.00    -0.204 OA
ATOM      2  C2  BZF d   1      -0.722   3.144  -3.481  0.00  0.00     0.174 A 
ATOM      3  C3  BZF d   1      -0.459   3.557  -2.224  0.00  0.00    -0.012 A 
ATOM      4  C3A BZF d   1      -0.331   2.358  -1.454  0.00  0.00    -0.107 A 
ATOM      5  C4  BZF d   1      -0.057   2.112  -0.139  0.00  0.00     0.055 A 
ATOM      6  C5  BZF d   1      -0.077   0.830   0.311  0.00  0.00    -0.016 A 
ATOM      7  C6  BZF d   1      -0.372  -0.228  -0.523  0.00  0.00     0.022 A 
ATOM      8  C7  BZF d   1      -0.647  -0.034  -1.836  0.00  0.00     0.029 A 
ATOM      9  C7A BZF d   1      -0.595   1.257  -2.301  0.00  0.00     0.058 A 
ENDROOT
TORSDOF 0
ENDMDL
