MODEL 1
REMARK minimizedAffinity -0.134356514
REMARK minimizedRMSD -1
REMARK  0 active torsions:
REMARK  status: ('A' for Active; 'I' for Inactive)
ROOT
ATOM      1  O1  BZF d   1       1.578  -1.491  -0.450  0.00  0.00    -0.204 OA
ATOM      2  C2  BZF d   1       0.842  -0.757  -1.360  0.00  0.00     0.174 A 
ATOM      3  C3  BZF d   1      -0.288  -0.287  -0.793  0.00  0.00    -0.012 A 
ATOM      4  C3A BZF d   1      -0.211  -0.680   0.581  0.00  0.00    -0.107 A 
ATOM      5  C4  BZF d   1      -1.029  -0.493   1.658  0.00  0.00     0.055 A 
ATOM      6  C5  BZF d   1      -0.700  -1.068   2.845  0.00  0.00    -0.016 A 
ATOM      7  C6  BZF d   1       0.435  -1.838   2.988  0.00  0.00     0.022 A 
ATOM      8  C7  BZF d   1       1.280  -2.048   1.950  0.00  0.00     0.029 A 
ATOM      9  C7A BZF d   1       0.967  -1.441   0.758  0.00  0.00     0.058 A 
ENDROOT
TORSDOF 0
ENDMDL
