MODEL 1
REMARK minimizedAffinity -4.73425007
REMARK minimizedRMSD -1
REMARK  0 active torsions:
REMARK  status: ('A' for Active; 'I' for Inactive)
ROOT
ATOM      1  O1  BZF d   1       1.474  -1.451  -0.704  0.00  0.00    -0.204 OA
ATOM      2  C2  BZF d   1       2.274  -2.338  -0.011  0.00  0.00     0.174 A 
ATOM      3  C3  BZF d   1       1.909  -2.397   1.286  0.00  0.00    -0.012 A 
ATOM      4  C3A BZF d   1       0.754  -1.560   1.391  0.00  0.00    -0.107 A 
ATOM      5  C4  BZF d   1      -0.073  -1.226   2.426  0.00  0.00     0.055 A 
ATOM      6  C5  BZF d   1      -1.068  -0.326   2.212  0.00  0.00    -0.016 A 
ATOM      7  C6  BZF d   1      -1.262   0.262   0.979  0.00  0.00     0.022 A 
ATOM      8  C7  BZF d   1      -0.471  -0.041  -0.079  0.00  0.00     0.029 A 
ATOM      9  C7A BZF d   1       0.515  -0.975   0.126  0.00  0.00     0.058 A 
ENDROOT
TORSDOF 0
ENDMDL
