MODEL 1
REMARK minimizedAffinity -4.90051222
REMARK minimizedRMSD -1
REMARK  0 active torsions:
REMARK  status: ('A' for Active; 'I' for Inactive)
ROOT
ATOM      1  O1  BZF d   1       0.829  -1.055  -1.299  0.00  0.00    -0.204 OA
ATOM      2  C2  BZF d   1      -0.389  -0.403  -1.274  0.00  0.00     0.174 A 
ATOM      3  C3  BZF d   1      -0.804  -0.212  -0.005  0.00  0.00    -0.012 A 
ATOM      4  C3A BZF d   1       0.262  -0.699   0.817  0.00  0.00    -0.107 A 
ATOM      5  C4  BZF d   1       0.450  -0.769   2.168  0.00  0.00     0.055 A 
ATOM      6  C5  BZF d   1       1.570  -1.368   2.649  0.00  0.00    -0.016 A 
ATOM      7  C6  BZF d   1       2.520  -1.913   1.809  0.00  0.00     0.022 A 
ATOM      8  C7  BZF d   1       2.380  -1.864   0.462  0.00  0.00     0.029 A 
ATOM      9  C7A BZF d   1       1.265  -1.230  -0.028  0.00  0.00     0.058 A 
ENDROOT
TORSDOF 0
ENDMDL
