MODEL 1
REMARK minimizedAffinity 12.789052
REMARK minimizedRMSD -1
REMARK  1 active torsions:
REMARK  status: ('A' for Active; 'I' for Inactive)
REMARK    1  A    between atoms: C1_2  and  C2_3 
ROOT
ATOM      1  C2  UNL d   1      -0.014   2.031   2.319  0.00  0.00    -0.073 A 
ATOM      2  C3  UNL d   1      -1.403   2.147   2.446  0.00  0.00    -0.002 A 
ATOM      3  C4  UNL d   1      -2.101   1.324   3.330  0.00  0.00     0.004 A 
ATOM      4  C5  UNL d   1      -1.418   0.381   4.100  0.00  0.00    -0.004 A 
ATOM      5  C6  UNL d   1      -0.029   0.258   3.995  0.00  0.00    -0.075 A 
ATOM      6  C7  UNL d   1       0.720  -0.752   4.814  0.00  0.00     0.076 C 
ATOM      7  C8  UNL d   1       0.665   1.087   3.103  0.00  0.00     0.001 A 
ENDROOT
BRANCH   1   8
ATOM      8  C1  UNL d   1       0.745   2.923   1.370  0.00  0.00     0.053 C 
ATOM      9  C   UNL d   1      -0.050   3.220   0.108  0.00  0.00     0.018 C 
ENDBRANCH   1   8
TORSDOF 1
ENDMDL
