MODEL 1
REMARK minimizedAffinity 3.07530522
REMARK minimizedRMSD -1
REMARK  1 active torsions:
REMARK  status: ('A' for Active; 'I' for Inactive)
REMARK    1  A    between atoms: C1_2  and  C2_3 
ROOT
ATOM      1  C2  UNL d   1      -4.131   2.358  -5.205  0.00  0.00    -0.073 A 
ATOM      2  C3  UNL d   1      -5.213   2.762  -5.996  0.00  0.00    -0.002 A 
ATOM      3  C4  UNL d   1      -5.986   3.863  -5.623  0.00  0.00     0.004 A 
ATOM      4  C5  UNL d   1      -5.682   4.573  -4.462  0.00  0.00    -0.004 A 
ATOM      5  C6  UNL d   1      -4.598   4.192  -3.665  0.00  0.00    -0.075 A 
ATOM      6  C7  UNL d   1      -4.258   4.944  -2.412  0.00  0.00     0.076 C 
ATOM      7  C8  UNL d   1      -3.828   3.084  -4.045  0.00  0.00     0.001 A 
ENDROOT
BRANCH   1   8
ATOM      8  C1  UNL d   1      -3.290   1.174  -5.607  0.00  0.00     0.053 C 
ATOM      9  C   UNL d   1      -2.325   0.761  -4.507  0.00  0.00     0.018 C 
ENDBRANCH   1   8
TORSDOF 1
ENDMDL
