MODEL 1
REMARK minimizedAffinity 4.35065889
REMARK minimizedRMSD -1
REMARK  1 active torsions:
REMARK  status: ('A' for Active; 'I' for Inactive)
REMARK    1  A    between atoms: C1_2  and  C2_3 
ROOT
ATOM      1  C2  UNL d   1      -5.219   3.898  -3.051  0.00  0.00    -0.073 A 
ATOM      2  C3  UNL d   1      -5.438   5.156  -3.624  0.00  0.00    -0.002 A 
ATOM      3  C4  UNL d   1      -5.821   5.264  -4.961  0.00  0.00     0.004 A 
ATOM      4  C5  UNL d   1      -5.997   4.118  -5.736  0.00  0.00    -0.004 A 
ATOM      5  C6  UNL d   1      -5.794   2.852  -5.179  0.00  0.00    -0.075 A 
ATOM      6  C7  UNL d   1      -5.977   1.609  -6.000  0.00  0.00     0.076 C 
ATOM      7  C8  UNL d   1      -5.407   2.751  -3.836  0.00  0.00     0.001 A 
ENDROOT
BRANCH   1   8
ATOM      8  C1  UNL d   1      -4.811   3.775  -1.605  0.00  0.00     0.053 C 
ATOM      9  C   UNL d   1      -5.211   2.434  -1.012  0.00  0.00     0.018 C 
ENDBRANCH   1   8
TORSDOF 1
ENDMDL
