MODEL 1
REMARK minimizedAffinity 12.8952293
REMARK minimizedRMSD -1
REMARK  1 active torsions:
REMARK  status: ('A' for Active; 'I' for Inactive)
REMARK    1  A    between atoms: C1_2  and  C2_3 
ROOT
ATOM      1  C2  UNL d   1       0.035   1.660   0.006  0.00  0.00    -0.073 A 
ATOM      2  C3  UNL d   1       0.889   0.747  -0.622  0.00  0.00    -0.002 A 
ATOM      3  C4  UNL d   1       0.366  -0.347  -1.313  0.00  0.00     0.004 A 
ATOM      4  C5  UNL d   1      -1.014  -0.534  -1.391  0.00  0.00    -0.004 A 
ATOM      5  C6  UNL d   1      -1.884   0.375  -0.781  0.00  0.00    -0.075 A 
ATOM      6  C7  UNL d   1      -3.371   0.187  -0.853  0.00  0.00     0.076 C 
ATOM      7  C8  UNL d   1      -1.352   1.469  -0.086  0.00  0.00     0.001 A 
ENDROOT
BRANCH   1   8
ATOM      8  C1  UNL d   1       0.594   2.846   0.748  0.00  0.00     0.053 C 
ATOM      9  C   UNL d   1       0.049   4.162   0.215  0.00  0.00     0.018 C 
ENDBRANCH   1   8
TORSDOF 1
ENDMDL
