MODEL 1
REMARK minimizedAffinity 16.4890804
REMARK minimizedRMSD -1
REMARK  1 active torsions:
REMARK  status: ('A' for Active; 'I' for Inactive)
REMARK    1  A    between atoms: C1_2  and  C2_3 
ROOT
ATOM      1  C2  UNL d   1       1.338  -0.196   3.786  0.00  0.00    -0.073 A 
ATOM      2  C3  UNL d   1       2.584   0.339   3.439  0.00  0.00    -0.002 A 
ATOM      3  C4  UNL d   1       2.666   1.568   2.782  0.00  0.00     0.004 A 
ATOM      4  C5  UNL d   1       1.505   2.276   2.471  0.00  0.00    -0.004 A 
ATOM      5  C6  UNL d   1       0.251   1.764   2.820  0.00  0.00    -0.075 A 
ATOM      6  C7  UNL d   1      -1.007   2.513   2.490  0.00  0.00     0.076 C 
ATOM      7  C8  UNL d   1       0.177   0.528   3.477  0.00  0.00     0.001 A 
ENDROOT
BRANCH   1   8
ATOM      8  C1  UNL d   1       1.245  -1.519   4.501  0.00  0.00     0.053 C 
ATOM      9  C   UNL d   1       2.412  -2.433   4.162  0.00  0.00     0.018 C 
ENDBRANCH   1   8
TORSDOF 1
ENDMDL
