MODEL 1
REMARK minimizedAffinity 12.63939
REMARK minimizedRMSD -1
REMARK  1 active torsions:
REMARK  status: ('A' for Active; 'I' for Inactive)
REMARK    1  A    between atoms: C1_2  and  C2_3 
ROOT
ATOM      1  C2  UNL d   1       0.196   3.374   0.326  0.00  0.00    -0.073 A 
ATOM      2  C3  UNL d   1      -0.748   4.057   1.101  0.00  0.00    -0.002 A 
ATOM      3  C4  UNL d   1      -1.111   5.366   0.778  0.00  0.00     0.004 A 
ATOM      4  C5  UNL d   1      -0.540   6.000  -0.325  0.00  0.00    -0.004 A 
ATOM      5  C6  UNL d   1       0.396   5.329  -1.119  0.00  0.00    -0.075 A 
ATOM      6  C7  UNL d   1       1.020   5.998  -2.308  0.00  0.00     0.076 C 
ATOM      7  C8  UNL d   1       0.757   4.017  -0.786  0.00  0.00     0.001 A 
ENDROOT
BRANCH   1   8
ATOM      8  C1  UNL d   1       0.586   1.959   0.668  0.00  0.00     0.053 C 
ATOM      9  C   UNL d   1       0.736   1.094  -0.573  0.00  0.00     0.018 C 
ENDBRANCH   1   8
TORSDOF 1
ENDMDL
