MODEL 1
REMARK minimizedAffinity 4.13166618
REMARK minimizedRMSD -1
REMARK  1 active torsions:
REMARK  status: ('A' for Active; 'I' for Inactive)
REMARK    1  A    between atoms: C1_2  and  C2_3 
ROOT
ATOM      1  C2  UNL d   1      -5.219   0.812  -0.480  0.00  0.00    -0.081 A 
ATOM      2  C3  UNL d   1      -5.999   0.903   0.679  0.00  0.00     0.006 A 
ATOM      3  C4  UNL d   1      -5.998   2.072   1.443  0.00  0.00     0.002 A 
ATOM      4  C5  UNL d   1      -5.225   3.172   1.057  0.00  0.00    -0.080 A 
ATOM      5  C6  UNL d   1      -5.239   4.444   1.852  0.00  0.00     0.076 C 
ATOM      6  C7  UNL d   1      -4.432   3.075  -0.091  0.00  0.00     0.002 A 
ATOM      7  C8  UNL d   1      -4.431   1.906  -0.856  0.00  0.00     0.006 A 
ENDROOT
BRANCH   1   8
ATOM      8  C1  UNL d   1      -5.267  -0.424  -1.342  0.00  0.00     0.054 C 
ATOM      9  C   UNL d   1      -4.550  -1.590  -0.677  0.00  0.00     0.018 C 
ENDBRANCH   1   8
TORSDOF 1
ENDMDL
