MODEL 1
REMARK minimizedAffinity 4.47824001
REMARK minimizedRMSD -1
REMARK  1 active torsions:
REMARK  status: ('A' for Active; 'I' for Inactive)
REMARK    1  A    between atoms: C1_2  and  C2_3 
ROOT
ATOM      1  C2  UNL d   1       3.462   1.489  -1.147  0.00  0.00    -0.081 A 
ATOM      2  C3  UNL d   1       3.101   0.717  -0.036  0.00  0.00     0.006 A 
ATOM      3  C4  UNL d   1       2.569  -0.564  -0.207  0.00  0.00     0.002 A 
ATOM      4  C5  UNL d   1       2.397  -1.096  -1.489  0.00  0.00    -0.080 A 
ATOM      5  C6  UNL d   1       1.856  -2.481  -1.685  0.00  0.00     0.076 C 
ATOM      6  C7  UNL d   1       2.742  -0.317  -2.600  0.00  0.00     0.002 A 
ATOM      7  C8  UNL d   1       3.273   0.963  -2.430  0.00  0.00     0.006 A 
ENDROOT
BRANCH   1   8
ATOM      8  C1  UNL d   1       4.096   2.845  -0.964  0.00  0.00     0.054 C 
ATOM      9  C   UNL d   1       5.576   2.723  -0.632  0.00  0.00     0.018 C 
ENDBRANCH   1   8
TORSDOF 1
ENDMDL
