MODEL 1
REMARK minimizedAffinity 1.45871019
REMARK minimizedRMSD -1
REMARK  1 active torsions:
REMARK  status: ('A' for Active; 'I' for Inactive)
REMARK    1  A    between atoms: C1_2  and  C2_3 
ROOT
ATOM      1  C2  UNL d   1      -3.203   0.714  -3.464  0.00  0.00    -0.081 A 
ATOM      2  C3  UNL d   1      -3.004   2.044  -3.076  0.00  0.00     0.006 A 
ATOM      3  C4  UNL d   1      -3.899   3.040  -3.475  0.00  0.00     0.002 A 
ATOM      4  C5  UNL d   1      -5.012   2.720  -4.260  0.00  0.00    -0.080 A 
ATOM      5  C6  UNL d   1      -5.997   3.774  -4.670  0.00  0.00     0.076 C 
ATOM      6  C7  UNL d   1      -5.202   1.394  -4.662  0.00  0.00     0.002 A 
ATOM      7  C8  UNL d   1      -4.307   0.398  -4.264  0.00  0.00     0.006 A 
ENDROOT
BRANCH   1   8
ATOM      8  C1  UNL d   1      -2.275  -0.372  -2.981  0.00  0.00     0.054 C 
ATOM      9  C   UNL d   1      -3.030  -1.437  -2.198  0.00  0.00     0.018 C 
ENDBRANCH   1   8
TORSDOF 1
ENDMDL
