MODEL 1
REMARK minimizedAffinity 9.11555099
REMARK minimizedRMSD -1
REMARK  1 active torsions:
REMARK  status: ('A' for Active; 'I' for Inactive)
REMARK    1  A    between atoms: C1_2  and  C2_3 
ROOT
ATOM      1  C2  UNL d   1       3.036   1.024  -0.445  0.00  0.00    -0.081 A 
ATOM      2  C3  UNL d   1       2.097   1.785   0.262  0.00  0.00     0.006 A 
ATOM      3  C4  UNL d   1       1.205   1.169   1.143  0.00  0.00     0.002 A 
ATOM      4  C5  UNL d   1       1.243  -0.215   1.339  0.00  0.00    -0.080 A 
ATOM      5  C6  UNL d   1       0.311  -0.885   2.305  0.00  0.00     0.076 C 
ATOM      6  C7  UNL d   1       2.170  -0.978   0.620  0.00  0.00     0.002 A 
ATOM      7  C8  UNL d   1       3.061  -0.363  -0.262  0.00  0.00     0.006 A 
ENDROOT
BRANCH   1   8
ATOM      8  C1  UNL d   1       4.042   1.693  -1.347  0.00  0.00     0.054 C 
ATOM      9  C   UNL d   1       5.345   1.973  -0.612  0.00  0.00     0.018 C 
ENDBRANCH   1   8
TORSDOF 1
ENDMDL
