MODEL 1
REMARK minimizedAffinity 7.48458338
REMARK minimizedRMSD -1
REMARK  1 active torsions:
REMARK  status: ('A' for Active; 'I' for Inactive)
REMARK    1  A    between atoms: C1_2  and  C2_3 
ROOT
ATOM      1  C2  UNL d   1       3.465   1.514   0.148  0.00  0.00    -0.081 A 
ATOM      2  C3  UNL d   1       3.767   2.137   1.365  0.00  0.00     0.006 A 
ATOM      3  C4  UNL d   1       2.829   2.163   2.400  0.00  0.00     0.002 A 
ATOM      4  C5  UNL d   1       1.577   1.561   2.238  0.00  0.00    -0.080 A 
ATOM      5  C6  UNL d   1       0.572   1.555   3.351  0.00  0.00     0.076 C 
ATOM      6  C7  UNL d   1       1.268   0.953   1.016  0.00  0.00     0.002 A 
ATOM      7  C8  UNL d   1       2.206   0.927  -0.019  0.00  0.00     0.006 A 
ENDROOT
BRANCH   1   8
ATOM      8  C1  UNL d   1       4.498   1.427  -0.946  0.00  0.00     0.054 C 
ATOM      9  C   UNL d   1       5.905   1.327  -0.372  0.00  0.00     0.018 C 
ENDBRANCH   1   8
TORSDOF 1
ENDMDL
