MODEL 1
REMARK minimizedAffinity 3.38354731
REMARK minimizedRMSD -1
REMARK  1 active torsions:
REMARK  status: ('A' for Active; 'I' for Inactive)
REMARK    1  A    between atoms: C1_2  and  C2_3 
ROOT
ATOM      1  C2  UNL d   1      -3.504   2.446  -3.228  0.00  0.00    -0.081 A 
ATOM      2  C3  UNL d   1      -4.900   2.552  -3.182  0.00  0.00     0.006 A 
ATOM      3  C4  UNL d   1      -5.705   1.500  -3.623  0.00  0.00     0.002 A 
ATOM      4  C5  UNL d   1      -5.130   0.321  -4.110  0.00  0.00    -0.080 A 
ATOM      5  C6  UNL d   1      -5.984  -0.828  -4.558  0.00  0.00     0.076 C 
ATOM      6  C7  UNL d   1      -3.736   0.222  -4.173  0.00  0.00     0.002 A 
ATOM      7  C8  UNL d   1      -2.930   1.274  -3.733  0.00  0.00     0.006 A 
ENDROOT
BRANCH   1   8
ATOM      8  C1  UNL d   1      -2.633   3.553  -2.694  0.00  0.00     0.054 C 
ATOM      9  C   UNL d   1      -2.073   4.410  -3.820  0.00  0.00     0.018 C 
ENDBRANCH   1   8
TORSDOF 1
ENDMDL
