MODEL 1
REMARK minimizedAffinity 6.62756062
REMARK minimizedRMSD -1
REMARK  1 active torsions:
REMARK  status: ('A' for Active; 'I' for Inactive)
REMARK    1  A    between atoms: C1_2  and  C2_3 
ROOT
ATOM      1  C2  UNL d   1      -4.882   0.896  -3.289  0.00  0.00    -0.081 A 
ATOM      2  C3  UNL d   1      -3.590   0.832  -3.824  0.00  0.00     0.006 A 
ATOM      3  C4  UNL d   1      -2.861   2.001  -4.055  0.00  0.00     0.002 A 
ATOM      4  C5  UNL d   1      -3.409   3.252  -3.749  0.00  0.00    -0.080 A 
ATOM      5  C6  UNL d   1      -2.625   4.512  -3.964  0.00  0.00     0.076 C 
ATOM      6  C7  UNL d   1      -4.707   3.316  -3.232  0.00  0.00     0.002 A 
ATOM      7  C8  UNL d   1      -5.436   2.148  -3.001  0.00  0.00     0.006 A 
ENDROOT
BRANCH   1   8
ATOM      8  C1  UNL d   1      -5.646  -0.366  -2.978  0.00  0.00     0.054 C 
ATOM      9  C   UNL d   1      -6.000  -0.448  -1.500  0.00  0.00     0.018 C 
ENDBRANCH   1   8
TORSDOF 1
ENDMDL
