MODEL 1
REMARK minimizedAffinity 5.74967718
REMARK minimizedRMSD -1
REMARK  1 active torsions:
REMARK  status: ('A' for Active; 'I' for Inactive)
REMARK    1  A    between atoms: C1_2  and  C2_3 
ROOT
ATOM      1  C2  UNL d   1      -5.552   1.508  -2.256  0.00  0.00    -0.081 A 
ATOM      2  C3  UNL d   1      -5.081   0.894  -3.422  0.00  0.00     0.006 A 
ATOM      3  C4  UNL d   1      -4.723  -0.457  -3.417  0.00  0.00     0.002 A 
ATOM      4  C5  UNL d   1      -4.838  -1.217  -2.248  0.00  0.00    -0.080 A 
ATOM      5  C6  UNL d   1      -4.487  -2.675  -2.236  0.00  0.00     0.076 C 
ATOM      6  C7  UNL d   1      -5.293  -0.599  -1.078  0.00  0.00     0.002 A 
ATOM      7  C8  UNL d   1      -5.650   0.751  -1.083  0.00  0.00     0.006 A 
ENDROOT
BRANCH   1   8
ATOM      8  C1  UNL d   1      -6.000   2.947  -2.275  0.00  0.00     0.054 C 
ATOM      9  C   UNL d   1      -6.000   3.508  -3.689  0.00  0.00     0.018 C 
ENDBRANCH   1   8
TORSDOF 1
ENDMDL
