MODEL 1
REMARK minimizedAffinity 4.21307564
REMARK minimizedRMSD -1
REMARK  1 active torsions:
REMARK  status: ('A' for Active; 'I' for Inactive)
REMARK    1  A    between atoms: C1_2  and  C2_3 
ROOT
ATOM      1  C2  UNL d   1      -0.373  -2.782  -1.212  0.00  0.00    -0.081 A 
ATOM      2  C3  UNL d   1       0.922  -2.727  -0.683  0.00  0.00     0.006 A 
ATOM      3  C4  UNL d   1       1.516  -1.497  -0.391  0.00  0.00     0.002 A 
ATOM      4  C5  UNL d   1       0.823  -0.303  -0.616  0.00  0.00    -0.080 A 
ATOM      5  C6  UNL d   1       1.438   1.023  -0.279  0.00  0.00     0.076 C 
ATOM      6  C7  UNL d   1      -0.464  -0.357  -1.162  0.00  0.00     0.002 A 
ATOM      7  C8  UNL d   1      -1.058  -1.586  -1.454  0.00  0.00     0.006 A 
ENDROOT
BRANCH   1   8
ATOM      8  C1  UNL d   1      -1.041  -4.109  -1.467  0.00  0.00     0.054 C 
ATOM      9  C   UNL d   1      -1.857  -4.080  -2.752  0.00  0.00     0.018 C 
ENDBRANCH   1   8
TORSDOF 1
ENDMDL
