MODEL 1
REMARK minimizedAffinity 3.06544662
REMARK minimizedRMSD -1
REMARK  0 active torsions:
REMARK  status: ('A' for Active; 'I' for Inactive)
ROOT
ATOM      1  C   UNL d   1      -0.515   3.626  -1.922  0.00  0.00     0.023 A 
ATOM      2  C1  UNL d   1      -1.144   2.969  -0.864  0.00  0.00     0.003 A 
ATOM      3  C2  UNL d   1      -0.432   2.683   0.303  0.00  0.00     0.048 A 
ATOM      4  C3  UNL d   1       0.907   3.057   0.406  0.00  0.00     0.023 A 
ATOM      5  C4  UNL d   1       1.540   3.716  -0.650  0.00  0.00     0.048 A 
ATOM      6  C5  UNL d   1       0.825   3.999  -1.815  0.00  0.00     0.003 A 
ATOM      7  I   UNL d   1       1.967   2.633   2.142  0.00  0.00    -0.146 I 
ENDROOT
TORSDOF 0
ENDMDL
