MODEL 1
REMARK minimizedAffinity 17.5751343
REMARK minimizedRMSD -1
REMARK  0 active torsions:
REMARK  status: ('A' for Active; 'I' for Inactive)
ROOT
ATOM      1  C   UNL d   1      -3.729   4.453  -2.752  0.00  0.00     0.023 A 
ATOM      2  C1  UNL d   1      -4.755   3.526  -2.571  0.00  0.00     0.003 A 
ATOM      3  C2  UNL d   1      -4.907   2.466  -3.467  0.00  0.00     0.048 A 
ATOM      4  C3  UNL d   1      -4.028   2.339  -4.542  0.00  0.00     0.023 A 
ATOM      5  C4  UNL d   1      -2.999   3.264  -4.727  0.00  0.00     0.048 A 
ATOM      6  C5  UNL d   1      -2.852   4.322  -3.829  0.00  0.00     0.003 A 
ATOM      7  I   UNL d   1      -4.252   0.762  -5.878  0.00  0.00    -0.146 I 
ENDROOT
TORSDOF 0
ENDMDL
