MODEL 1
REMARK minimizedAffinity 10.6147232
REMARK minimizedRMSD -1
REMARK  0 active torsions:
REMARK  status: ('A' for Active; 'I' for Inactive)
ROOT
ATOM      1  C   UNL d   1       0.428  -0.949   4.421  0.00  0.00     0.023 A 
ATOM      2  C1  UNL d   1       0.174  -1.736   5.545  0.00  0.00     0.003 A 
ATOM      3  C2  UNL d   1       1.138  -2.638   5.999  0.00  0.00     0.048 A 
ATOM      4  C3  UNL d   1       2.354  -2.748   5.325  0.00  0.00     0.023 A 
ATOM      5  C4  UNL d   1       2.613  -1.962   4.201  0.00  0.00     0.048 A 
ATOM      6  C5  UNL d   1       1.645  -1.062   3.750  0.00  0.00     0.003 A 
ATOM      7  I   UNL d   1       3.791  -4.090   5.999  0.00  0.00    -0.146 I 
ENDROOT
TORSDOF 0
ENDMDL
