MODEL 1
REMARK minimizedAffinity 14.2097025
REMARK minimizedRMSD -1
REMARK  0 active torsions:
REMARK  status: ('A' for Active; 'I' for Inactive)
ROOT
ATOM      1  C   UNL d   1      -1.133   1.911   0.823  0.00  0.00     0.023 A 
ATOM      2  C1  UNL d   1      -2.031   1.209   1.627  0.00  0.00     0.003 A 
ATOM      3  C2  UNL d   1      -1.560   0.432   2.688  0.00  0.00     0.048 A 
ATOM      4  C3  UNL d   1      -0.190   0.363   2.940  0.00  0.00     0.023 A 
ATOM      5  C4  UNL d   1       0.712   1.065   2.138  0.00  0.00     0.048 A 
ATOM      6  C5  UNL d   1       0.236   1.839   1.078  0.00  0.00     0.003 A 
ATOM      7  I   UNL d   1       0.513  -0.791   4.518  0.00  0.00    -0.146 I 
ENDROOT
TORSDOF 0
ENDMDL
