MODEL 1
REMARK minimizedAffinity 12.7108574
REMARK minimizedRMSD -1
REMARK  0 active torsions:
REMARK  status: ('A' for Active; 'I' for Inactive)
ROOT
ATOM      1  C   UNL d   1       6.000  -5.186  -0.825  0.00  0.00     0.023 A 
ATOM      2  C1  UNL d   1       5.201  -5.997  -1.631  0.00  0.00     0.003 A 
ATOM      3  C2  UNL d   1       3.852  -5.688  -1.817  0.00  0.00     0.048 A 
ATOM      4  C3  UNL d   1       3.308  -4.565  -1.194  0.00  0.00     0.023 A 
ATOM      5  C4  UNL d   1       4.104  -3.750  -0.386  0.00  0.00     0.048 A 
ATOM      6  C5  UNL d   1       5.452  -4.064  -0.203  0.00  0.00     0.003 A 
ATOM      7  I   UNL d   1       1.301  -4.103  -1.468  0.00  0.00    -0.146 I 
ENDROOT
TORSDOF 0
ENDMDL
