MODEL 1
REMARK minimizedAffinity 12.3450804
REMARK minimizedRMSD -1
REMARK  0 active torsions:
REMARK  status: ('A' for Active; 'I' for Inactive)
ROOT
ATOM      1  C   UNL d   1       0.973   2.498  -0.022  0.00  0.00     0.023 A 
ATOM      2  C1  UNL d   1       1.119   3.226  -1.203  0.00  0.00     0.003 A 
ATOM      3  C2  UNL d   1      -0.009   3.656  -1.905  0.00  0.00     0.048 A 
ATOM      4  C3  UNL d   1      -1.281   3.356  -1.418  0.00  0.00     0.023 A 
ATOM      5  C4  UNL d   1      -1.433   2.629  -0.236  0.00  0.00     0.048 A 
ATOM      6  C5  UNL d   1      -0.302   2.200   0.461  0.00  0.00     0.003 A 
ATOM      7  I   UNL d   1      -2.963   3.995  -2.460  0.00  0.00    -0.146 I 
ENDROOT
TORSDOF 0
ENDMDL
