MODEL 1
REMARK minimizedAffinity 16.5702496
REMARK minimizedRMSD -1
REMARK  0 active torsions:
REMARK  status: ('A' for Active; 'I' for Inactive)
ROOT
ATOM      1  C   UNL d   1       0.691  -4.500  -0.743  0.00  0.00     0.023 A 
ATOM      2  C1  UNL d   1       1.189  -5.757  -1.086  0.00  0.00     0.003 A 
ATOM      3  C2  UNL d   1       2.563  -6.000  -1.047  0.00  0.00     0.048 A 
ATOM      4  C3  UNL d   1       3.435  -4.981  -0.663  0.00  0.00     0.023 A 
ATOM      5  C4  UNL d   1       2.941  -3.721  -0.319  0.00  0.00     0.048 A 
ATOM      6  C5  UNL d   1       1.566  -3.483  -0.360  0.00  0.00     0.003 A 
ATOM      7  I   UNL d   1       5.481  -5.339  -0.604  0.00  0.00    -0.146 I 
ENDROOT
TORSDOF 0
ENDMDL
