MODEL 1
REMARK minimizedAffinity -2.48849177
REMARK minimizedRMSD -1
REMARK  1 active torsions:
REMARK  status: ('A' for Active; 'I' for Inactive)
REMARK    1  A    between atoms: C1_2  and  C2_3 
ROOT
ATOM      1  C2  UNL d   1       0.073  -0.689  -1.378  0.00  0.00    -0.077 A 
ATOM      2  C3  UNL d   1      -1.166  -0.230  -0.911  0.00  0.00     0.002 A 
ATOM      3  C4  UNL d   1      -1.327   0.127   0.429  0.00  0.00     0.002 A 
ATOM      4  C5  UNL d   1      -0.253   0.031   1.312  0.00  0.00    -0.004 A 
ATOM      5  C6  UNL d   1       0.983  -0.427   0.857  0.00  0.00     0.002 A 
ATOM      6  C7  UNL d   1       1.146  -0.785  -0.482  0.00  0.00     0.002 A 
ENDROOT
BRANCH   1   7
ATOM      7  C1  UNL d   1       0.263  -1.027  -2.834  0.00  0.00     0.055 C 
ATOM      8  C   UNL d   1       1.202  -0.042  -3.514  0.00  0.00     0.019 C 
ENDBRANCH   1   7
TORSDOF 1
ENDMDL
