MODEL 1
REMARK minimizedAffinity -3.95638251
REMARK minimizedRMSD -1
REMARK  1 active torsions:
REMARK  status: ('A' for Active; 'I' for Inactive)
REMARK    1  A    between atoms: C1_2  and  C2_3 
ROOT
ATOM      1  C2  UNL d   1       0.070  -0.257  -0.808  0.00  0.00    -0.077 A 
ATOM      2  C3  UNL d   1       0.966  -0.602   0.212  0.00  0.00     0.002 A 
ATOM      3  C4  UNL d   1       0.571  -0.541   1.550  0.00  0.00     0.002 A 
ATOM      4  C5  UNL d   1      -0.722  -0.141   1.879  0.00  0.00    -0.004 A 
ATOM      5  C6  UNL d   1      -1.621   0.206   0.871  0.00  0.00     0.002 A 
ATOM      6  C7  UNL d   1      -1.227   0.148  -0.467  0.00  0.00     0.002 A 
ENDROOT
BRANCH   1   7
ATOM      7  C1  UNL d   1       0.479  -0.369  -2.254  0.00  0.00     0.055 C 
ATOM      8  C   UNL d   1       1.246   0.864  -2.709  0.00  0.00     0.019 C 
ENDBRANCH   1   7
TORSDOF 1
ENDMDL
