MODEL 1
REMARK minimizedAffinity 3.77753472
REMARK minimizedRMSD -1
REMARK  1 active torsions:
REMARK  status: ('A' for Active; 'I' for Inactive)
REMARK    1  A    between atoms: C1_2  and  C2_3 
ROOT
ATOM      1  C2  UNL d   1      -1.529  -1.432  -5.306  0.00  0.00    -0.077 A 
ATOM      2  C3  UNL d   1      -1.333  -0.157  -5.855  0.00  0.00     0.002 A 
ATOM      3  C4  UNL d   1      -0.478   0.756  -5.235  0.00  0.00     0.002 A 
ATOM      4  C5  UNL d   1       0.192   0.402  -4.065  0.00  0.00    -0.004 A 
ATOM      5  C6  UNL d   1       0.002  -0.863  -3.510  0.00  0.00     0.002 A 
ATOM      6  C7  UNL d   1      -0.853  -1.776  -4.128  0.00  0.00     0.002 A 
ENDROOT
BRANCH   1   7
ATOM      7  C1  UNL d   1      -2.413  -2.435  -6.000  0.00  0.00     0.055 C 
ATOM      8  C   UNL d   1      -3.869  -1.994  -5.983  0.00  0.00     0.019 C 
ENDBRANCH   1   7
TORSDOF 1
ENDMDL
