MODEL 1
REMARK minimizedAffinity -2.39387345
REMARK minimizedRMSD -1
REMARK  1 active torsions:
REMARK  status: ('A' for Active; 'I' for Inactive)
REMARK    1  A    between atoms: C1_2  and  C2_3 
ROOT
ATOM      1  C2  UNL d   1       0.032  -0.496  -1.347  0.00  0.00    -0.077 A 
ATOM      2  C3  UNL d   1       0.932  -0.886  -0.345  0.00  0.00     0.002 A 
ATOM      3  C4  UNL d   1       0.570  -0.802   1.000  0.00  0.00     0.002 A 
ATOM      4  C5  UNL d   1      -0.693  -0.333   1.356  0.00  0.00    -0.004 A 
ATOM      5  C6  UNL d   1      -1.594   0.060   0.367  0.00  0.00     0.002 A 
ATOM      6  C7  UNL d   1      -1.233  -0.022  -0.978  0.00  0.00     0.002 A 
ENDROOT
BRANCH   1   7
ATOM      7  C1  UNL d   1       0.402  -0.632  -2.801  0.00  0.00     0.055 C 
ATOM      8  C   UNL d   1       1.249   0.543  -3.269  0.00  0.00     0.019 C 
ENDBRANCH   1   7
TORSDOF 1
ENDMDL
