MODEL 1
REMARK minimizedAffinity -3.25562501
REMARK minimizedRMSD -1
REMARK  1 active torsions:
REMARK  status: ('A' for Active; 'I' for Inactive)
REMARK    1  A    between atoms: C1_2  and  C2_3 
ROOT
ATOM      1  C2  UNL d   1      -0.896   0.389   1.516  0.00  0.00    -0.077 A 
ATOM      2  C3  UNL d   1       0.355  -0.132   1.156  0.00  0.00     0.002 A 
ATOM      3  C4  UNL d   1       1.325  -0.379   2.130  0.00  0.00     0.002 A 
ATOM      4  C5  UNL d   1       1.052  -0.113   3.470  0.00  0.00    -0.004 A 
ATOM      5  C6  UNL d   1      -0.189   0.407   3.838  0.00  0.00     0.002 A 
ATOM      6  C7  UNL d   1      -1.159   0.656   2.866  0.00  0.00     0.002 A 
ENDROOT
BRANCH   1   7
ATOM      7  C1  UNL d   1      -1.960   0.610   0.473  0.00  0.00     0.055 C 
ATOM      8  C   UNL d   1      -1.994  -0.532  -0.533  0.00  0.00     0.019 C 
ENDBRANCH   1   7
TORSDOF 1
ENDMDL
