MODEL 1
REMARK minimizedAffinity -3.85142279
REMARK minimizedRMSD -1
REMARK  1 active torsions:
REMARK  status: ('A' for Active; 'I' for Inactive)
REMARK    1  A    between atoms: C1_2  and  C2_3 
ROOT
ATOM      1  C2  UNL d   1      -0.393   0.007   1.753  0.00  0.00    -0.077 A 
ATOM      2  C3  UNL d   1      -1.435   0.012   0.816  0.00  0.00     0.002 A 
ATOM      3  C4  UNL d   1      -1.202  -0.385  -0.502  0.00  0.00     0.002 A 
ATOM      4  C5  UNL d   1       0.071  -0.793  -0.894  0.00  0.00    -0.004 A 
ATOM      5  C6  UNL d   1       1.115  -0.800   0.031  0.00  0.00     0.002 A 
ATOM      6  C7  UNL d   1       0.884  -0.403   1.348  0.00  0.00     0.002 A 
ENDROOT
BRANCH   1   7
ATOM      7  C1  UNL d   1      -0.653   0.387   3.187  0.00  0.00     0.055 C 
ATOM      8  C   UNL d   1       0.290  -0.341   4.134  0.00  0.00     0.019 C 
ENDBRANCH   1   7
TORSDOF 1
ENDMDL
