MODEL 1
REMARK minimizedAffinity -2.03988791
REMARK minimizedRMSD -1
REMARK  1 active torsions:
REMARK  status: ('A' for Active; 'I' for Inactive)
REMARK    1  A    between atoms: C1_2  and  C2_3 
ROOT
ATOM      1  C2  UNL d   1      -0.287  -0.226   2.532  0.00  0.00    -0.077 A 
ATOM      2  C3  UNL d   1       0.564  -0.666   1.508  0.00  0.00     0.002 A 
ATOM      3  C4  UNL d   1       0.140  -0.642   0.178  0.00  0.00     0.002 A 
ATOM      4  C5  UNL d   1      -1.133  -0.174  -0.141  0.00  0.00    -0.004 A 
ATOM      5  C6  UNL d   1      -1.988   0.264   0.870  0.00  0.00     0.002 A 
ATOM      6  C7  UNL d   1      -1.566   0.239   2.200  0.00  0.00     0.002 A 
ENDROOT
BRANCH   1   7
ATOM      7  C1  UNL d   1       0.186  -0.206   3.962  0.00  0.00     0.055 C 
ATOM      8  C   UNL d   1       0.990  -1.454   4.297  0.00  0.00     0.019 C 
ENDBRANCH   1   7
TORSDOF 1
ENDMDL
