MODEL 1
REMARK minimizedAffinity -2.93466496
REMARK minimizedRMSD -1
REMARK  1 active torsions:
REMARK  status: ('A' for Active; 'I' for Inactive)
REMARK    1  A    between atoms: C1_2  and  C2_3 
ROOT
ATOM      1  C2  UNL d   1       0.734  -0.710   0.833  0.00  0.00    -0.076 A 
ATOM      2  C3  UNL d   1      -0.154   0.343   1.111  0.00  0.00     0.004 A 
ATOM      3  C4  UNL d   1      -1.528   0.121   1.194  0.00  0.00    -0.003 A 
ATOM      4  C5  UNL d   1      -2.035  -1.159   1.000  0.00  0.00     0.000 A 
ATOM      5  C6  UNL d   1      -1.167  -2.219   0.740  0.00  0.00     0.000 A 
ATOM      6  C7  UNL d   1       0.222  -2.015   0.670  0.00  0.00    -0.073 A 
ATOM      7  C8  UNL d   1       1.111  -3.193   0.380  0.00  0.00     0.078 C 
ENDROOT
BRANCH   1   8
ATOM      8  C1  UNL d   1       2.211  -0.404   0.728  0.00  0.00     0.053 C 
ATOM      9  C   UNL d   1       2.485   0.898  -0.008  0.00  0.00     0.018 C 
ENDBRANCH   1   8
TORSDOF 1
ENDMDL
