MODEL 1
REMARK minimizedAffinity -0.329108298
REMARK minimizedRMSD -1
REMARK  1 active torsions:
REMARK  status: ('A' for Active; 'I' for Inactive)
REMARK    1  A    between atoms: C1_2  and  C2_3 
ROOT
ATOM      1  C2  UNL d   1       1.388  -2.662   0.187  0.00  0.00    -0.076 A 
ATOM      2  C3  UNL d   1       2.556  -1.910   0.402  0.00  0.00     0.004 A 
ATOM      3  C4  UNL d   1       2.492  -0.620   0.924  0.00  0.00    -0.003 A 
ATOM      4  C5  UNL d   1       1.259  -0.060   1.241  0.00  0.00     0.000 A 
ATOM      5  C6  UNL d   1       0.092  -0.799   1.051  0.00  0.00     0.000 A 
ATOM      6  C7  UNL d   1       0.140  -2.107   0.540  0.00  0.00    -0.073 A 
ATOM      7  C8  UNL d   1      -1.151  -2.855   0.349  0.00  0.00     0.078 C 
ENDROOT
BRANCH   1   8
ATOM      8  C1  UNL d   1       1.517  -4.046  -0.408  0.00  0.00     0.053 C 
ATOM      9  C   UNL d   1       2.938  -4.583  -0.331  0.00  0.00     0.018 C 
ENDBRANCH   1   8
TORSDOF 1
ENDMDL
