MODEL 1
REMARK minimizedAffinity 14.1998911
REMARK minimizedRMSD -1
REMARK  1 active torsions:
REMARK  status: ('A' for Active; 'I' for Inactive)
REMARK    1  A    between atoms: C1_2  and  C2_3 
ROOT
ATOM      1  C2  UNL d   1       3.016  -3.758  -0.452  0.00  0.00    -0.076 A 
ATOM      2  C3  UNL d   1       1.780  -4.417  -0.569  0.00  0.00     0.004 A 
ATOM      3  C4  UNL d   1       0.585  -3.755  -0.297  0.00  0.00    -0.003 A 
ATOM      4  C5  UNL d   1       0.605  -2.421   0.097  0.00  0.00     0.000 A 
ATOM      5  C6  UNL d   1       1.821  -1.746   0.201  0.00  0.00     0.000 A 
ATOM      6  C7  UNL d   1       3.034  -2.395  -0.085  0.00  0.00    -0.073 A 
ATOM      7  C8  UNL d   1       4.317  -1.620   0.050  0.00  0.00     0.078 C 
ENDROOT
BRANCH   1   8
ATOM      8  C1  UNL d   1       4.282  -4.535  -0.734  0.00  0.00     0.053 C 
ATOM      9  C   UNL d   1       4.311  -5.879  -0.021  0.00  0.00     0.018 C 
ENDBRANCH   1   8
TORSDOF 1
ENDMDL
