MODEL 1
REMARK minimizedAffinity 2.90528631
REMARK minimizedRMSD -1
REMARK  1 active torsions:
REMARK  status: ('A' for Active; 'I' for Inactive)
REMARK    1  A    between atoms: C1_2  and  C2_3 
ROOT
ATOM      1  C2  UNL d   1       0.826  -2.132  -0.194  0.00  0.00    -0.076 A 
ATOM      2  C3  UNL d   1      -0.468  -2.147   0.355  0.00  0.00     0.004 A 
ATOM      3  C4  UNL d   1      -0.894  -1.136   1.215  0.00  0.00    -0.003 A 
ATOM      4  C5  UNL d   1      -0.033  -0.093   1.539  0.00  0.00     0.000 A 
ATOM      5  C6  UNL d   1       1.248  -0.053   0.989  0.00  0.00     0.000 A 
ATOM      6  C7  UNL d   1       1.688  -1.056   0.108  0.00  0.00    -0.073 A 
ATOM      7  C8  UNL d   1       3.081  -0.966  -0.451  0.00  0.00     0.078 C 
ENDROOT
BRANCH   1   8
ATOM      8  C1  UNL d   1       1.242  -3.270  -1.099  0.00  0.00     0.053 C 
ATOM      9  C   UNL d   1       2.346  -4.123  -0.492  0.00  0.00     0.018 C 
ENDBRANCH   1   8
TORSDOF 1
ENDMDL
