MODEL 1
REMARK minimizedAffinity 3.57953548
REMARK minimizedRMSD -1
REMARK  1 active torsions:
REMARK  status: ('A' for Active; 'I' for Inactive)
REMARK    1  A    between atoms: C1_2  and  C2_3 
ROOT
ATOM      1  C2  UNL d   1       0.913  -1.784   0.411  0.00  0.00    -0.076 A 
ATOM      2  C3  UNL d   1       2.303  -1.893   0.587  0.00  0.00     0.004 A 
ATOM      3  C4  UNL d   1       3.016  -0.926   1.293  0.00  0.00    -0.003 A 
ATOM      4  C5  UNL d   1       2.349   0.167   1.835  0.00  0.00     0.000 A 
ATOM      5  C6  UNL d   1       0.967   0.283   1.686  0.00  0.00     0.000 A 
ATOM      6  C7  UNL d   1       0.232  -0.692   0.991  0.00  0.00    -0.073 A 
ATOM      7  C8  UNL d   1      -1.256  -0.513   0.855  0.00  0.00     0.078 C 
ENDROOT
BRANCH   1   8
ATOM      8  C1  UNL d   1       0.197  -2.850  -0.387  0.00  0.00     0.053 C 
ATOM      9  C   UNL d   1       1.063  -4.077  -0.628  0.00  0.00     0.018 C 
ENDBRANCH   1   8
TORSDOF 1
ENDMDL
