MODEL 1
REMARK minimizedAffinity 2.83693385
REMARK minimizedRMSD -1
REMARK  1 active torsions:
REMARK  status: ('A' for Active; 'I' for Inactive)
REMARK    1  A    between atoms: C1_2  and  C2_3 
ROOT
ATOM      1  C2  UNL d   1       0.121  -0.716   1.705  0.00  0.00    -0.076 A 
ATOM      2  C3  UNL d   1      -0.555   0.390   2.248  0.00  0.00     0.004 A 
ATOM      3  C4  UNL d   1      -1.862   0.690   1.867  0.00  0.00    -0.003 A 
ATOM      4  C5  UNL d   1      -2.514  -0.112   0.937  0.00  0.00     0.000 A 
ATOM      5  C6  UNL d   1      -1.864  -1.224   0.401  0.00  0.00     0.000 A 
ATOM      6  C7  UNL d   1      -0.553  -1.550   0.787  0.00  0.00    -0.073 A 
ATOM      7  C8  UNL d   1       0.102  -2.757   0.173  0.00  0.00     0.078 C 
ENDROOT
BRANCH   1   8
ATOM      8  C1  UNL d   1       1.547  -0.976   2.136  0.00  0.00     0.053 C 
ATOM      9  C   UNL d   1       2.564  -0.433   1.143  0.00  0.00     0.018 C 
ENDBRANCH   1   8
TORSDOF 1
ENDMDL
