MODEL 1
REMARK minimizedAffinity 0.312142134
REMARK minimizedRMSD -1
REMARK  1 active torsions:
REMARK  status: ('A' for Active; 'I' for Inactive)
REMARK    1  A    between atoms: C1_2  and  C2_3 
ROOT
ATOM      1  C2  UNL d   1       0.124  -0.883   0.732  0.00  0.00    -0.076 A 
ATOM      2  C3  UNL d   1      -0.424  -2.018   0.109  0.00  0.00     0.004 A 
ATOM      3  C4  UNL d   1       0.396  -3.000  -0.443  0.00  0.00    -0.003 A 
ATOM      4  C5  UNL d   1       1.779  -2.864  -0.379  0.00  0.00     0.000 A 
ATOM      5  C6  UNL d   1       2.340  -1.754   0.251  0.00  0.00     0.000 A 
ATOM      6  C7  UNL d   1       1.527  -0.763   0.826  0.00  0.00    -0.073 A 
ATOM      7  C8  UNL d   1       2.185   0.417   1.488  0.00  0.00     0.078 C 
ENDROOT
BRANCH   1   8
ATOM      8  C1  UNL d   1      -0.816   0.162   1.289  0.00  0.00     0.053 C 
ATOM      9  C   UNL d   1      -2.261  -0.076   0.880  0.00  0.00     0.018 C 
ENDBRANCH   1   8
TORSDOF 1
ENDMDL
