MODEL 1
REMARK minimizedAffinity -1.8875674
REMARK minimizedRMSD -1
REMARK  1 active torsions:
REMARK  status: ('A' for Active; 'I' for Inactive)
REMARK    1  A    between atoms: C1_2  and  C2_3 
ROOT
ATOM      1  C2  UNL d   1       0.007  -0.987   0.940  0.00  0.00    -0.076 A 
ATOM      2  C3  UNL d   1      -0.673  -2.152   0.544  0.00  0.00     0.004 A 
ATOM      3  C4  UNL d   1      -0.018  -3.160  -0.161  0.00  0.00    -0.003 A 
ATOM      4  C5  UNL d   1       1.328  -3.020  -0.481  0.00  0.00     0.000 A 
ATOM      5  C6  UNL d   1       2.023  -1.879  -0.080  0.00  0.00     0.000 A 
ATOM      6  C7  UNL d   1       1.382  -0.861   0.645  0.00  0.00    -0.073 A 
ATOM      7  C8  UNL d   1       2.178   0.350   1.047  0.00  0.00     0.078 C 
ENDROOT
BRANCH   1   8
ATOM      8  C1  UNL d   1      -0.762   0.085   1.679  0.00  0.00     0.053 C 
ATOM      9  C   UNL d   1      -2.246   0.072   1.346  0.00  0.00     0.018 C 
ENDBRANCH   1   8
TORSDOF 1
ENDMDL
