MODEL 1
REMARK minimizedAffinity 4.79474401
REMARK minimizedRMSD -1
REMARK  1 active torsions:
REMARK  status: ('A' for Active; 'I' for Inactive)
REMARK    1  A    between atoms: C1_2  and  C2_3 
ROOT
ATOM      1  C2  UNL d   1       0.446   4.912  -3.666  0.00  0.00    -0.076 A 
ATOM      2  C3  UNL d   1       1.217   4.068  -2.847  0.00  0.00     0.004 A 
ATOM      3  C4  UNL d   1       2.328   3.396  -3.354  0.00  0.00    -0.003 A 
ATOM      4  C5  UNL d   1       2.687   3.558  -4.687  0.00  0.00     0.000 A 
ATOM      5  C6  UNL d   1       1.945   4.405  -5.510  0.00  0.00     0.000 A 
ATOM      6  C7  UNL d   1       0.831   5.102  -5.011  0.00  0.00    -0.073 A 
ATOM      7  C8  UNL d   1       0.063   5.998  -5.943  0.00  0.00     0.078 C 
ENDROOT
BRANCH   1   8
ATOM      8  C1  UNL d   1      -0.764   5.594  -3.068  0.00  0.00     0.053 C 
ATOM      9  C   UNL d   1      -0.572   5.939  -1.600  0.00  0.00     0.018 C 
ENDBRANCH   1   8
TORSDOF 1
ENDMDL
