MODEL 1
REMARK minimizedAffinity -2.26306605
REMARK minimizedRMSD -1
REMARK  1 active torsions:
REMARK  status: ('A' for Active; 'I' for Inactive)
REMARK    1  A    between atoms: C1_2  and  C2_3 
ROOT
ATOM      1  C2  UNL d   1       0.968  -2.305   0.032  0.00  0.00    -0.076 A 
ATOM      2  C3  UNL d   1      -0.351  -2.554   0.449  0.00  0.00     0.004 A 
ATOM      3  C4  UNL d   1      -1.023  -1.657   1.277  0.00  0.00    -0.003 A 
ATOM      4  C5  UNL d   1      -0.388  -0.496   1.702  0.00  0.00     0.000 A 
ATOM      5  C6  UNL d   1       0.915  -0.224   1.284  0.00  0.00     0.000 A 
ATOM      6  C7  UNL d   1       1.601  -1.110   0.436  0.00  0.00    -0.073 A 
ATOM      7  C8  UNL d   1       3.006  -0.769   0.021  0.00  0.00     0.078 C 
ENDROOT
BRANCH   1   8
ATOM      8  C1  UNL d   1       1.657  -3.327  -0.844  0.00  0.00     0.053 C 
ATOM      9  C   UNL d   1       0.883  -3.614  -2.122  0.00  0.00     0.018 C 
ENDBRANCH   1   8
TORSDOF 1
ENDMDL
