MODEL 1
REMARK minimizedAffinity -0.465559691
REMARK minimizedRMSD -1
REMARK  1 active torsions:
REMARK  status: ('A' for Active; 'I' for Inactive)
REMARK    1  A    between atoms: C1_2  and  C2_3 
ROOT
ATOM      1  C2  UNL d   1       0.008  -1.101   1.228  0.00  0.00    -0.076 A 
ATOM      2  C3  UNL d   1      -0.308  -2.257   0.493  0.00  0.00     0.004 A 
ATOM      3  C4  UNL d   1       0.636  -2.860  -0.337  0.00  0.00    -0.003 A 
ATOM      4  C5  UNL d   1       1.911  -2.317  -0.446  0.00  0.00     0.000 A 
ATOM      5  C6  UNL d   1       2.248  -1.180   0.289  0.00  0.00     0.000 A 
ATOM      6  C7  UNL d   1       1.313  -0.570   1.143  0.00  0.00    -0.073 A 
ATOM      7  C8  UNL d   1       1.728   0.658   1.907  0.00  0.00     0.078 C 
ENDROOT
BRANCH   1   8
ATOM      8  C1  UNL d   1      -1.064  -0.475   2.090  0.00  0.00     0.053 C 
ATOM      9  C   UNL d   1      -1.868   0.580   1.347  0.00  0.00     0.018 C 
ENDBRANCH   1   8
TORSDOF 1
ENDMDL
