MODEL 1
REMARK minimizedAffinity 4.3622303
REMARK minimizedRMSD -1
REMARK  1 active torsions:
REMARK  status: ('A' for Active; 'I' for Inactive)
REMARK    1  A    between atoms: C1_2  and  C2_3 
ROOT
ATOM      1  C2  UNL d   1       1.036  -2.269   0.206  0.00  0.00    -0.076 A 
ATOM      2  C3  UNL d   1      -0.334  -2.016   0.391  0.00  0.00     0.004 A 
ATOM      3  C4  UNL d   1      -0.771  -0.848   1.014  0.00  0.00    -0.003 A 
ATOM      4  C5  UNL d   1       0.156   0.086   1.462  0.00  0.00     0.000 A 
ATOM      5  C6  UNL d   1       1.519  -0.140   1.272  0.00  0.00     0.000 A 
ATOM      6  C7  UNL d   1       1.975  -1.305   0.631  0.00  0.00    -0.073 A 
ATOM      7  C8  UNL d   1       3.456  -1.501   0.458  0.00  0.00     0.078 C 
ENDROOT
BRANCH   1   8
ATOM      8  C1  UNL d   1       1.451  -3.566  -0.452  0.00  0.00     0.053 C 
ATOM      9  C   UNL d   1       0.486  -4.000  -1.543  0.00  0.00     0.018 C 
ENDBRANCH   1   8
TORSDOF 1
ENDMDL
