MODEL 1
REMARK minimizedAffinity 2.47462296
REMARK minimizedRMSD -1
REMARK  1 active torsions:
REMARK  status: ('A' for Active; 'I' for Inactive)
REMARK    1  A    between atoms: C1_2  and  C2_3 
ROOT
ATOM      1  C2  UNL d   1       2.579  -2.216   0.277  0.00  0.00    -0.076 A 
ATOM      2  C3  UNL d   1       3.645  -3.023  -0.155  0.00  0.00     0.004 A 
ATOM      3  C4  UNL d   1       3.424  -4.321  -0.611  0.00  0.00    -0.003 A 
ATOM      4  C5  UNL d   1       2.131  -4.833  -0.644  0.00  0.00     0.000 A 
ATOM      5  C6  UNL d   1       1.059  -4.041  -0.236  0.00  0.00     0.000 A 
ATOM      6  C7  UNL d   1       1.264  -2.724   0.212  0.00  0.00    -0.073 A 
ATOM      7  C8  UNL d   1       0.071  -1.916   0.646  0.00  0.00     0.078 C 
ENDROOT
BRANCH   1   8
ATOM      8  C1  UNL d   1       2.883  -0.826   0.788  0.00  0.00     0.053 C 
ATOM      9  C   UNL d   1       4.311  -0.691   1.294  0.00  0.00     0.018 C 
ENDBRANCH   1   8
TORSDOF 1
ENDMDL
