MODEL 1
REMARK minimizedAffinity 1.64355898
REMARK minimizedRMSD -1
REMARK  1 active torsions:
REMARK  status: ('A' for Active; 'I' for Inactive)
REMARK    1  A    between atoms: C3_4  and  O_7 
ROOT
ATOM      1  C   UNL d   1      -0.255  -1.620   3.891  0.00  0.00    -0.033 A 
ATOM      2  C1  UNL d   1       0.233  -0.838   2.843  0.00  0.00     0.039 A 
ATOM      3  C2  UNL d   1       0.966  -1.429   1.811  0.00  0.00    -0.080 A 
ATOM      4  C3  UNL d   1       1.202  -2.801   1.840  0.00  0.00     0.150 A 
ATOM      5  C4  UNL d   1       0.716  -3.586   2.880  0.00  0.00    -0.007 A 
ATOM      6  C5  UNL d   1      -0.015  -2.994   3.909  0.00  0.00     0.039 A 
ENDROOT
BRANCH   4   7
ATOM      7  O   UNL d   1       1.916  -3.421   0.859  0.00  0.00    -0.526 OA
ATOM      8  H5  UNL d   1       2.213  -2.750   0.222  0.00  0.00     0.418 HD
ENDBRANCH   4   7
TORSDOF 1
ENDMDL
