MODEL 1
REMARK minimizedAffinity 8.00168324
REMARK minimizedRMSD -1
REMARK  1 active torsions:
REMARK  status: ('A' for Active; 'I' for Inactive)
REMARK    1  A    between atoms: C3_4  and  O_7 
ROOT
ATOM      1  C   UNL d   1       0.454  -0.829   3.243  0.00  0.00    -0.033 A 
ATOM      2  C1  UNL d   1      -0.166  -1.012   4.480  0.00  0.00     0.039 A 
ATOM      3  C2  UNL d   1      -1.469  -1.510   4.543  0.00  0.00    -0.080 A 
ATOM      4  C3  UNL d   1      -2.140  -1.821   3.364  0.00  0.00     0.150 A 
ATOM      5  C4  UNL d   1      -1.527  -1.645   2.128  0.00  0.00    -0.007 A 
ATOM      6  C5  UNL d   1      -0.226  -1.147   2.067  0.00  0.00     0.039 A 
ENDROOT
BRANCH   4   7
ATOM      7  O   UNL d   1      -3.414  -2.305   3.375  0.00  0.00    -0.526 OA
ATOM      8  H5  UNL d   1      -3.719  -2.347   4.297  0.00  0.00     0.418 HD
ENDBRANCH   4   7
TORSDOF 1
ENDMDL
