MODEL 1
REMARK minimizedAffinity 1.47514081
REMARK minimizedRMSD -1
REMARK  1 active torsions:
REMARK  status: ('A' for Active; 'I' for Inactive)
REMARK    1  A    between atoms: C3_4  and  O_7 
ROOT
ATOM      1  C   UNL d   1      -2.024  -2.529   1.213  0.00  0.00    -0.033 A 
ATOM      2  C1  UNL d   1      -0.810  -1.850   1.094  0.00  0.00     0.039 A 
ATOM      3  C2  UNL d   1      -0.274  -1.176   2.193  0.00  0.00    -0.080 A 
ATOM      4  C3  UNL d   1      -0.960  -1.190   3.404  0.00  0.00     0.150 A 
ATOM      5  C4  UNL d   1      -2.168  -1.868   3.531  0.00  0.00    -0.007 A 
ATOM      6  C5  UNL d   1      -2.703  -2.539   2.433  0.00  0.00     0.039 A 
ENDROOT
BRANCH   4   7
ATOM      7  O   UNL d   1      -0.479  -0.543   4.503  0.00  0.00    -0.526 OA
ATOM      8  H5  UNL d   1       0.349  -0.095   4.259  0.00  0.00     0.418 HD
ENDBRANCH   4   7
TORSDOF 1
ENDMDL
