MODEL 1
REMARK minimizedAffinity 12.9019194
REMARK minimizedRMSD -1
REMARK  1 active torsions:
REMARK  status: ('A' for Active; 'I' for Inactive)
REMARK    1  A    between atoms: C3_4  and  O_7 
ROOT
ATOM      1  C   UNL d   1      -3.775  -3.731   2.777  0.00  0.00    -0.033 A 
ATOM      2  C1  UNL d   1      -3.380  -5.039   2.492  0.00  0.00     0.039 A 
ATOM      3  C2  UNL d   1      -3.418  -5.511   1.179  0.00  0.00    -0.080 A 
ATOM      4  C3  UNL d   1      -3.851  -4.666   0.161  0.00  0.00     0.150 A 
ATOM      5  C4  UNL d   1      -4.241  -3.360   0.437  0.00  0.00    -0.007 A 
ATOM      6  C5  UNL d   1      -4.204  -2.890   1.750  0.00  0.00     0.039 A 
ENDROOT
BRANCH   4   7
ATOM      7  O   UNL d   1      -3.909  -5.083  -1.135  0.00  0.00    -0.526 OA
ATOM      8  H5  UNL d   1      -3.637  -6.015  -1.171  0.00  0.00     0.418 HD
ENDBRANCH   4   7
TORSDOF 1
ENDMDL
