MODEL 1
REMARK minimizedAffinity 9.86844158
REMARK minimizedRMSD -1
REMARK  1 active torsions:
REMARK  status: ('A' for Active; 'I' for Inactive)
REMARK    1  A    between atoms: C3_4  and  O_7 
ROOT
ATOM      1  C   UNL d   1       0.247   4.235  -0.322  0.00  0.00    -0.033 A 
ATOM      2  C1  UNL d   1      -0.006   2.886  -0.579  0.00  0.00     0.039 A 
ATOM      3  C2  UNL d   1       0.909   1.913  -0.175  0.00  0.00    -0.080 A 
ATOM      4  C3  UNL d   1       2.072   2.300   0.486  0.00  0.00     0.150 A 
ATOM      5  C4  UNL d   1       2.328   3.642   0.749  0.00  0.00    -0.007 A 
ATOM      6  C5  UNL d   1       1.414   4.613   0.344  0.00  0.00     0.039 A 
ENDROOT
BRANCH   4   7
ATOM      7  O   UNL d   1       2.997   1.386   0.896  0.00  0.00    -0.526 OA
ATOM      8  H5  UNL d   1       2.699   0.503   0.621  0.00  0.00     0.418 HD
ENDBRANCH   4   7
TORSDOF 1
ENDMDL
