MODEL 1
REMARK minimizedAffinity 9.89244175
REMARK minimizedRMSD -1
REMARK  1 active torsions:
REMARK  status: ('A' for Active; 'I' for Inactive)
REMARK    1  A    between atoms: C3_4  and  O_7 
ROOT
ATOM      1  C   UNL d   1       0.811  -2.952   1.153  0.00  0.00    -0.033 A 
ATOM      2  C1  UNL d   1       1.210  -1.614   1.159  0.00  0.00     0.039 A 
ATOM      3  C2  UNL d   1       0.481  -0.669   1.884  0.00  0.00    -0.080 A 
ATOM      4  C3  UNL d   1      -0.642  -1.075   2.599  0.00  0.00     0.150 A 
ATOM      5  C4  UNL d   1      -1.043  -2.407   2.601  0.00  0.00    -0.007 A 
ATOM      6  C5  UNL d   1      -0.315  -3.349   1.875  0.00  0.00     0.039 A 
ENDROOT
BRANCH   4   7
ATOM      7  O   UNL d   1      -1.388  -0.188   3.317  0.00  0.00    -0.526 OA
ATOM      8  H5  UNL d   1      -1.009   0.699   3.200  0.00  0.00     0.418 HD
ENDBRANCH   4   7
TORSDOF 1
ENDMDL
