MODEL 1
REMARK minimizedAffinity 3.28585505
REMARK minimizedRMSD -1
REMARK  1 active torsions:
REMARK  status: ('A' for Active; 'I' for Inactive)
REMARK    1  A    between atoms: C3_4  and  O_7 
ROOT
ATOM      1  C   UNL d   1      -4.877  -6.000   4.239  0.00  0.00    -0.033 A 
ATOM      2  C1  UNL d   1      -5.870  -5.782   5.196  0.00  0.00     0.039 A 
ATOM      3  C2  UNL d   1      -6.000  -4.529   5.798  0.00  0.00    -0.080 A 
ATOM      4  C3  UNL d   1      -5.132  -3.503   5.434  0.00  0.00     0.150 A 
ATOM      5  C4  UNL d   1      -4.142  -3.712   4.479  0.00  0.00    -0.007 A 
ATOM      6  C5  UNL d   1      -4.014  -4.964   3.879  0.00  0.00     0.039 A 
ENDROOT
BRANCH   4   7
ATOM      7  O   UNL d   1      -5.216  -2.265   5.998  0.00  0.00    -0.526 OA
ATOM      8  H5  UNL d   1      -5.926  -2.277   6.661  0.00  0.00     0.418 HD
ENDBRANCH   4   7
TORSDOF 1
ENDMDL
