MODEL 1
REMARK minimizedAffinity 12.6960316
REMARK minimizedRMSD -1
REMARK  1 active torsions:
REMARK  status: ('A' for Active; 'I' for Inactive)
REMARK    1  A    between atoms: C3_4  and  O_7 
ROOT
ATOM      1  C   UNL d   1       0.308   5.571  -1.037  0.00  0.00    -0.033 A 
ATOM      2  C1  UNL d   1       1.168   5.939  -0.000  0.00  0.00     0.039 A 
ATOM      3  C2  UNL d   1       1.841   4.959   0.732  0.00  0.00    -0.080 A 
ATOM      4  C3  UNL d   1       1.647   3.617   0.417  0.00  0.00     0.150 A 
ATOM      5  C4  UNL d   1       0.794   3.243  -0.617  0.00  0.00    -0.007 A 
ATOM      6  C5  UNL d   1       0.122   4.223  -1.346  0.00  0.00     0.039 A 
ENDROOT
BRANCH   4   7
ATOM      7  O   UNL d   1       2.278   2.625   1.107  0.00  0.00    -0.526 OA
ATOM      8  H5  UNL d   1       2.812   3.030   1.810  0.00  0.00     0.418 HD
ENDBRANCH   4   7
TORSDOF 1
ENDMDL
