MODEL 1
REMARK minimizedAffinity 9.87882423
REMARK minimizedRMSD -1
REMARK  1 active torsions:
REMARK  status: ('A' for Active; 'I' for Inactive)
REMARK    1  A    between atoms: C3_4  and  O_7 
ROOT
ATOM      1  C   UNL d   1       1.164  -2.694   1.148  0.00  0.00    -0.033 A 
ATOM      2  C1  UNL d   1       0.168  -3.303   1.913  0.00  0.00     0.039 A 
ATOM      3  C2  UNL d   1      -0.680  -2.525   2.705  0.00  0.00    -0.080 A 
ATOM      4  C3  UNL d   1      -0.520  -1.142   2.722  0.00  0.00     0.150 A 
ATOM      5  C4  UNL d   1       0.468  -0.529   1.959  0.00  0.00    -0.007 A 
ATOM      6  C5  UNL d   1       1.314  -1.307   1.170  0.00  0.00     0.039 A 
ENDROOT
BRANCH   4   7
ATOM      7  O   UNL d   1      -1.320  -0.342   3.483  0.00  0.00    -0.526 OA
ATOM      8  H5  UNL d   1      -1.937  -0.906   3.978  0.00  0.00     0.418 HD
ENDBRANCH   4   7
TORSDOF 1
ENDMDL
