MODEL 1
REMARK minimizedAffinity 8.62444496
REMARK minimizedRMSD -1
REMARK  1 active torsions:
REMARK  status: ('A' for Active; 'I' for Inactive)
REMARK    1  A    between atoms: C3_4  and  O_7 
ROOT
ATOM      1  C   UNL d   1       0.145  -0.728   2.347  0.00  0.00    -0.033 A 
ATOM      2  C1  UNL d   1       1.246  -0.133   1.729  0.00  0.00     0.039 A 
ATOM      3  C2  UNL d   1       2.048  -0.876   0.860  0.00  0.00    -0.080 A 
ATOM      4  C3  UNL d   1       1.737  -2.211   0.618  0.00  0.00     0.150 A 
ATOM      5  C4  UNL d   1       0.639  -2.810   1.228  0.00  0.00    -0.007 A 
ATOM      6  C5  UNL d   1      -0.160  -2.066   2.095  0.00  0.00     0.039 A 
ENDROOT
BRANCH   4   7
ATOM      7  O   UNL d   1       2.492  -2.979  -0.218  0.00  0.00    -0.526 OA
ATOM      8  H5  UNL d   1       3.233  -2.441  -0.544  0.00  0.00     0.418 HD
ENDBRANCH   4   7
TORSDOF 1
ENDMDL
