MODEL 1
REMARK minimizedAffinity 9.00036144
REMARK minimizedRMSD -1
REMARK  1 active torsions:
REMARK  status: ('A' for Active; 'I' for Inactive)
REMARK    1  A    between atoms: C3_4  and  O_7 
ROOT
ATOM      1  C   UNL d   1       0.549  -1.112   2.560  0.00  0.00    -0.033 A 
ATOM      2  C1  UNL d   1      -0.525  -0.500   3.208  0.00  0.00     0.039 A 
ATOM      3  C2  UNL d   1      -1.771  -1.130   3.246  0.00  0.00    -0.080 A 
ATOM      4  C3  UNL d   1      -1.928  -2.371   2.635  0.00  0.00     0.150 A 
ATOM      5  C4  UNL d   1      -0.860  -2.988   1.991  0.00  0.00    -0.007 A 
ATOM      6  C5  UNL d   1       0.382  -2.357   1.953  0.00  0.00     0.039 A 
ENDROOT
BRANCH   4   7
ATOM      7  O   UNL d   1      -3.125  -3.023   2.642  0.00  0.00    -0.526 OA
ATOM      8  H5  UNL d   1      -3.777  -2.464   3.097  0.00  0.00     0.418 HD
ENDBRANCH   4   7
TORSDOF 1
ENDMDL
