MODEL 1
REMARK minimizedAffinity 10.5714912
REMARK minimizedRMSD -1
REMARK  1 active torsions:
REMARK  status: ('A' for Active; 'I' for Inactive)
REMARK    1  A    between atoms: C3_4  and  O_7 
ROOT
ATOM      1  C   UNL d   1       1.111   2.279  -0.903  0.00  0.00    -0.033 A 
ATOM      2  C1  UNL d   1       1.307   2.608  -2.245  0.00  0.00     0.039 A 
ATOM      3  C2  UNL d   1       2.344   2.014  -2.967  0.00  0.00    -0.080 A 
ATOM      4  C3  UNL d   1       3.176   1.094  -2.336  0.00  0.00     0.150 A 
ATOM      5  C4  UNL d   1       2.984   0.758  -1.000  0.00  0.00    -0.007 A 
ATOM      6  C5  UNL d   1       1.948   1.353  -0.280  0.00  0.00     0.039 A 
ENDROOT
BRANCH   4   7
ATOM      7  O   UNL d   1       4.204   0.491  -2.998  0.00  0.00    -0.526 OA
ATOM      8  H5  UNL d   1       4.233   0.841  -3.905  0.00  0.00     0.418 HD
ENDBRANCH   4   7
TORSDOF 1
ENDMDL
