MODEL 1
REMARK minimizedAffinity 7.55963373
REMARK minimizedRMSD -1
REMARK  1 active torsions:
REMARK  status: ('A' for Active; 'I' for Inactive)
REMARK    1  A    between atoms: C3_4  and  O_7 
ROOT
ATOM      1  C   UNL d   1      -2.925   4.911  -2.113  0.00  0.00    -0.033 A 
ATOM      2  C1  UNL d   1      -3.025   3.674  -2.753  0.00  0.00     0.039 A 
ATOM      3  C2  UNL d   1      -2.564   3.525  -4.062  0.00  0.00    -0.080 A 
ATOM      4  C3  UNL d   1      -2.005   4.618  -4.719  0.00  0.00     0.150 A 
ATOM      5  C4  UNL d   1      -1.899   5.852  -4.087  0.00  0.00    -0.007 A 
ATOM      6  C5  UNL d   1      -2.361   6.000  -2.779  0.00  0.00     0.039 A 
ENDROOT
BRANCH   4   7
ATOM      7  O   UNL d   1      -1.546   4.521  -5.999  0.00  0.00    -0.526 OA
ATOM      8  H5  UNL d   1      -1.711   3.618  -6.318  0.00  0.00     0.418 HD
ENDBRANCH   4   7
TORSDOF 1
ENDMDL
