MODEL 1
REMARK minimizedAffinity 0.554158568
REMARK minimizedRMSD -1
REMARK  1 active torsions:
REMARK  status: ('A' for Active; 'I' for Inactive)
REMARK    1  A    between atoms: C3_4  and  O_7 
ROOT
ATOM      1  C   UNL d   1      -4.121  -4.358   3.555  0.00  0.00    -0.033 A 
ATOM      2  C1  UNL d   1      -4.515  -5.567   2.977  0.00  0.00     0.039 A 
ATOM      3  C2  UNL d   1      -4.464  -5.730   1.591  0.00  0.00    -0.080 A 
ATOM      4  C3  UNL d   1      -4.017  -4.678   0.796  0.00  0.00     0.150 A 
ATOM      5  C4  UNL d   1      -3.619  -3.473   1.365  0.00  0.00    -0.007 A 
ATOM      6  C5  UNL d   1      -3.672  -3.312   2.749  0.00  0.00     0.039 A 
ENDROOT
BRANCH   4   7
ATOM      7  O   UNL d   1      -3.954  -4.789  -0.562  0.00  0.00    -0.526 OA
ATOM      8  H5  UNL d   1      -4.287  -5.666  -0.815  0.00  0.00     0.418 HD
ENDBRANCH   4   7
TORSDOF 1
ENDMDL
