MODEL 1
REMARK minimizedAffinity -3.78398395
REMARK minimizedRMSD -1
REMARK  1 active torsions:
REMARK  status: ('A' for Active; 'I' for Inactive)
REMARK    1  A    between atoms: C3_4  and  O_7 
ROOT
ATOM      1  C   UNL d   1      -4.848  -5.506   1.873  0.00  0.00    -0.033 A 
ATOM      2  C1  UNL d   1      -3.759  -5.995   1.149  0.00  0.00     0.039 A 
ATOM      3  C2  UNL d   1      -3.790  -5.994  -0.247  0.00  0.00    -0.080 A 
ATOM      4  C3  UNL d   1      -4.913  -5.502  -0.906  0.00  0.00     0.150 A 
ATOM      5  C4  UNL d   1      -6.000  -5.010  -0.191  0.00  0.00    -0.007 A 
ATOM      6  C5  UNL d   1      -5.968  -5.012   1.203  0.00  0.00     0.039 A 
ENDROOT
BRANCH   4   7
ATOM      7  O   UNL d   1      -4.990  -5.485  -2.267  0.00  0.00    -0.526 OA
ATOM      8  H5  UNL d   1      -4.179  -5.882  -2.626  0.00  0.00     0.418 HD
ENDBRANCH   4   7
TORSDOF 1
ENDMDL
