MODEL 1
REMARK minimizedAffinity 1.2089293
REMARK minimizedRMSD -1
REMARK  1 active torsions:
REMARK  status: ('A' for Active; 'I' for Inactive)
REMARK    1  A    between atoms: C1_2  and  C2_3 
ROOT
ATOM      1  C2  UNL d   1       3.356   3.275   0.930  0.00  0.00    -0.077 A 
ATOM      2  C3  UNL d   1       4.412   2.438   0.542  0.00  0.00     0.002 A 
ATOM      3  C4  UNL d   1       5.727   2.755   0.889  0.00  0.00     0.002 A 
ATOM      4  C5  UNL d   1       5.998   3.904   1.628  0.00  0.00    -0.004 A 
ATOM      5  C6  UNL d   1       4.954   4.744   2.016  0.00  0.00     0.002 A 
ATOM      6  C7  UNL d   1       3.639   4.430   1.670  0.00  0.00     0.002 A 
ENDROOT
BRANCH   1   7
ATOM      7  C1  UNL d   1       1.932   2.910   0.599  0.00  0.00     0.055 C 
ATOM      8  C   UNL d   1       1.373   1.905   1.596  0.00  0.00     0.019 C 
ENDBRANCH   1   7
TORSDOF 1
ENDMDL
