MODEL 1
REMARK minimizedAffinity -2.08644462
REMARK minimizedRMSD -1
REMARK  1 active torsions:
REMARK  status: ('A' for Active; 'I' for Inactive)
REMARK    1  A    between atoms: C1_2  and  C2_3 
ROOT
ATOM      1  C2  UNL d   1       3.408  -5.688  -4.987  0.00  0.00    -0.077 A 
ATOM      2  C3  UNL d   1       3.745  -5.708  -3.627  0.00  0.00     0.002 A 
ATOM      3  C4  UNL d   1       5.037  -5.375  -3.214  0.00  0.00     0.002 A 
ATOM      4  C5  UNL d   1       6.000  -5.016  -4.156  0.00  0.00    -0.004 A 
ATOM      5  C6  UNL d   1       5.675  -4.996  -5.511  0.00  0.00     0.002 A 
ATOM      6  C7  UNL d   1       4.384  -5.330  -5.925  0.00  0.00     0.002 A 
ENDROOT
BRANCH   1   7
ATOM      7  C1  UNL d   1       2.002  -5.999  -5.430  0.00  0.00     0.055 C 
ATOM      8  C   UNL d   1       1.031  -5.958  -4.258  0.00  0.00     0.019 C 
ENDBRANCH   1   7
TORSDOF 1
ENDMDL
