MODEL 1
REMARK minimizedAffinity -0.244506553
REMARK minimizedRMSD -1
REMARK  1 active torsions:
REMARK  status: ('A' for Active; 'I' for Inactive)
REMARK    1  A    between atoms: C1_2  and  C2_3 
ROOT
ATOM      1  C2  UNL d   1       3.474  -5.456  -5.419  0.00  0.00    -0.077 A 
ATOM      2  C3  UNL d   1       3.598  -4.378  -4.531  0.00  0.00     0.002 A 
ATOM      3  C4  UNL d   1       4.855  -3.851  -4.231  0.00  0.00     0.002 A 
ATOM      4  C5  UNL d   1       5.997  -4.393  -4.816  0.00  0.00    -0.004 A 
ATOM      5  C6  UNL d   1       5.885  -5.467  -5.698  0.00  0.00     0.002 A 
ATOM      6  C7  UNL d   1       4.629  -5.995  -5.999  0.00  0.00     0.002 A 
ENDROOT
BRANCH   1   7
ATOM      7  C1  UNL d   1       2.115  -5.993  -5.783  0.00  0.00     0.055 C 
ATOM      8  C   UNL d   1       1.089  -4.875  -5.893  0.00  0.00     0.019 C 
ENDBRANCH   1   7
TORSDOF 1
ENDMDL
