MODEL 1
REMARK minimizedAffinity 14.1342535
REMARK minimizedRMSD -1
REMARK  1 active torsions:
REMARK  status: ('A' for Active; 'I' for Inactive)
REMARK    1  A    between atoms: C1_2  and  C2_3 
ROOT
ATOM      1  C2  UNL d   1      -1.517  -3.916  -0.943  0.00  0.00    -0.077 A 
ATOM      2  C3  UNL d   1      -1.168  -4.331   0.350  0.00  0.00     0.002 A 
ATOM      3  C4  UNL d   1      -1.250  -3.442   1.424  0.00  0.00     0.002 A 
ATOM      4  C5  UNL d   1      -1.685  -2.135   1.217  0.00  0.00    -0.004 A 
ATOM      5  C6  UNL d   1      -2.033  -1.712  -0.066  0.00  0.00     0.002 A 
ATOM      6  C7  UNL d   1      -1.950  -2.598  -1.140  0.00  0.00     0.002 A 
ENDROOT
BRANCH   1   7
ATOM      7  C1  UNL d   1      -1.476  -4.886  -2.094  0.00  0.00     0.055 C 
ATOM      8  C   UNL d   1      -2.503  -5.996  -1.920  0.00  0.00     0.019 C 
ENDBRANCH   1   7
TORSDOF 1
ENDMDL
