MODEL 1
REMARK minimizedAffinity 13.776207
REMARK minimizedRMSD -1
REMARK  1 active torsions:
REMARK  status: ('A' for Active; 'I' for Inactive)
REMARK    1  A    between atoms: C1_2  and  C2_3 
ROOT
ATOM      1  C2  UNL d   1      -0.247   1.799   2.090  0.00  0.00    -0.077 A 
ATOM      2  C3  UNL d   1      -0.491   2.202   0.769  0.00  0.00     0.002 A 
ATOM      3  C4  UNL d   1       0.566   2.345  -0.132  0.00  0.00     0.002 A 
ATOM      4  C5  UNL d   1       1.872   2.084   0.277  0.00  0.00    -0.004 A 
ATOM      5  C6  UNL d   1       2.125   1.684   1.588  0.00  0.00     0.002 A 
ATOM      6  C7  UNL d   1       1.070   1.541   2.491  0.00  0.00     0.002 A 
ENDROOT
BRANCH   1   7
ATOM      7  C1  UNL d   1      -1.391   1.595   3.049  0.00  0.00     0.055 C 
ATOM      8  C   UNL d   1      -2.165   0.326   2.727  0.00  0.00     0.019 C 
ENDBRANCH   1   7
TORSDOF 1
ENDMDL
