MODEL 1
REMARK minimizedAffinity 12.8296309
REMARK minimizedRMSD -1
REMARK  1 active torsions:
REMARK  status: ('A' for Active; 'I' for Inactive)
REMARK    1  A    between atoms: C1_2  and  C2_3 
ROOT
ATOM      1  C2  UNL d   1       4.064  -3.962  -4.879  0.00  0.00    -0.077 A 
ATOM      2  C3  UNL d   1       3.205  -4.143  -3.786  0.00  0.00     0.002 A 
ATOM      3  C4  UNL d   1       2.245  -5.157  -3.802  0.00  0.00     0.002 A 
ATOM      4  C5  UNL d   1       2.138  -5.999  -4.907  0.00  0.00    -0.004 A 
ATOM      5  C6  UNL d   1       2.986  -5.826  -6.000  0.00  0.00     0.002 A 
ATOM      6  C7  UNL d   1       3.945  -4.813  -5.986  0.00  0.00     0.002 A 
ENDROOT
BRANCH   1   7
ATOM      7  C1  UNL d   1       5.132  -2.901  -4.843  0.00  0.00     0.055 C 
ATOM      8  C   UNL d   1       5.343  -2.375  -3.431  0.00  0.00     0.019 C 
ENDBRANCH   1   7
TORSDOF 1
ENDMDL
