MODEL 1
REMARK minimizedAffinity 8.71784019
REMARK minimizedRMSD -1
REMARK  1 active torsions:
REMARK  status: ('A' for Active; 'I' for Inactive)
REMARK    1  A    between atoms: C1_2  and  C2_3 
ROOT
ATOM      1  C2  UNL d   1       3.527   3.330   1.664  0.00  0.00    -0.077 A 
ATOM      2  C3  UNL d   1       4.177   3.758   2.830  0.00  0.00     0.002 A 
ATOM      3  C4  UNL d   1       4.582   5.088   2.965  0.00  0.00     0.002 A 
ATOM      4  C5  UNL d   1       4.338   6.000   1.940  0.00  0.00    -0.004 A 
ATOM      5  C6  UNL d   1       3.694   5.583   0.776  0.00  0.00     0.002 A 
ATOM      6  C7  UNL d   1       3.290   4.254   0.639  0.00  0.00     0.002 A 
ENDROOT
BRANCH   1   7
ATOM      7  C1  UNL d   1       3.045   1.908   1.537  0.00  0.00     0.055 C 
ATOM      8  C   UNL d   1       1.555   1.854   1.232  0.00  0.00     0.019 C 
ENDBRANCH   1   7
TORSDOF 1
ENDMDL
