MODEL 1
REMARK minimizedAffinity 6.71863365
REMARK minimizedRMSD -1
REMARK  1 active torsions:
REMARK  status: ('A' for Active; 'I' for Inactive)
REMARK    1  A    between atoms: C1_2  and  C2_3 
ROOT
ATOM      1  C2  UNL d   1       3.004  -5.682  -3.319  0.00  0.00    -0.077 A 
ATOM      2  C3  UNL d   1       1.714  -5.237  -3.644  0.00  0.00     0.002 A 
ATOM      3  C4  UNL d   1       1.326  -5.111  -4.979  0.00  0.00     0.002 A 
ATOM      4  C5  UNL d   1       2.219  -5.431  -5.999  0.00  0.00    -0.004 A 
ATOM      5  C6  UNL d   1       3.504  -5.873  -5.687  0.00  0.00     0.002 A 
ATOM      6  C7  UNL d   1       3.894  -5.999  -4.353  0.00  0.00     0.002 A 
ENDROOT
BRANCH   1   7
ATOM      7  C1  UNL d   1       3.408  -5.866  -1.880  0.00  0.00     0.055 C 
ATOM      8  C   UNL d   1       2.192  -6.000  -0.976  0.00  0.00     0.019 C 
ENDBRANCH   1   7
TORSDOF 1
ENDMDL
