MODEL 1
REMARK minimizedAffinity 4.87955284
REMARK minimizedRMSD -1
REMARK  1 active torsions:
REMARK  status: ('A' for Active; 'I' for Inactive)
REMARK    1  A    between atoms: C1_2  and  C2_3 
ROOT
ATOM      1  C2  UNL d   1       1.062   3.085   1.525  0.00  0.00    -0.077 A 
ATOM      2  C3  UNL d   1       0.596   3.271   2.834  0.00  0.00     0.002 A 
ATOM      3  C4  UNL d   1      -0.760   3.496   3.075  0.00  0.00     0.002 A 
ATOM      4  C5  UNL d   1      -1.662   3.533   2.014  0.00  0.00    -0.004 A 
ATOM      5  C6  UNL d   1      -1.208   3.351   0.708  0.00  0.00     0.002 A 
ATOM      6  C7  UNL d   1       0.148   3.127   0.465  0.00  0.00     0.002 A 
ENDROOT
BRANCH   1   7
ATOM      7  C1  UNL d   1       2.518   2.793   1.267  0.00  0.00     0.055 C 
ATOM      8  C   UNL d   1       2.690   1.533   0.431  0.00  0.00     0.019 C 
ENDBRANCH   1   7
TORSDOF 1
ENDMDL
