MODEL 1
REMARK minimizedAffinity -0.86212182
REMARK minimizedRMSD -1
REMARK  1 active torsions:
REMARK  status: ('A' for Active; 'I' for Inactive)
REMARK    1  A    between atoms: C1_2  and  C2_3 
ROOT
ATOM      1  C2  UNL d   1       2.592   2.315   0.998  0.00  0.00    -0.077 A 
ATOM      2  C3  UNL d   1       3.670   2.785   1.761  0.00  0.00     0.002 A 
ATOM      3  C4  UNL d   1       4.933   2.931   1.183  0.00  0.00     0.002 A 
ATOM      4  C5  UNL d   1       5.129   2.613  -0.159  0.00  0.00    -0.004 A 
ATOM      5  C6  UNL d   1       4.063   2.143  -0.925  0.00  0.00     0.002 A 
ATOM      6  C7  UNL d   1       2.800   1.995  -0.350  0.00  0.00     0.002 A 
ENDROOT
BRANCH   1   7
ATOM      7  C1  UNL d   1       1.218   2.204   1.606  0.00  0.00     0.055 C 
ATOM      8  C   UNL d   1       0.191   2.984   0.799  0.00  0.00     0.019 C 
ENDBRANCH   1   7
TORSDOF 1
ENDMDL
