MODEL 1
REMARK minimizedAffinity -2.60422945
REMARK minimizedRMSD -1
REMARK  1 active torsions:
REMARK  status: ('A' for Active; 'I' for Inactive)
REMARK    1  A    between atoms: C1_2  and  C2_3 
ROOT
ATOM      1  C2  UNL d   1       3.941  -5.324  -3.366  0.00  0.00    -0.077 A 
ATOM      2  C3  UNL d   1       5.284  -5.360  -3.765  0.00  0.00     0.002 A 
ATOM      3  C4  UNL d   1       5.623  -5.699  -5.076  0.00  0.00     0.002 A 
ATOM      4  C5  UNL d   1       4.625  -6.000  -6.000  0.00  0.00    -0.004 A 
ATOM      5  C6  UNL d   1       3.286  -5.969  -5.613  0.00  0.00     0.002 A 
ATOM      6  C7  UNL d   1       2.945  -5.631  -4.302  0.00  0.00     0.002 A 
ENDROOT
BRANCH   1   7
ATOM      7  C1  UNL d   1       3.571  -4.911  -1.966  0.00  0.00     0.055 C 
ATOM      8  C   UNL d   1       2.345  -5.665  -1.472  0.00  0.00     0.019 C 
ENDBRANCH   1   7
TORSDOF 1
ENDMDL
