MODEL 1
REMARK minimizedAffinity 5.58747053
REMARK minimizedRMSD -1
REMARK  1 active torsions:
REMARK  status: ('A' for Active; 'I' for Inactive)
REMARK    1  A    between atoms: C1_2  and  C2_3 
ROOT
ATOM      1  C2  UNL d   1       2.475   1.647  -1.257  0.00  0.00    -0.077 A 
ATOM      2  C3  UNL d   1       1.300   1.465  -0.514  0.00  0.00     0.002 A 
ATOM      3  C4  UNL d   1       1.322   1.562   0.878  0.00  0.00     0.002 A 
ATOM      4  C5  UNL d   1       2.515   1.846   1.539  0.00  0.00    -0.004 A 
ATOM      5  C6  UNL d   1       3.690   2.027   0.810  0.00  0.00     0.002 A 
ATOM      6  C7  UNL d   1       3.669   1.929  -0.582  0.00  0.00     0.002 A 
ENDROOT
BRANCH   1   7
ATOM      7  C1  UNL d   1       2.443   1.592  -2.762  0.00  0.00     0.055 C 
ATOM      8  C   UNL d   1       1.014   1.601  -3.286  0.00  0.00     0.019 C 
ENDBRANCH   1   7
TORSDOF 1
ENDMDL
