MODEL 1
REMARK minimizedAffinity 5.10233021
REMARK minimizedRMSD -1
REMARK  1 active torsions:
REMARK  status: ('A' for Active; 'I' for Inactive)
REMARK    1  A    between atoms: C1_2  and  C2_3 
ROOT
ATOM      1  C2  UNL d   1      -5.344   3.508  -5.198  0.00  0.00    -0.077 A 
ATOM      2  C3  UNL d   1      -5.990   2.946  -4.088  0.00  0.00     0.002 A 
ATOM      3  C4  UNL d   1      -5.363   1.951  -3.336  0.00  0.00     0.002 A 
ATOM      4  C5  UNL d   1      -4.086   1.514  -3.681  0.00  0.00    -0.004 A 
ATOM      5  C6  UNL d   1      -3.436   2.066  -4.784  0.00  0.00     0.002 A 
ATOM      6  C7  UNL d   1      -4.062   3.059  -5.539  0.00  0.00     0.002 A 
ENDROOT
BRANCH   1   7
ATOM      7  C1  UNL d   1      -5.999   4.616  -5.982  0.00  0.00     0.055 C 
ATOM      8  C   UNL d   1      -5.923   5.941  -5.237  0.00  0.00     0.019 C 
ENDBRANCH   1   7
TORSDOF 1
ENDMDL
