MODEL 1
REMARK minimizedAffinity 2.9204905
REMARK minimizedRMSD -1
REMARK  1 active torsions:
REMARK  status: ('A' for Active; 'I' for Inactive)
REMARK    1  A    between atoms: C1_2  and  C2_3 
ROOT
ATOM      1  C2  UNL d   1      -0.576  -4.790   1.330  0.00  0.00    -0.077 A 
ATOM      2  C3  UNL d   1      -0.375  -5.999   2.010  0.00  0.00     0.002 A 
ATOM      3  C4  UNL d   1       0.017  -6.000   3.350  0.00  0.00     0.002 A 
ATOM      4  C5  UNL d   1       0.207  -4.794   4.022  0.00  0.00    -0.004 A 
ATOM      5  C6  UNL d   1       0.012  -3.586   3.355  0.00  0.00     0.002 A 
ATOM      6  C7  UNL d   1      -0.379  -3.584   2.015  0.00  0.00     0.002 A 
ENDROOT
BRANCH   1   7
ATOM      7  C1  UNL d   1      -1.047  -4.787  -0.101  0.00  0.00     0.055 C 
ATOM      8  C   UNL d   1      -2.564  -4.878  -0.185  0.00  0.00     0.019 C 
ENDBRANCH   1   7
TORSDOF 1
ENDMDL
