MODEL 1
REMARK minimizedAffinity 9.49873924
REMARK minimizedRMSD -1
REMARK  1 active torsions:
REMARK  status: ('A' for Active; 'I' for Inactive)
REMARK    1  A    between atoms: C1_2  and  C2_3 
ROOT
ATOM      1  C2  UNL d   1      -2.189  -3.988  -1.504  0.00  0.00    -0.077 A 
ATOM      2  C3  UNL d   1      -1.304  -3.976  -0.416  0.00  0.00     0.002 A 
ATOM      3  C4  UNL d   1      -1.724  -4.414   0.841  0.00  0.00     0.002 A 
ATOM      4  C5  UNL d   1      -3.027  -4.871   1.022  0.00  0.00    -0.004 A 
ATOM      5  C6  UNL d   1      -3.916  -4.885  -0.053  0.00  0.00     0.002 A 
ATOM      6  C7  UNL d   1      -3.498  -4.446  -1.310  0.00  0.00     0.002 A 
ENDROOT
BRANCH   1   7
ATOM      7  C1  UNL d   1      -1.723  -3.562  -2.872  0.00  0.00     0.055 C 
ATOM      8  C   UNL d   1      -2.081  -2.109  -3.151  0.00  0.00     0.019 C 
ENDBRANCH   1   7
TORSDOF 1
ENDMDL
