MODEL 1
REMARK minimizedAffinity -1.96350574
REMARK minimizedRMSD -1
REMARK  0 active torsions:
REMARK  status: ('A' for Active; 'I' for Inactive)
ROOT
ATOM      1  C   UNL d   1       2.358  -0.845   0.383  0.00  0.00     0.172 C 
ATOM      2  N   UNL d   1       1.162  -0.562  -0.376  0.00  0.00    -0.070 N 
ATOM      3  C1  UNL d   1      -0.020  -0.100   0.138  0.00  0.00    -0.004 A 
ATOM      4  C2  UNL d   1      -0.908   0.042  -0.906  0.00  0.00    -0.047 A 
ATOM      5  C3  UNL d   1      -0.237  -0.350  -2.089  0.00  0.00    -0.047 A 
ATOM      6  C4  UNL d   1       1.043  -0.719  -1.732  0.00  0.00    -0.004 A 
ENDROOT
TORSDOF 0
ENDMDL
