MODEL 1
REMARK minimizedAffinity -2.57804489
REMARK minimizedRMSD -1
REMARK  0 active torsions:
REMARK  status: ('A' for Active; 'I' for Inactive)
ROOT
ATOM      1  C   UNL d   1       1.269  -1.129   2.796  0.00  0.00     0.172 C 
ATOM      2  N   UNL d   1       0.776  -0.736   1.497  0.00  0.00    -0.070 N 
ATOM      3  C1  UNL d   1      -0.448  -0.176   1.243  0.00  0.00    -0.004 A 
ATOM      4  C2  UNL d   1      -0.534   0.053  -0.113  0.00  0.00    -0.047 A 
ATOM      5  C3  UNL d   1       0.679  -0.386  -0.695  0.00  0.00    -0.047 A 
ATOM      6  C4  UNL d   1       1.472  -0.869   0.324  0.00  0.00    -0.004 A 
ENDROOT
TORSDOF 0
ENDMDL
