MODEL 1
REMARK minimizedAffinity -4.02285576
REMARK minimizedRMSD -1
REMARK  0 active torsions:
REMARK  status: ('A' for Active; 'I' for Inactive)
ROOT
ATOM      1  C   UNL d   1      -0.118   0.313  -0.988  0.00  0.00     0.172 C 
ATOM      2  N   UNL d   1       0.198  -0.073   0.368  0.00  0.00    -0.070 N 
ATOM      3  C1  UNL d   1       1.456  -0.292   0.863  0.00  0.00    -0.004 A 
ATOM      4  C2  UNL d   1       1.332  -0.640   2.191  0.00  0.00    -0.047 A 
ATOM      5  C3  UNL d   1      -0.048  -0.631   2.504  0.00  0.00    -0.047 A 
ATOM      6  C4  UNL d   1      -0.727  -0.276   1.357  0.00  0.00    -0.004 A 
ENDROOT
TORSDOF 0
ENDMDL
