MODEL 1
REMARK minimizedAffinity -3.36237669
REMARK minimizedRMSD -1
REMARK  0 active torsions:
REMARK  status: ('A' for Active; 'I' for Inactive)
ROOT
ATOM      1  C   UNL d   1      -0.341   0.777  -1.163  0.00  0.00     0.172 C 
ATOM      2  N   UNL d   1      -0.060   0.185   0.124  0.00  0.00    -0.070 N 
ATOM      3  C1  UNL d   1      -0.975  -0.031   1.120  0.00  0.00    -0.004 A 
ATOM      4  C2  UNL d   1      -0.314  -0.612   2.181  0.00  0.00    -0.047 A 
ATOM      5  C3  UNL d   1       1.045  -0.749   1.809  0.00  0.00    -0.047 A 
ATOM      6  C4  UNL d   1       1.174  -0.248   0.531  0.00  0.00    -0.004 A 
ENDROOT
TORSDOF 0
ENDMDL
