MODEL 1
REMARK minimizedAffinity -2.20292234
REMARK minimizedRMSD -1
REMARK  0 active torsions:
REMARK  status: ('A' for Active; 'I' for Inactive)
ROOT
ATOM      1  C1  BNZ d   1       1.164  -4.565   2.567  0.00  0.00     0.000 A 
ATOM      2  C2  BNZ d   1       1.552  -3.335   2.107  0.00  0.00     0.000 A 
ATOM      3  C3  BNZ d   1       0.886  -2.204   2.487  0.00  0.00     0.000 A 
ATOM      4  C4  BNZ d   1      -0.190  -2.306   3.293  0.00  0.00     0.000 A 
ATOM      5  C5  BNZ d   1      -0.600  -3.540   3.758  0.00  0.00     0.000 A 
ATOM      6  C6  BNZ d   1       0.097  -4.673   3.405  0.00  0.00     0.000 A 
ENDROOT
TORSDOF 0
ENDMDL
