MODEL 1
REMARK minimizedAffinity -4.66473055
REMARK minimizedRMSD -1
REMARK  0 active torsions:
REMARK  status: ('A' for Active; 'I' for Inactive)
ROOT
ATOM      1  C1  BNZ d   1       2.477  -0.352  -0.079  0.00  0.00     0.000 A 
ATOM      2  C2  BNZ d   1       1.280  -0.306  -0.742  0.00  0.00     0.000 A 
ATOM      3  C3  BNZ d   1       0.100  -0.271  -0.054  0.00  0.00     0.000 A 
ATOM      4  C4  BNZ d   1       0.116  -0.322   1.294  0.00  0.00     0.000 A 
ATOM      5  C5  BNZ d   1       1.314  -0.378   1.977  0.00  0.00     0.000 A 
ATOM      6  C6  BNZ d   1       2.502  -0.374   1.282  0.00  0.00     0.000 A 
ENDROOT
TORSDOF 0
ENDMDL
