MODEL 1
REMARK minimizedAffinity -1.35790098
REMARK minimizedRMSD -1
REMARK  0 active torsions:
REMARK  status: ('A' for Active; 'I' for Inactive)
ROOT
ATOM      1  C1  BNZ d   1       0.828  -1.433   0.503  0.00  0.00     0.000 A 
ATOM      2  C2  BNZ d   1       1.223  -2.109   1.626  0.00  0.00     0.000 A 
ATOM      3  C3  BNZ d   1       0.833  -1.692   2.868  0.00  0.00     0.000 A 
ATOM      4  C4  BNZ d   1       0.082  -0.578   2.988  0.00  0.00     0.000 A 
ATOM      5  C5  BNZ d   1      -0.316   0.121   1.865  0.00  0.00     0.000 A 
ATOM      6  C6  BNZ d   1       0.046  -0.324   0.614  0.00  0.00     0.000 A 
ENDROOT
TORSDOF 0
ENDMDL
