MODEL 1
REMARK minimizedAffinity -2.64823365
REMARK minimizedRMSD -1
REMARK  0 active torsions:
REMARK  status: ('A' for Active; 'I' for Inactive)
ROOT
ATOM      1  C1  BNZ d   1      -0.034  -1.504   2.499  0.00  0.00     0.000 A 
ATOM      2  C2  BNZ d   1      -0.666  -1.107   1.351  0.00  0.00     0.000 A 
ATOM      3  C3  BNZ d   1      -0.021  -0.331   0.429  0.00  0.00     0.000 A 
ATOM      4  C4  BNZ d   1       1.239   0.082   0.676  0.00  0.00     0.000 A 
ATOM      5  C5  BNZ d   1       1.887  -0.302   1.833  0.00  0.00     0.000 A 
ATOM      6  C6  BNZ d   1       1.248  -1.116   2.740  0.00  0.00     0.000 A 
ENDROOT
TORSDOF 0
ENDMDL
