MODEL 1
REMARK minimizedAffinity -4.61261082
REMARK minimizedRMSD -1
REMARK  0 active torsions:
REMARK  status: ('A' for Active; 'I' for Inactive)
ROOT
ATOM      1  C1  BNZ d   1      -0.472  -0.671   1.681  0.00  0.00     0.000 A 
ATOM      2  C2  BNZ d   1       0.357  -0.848   2.757  0.00  0.00     0.000 A 
ATOM      3  C3  BNZ d   1       1.715  -0.813   2.607  0.00  0.00     0.000 A 
ATOM      4  C4  BNZ d   1       2.242  -0.642   1.377  0.00  0.00     0.000 A 
ATOM      5  C5  BNZ d   1       1.420  -0.472   0.281  0.00  0.00     0.000 A 
ATOM      6  C6  BNZ d   1       0.053  -0.469   0.442  0.00  0.00     0.000 A 
ENDROOT
TORSDOF 0
ENDMDL
