MODEL 1
REMARK minimizedAffinity -1.2268163
REMARK minimizedRMSD -1
REMARK  0 active torsions:
REMARK  status: ('A' for Active; 'I' for Inactive)
ROOT
ATOM      1  C1  BNZ d   1      -0.977   0.226  -0.102  0.00  0.00     0.000 A 
ATOM      2  C2  BNZ d   1      -1.321   0.021   1.207  0.00  0.00     0.000 A 
ATOM      3  C3  BNZ d   1      -0.463  -0.605   2.067  0.00  0.00     0.000 A 
ATOM      4  C4  BNZ d   1       0.720  -1.061   1.608  0.00  0.00     0.000 A 
ATOM      5  C5  BNZ d   1       1.078  -0.870   0.288  0.00  0.00     0.000 A 
ATOM      6  C6  BNZ d   1       0.228  -0.205  -0.565  0.00  0.00     0.000 A 
ENDROOT
TORSDOF 0
ENDMDL
