MODEL 1
REMARK minimizedAffinity -5.02220392
REMARK minimizedRMSD -1
REMARK  1 active torsions:
REMARK  status: ('A' for Active; 'I' for Inactive)
REMARK    1  A    between atoms: C1_2  and  C2_3 
ROOT
ATOM      1  C2  UNL d   1       0.457  -1.374   0.442  0.00  0.00    -0.077 A 
ATOM      2  C3  UNL d   1       1.355  -0.697  -0.396  0.00  0.00     0.002 A 
ATOM      3  C4  UNL d   1       1.118   0.630  -0.760  0.00  0.00     0.002 A 
ATOM      4  C5  UNL d   1      -0.013   1.292  -0.288  0.00  0.00    -0.004 A 
ATOM      5  C6  UNL d   1      -0.913   0.627   0.544  0.00  0.00     0.002 A 
ATOM      6  C7  UNL d   1      -0.678  -0.699   0.908  0.00  0.00     0.002 A 
ENDROOT
BRANCH   1   7
ATOM      7  C1  UNL d   1       0.737  -2.789   0.876  0.00  0.00     0.055 C 
ATOM      8  C   UNL d   1       2.102  -2.906   1.536  0.00  0.00     0.019 C 
ENDBRANCH   1   7
TORSDOF 1
ENDMDL
