MODEL 1
REMARK minimizedAffinity -3.49106812
REMARK minimizedRMSD -1
REMARK  1 active torsions:
REMARK  status: ('A' for Active; 'I' for Inactive)
REMARK    1  A    between atoms: C1_2  and  C2_3 
ROOT
ATOM      1  C2  UNL d   1       0.656  -1.342   0.320  0.00  0.00    -0.077 A 
ATOM      2  C3  UNL d   1       0.528  -1.100  -1.055  0.00  0.00     0.002 A 
ATOM      3  C4  UNL d   1      -0.274  -0.055  -1.516  0.00  0.00     0.002 A 
ATOM      4  C5  UNL d   1      -0.950   0.759  -0.610  0.00  0.00    -0.004 A 
ATOM      5  C6  UNL d   1      -0.831   0.525   0.760  0.00  0.00     0.002 A 
ATOM      6  C7  UNL d   1      -0.030  -0.520   1.222  0.00  0.00     0.002 A 
ENDROOT
BRANCH   1   7
ATOM      7  C1  UNL d   1       1.560  -2.439   0.821  0.00  0.00     0.055 C 
ATOM      8  C   UNL d   1       2.059  -2.144   2.228  0.00  0.00     0.019 C 
ENDBRANCH   1   7
TORSDOF 1
ENDMDL
