MODEL 1
REMARK minimizedAffinity -4.2452817
REMARK minimizedRMSD -1
REMARK  1 active torsions:
REMARK  status: ('A' for Active; 'I' for Inactive)
REMARK    1  A    between atoms: C1_2  and  C2_3 
ROOT
ATOM      1  C2  UNL d   1       1.404  -1.055   0.308  0.00  0.00    -0.077 A 
ATOM      2  C3  UNL d   1       2.062  -0.301  -0.674  0.00  0.00     0.002 A 
ATOM      3  C4  UNL d   1       1.440   0.809  -1.248  0.00  0.00     0.002 A 
ATOM      4  C5  UNL d   1       0.158   1.177  -0.845  0.00  0.00    -0.004 A 
ATOM      5  C6  UNL d   1      -0.506   0.433   0.130  0.00  0.00     0.002 A 
ATOM      6  C7  UNL d   1       0.114  -0.677   0.704  0.00  0.00     0.002 A 
ENDROOT
BRANCH   1   7
ATOM      7  C1  UNL d   1       2.093  -2.223   0.964  0.00  0.00     0.055 C 
ATOM      8  C   UNL d   1       1.452  -2.564   2.301  0.00  0.00     0.019 C 
ENDBRANCH   1   7
TORSDOF 1
ENDMDL
