MODEL 1
REMARK minimizedAffinity -4.76179361
REMARK minimizedRMSD -1
REMARK  1 active torsions:
REMARK  status: ('A' for Active; 'I' for Inactive)
REMARK    1  A    between atoms: C1_2  and  C2_3 
ROOT
ATOM      1  C2  UNL d   1      -0.932   0.862  -1.032  0.00  0.00    -0.077 A 
ATOM      2  C3  UNL d   1      -1.256  -0.292  -1.759  0.00  0.00     0.002 A 
ATOM      3  C4  UNL d   1      -1.807  -0.189  -3.038  0.00  0.00     0.002 A 
ATOM      4  C5  UNL d   1      -2.035   1.065  -3.601  0.00  0.00    -0.004 A 
ATOM      5  C6  UNL d   1      -1.718   2.218  -2.885  0.00  0.00     0.002 A 
ATOM      6  C7  UNL d   1      -1.168   2.117  -1.606  0.00  0.00     0.002 A 
ENDROOT
BRANCH   1   7
ATOM      7  C1  UNL d   1      -0.292   0.753   0.328  0.00  0.00     0.055 C 
ATOM      8  C   UNL d   1       0.950  -0.126   0.286  0.00  0.00     0.019 C 
ENDBRANCH   1   7
TORSDOF 1
ENDMDL
