MODEL 1
REMARK minimizedAffinity -2.75089169
REMARK minimizedRMSD -1
REMARK  1 active torsions:
REMARK  status: ('A' for Active; 'I' for Inactive)
REMARK    1  A    between atoms: C1_2  and  C2_3 
ROOT
ATOM      1  C2  UNL d   1      -1.259   0.960  -1.398  0.00  0.00    -0.077 A 
ATOM      2  C3  UNL d   1      -2.190   0.052  -1.922  0.00  0.00     0.002 A 
ATOM      3  C4  UNL d   1      -2.778   0.283  -3.167  0.00  0.00     0.002 A 
ATOM      4  C5  UNL d   1      -2.438   1.419  -3.900  0.00  0.00    -0.004 A 
ATOM      5  C6  UNL d   1      -1.514   2.328  -3.386  0.00  0.00     0.002 A 
ATOM      6  C7  UNL d   1      -0.926   2.099  -2.141  0.00  0.00     0.002 A 
ENDROOT
BRANCH   1   7
ATOM      7  C1  UNL d   1      -0.587   0.687  -0.077  0.00  0.00     0.055 C 
ATOM      8  C   UNL d   1       0.786   0.061  -0.273  0.00  0.00     0.019 C 
ENDBRANCH   1   7
TORSDOF 1
ENDMDL
