MODEL 1
REMARK minimizedAffinity -3.43055344
REMARK minimizedRMSD -1
REMARK  1 active torsions:
REMARK  status: ('A' for Active; 'I' for Inactive)
REMARK    1  A    between atoms: C1_2  and  C2_3 
ROOT
ATOM      1  C2  UNL d   1       0.184  -0.674  -0.090  0.00  0.00    -0.077 A 
ATOM      2  C3  UNL d   1       0.115  -1.697   0.865  0.00  0.00     0.002 A 
ATOM      3  C4  UNL d   1       1.253  -2.438   1.190  0.00  0.00     0.002 A 
ATOM      4  C5  UNL d   1       2.468  -2.161   0.568  0.00  0.00    -0.004 A 
ATOM      5  C6  UNL d   1       2.547  -1.146  -0.385  0.00  0.00     0.002 A 
ATOM      6  C7  UNL d   1       1.410  -0.405  -0.712  0.00  0.00     0.002 A 
ENDROOT
BRANCH   1   7
ATOM      7  C1  UNL d   1      -1.031   0.159  -0.406  0.00  0.00     0.055 C 
ATOM      8  C   UNL d   1      -1.504  -0.072  -1.834  0.00  0.00     0.019 C 
ENDBRANCH   1   7
TORSDOF 1
ENDMDL
