MODEL 1
REMARK minimizedAffinity -5.59112215
REMARK minimizedRMSD -1
REMARK  1 active torsions:
REMARK  status: ('A' for Active; 'I' for Inactive)
REMARK    1  A    between atoms: C1_2  and  C2_3 
ROOT
ATOM      1  C2  UNL d   1       0.669  -0.893   0.450  0.00  0.00    -0.077 A 
ATOM      2  C3  UNL d   1      -0.483  -0.905   1.249  0.00  0.00     0.002 A 
ATOM      3  C4  UNL d   1      -0.614  -1.830   2.286  0.00  0.00     0.002 A 
ATOM      4  C5  UNL d   1       0.404  -2.747   2.537  0.00  0.00    -0.004 A 
ATOM      5  C6  UNL d   1       1.553  -2.744   1.747  0.00  0.00     0.002 A 
ATOM      6  C7  UNL d   1       1.685  -1.821   0.709  0.00  0.00     0.002 A 
ENDROOT
BRANCH   1   7
ATOM      7  C1  UNL d   1       0.833   0.136  -0.637  0.00  0.00     0.055 C 
ATOM      8  C   UNL d   1      -0.364   1.073  -0.699  0.00  0.00     0.019 C 
ENDBRANCH   1   7
TORSDOF 1
ENDMDL
