MODEL 1
REMARK minimizedAffinity -3.39787531
REMARK minimizedRMSD -1
REMARK  1 active torsions:
REMARK  status: ('A' for Active; 'I' for Inactive)
REMARK    1  A    between atoms: C1_2  and  C2_3 
ROOT
ATOM      1  C2  UNL d   1       0.693  -0.729   0.428  0.00  0.00    -0.077 A 
ATOM      2  C3  UNL d   1       2.028  -1.132   0.279  0.00  0.00     0.002 A 
ATOM      3  C4  UNL d   1       2.524  -2.214   1.008  0.00  0.00     0.002 A 
ATOM      4  C5  UNL d   1       1.693  -2.904   1.887  0.00  0.00    -0.004 A 
ATOM      5  C6  UNL d   1       0.365  -2.510   2.044  0.00  0.00     0.002 A 
ATOM      6  C7  UNL d   1      -0.133  -1.428   1.317  0.00  0.00     0.002 A 
ENDROOT
BRANCH   1   7
ATOM      7  C1  UNL d   1       0.142   0.407  -0.395  0.00  0.00     0.055 C 
ATOM      8  C   UNL d   1      -0.332   1.551   0.489  0.00  0.00     0.019 C 
ENDBRANCH   1   7
TORSDOF 1
ENDMDL
