MODEL 1
REMARK minimizedAffinity -5.00883341
REMARK minimizedRMSD -1
REMARK  1 active torsions:
REMARK  status: ('A' for Active; 'I' for Inactive)
REMARK    1  A    between atoms: C1_2  and  C2_3 
ROOT
ATOM      1  C2  UNL d   1       0.048  -1.009   0.771  0.00  0.00    -0.077 A 
ATOM      2  C3  UNL d   1       0.132   0.161   0.003  0.00  0.00     0.002 A 
ATOM      3  C4  UNL d   1      -0.613   1.289   0.350  0.00  0.00     0.002 A 
ATOM      4  C5  UNL d   1      -1.443   1.261   1.468  0.00  0.00    -0.004 A 
ATOM      5  C6  UNL d   1      -1.536   0.102   2.238  0.00  0.00     0.002 A 
ATOM      6  C7  UNL d   1      -0.793  -1.028   1.891  0.00  0.00     0.002 A 
ENDROOT
BRANCH   1   7
ATOM      7  C1  UNL d   1       0.888  -2.211   0.426  0.00  0.00     0.055 C 
ATOM      8  C   UNL d   1       2.198  -2.211   1.200  0.00  0.00     0.019 C 
ENDBRANCH   1   7
TORSDOF 1
ENDMDL
