MODEL 1
REMARK minimizedAffinity -5.3771019
REMARK minimizedRMSD -1
REMARK  1 active torsions:
REMARK  status: ('A' for Active; 'I' for Inactive)
REMARK    1  A    between atoms: C1_2  and  C2_3 
ROOT
ATOM      1  C2  UNL d   1       0.040  -0.899   0.306  0.00  0.00    -0.077 A 
ATOM      2  C3  UNL d   1      -0.468  -1.360   1.528  0.00  0.00     0.002 A 
ATOM      3  C4  UNL d   1       0.272  -2.248   2.311  0.00  0.00     0.002 A 
ATOM      4  C5  UNL d   1       1.525  -2.679   1.883  0.00  0.00    -0.004 A 
ATOM      5  C6  UNL d   1       2.039  -2.228   0.668  0.00  0.00     0.002 A 
ATOM      6  C7  UNL d   1       1.300  -1.342  -0.117  0.00  0.00     0.002 A 
ENDROOT
BRANCH   1   7
ATOM      7  C1  UNL d   1      -0.735   0.097  -0.517  0.00  0.00     0.055 C 
ATOM      8  C   UNL d   1      -0.568   1.510   0.023  0.00  0.00     0.019 C 
ENDBRANCH   1   7
TORSDOF 1
ENDMDL
