MODEL 1
REMARK minimizedAffinity -3.4891293
REMARK minimizedRMSD -1
REMARK  1 active torsions:
REMARK  status: ('A' for Active; 'I' for Inactive)
REMARK    1  A    between atoms: C1_2  and  C2_3 
ROOT
ATOM      1  C2  UNL d   1      -1.572   0.348  -1.959  0.00  0.00    -0.077 A 
ATOM      2  C3  UNL d   1      -1.439   1.465  -1.123  0.00  0.00     0.002 A 
ATOM      3  C4  UNL d   1      -0.713   1.374   0.066  0.00  0.00     0.002 A 
ATOM      4  C5  UNL d   1      -0.111   0.171   0.427  0.00  0.00    -0.004 A 
ATOM      5  C6  UNL d   1      -0.239  -0.946  -0.397  0.00  0.00     0.002 A 
ATOM      6  C7  UNL d   1      -0.965  -0.858  -1.585  0.00  0.00     0.002 A 
ENDROOT
BRANCH   1   7
ATOM      7  C1  UNL d   1      -2.313   0.456  -3.266  0.00  0.00     0.055 C 
ATOM      8  C   UNL d   1      -2.480   1.908  -3.689  0.00  0.00     0.019 C 
ENDBRANCH   1   7
TORSDOF 1
ENDMDL
