MODEL 1
REMARK minimizedAffinity -2.11322451
REMARK minimizedRMSD -1
REMARK  1 active torsions:
REMARK  status: ('A' for Active; 'I' for Inactive)
REMARK    1  A    between atoms: C1_2  and  C2_3 
ROOT
ATOM      1  C2  UNL d   1      -0.894   1.142  -0.774  0.00  0.00    -0.077 A 
ATOM      2  C3  UNL d   1       0.475   0.916  -0.974  0.00  0.00     0.002 A 
ATOM      3  C4  UNL d   1       1.107  -0.170  -0.366  0.00  0.00     0.002 A 
ATOM      4  C5  UNL d   1       0.378  -1.041   0.442  0.00  0.00    -0.004 A 
ATOM      5  C6  UNL d   1      -0.983  -0.823   0.649  0.00  0.00     0.002 A 
ATOM      6  C7  UNL d   1      -1.617   0.263   0.043  0.00  0.00     0.002 A 
ENDROOT
BRANCH   1   7
ATOM      7  C1  UNL d   1      -1.589   2.285  -1.468  0.00  0.00     0.055 C 
ATOM      8  C   UNL d   1      -2.307   1.815  -2.725  0.00  0.00     0.019 C 
ENDBRANCH   1   7
TORSDOF 1
ENDMDL
