MODEL 1
REMARK minimizedAffinity -2.20818353
REMARK minimizedRMSD -1
REMARK  1 active torsions:
REMARK  status: ('A' for Active; 'I' for Inactive)
REMARK    1  A    between atoms: C1_2  and  C2_3 
ROOT
ATOM      1  C2  UNL d   1      -1.148   0.874  -1.452  0.00  0.00    -0.077 A 
ATOM      2  C3  UNL d   1      -1.613   0.205  -2.593  0.00  0.00     0.002 A 
ATOM      3  C4  UNL d   1      -2.360   0.885  -3.556  0.00  0.00     0.002 A 
ATOM      4  C5  UNL d   1      -2.646   2.239  -3.390  0.00  0.00    -0.004 A 
ATOM      5  C6  UNL d   1      -2.189   2.913  -2.258  0.00  0.00     0.002 A 
ATOM      6  C7  UNL d   1      -1.443   2.234  -1.294  0.00  0.00     0.002 A 
ENDROOT
BRANCH   1   7
ATOM      7  C1  UNL d   1      -0.299   0.154  -0.437  0.00  0.00     0.055 C 
ATOM      8  C   UNL d   1       1.159   0.107  -0.867  0.00  0.00     0.019 C 
ENDBRANCH   1   7
TORSDOF 1
ENDMDL
