MODEL 1
REMARK minimizedAffinity 7.40805006
REMARK minimizedRMSD -1
REMARK  1 active torsions:
REMARK  status: ('A' for Active; 'I' for Inactive)
REMARK    1  A    between atoms: C1_2  and  C2_3 
ROOT
ATOM      1  C2  UNL d   1       1.774   0.544   0.831  0.00  0.00    -0.076 A 
ATOM      2  C3  UNL d   1       0.811   0.458   1.851  0.00  0.00     0.004 A 
ATOM      3  C4  UNL d   1       0.726   1.434   2.842  0.00  0.00    -0.003 A 
ATOM      4  C5  UNL d   1       1.603   2.513   2.830  0.00  0.00     0.000 A 
ATOM      5  C6  UNL d   1       2.554   2.624   1.816  0.00  0.00     0.000 A 
ATOM      6  C7  UNL d   1       2.642   1.657   0.800  0.00  0.00    -0.073 A 
ATOM      7  C8  UNL d   1       3.691   1.823  -0.266  0.00  0.00     0.078 C 
ENDROOT
BRANCH   1   8
ATOM      8  C1  UNL d   1       1.837  -0.559  -0.201  0.00  0.00     0.053 C 
ATOM      9  C   UNL d   1       0.720  -0.458  -1.229  0.00  0.00     0.018 C 
ENDBRANCH   1   8
TORSDOF 1
ENDMDL
