MODEL 1
REMARK minimizedAffinity 16.8756084
REMARK minimizedRMSD -1
REMARK  1 active torsions:
REMARK  status: ('A' for Active; 'I' for Inactive)
REMARK    1  A    between atoms: C1_2  and  C2_3 
ROOT
ATOM      1  C2  UNL d   1       3.845   4.885   0.686  0.00  0.00    -0.076 A 
ATOM      2  C3  UNL d   1       2.809   3.999   0.347  0.00  0.00     0.004 A 
ATOM      3  C4  UNL d   1       2.136   3.272   1.328  0.00  0.00    -0.003 A 
ATOM      4  C5  UNL d   1       2.490   3.421   2.665  0.00  0.00     0.000 A 
ATOM      5  C6  UNL d   1       3.504   4.309   3.021  0.00  0.00     0.000 A 
ATOM      6  C7  UNL d   1       4.181   5.061   2.045  0.00  0.00    -0.073 A 
ATOM      7  C8  UNL d   1       5.271   6.000   2.485  0.00  0.00     0.078 C 
ENDROOT
BRANCH   1   8
ATOM      8  C1  UNL d   1       4.557   5.626  -0.424  0.00  0.00     0.053 C 
ATOM      9  C   UNL d   1       5.626   4.780  -1.098  0.00  0.00     0.018 C 
ENDBRANCH   1   8
TORSDOF 1
ENDMDL
