MODEL 1
REMARK minimizedAffinity 5.98779392
REMARK minimizedRMSD -1
REMARK  1 active torsions:
REMARK  status: ('A' for Active; 'I' for Inactive)
REMARK    1  A    between atoms: C1_2  and  C2_3 
ROOT
ATOM      1  C2  UNL d   1       2.312  -0.042   1.421  0.00  0.00    -0.076 A 
ATOM      2  C3  UNL d   1       3.020   0.483   0.325  0.00  0.00     0.004 A 
ATOM      3  C4  UNL d   1       3.080   1.858   0.102  0.00  0.00    -0.003 A 
ATOM      4  C5  UNL d   1       2.435   2.730   0.972  0.00  0.00     0.000 A 
ATOM      5  C6  UNL d   1       1.743   2.228   2.073  0.00  0.00     0.000 A 
ATOM      6  C7  UNL d   1       1.686   0.846   2.322  0.00  0.00    -0.073 A 
ATOM      7  C8  UNL d   1       0.920   0.359   3.522  0.00  0.00     0.078 C 
ENDROOT
BRANCH   1   8
ATOM      8  C1  UNL d   1       2.258  -1.542   1.597  0.00  0.00     0.053 C 
ATOM      9  C   UNL d   1       1.775  -2.259   0.345  0.00  0.00     0.018 C 
ENDBRANCH   1   8
TORSDOF 1
ENDMDL
