MODEL 1
REMARK minimizedAffinity 11.0563259
REMARK minimizedRMSD -1
REMARK  1 active torsions:
REMARK  status: ('A' for Active; 'I' for Inactive)
REMARK    1  A    between atoms: C1_2  and  C2_3 
ROOT
ATOM      1  C2  UNL d   1       4.910   3.314   4.282  0.00  0.00    -0.076 A 
ATOM      2  C3  UNL d   1       5.314   3.870   5.509  0.00  0.00     0.004 A 
ATOM      3  C4  UNL d   1       4.814   5.098   5.939  0.00  0.00    -0.003 A 
ATOM      4  C5  UNL d   1       3.903   5.790   5.149  0.00  0.00     0.000 A 
ATOM      5  C6  UNL d   1       3.478   5.246   3.938  0.00  0.00     0.000 A 
ATOM      6  C7  UNL d   1       3.960   4.001   3.497  0.00  0.00    -0.073 A 
ATOM      7  C8  UNL d   1       3.472   3.464   2.179  0.00  0.00     0.078 C 
ENDROOT
BRANCH   1   8
ATOM      8  C1  UNL d   1       5.507   1.992   3.855  0.00  0.00     0.053 C 
ATOM      9  C   UNL d   1       5.998   1.166   5.034  0.00  0.00     0.018 C 
ENDBRANCH   1   8
TORSDOF 1
ENDMDL
