MODEL 1
REMARK minimizedAffinity 2.853688
REMARK minimizedRMSD -1
REMARK  1 active torsions:
REMARK  status: ('A' for Active; 'I' for Inactive)
REMARK    1  A    between atoms: C1_2  and  C2_3 
ROOT
ATOM      1  C2  UNL d   1       2.701  -1.245  -0.498  0.00  0.00    -0.076 A 
ATOM      2  C3  UNL d   1       3.129  -2.318  -1.299  0.00  0.00     0.004 A 
ATOM      3  C4  UNL d   1       3.918  -2.100  -2.428  0.00  0.00    -0.003 A 
ATOM      4  C5  UNL d   1       4.291  -0.806  -2.773  0.00  0.00     0.000 A 
ATOM      5  C6  UNL d   1       3.889   0.268  -1.980  0.00  0.00     0.000 A 
ATOM      6  C7  UNL d   1       3.108   0.065  -0.830  0.00  0.00    -0.073 A 
ATOM      7  C8  UNL d   1       2.698   1.260  -0.014  0.00  0.00     0.078 C 
ENDROOT
BRANCH   1   8
ATOM      8  C1  UNL d   1       1.825  -1.540   0.699  0.00  0.00     0.053 C 
ATOM      9  C   UNL d   1       0.670  -2.470   0.361  0.00  0.00     0.018 C 
ENDBRANCH   1   8
TORSDOF 1
ENDMDL
