MODEL 1
REMARK minimizedAffinity 7.68759394
REMARK minimizedRMSD -1
REMARK  1 active torsions:
REMARK  status: ('A' for Active; 'I' for Inactive)
REMARK    1  A    between atoms: C1_2  and  C2_3 
ROOT
ATOM      1  C2  UNL d   1       3.250   1.264  -0.314  0.00  0.00    -0.076 A 
ATOM      2  C3  UNL d   1       3.963   1.190  -1.524  0.00  0.00     0.004 A 
ATOM      3  C4  UNL d   1       5.035   2.043  -1.778  0.00  0.00    -0.003 A 
ATOM      4  C5  UNL d   1       5.414   2.983  -0.827  0.00  0.00     0.000 A 
ATOM      5  C6  UNL d   1       4.730   3.059   0.386  0.00  0.00     0.000 A 
ATOM      6  C7  UNL d   1       3.656   2.195   0.665  0.00  0.00    -0.073 A 
ATOM      7  C8  UNL d   1       2.951   2.325   1.987  0.00  0.00     0.078 C 
ENDROOT
BRANCH   1   8
ATOM      8  C1  UNL d   1       2.079   0.331  -0.106  0.00  0.00     0.053 C 
ATOM      9  C   UNL d   1       2.445  -1.126  -0.339  0.00  0.00     0.018 C 
ENDBRANCH   1   8
TORSDOF 1
ENDMDL
