MODEL 1
REMARK minimizedAffinity 5.3780489
REMARK minimizedRMSD -1
REMARK  1 active torsions:
REMARK  status: ('A' for Active; 'I' for Inactive)
REMARK    1  A    between atoms: C1_2  and  C2_3 
ROOT
ATOM      1  C2  UNL d   1      -4.168   0.510  -2.551  0.00  0.00    -0.076 A 
ATOM      2  C3  UNL d   1      -5.397   0.719  -3.200  0.00  0.00     0.004 A 
ATOM      3  C4  UNL d   1      -5.446   1.138  -4.529  0.00  0.00    -0.003 A 
ATOM      4  C5  UNL d   1      -4.265   1.353  -5.231  0.00  0.00     0.000 A 
ATOM      5  C6  UNL d   1      -3.036   1.134  -4.609  0.00  0.00     0.000 A 
ATOM      6  C7  UNL d   1      -2.970   0.696  -3.275  0.00  0.00    -0.073 A 
ATOM      7  C8  UNL d   1      -1.618   0.481  -2.652  0.00  0.00     0.078 C 
ENDROOT
BRANCH   1   8
ATOM      8  C1  UNL d   1      -4.177   0.083  -1.101  0.00  0.00     0.053 C 
ATOM      9  C   UNL d   1      -5.233   0.813  -0.285  0.00  0.00     0.018 C 
ENDBRANCH   1   8
TORSDOF 1
ENDMDL
