MODEL 1
REMARK minimizedAffinity 5.01249552
REMARK minimizedRMSD -1
REMARK  0 active torsions:
REMARK  status: ('A' for Active; 'I' for Inactive)
ROOT
ATOM      1  C   UNL d   1      -4.217   1.486   0.723  0.00  0.00     0.172 C 
ATOM      2  N   UNL d   1      -2.856   1.763   1.116  0.00  0.00    -0.070 N 
ATOM      3  C1  UNL d   1      -2.089   0.987   1.944  0.00  0.00    -0.004 A 
ATOM      4  C2  UNL d   1      -0.857   1.592   2.069  0.00  0.00    -0.047 A 
ATOM      5  C3  UNL d   1      -0.884   2.773   1.290  0.00  0.00    -0.047 A 
ATOM      6  C4  UNL d   1      -2.133   2.854   0.711  0.00  0.00    -0.004 A 
ENDROOT
TORSDOF 0
ENDMDL
