MODEL 1
REMARK minimizedAffinity 3.57185292
REMARK minimizedRMSD -1
REMARK  0 active torsions:
REMARK  status: ('A' for Active; 'I' for Inactive)
ROOT
ATOM      1  C   UNL d   1       1.690   0.333   0.209  0.00  0.00     0.172 C 
ATOM      2  N   UNL d   1       0.974   1.587   0.193  0.00  0.00    -0.070 N 
ATOM      3  C1  UNL d   1       1.216   2.633  -0.656  0.00  0.00    -0.004 A 
ATOM      4  C2  UNL d   1       0.323   3.638  -0.352  0.00  0.00    -0.047 A 
ATOM      5  C3  UNL d   1      -0.482   3.180   0.718  0.00  0.00    -0.047 A 
ATOM      6  C4  UNL d   1      -0.057   1.907   1.036  0.00  0.00    -0.004 A 
ENDROOT
TORSDOF 0
ENDMDL
