MODEL 1
REMARK minimizedAffinity 0.261538774
REMARK minimizedRMSD -1
REMARK  0 active torsions:
REMARK  status: ('A' for Active; 'I' for Inactive)
ROOT
ATOM      1  C   UNL d   1      -3.238   2.161  -0.097  0.00  0.00     0.172 C 
ATOM      2  N   UNL d   1      -1.872   2.260   0.361  0.00  0.00    -0.070 N 
ATOM      3  C1  UNL d   1      -1.142   1.245   0.920  0.00  0.00    -0.004 A 
ATOM      4  C2  UNL d   1       0.109   1.740   1.220  0.00  0.00    -0.047 A 
ATOM      5  C3  UNL d   1       0.131   3.099   0.828  0.00  0.00    -0.047 A 
ATOM      6  C4  UNL d   1      -1.108   3.395   0.300  0.00  0.00    -0.004 A 
ENDROOT
TORSDOF 0
ENDMDL
