MODEL 1
REMARK minimizedAffinity -2.85841131
REMARK minimizedRMSD -1
REMARK  0 active torsions:
REMARK  status: ('A' for Active; 'I' for Inactive)
ROOT
ATOM      1  C   UNL d   1       2.360   2.061   0.488  0.00  0.00     0.172 C 
ATOM      2  N   UNL d   1       0.920   2.131   0.420  0.00  0.00    -0.070 N 
ATOM      3  C1  UNL d   1       0.058   1.094   0.659  0.00  0.00    -0.004 A 
ATOM      4  C2  UNL d   1      -1.226   1.565   0.493  0.00  0.00    -0.047 A 
ATOM      5  C3  UNL d   1      -1.133   2.933   0.140  0.00  0.00    -0.047 A 
ATOM      6  C4  UNL d   1       0.206   3.257   0.102  0.00  0.00    -0.004 A 
ENDROOT
TORSDOF 0
ENDMDL
