MODEL 1
REMARK minimizedAffinity 4.31443691
REMARK minimizedRMSD -1
REMARK  0 active torsions:
REMARK  status: ('A' for Active; 'I' for Inactive)
ROOT
ATOM      1  C   UNL d   1       2.021   2.897   0.525  0.00  0.00     0.172 C 
ATOM      2  N   UNL d   1       0.625   2.789   0.878  0.00  0.00    -0.070 N 
ATOM      3  C1  UNL d   1      -0.425   3.266   0.139  0.00  0.00    -0.004 A 
ATOM      4  C2  UNL d   1      -1.588   2.964   0.815  0.00  0.00    -0.047 A 
ATOM      5  C3  UNL d   1      -1.224   2.284   2.002  0.00  0.00    -0.047 A 
ATOM      6  C4  UNL d   1       0.151   2.190   2.016  0.00  0.00    -0.004 A 
ENDROOT
TORSDOF 0
ENDMDL
