MODEL 1
REMARK minimizedAffinity -0.310568094
REMARK minimizedRMSD -1
REMARK  0 active torsions:
REMARK  status: ('A' for Active; 'I' for Inactive)
ROOT
ATOM      1  C   UNL d   1      -2.837  -5.999   1.531  0.00  0.00     0.172 C 
ATOM      2  N   UNL d   1      -1.894  -5.071   2.109  0.00  0.00    -0.070 N 
ATOM      3  C1  UNL d   1      -1.347  -5.165   3.361  0.00  0.00    -0.004 A 
ATOM      4  C2  UNL d   1      -0.499  -4.093   3.533  0.00  0.00    -0.047 A 
ATOM      5  C3  UNL d   1      -0.537  -3.328   2.343  0.00  0.00    -0.047 A 
ATOM      6  C4  UNL d   1      -1.409  -3.956   1.478  0.00  0.00    -0.004 A 
ENDROOT
TORSDOF 0
ENDMDL
