MODEL 1
REMARK minimizedAffinity 0.630910873
REMARK minimizedRMSD -1
REMARK  0 active torsions:
REMARK  status: ('A' for Active; 'I' for Inactive)
ROOT
ATOM      1  C   UNL d   1      -0.242   3.032   0.372  0.00  0.00     0.172 C 
ATOM      2  N   UNL d   1       1.116   2.583   0.570  0.00  0.00    -0.070 N 
ATOM      3  C1  UNL d   1       2.166   3.366   0.967  0.00  0.00    -0.004 A 
ATOM      4  C2  UNL d   1       3.286   2.566   1.038  0.00  0.00    -0.047 A 
ATOM      5  C3  UNL d   1       2.896   1.257   0.670  0.00  0.00    -0.047 A 
ATOM      6  C4  UNL d   1       1.547   1.296   0.385  0.00  0.00    -0.004 A 
ENDROOT
TORSDOF 0
ENDMDL
