MODEL 1
REMARK minimizedAffinity 1.15018022
REMARK minimizedRMSD -1
REMARK  0 active torsions:
REMARK  status: ('A' for Active; 'I' for Inactive)
ROOT
ATOM      1  C   UNL d   1      -6.000   5.960  -2.474  0.00  0.00     0.172 C 
ATOM      2  N   UNL d   1      -6.000   4.691  -1.785  0.00  0.00    -0.070 N 
ATOM      3  C1  UNL d   1      -6.000   3.459  -2.381  0.00  0.00    -0.004 A 
ATOM      4  C2  UNL d   1      -5.999   2.508  -1.383  0.00  0.00    -0.047 A 
ATOM      5  C3  UNL d   1      -5.999   3.192  -0.145  0.00  0.00    -0.047 A 
ATOM      6  C4  UNL d   1      -6.000   4.543  -0.423  0.00  0.00    -0.004 A 
ENDROOT
TORSDOF 0
ENDMDL
