MODEL 1
REMARK minimizedAffinity 2.32119513
REMARK minimizedRMSD -1
REMARK  0 active torsions:
REMARK  status: ('A' for Active; 'I' for Inactive)
ROOT
ATOM      1  C   UNL d   1       2.299  -0.183   0.388  0.00  0.00     0.172 C 
ATOM      2  N   UNL d   1       1.939  -0.092  -1.007  0.00  0.00    -0.070 N 
ATOM      3  C1  UNL d   1       2.069   1.022  -1.794  0.00  0.00    -0.004 A 
ATOM      4  C2  UNL d   1       1.618   0.701  -3.056  0.00  0.00    -0.047 A 
ATOM      5  C3  UNL d   1       1.203  -0.651  -3.027  0.00  0.00    -0.047 A 
ATOM      6  C4  UNL d   1       1.412  -1.117  -1.746  0.00  0.00    -0.004 A 
ENDROOT
TORSDOF 0
ENDMDL
