MODEL 1
REMARK minimizedAffinity -1.19948769
REMARK minimizedRMSD -1
REMARK  0 active torsions:
REMARK  status: ('A' for Active; 'I' for Inactive)
ROOT
ATOM      1  C   UNL d   1       2.218   0.242   0.506  0.00  0.00     0.172 C 
ATOM      2  N   UNL d   1       1.714   1.554   0.177  0.00  0.00    -0.070 N 
ATOM      3  C1  UNL d   1       0.635   2.165   0.760  0.00  0.00    -0.004 A 
ATOM      4  C2  UNL d   1       0.481   3.401   0.171  0.00  0.00    -0.047 A 
ATOM      5  C3  UNL d   1       1.501   3.538  -0.800  0.00  0.00    -0.047 A 
ATOM      6  C4  UNL d   1       2.250   2.380  -0.775  0.00  0.00    -0.004 A 
ENDROOT
TORSDOF 0
ENDMDL
