MODEL 1
REMARK minimizedAffinity -1.15428925
REMARK minimizedRMSD -1
REMARK  0 active torsions:
REMARK  status: ('A' for Active; 'I' for Inactive)
ROOT
ATOM      1  C   UNL d   1       2.222   1.985   0.744  0.00  0.00     0.172 C 
ATOM      2  N   UNL d   1       0.803   2.247   0.695  0.00  0.00    -0.070 N 
ATOM      3  C1  UNL d   1       0.224   3.460   0.433  0.00  0.00    -0.004 A 
ATOM      4  C2  UNL d   1      -1.144   3.294   0.477  0.00  0.00    -0.047 A 
ATOM      5  C3  UNL d   1      -1.395   1.933   0.776  0.00  0.00    -0.047 A 
ATOM      6  C4  UNL d   1      -0.172   1.309   0.906  0.00  0.00    -0.004 A 
ENDROOT
TORSDOF 0
ENDMDL
