MODEL 1
REMARK minimizedAffinity 0.430436313
REMARK minimizedRMSD -1
REMARK  0 active torsions:
REMARK  status: ('A' for Active; 'I' for Inactive)
ROOT
ATOM      1  C   UNL d   1       3.040   2.655   0.565  0.00  0.00     0.172 C 
ATOM      2  N   UNL d   1       1.688   3.077   0.286  0.00  0.00    -0.070 N 
ATOM      3  C1  UNL d   1       1.313   3.967  -0.685  0.00  0.00    -0.004 A 
ATOM      4  C2  UNL d   1      -0.058   4.101  -0.628  0.00  0.00    -0.047 A 
ATOM      5  C3  UNL d   1      -0.522   3.264   0.414  0.00  0.00    -0.047 A 
ATOM      6  C4  UNL d   1       0.579   2.642   0.963  0.00  0.00    -0.004 A 
ENDROOT
TORSDOF 0
ENDMDL
