MODEL 1
REMARK minimizedAffinity 1.47758222
REMARK minimizedRMSD -1
REMARK  0 active torsions:
REMARK  status: ('A' for Active; 'I' for Inactive)
ROOT
ATOM      1  C   UNL d   1      -3.455   1.356  -0.094  0.00  0.00     0.172 C 
ATOM      2  N   UNL d   1      -2.148   1.784   0.346  0.00  0.00    -0.070 N 
ATOM      3  C1  UNL d   1      -1.247   1.017   1.037  0.00  0.00    -0.004 A 
ATOM      4  C2  UNL d   1      -0.127   1.786   1.266  0.00  0.00    -0.047 A 
ATOM      5  C3  UNL d   1      -0.363   3.059   0.695  0.00  0.00    -0.047 A 
ATOM      6  C4  UNL d   1      -1.621   3.030   0.133  0.00  0.00    -0.004 A 
ENDROOT
TORSDOF 0
ENDMDL
