MODEL 1
REMARK minimizedAffinity 8.22885895
REMARK minimizedRMSD -1
REMARK  0 active torsions:
REMARK  status: ('A' for Active; 'I' for Inactive)
ROOT
ATOM      1  C   UNL d   1       1.978   2.218   0.670  0.00  0.00     0.172 C 
ATOM      2  N   UNL d   1       0.647   2.563   1.111  0.00  0.00    -0.070 N 
ATOM      3  C1  UNL d   1      -0.307   3.188   0.354  0.00  0.00    -0.004 A 
ATOM      4  C2  UNL d   1      -1.434   3.336   1.134  0.00  0.00    -0.047 A 
ATOM      5  C3  UNL d   1      -1.146   2.782   2.403  0.00  0.00    -0.047 A 
ATOM      6  C4  UNL d   1       0.149   2.310   2.361  0.00  0.00    -0.004 A 
ENDROOT
TORSDOF 0
ENDMDL
