MODEL 1
REMARK minimizedAffinity 4.63143349
REMARK minimizedRMSD -1
REMARK  0 active torsions:
REMARK  status: ('A' for Active; 'I' for Inactive)
ROOT
ATOM      1  C   UNL d   1      -0.742   2.740   0.805  0.00  0.00     0.172 C 
ATOM      2  N   UNL d   1       0.665   2.800   0.488  0.00  0.00    -0.070 N 
ATOM      3  C1  UNL d   1       1.258   3.712  -0.344  0.00  0.00    -0.004 A 
ATOM      4  C2  UNL d   1       2.607   3.434  -0.383  0.00  0.00    -0.047 A 
ATOM      5  C3  UNL d   1       2.833   2.315   0.453  0.00  0.00    -0.047 A 
ATOM      6  C4  UNL d   1       1.614   1.943   0.980  0.00  0.00    -0.004 A 
ENDROOT
TORSDOF 0
ENDMDL
