MODEL 1
REMARK minimizedAffinity 4.91571093
REMARK minimizedRMSD -1
REMARK  0 active torsions:
REMARK  status: ('A' for Active; 'I' for Inactive)
ROOT
ATOM      1  C   UNL d   1       1.580   1.139   0.760  0.00  0.00     0.172 C 
ATOM      2  N   UNL d   1       1.674  -0.066  -0.030  0.00  0.00    -0.070 N 
ATOM      3  C1  UNL d   1       1.956  -1.317   0.452  0.00  0.00    -0.004 A 
ATOM      4  C2  UNL d   1       1.953  -2.190  -0.614  0.00  0.00    -0.047 A 
ATOM      5  C3  UNL d   1       1.661  -1.438  -1.777  0.00  0.00    -0.047 A 
ATOM      6  C4  UNL d   1       1.492  -0.127  -1.386  0.00  0.00    -0.004 A 
ENDROOT
TORSDOF 0
ENDMDL
