MODEL 1
REMARK minimizedAffinity 25.1792774
REMARK minimizedRMSD -1
REMARK  0 active torsions:
REMARK  status: ('A' for Active; 'I' for Inactive)
ROOT
ATOM      1  C   UNL d   1       1.746  -1.315  -0.433  0.00  0.00     0.124 A 
ATOM      2  C1  UNL d   1       1.313  -0.830  -1.659  0.00  0.00     0.062 A 
ATOM      3  C2  UNL d   1       0.431  -1.576  -2.435  0.00  0.00     0.162 A 
ATOM      4  C3  UNL d   1      -0.025  -2.816  -1.987  0.00  0.00    -0.034 A 
ATOM      5  C4  UNL d   1       0.415  -3.298  -0.753  0.00  0.00     0.162 A 
ATOM      6  C5  UNL d   1       1.297  -2.548   0.019  0.00  0.00     0.062 A 
ATOM      7  F   UNL d   1       1.714  -3.019   1.203  0.00  0.00    -0.097 F 
ATOM      8  F1  UNL d   1      -0.004  -4.486  -0.292  0.00  0.00    -0.096 F 
ATOM      9  I   UNL d   1      -1.344  -3.935  -3.145  0.00  0.00    -0.060 I 
ATOM     10  F2  UNL d   1       0.030  -1.083  -3.616  0.00  0.00    -0.096 F 
ATOM     11  F3  UNL d   1       1.746   0.360  -2.098  0.00  0.00    -0.097 F 
ATOM     12  F4  UNL d   1       2.595  -0.596   0.312  0.00  0.00    -0.092 F 
ENDROOT
TORSDOF 0
ENDMDL
