MODEL 1
REMARK minimizedAffinity 23.5911198
REMARK minimizedRMSD -1
REMARK  0 active torsions:
REMARK  status: ('A' for Active; 'I' for Inactive)
ROOT
ATOM      1  C   UNL d   1       0.339  -2.844  -1.227  0.00  0.00     0.124 A 
ATOM      2  C1  UNL d   1       0.606  -4.187  -1.458  0.00  0.00     0.062 A 
ATOM      3  C2  UNL d   1       1.881  -4.695  -1.234  0.00  0.00     0.162 A 
ATOM      4  C3  UNL d   1       2.901  -3.862  -0.774  0.00  0.00    -0.034 A 
ATOM      5  C4  UNL d   1       2.625  -2.512  -0.545  0.00  0.00     0.162 A 
ATOM      6  C5  UNL d   1       1.348  -2.009  -0.771  0.00  0.00     0.062 A 
ATOM      7  F   UNL d   1       1.093  -0.711  -0.547  0.00  0.00    -0.097 F 
ATOM      8  F1  UNL d   1       3.582  -1.683  -0.103  0.00  0.00    -0.096 F 
ATOM      9  I   UNL d   1       4.810  -4.619  -0.437  0.00  0.00    -0.060 I 
ATOM     10  F2  UNL d   1       2.111  -5.997  -1.466  0.00  0.00    -0.096 F 
ATOM     11  F3  UNL d   1      -0.368  -4.996  -1.900  0.00  0.00    -0.097 F 
ATOM     12  F4  UNL d   1      -0.890  -2.357  -1.445  0.00  0.00    -0.092 F 
ENDROOT
TORSDOF 0
ENDMDL
