MODEL 1
REMARK minimizedAffinity 16.6182861
REMARK minimizedRMSD -1
REMARK  0 active torsions:
REMARK  status: ('A' for Active; 'I' for Inactive)
ROOT
ATOM      1  C   UNL d   1      -0.280  -4.750  -2.274  0.00  0.00     0.124 A 
ATOM      2  C1  UNL d   1       0.847  -5.270  -1.652  0.00  0.00     0.062 A 
ATOM      3  C2  UNL d   1       2.042  -5.389  -2.355  0.00  0.00     0.162 A 
ATOM      4  C3  UNL d   1       2.117  -4.987  -3.688  0.00  0.00    -0.034 A 
ATOM      5  C4  UNL d   1       0.980  -4.466  -4.307  0.00  0.00     0.162 A 
ATOM      6  C5  UNL d   1      -0.212  -4.349  -3.601  0.00  0.00     0.062 A 
ATOM      7  F   UNL d   1      -1.300  -3.846  -4.203  0.00  0.00    -0.097 F 
ATOM      8  F1  UNL d   1       1.017  -4.070  -5.588  0.00  0.00    -0.096 F 
ATOM      9  I   UNL d   1       3.903  -5.164  -4.743  0.00  0.00    -0.060 I 
ATOM     10  F2  UNL d   1       3.115  -5.895  -1.728  0.00  0.00    -0.096 F 
ATOM     11  F3  UNL d   1       0.784  -5.659  -0.370  0.00  0.00    -0.097 F 
ATOM     12  F4  UNL d   1      -1.429  -4.637  -1.595  0.00  0.00    -0.092 F 
ENDROOT
TORSDOF 0
ENDMDL
