MODEL 1
REMARK minimizedAffinity 16.2377777
REMARK minimizedRMSD -1
REMARK  0 active torsions:
REMARK  status: ('A' for Active; 'I' for Inactive)
ROOT
ATOM      1  C   UNL d   1       1.097   4.821   0.002  0.00  0.00     0.124 A 
ATOM      2  C1  UNL d   1       1.821   4.730   1.183  0.00  0.00     0.062 A 
ATOM      3  C2  UNL d   1       1.590   3.679   2.065  0.00  0.00     0.162 A 
ATOM      4  C3  UNL d   1       0.632   2.709   1.770  0.00  0.00    -0.034 A 
ATOM      5  C4  UNL d   1      -0.092   2.808   0.581  0.00  0.00     0.162 A 
ATOM      6  C5  UNL d   1       0.142   3.861  -0.298  0.00  0.00     0.062 A 
ATOM      7  F   UNL d   1      -0.558   3.947  -1.438  0.00  0.00    -0.097 F 
ATOM      8  F1  UNL d   1      -1.021   1.893   0.266  0.00  0.00    -0.096 F 
ATOM      9  I   UNL d   1       0.285   1.135   3.087  0.00  0.00    -0.060 I 
ATOM     10  F2  UNL d   1       2.304   3.616   3.199  0.00  0.00    -0.096 F 
ATOM     11  F3  UNL d   1       2.744   5.658   1.475  0.00  0.00    -0.097 F 
ATOM     12  F4  UNL d   1       1.320   5.835  -0.845  0.00  0.00    -0.092 F 
ENDROOT
TORSDOF 0
ENDMDL
