MODEL 1
REMARK minimizedAffinity 30.1108093
REMARK minimizedRMSD -1
REMARK  0 active torsions:
REMARK  status: ('A' for Active; 'I' for Inactive)
ROOT
ATOM      1  C   UNL d   1       3.139  -2.261   0.761  0.00  0.00     0.124 A 
ATOM      2  C1  UNL d   1       4.367  -2.159   0.124  0.00  0.00     0.062 A 
ATOM      3  C2  UNL d   1       4.730  -3.084  -0.851  0.00  0.00     0.162 A 
ATOM      4  C3  UNL d   1       3.861  -4.120  -1.196  0.00  0.00    -0.034 A 
ATOM      5  C4  UNL d   1       2.627  -4.217  -0.550  0.00  0.00     0.162 A 
ATOM      6  C5  UNL d   1       2.270  -3.289   0.424  0.00  0.00     0.062 A 
ATOM      7  F   UNL d   1       1.082  -3.390   1.038  0.00  0.00    -0.097 F 
ATOM      8  F1  UNL d   1       1.768  -5.200  -0.857  0.00  0.00    -0.096 F 
ATOM      9  I   UNL d   1       4.399  -5.505  -2.652  0.00  0.00    -0.060 I 
ATOM     10  F2  UNL d   1       5.923  -2.961  -1.450  0.00  0.00    -0.096 F 
ATOM     11  F3  UNL d   1       5.209  -1.167   0.449  0.00  0.00    -0.097 F 
ATOM     12  F4  UNL d   1       2.793  -1.370   1.699  0.00  0.00    -0.092 F 
ENDROOT
TORSDOF 0
ENDMDL
