MODEL 1
REMARK minimizedAffinity 6.84122229
REMARK minimizedRMSD -1
REMARK  0 active torsions:
REMARK  status: ('A' for Active; 'I' for Inactive)
ROOT
ATOM      1  C   UNL d   1      -0.542   3.257   1.182  0.00  0.00     0.124 A 
ATOM      2  C1  UNL d   1       0.148   3.040  -0.002  0.00  0.00     0.062 A 
ATOM      3  C2  UNL d   1      -0.120   3.821  -1.122  0.00  0.00     0.162 A 
ATOM      4  C3  UNL d   1      -1.083   4.828  -1.064  0.00  0.00    -0.034 A 
ATOM      5  C4  UNL d   1      -1.774   5.040   0.130  0.00  0.00     0.162 A 
ATOM      6  C5  UNL d   1      -1.502   4.257   1.247  0.00  0.00     0.062 A 
ATOM      7  F   UNL d   1      -2.171   4.469   2.391  0.00  0.00    -0.097 F 
ATOM      8  F1  UNL d   1      -2.707   6.000   0.221  0.00  0.00    -0.096 F 
ATOM      9  I   UNL d   1      -1.487   5.998  -2.737  0.00  0.00    -0.060 I 
ATOM     10  F2  UNL d   1       0.563   3.588  -2.253  0.00  0.00    -0.096 F 
ATOM     11  F3  UNL d   1       1.076   2.074  -0.068  0.00  0.00    -0.097 F 
ATOM     12  F4  UNL d   1      -0.283   2.504   2.259  0.00  0.00    -0.092 F 
ENDROOT
TORSDOF 0
ENDMDL
