MODEL 1
REMARK minimizedAffinity 27.7865238
REMARK minimizedRMSD -1
REMARK  0 active torsions:
REMARK  status: ('A' for Active; 'I' for Inactive)
ROOT
ATOM      1  C   UNL d   1       1.308  -3.418   0.181  0.00  0.00     0.124 A 
ATOM      2  C1  UNL d   1       0.941  -4.667  -0.298  0.00  0.00     0.062 A 
ATOM      3  C2  UNL d   1       0.203  -4.777  -1.473  0.00  0.00     0.162 A 
ATOM      4  C3  UNL d   1      -0.171  -3.634  -2.179  0.00  0.00    -0.034 A 
ATOM      5  C4  UNL d   1       0.202  -2.380  -1.691  0.00  0.00     0.162 A 
ATOM      6  C5  UNL d   1       0.939  -2.276  -0.516  0.00  0.00     0.062 A 
ATOM      7  F   UNL d   1       1.293  -1.067  -0.054  0.00  0.00    -0.097 F 
ATOM      8  F1  UNL d   1      -0.141  -1.260  -2.344  0.00  0.00    -0.096 F 
ATOM      9  I   UNL d   1      -1.274  -3.794  -3.937  0.00  0.00    -0.060 I 
ATOM     10  F2  UNL d   1      -0.138  -5.998  -1.913  0.00  0.00    -0.096 F 
ATOM     11  F3  UNL d   1       1.296  -5.772   0.373  0.00  0.00    -0.097 F 
ATOM     12  F4  UNL d   1       2.017  -3.315   1.312  0.00  0.00    -0.092 F 
ENDROOT
TORSDOF 0
ENDMDL
