MODEL 1
REMARK minimizedAffinity 17.2487717
REMARK minimizedRMSD -1
REMARK  0 active torsions:
REMARK  status: ('A' for Active; 'I' for Inactive)
ROOT
ATOM      1  C   UNL d   1       4.840  -2.456  -0.005  0.00  0.00     0.124 A 
ATOM      2  C1  UNL d   1       4.839  -3.620  -0.760  0.00  0.00     0.062 A 
ATOM      3  C2  UNL d   1       3.635  -4.209  -1.136  0.00  0.00     0.162 A 
ATOM      4  C3  UNL d   1       2.422  -3.634  -0.758  0.00  0.00    -0.034 A 
ATOM      5  C4  UNL d   1       2.431  -2.463   0.002  0.00  0.00     0.162 A 
ATOM      6  C5  UNL d   1       3.637  -1.879   0.376  0.00  0.00     0.062 A 
ATOM      7  F   UNL d   1       3.637  -0.754   1.105  0.00  0.00    -0.097 F 
ATOM      8  F1  UNL d   1       1.283  -1.884   0.383  0.00  0.00    -0.096 F 
ATOM      9  I   UNL d   1       0.619  -4.511  -1.319  0.00  0.00    -0.060 I 
ATOM     10  F2  UNL d   1       3.663  -5.334  -1.866  0.00  0.00    -0.096 F 
ATOM     11  F3  UNL d   1       6.000  -4.181  -1.128  0.00  0.00    -0.097 F 
ATOM     12  F4  UNL d   1       6.000  -1.892   0.356  0.00  0.00    -0.092 F 
ENDROOT
TORSDOF 0
ENDMDL
