MODEL 1
REMARK minimizedAffinity -2.66051507
REMARK minimizedRMSD -1
REMARK  1 active torsions:
REMARK  status: ('A' for Active; 'I' for Inactive)
REMARK    1  A    between atoms: C3_4  and  O_7 
ROOT
ATOM      1  C   UNL d   1      -1.375   1.555   0.123  0.00  0.00    -0.033 A 
ATOM      2  C1  UNL d   1      -1.106   0.243   0.517  0.00  0.00     0.039 A 
ATOM      3  C2  UNL d   1       0.069  -0.386   0.099  0.00  0.00    -0.080 A 
ATOM      4  C3  UNL d   1       0.964   0.307  -0.710  0.00  0.00     0.150 A 
ATOM      5  C4  UNL d   1       0.704   1.616  -1.104  0.00  0.00    -0.007 A 
ATOM      6  C5  UNL d   1      -0.470   2.242  -0.686  0.00  0.00     0.039 A 
ENDROOT
BRANCH   4   7
ATOM      7  O   UNL d   1       2.121  -0.267  -1.147  0.00  0.00    -0.526 OA
ATOM      8  H5  UNL d   1       2.153  -1.181  -0.821  0.00  0.00     0.418 HD
ENDBRANCH   4   7
TORSDOF 1
ENDMDL
