MODEL 1
REMARK minimizedAffinity -3.4616797
REMARK minimizedRMSD -1
REMARK  1 active torsions:
REMARK  status: ('A' for Active; 'I' for Inactive)
REMARK    1  A    between atoms: C3_4  and  O_7 
ROOT
ATOM      1  C   UNL d   1      -0.576  -0.467   0.090  0.00  0.00    -0.033 A 
ATOM      2  C1  UNL d   1      -0.055  -1.735  -0.179  0.00  0.00     0.039 A 
ATOM      3  C2  UNL d   1       1.224  -1.864  -0.724  0.00  0.00    -0.080 A 
ATOM      4  C3  UNL d   1       1.971  -0.721  -0.994  0.00  0.00     0.150 A 
ATOM      5  C4  UNL d   1       1.459   0.544  -0.725  0.00  0.00    -0.007 A 
ATOM      6  C5  UNL d   1       0.182   0.672  -0.182  0.00  0.00     0.039 A 
ENDROOT
BRANCH   4   7
ATOM      7  O   UNL d   1       3.222  -0.797  -1.531  0.00  0.00    -0.526 OA
ATOM      8  H5  UNL d   1       3.432  -1.732  -1.690  0.00  0.00     0.418 HD
ENDBRANCH   4   7
TORSDOF 1
ENDMDL
