MODEL 1
REMARK minimizedAffinity -5.52493048
REMARK minimizedRMSD -1
REMARK  1 active torsions:
REMARK  status: ('A' for Active; 'I' for Inactive)
REMARK    1  A    between atoms: C3_4  and  O_7 
ROOT
ATOM      1  C   UNL d   1       2.545   0.146  -2.475  0.00  0.00    -0.033 A 
ATOM      2  C1  UNL d   1       1.640   1.202  -2.589  0.00  0.00     0.039 A 
ATOM      3  C2  UNL d   1       0.546   1.284  -1.725  0.00  0.00    -0.080 A 
ATOM      4  C3  UNL d   1       0.371   0.304  -0.751  0.00  0.00     0.150 A 
ATOM      5  C4  UNL d   1       1.271  -0.749  -0.629  0.00  0.00    -0.007 A 
ATOM      6  C5  UNL d   1       2.362  -0.829  -1.494  0.00  0.00     0.039 A 
ENDROOT
BRANCH   4   7
ATOM      7  O   UNL d   1      -0.684   0.339   0.112  0.00  0.00    -0.526 OA
ATOM      8  H5  UNL d   1      -1.238   1.106  -0.109  0.00  0.00     0.418 HD
ENDBRANCH   4   7
TORSDOF 1
ENDMDL
