MODEL 1
REMARK minimizedAffinity -4.49542856
REMARK minimizedRMSD -1
REMARK  1 active torsions:
REMARK  status: ('A' for Active; 'I' for Inactive)
REMARK    1  A    between atoms: C3_4  and  O_7 
ROOT
ATOM      1  C   UNL d   1       2.059   0.098  -0.399  0.00  0.00    -0.033 A 
ATOM      2  C1  UNL d   1       3.209  -0.160  -1.147  0.00  0.00     0.039 A 
ATOM      3  C2  UNL d   1       3.311  -1.338  -1.890  0.00  0.00    -0.080 A 
ATOM      4  C3  UNL d   1       2.258  -2.247  -1.877  0.00  0.00     0.150 A 
ATOM      5  C4  UNL d   1       1.107  -1.994  -1.137  0.00  0.00    -0.007 A 
ATOM      6  C5  UNL d   1       1.007  -0.818  -0.396  0.00  0.00     0.039 A 
ENDROOT
BRANCH   4   7
ATOM      7  O   UNL d   1       2.313  -3.412  -2.582  0.00  0.00    -0.526 OA
ATOM      8  H5  UNL d   1       3.179  -3.465  -3.022  0.00  0.00     0.418 HD
ENDBRANCH   4   7
TORSDOF 1
ENDMDL
