MODEL 1
REMARK minimizedAffinity -2.76146221
REMARK minimizedRMSD -1
REMARK  1 active torsions:
REMARK  status: ('A' for Active; 'I' for Inactive)
REMARK    1  A    between atoms: C3_4  and  O_7 
ROOT
ATOM      1  C   UNL d   1      -2.086   0.526   3.419  0.00  0.00    -0.033 A 
ATOM      2  C1  UNL d   1      -1.208   1.610   3.360  0.00  0.00     0.039 A 
ATOM      3  C2  UNL d   1      -0.437   1.824   2.217  0.00  0.00    -0.080 A 
ATOM      4  C3  UNL d   1      -0.553   0.950   1.140  0.00  0.00     0.150 A 
ATOM      5  C4  UNL d   1      -1.429  -0.130   1.190  0.00  0.00    -0.007 A 
ATOM      6  C5  UNL d   1      -2.197  -0.343   2.333  0.00  0.00     0.039 A 
ENDROOT
BRANCH   4   7
ATOM      7  O   UNL d   1       0.183   1.115   0.004  0.00  0.00    -0.526 OA
ATOM      8  H5  UNL d   1       0.764   1.885   0.124  0.00  0.00     0.418 HD
ENDBRANCH   4   7
TORSDOF 1
ENDMDL
