MODEL 1
REMARK minimizedAffinity -3.75505686
REMARK minimizedRMSD -1
REMARK  1 active torsions:
REMARK  status: ('A' for Active; 'I' for Inactive)
REMARK    1  A    between atoms: C3_4  and  O_7 
ROOT
ATOM      1  C   UNL d   1      -1.044  -0.048   0.294  0.00  0.00    -0.033 A 
ATOM      2  C1  UNL d   1      -0.484   1.150  -0.154  0.00  0.00     0.039 A 
ATOM      3  C2  UNL d   1       0.853   1.191  -0.554  0.00  0.00    -0.080 A 
ATOM      4  C3  UNL d   1       1.617   0.029  -0.502  0.00  0.00     0.150 A 
ATOM      5  C4  UNL d   1       1.065  -1.169  -0.060  0.00  0.00    -0.007 A 
ATOM      6  C5  UNL d   1      -0.270  -1.208   0.340  0.00  0.00     0.039 A 
ENDROOT
BRANCH   4   7
ATOM      7  O   UNL d   1       2.928   0.021  -0.877  0.00  0.00    -0.526 OA
ATOM      8  H5  UNL d   1       3.181   0.924  -1.132  0.00  0.00     0.418 HD
ENDBRANCH   4   7
TORSDOF 1
ENDMDL
