MODEL 1
REMARK minimizedAffinity -4.85259867
REMARK minimizedRMSD -1
REMARK  1 active torsions:
REMARK  status: ('A' for Active; 'I' for Inactive)
REMARK    1  A    between atoms: C3_4  and  O_7 
ROOT
ATOM      1  C   UNL d   1      -0.357   0.028   0.122  0.00  0.00    -0.033 A 
ATOM      2  C1  UNL d   1       0.459   1.037  -0.392  0.00  0.00     0.039 A 
ATOM      3  C2  UNL d   1       1.694   0.717  -0.959  0.00  0.00    -0.080 A 
ATOM      4  C3  UNL d   1       2.100  -0.614  -1.007  0.00  0.00     0.150 A 
ATOM      5  C4  UNL d   1       1.289  -1.625  -0.501  0.00  0.00    -0.007 A 
ATOM      6  C5  UNL d   1       0.057  -1.304   0.066  0.00  0.00     0.039 A 
ENDROOT
BRANCH   4   7
ATOM      7  O   UNL d   1       3.298  -0.975  -1.547  0.00  0.00    -0.526 OA
ATOM      8  H5  UNL d   1       3.763  -0.170  -1.830  0.00  0.00     0.418 HD
ENDBRANCH   4   7
TORSDOF 1
ENDMDL
