MODEL 1
REMARK minimizedAffinity -3.31796551
REMARK minimizedRMSD -1
REMARK  1 active torsions:
REMARK  status: ('A' for Active; 'I' for Inactive)
REMARK    1  A    between atoms: C3_4  and  O_7 
ROOT
ATOM      1  C   UNL d   1      -1.901   1.306   3.579  0.00  0.00    -0.033 A 
ATOM      2  C1  UNL d   1      -2.599   0.475   2.701  0.00  0.00     0.039 A 
ATOM      3  C2  UNL d   1      -2.103   0.238   1.417  0.00  0.00    -0.080 A 
ATOM      4  C3  UNL d   1      -0.909   0.837   1.025  0.00  0.00     0.150 A 
ATOM      5  C4  UNL d   1      -0.207   1.663   1.896  0.00  0.00    -0.007 A 
ATOM      6  C5  UNL d   1      -0.704   1.899   3.177  0.00  0.00     0.039 A 
ENDROOT
BRANCH   4   7
ATOM      7  O   UNL d   1      -0.388   0.640  -0.219  0.00  0.00    -0.526 OA
ATOM      8  H5  UNL d   1      -0.995   0.070  -0.720  0.00  0.00     0.418 HD
ENDBRANCH   4   7
TORSDOF 1
ENDMDL
