MODEL 1
REMARK minimizedAffinity -1.88794649
REMARK minimizedRMSD -1
REMARK  1 active torsions:
REMARK  status: ('A' for Active; 'I' for Inactive)
REMARK    1  A    between atoms: C3_4  and  O_7 
ROOT
ATOM      1  C   UNL d   1       2.137  -1.118  -2.505  0.00  0.00    -0.033 A 
ATOM      2  C1  UNL d   1       1.734   0.213  -2.627  0.00  0.00     0.039 A 
ATOM      3  C2  UNL d   1       0.841   0.762  -1.705  0.00  0.00    -0.080 A 
ATOM      4  C3  UNL d   1       0.360  -0.030  -0.666  0.00  0.00     0.150 A 
ATOM      5  C4  UNL d   1       0.760  -1.356  -0.535  0.00  0.00    -0.007 A 
ATOM      6  C5  UNL d   1       1.651  -1.902  -1.458  0.00  0.00     0.039 A 
ENDROOT
BRANCH   4   7
ATOM      7  O   UNL d   1      -0.517   0.460   0.256  0.00  0.00    -0.526 OA
ATOM      8  H5  UNL d   1      -0.726   1.380   0.023  0.00  0.00     0.418 HD
ENDBRANCH   4   7
TORSDOF 1
ENDMDL
