MODEL 1
REMARK minimizedAffinity -3.34203768
REMARK minimizedRMSD -1
REMARK  1 active torsions:
REMARK  status: ('A' for Active; 'I' for Inactive)
REMARK    1  A    between atoms: C3_4  and  O_7 
ROOT
ATOM      1  C   UNL d   1      -2.130   1.090   3.307  0.00  0.00    -0.033 A 
ATOM      2  C1  UNL d   1      -0.764   1.379   3.305  0.00  0.00     0.039 A 
ATOM      3  C2  UNL d   1       0.035   0.979   2.233  0.00  0.00    -0.080 A 
ATOM      4  C3  UNL d   1      -0.543   0.292   1.169  0.00  0.00     0.150 A 
ATOM      5  C4  UNL d   1      -1.904   0.004   1.162  0.00  0.00    -0.007 A 
ATOM      6  C5  UNL d   1      -2.700   0.404   2.234  0.00  0.00     0.039 A 
ENDROOT
BRANCH   4   7
ATOM      7  O   UNL d   1       0.197  -0.124   0.102  0.00  0.00    -0.526 OA
ATOM      8  H5  UNL d   1       1.125   0.120   0.258  0.00  0.00     0.418 HD
ENDBRANCH   4   7
TORSDOF 1
ENDMDL
