MODEL 1
REMARK minimizedAffinity -3.04066372
REMARK minimizedRMSD -1
REMARK  1 active torsions:
REMARK  status: ('A' for Active; 'I' for Inactive)
REMARK    1  A    between atoms: C3_4  and  O_7 
ROOT
ATOM      1  C   UNL d   1       1.608  -1.903  -1.399  0.00  0.00    -0.033 A 
ATOM      2  C1  UNL d   1       1.635  -0.510  -1.492  0.00  0.00     0.039 A 
ATOM      3  C2  UNL d   1       0.660   0.253  -0.848  0.00  0.00    -0.080 A 
ATOM      4  C3  UNL d   1      -0.335  -0.387  -0.114  0.00  0.00     0.150 A 
ATOM      5  C4  UNL d   1      -0.365  -1.774  -0.014  0.00  0.00    -0.007 A 
ATOM      6  C5  UNL d   1       0.609  -2.535  -0.659  0.00  0.00     0.039 A 
ENDROOT
BRANCH   4   7
ATOM      7  O   UNL d   1      -1.311   0.316   0.528  0.00  0.00    -0.526 OA
ATOM      8  H5  UNL d   1      -1.179   1.261   0.346  0.00  0.00     0.418 HD
ENDBRANCH   4   7
TORSDOF 1
ENDMDL
