MODEL 1
REMARK minimizedAffinity -2.53018999
REMARK minimizedRMSD -1
REMARK  1 active torsions:
REMARK  status: ('A' for Active; 'I' for Inactive)
REMARK    1  A    between atoms: C3_4  and  O_7 
ROOT
ATOM      1  C   UNL d   1       1.584  -1.823  -1.868  0.00  0.00    -0.033 A 
ATOM      2  C1  UNL d   1       1.919  -0.474  -1.737  0.00  0.00     0.039 A 
ATOM      3  C2  UNL d   1       1.208   0.341  -0.854  0.00  0.00    -0.080 A 
ATOM      4  C3  UNL d   1       0.167  -0.206  -0.107  0.00  0.00     0.150 A 
ATOM      5  C4  UNL d   1      -0.169  -1.550  -0.230  0.00  0.00    -0.007 A 
ATOM      6  C5  UNL d   1       0.542  -2.362  -1.114  0.00  0.00     0.039 A 
ENDROOT
BRANCH   4   7
ATOM      7  O   UNL d   1      -0.558   0.551   0.764  0.00  0.00    -0.526 OA
ATOM      8  H5  UNL d   1      -0.233   1.465   0.723  0.00  0.00     0.418 HD
ENDBRANCH   4   7
TORSDOF 1
ENDMDL
