MODEL 1
REMARK minimizedAffinity -3.65548968
REMARK minimizedRMSD -1
REMARK  1 active torsions:
REMARK  status: ('A' for Active; 'I' for Inactive)
REMARK    1  A    between atoms: C3_4  and  O_7 
ROOT
ATOM      1  C   UNL d   1       2.451  -0.607  -2.703  0.00  0.00    -0.033 A 
ATOM      2  C1  UNL d   1       2.183  -1.525  -1.686  0.00  0.00     0.039 A 
ATOM      3  C2  UNL d   1       1.197  -1.249  -0.736  0.00  0.00    -0.080 A 
ATOM      4  C3  UNL d   1       0.488  -0.054  -0.815  0.00  0.00     0.150 A 
ATOM      5  C4  UNL d   1       0.747   0.863  -1.829  0.00  0.00    -0.007 A 
ATOM      6  C5  UNL d   1       1.732   0.586  -2.776  0.00  0.00     0.039 A 
ENDROOT
BRANCH   4   7
ATOM      7  O   UNL d   1      -0.480   0.262   0.092  0.00  0.00    -0.526 OA
ATOM      8  H5  UNL d   1      -0.529  -0.451   0.750  0.00  0.00     0.418 HD
ENDBRANCH   4   7
TORSDOF 1
ENDMDL
