MODEL 1
REMARK minimizedAffinity 2.61236358
REMARK minimizedRMSD -1
REMARK  0 active torsions:
REMARK  status: ('A' for Active; 'I' for Inactive)
ROOT
ATOM      1  C   UNL d   1       0.449  -5.440  -4.875  0.00  0.00     0.023 A 
ATOM      2  C1  UNL d   1      -0.758  -6.000  -5.293  0.00  0.00     0.003 A 
ATOM      3  C2  UNL d   1      -1.864  -5.997  -4.440  0.00  0.00     0.048 A 
ATOM      4  C3  UNL d   1      -1.756  -5.431  -3.170  0.00  0.00     0.023 A 
ATOM      5  C4  UNL d   1      -0.550  -4.868  -2.747  0.00  0.00     0.048 A 
ATOM      6  C5  UNL d   1       0.553  -4.875  -3.603  0.00  0.00     0.003 A 
ATOM      7  I   UNL d   1      -3.400  -5.424  -1.899  0.00  0.00    -0.146 I 
ENDROOT
TORSDOF 0
ENDMDL
