MODEL 1
REMARK minimizedAffinity 3.45725656
REMARK minimizedRMSD -1
REMARK  0 active torsions:
REMARK  status: ('A' for Active; 'I' for Inactive)
ROOT
ATOM      1  C   UNL d   1       1.412  -2.631   2.299  0.00  0.00     0.023 A 
ATOM      2  C1  UNL d   1       2.065  -1.501   2.792  0.00  0.00     0.003 A 
ATOM      3  C2  UNL d   1       1.909  -0.269   2.153  0.00  0.00     0.048 A 
ATOM      4  C3  UNL d   1       1.099  -0.173   1.023  0.00  0.00     0.023 A 
ATOM      5  C4  UNL d   1       0.443  -1.301   0.526  0.00  0.00     0.048 A 
ATOM      6  C5  UNL d   1       0.602  -2.531   1.167  0.00  0.00     0.003 A 
ATOM      7  I   UNL d   1       0.865   1.659   0.071  0.00  0.00    -0.146 I 
ENDROOT
TORSDOF 0
ENDMDL
