MODEL 1
REMARK minimizedAffinity 4.15279722
REMARK minimizedRMSD -1
REMARK  0 active torsions:
REMARK  status: ('A' for Active; 'I' for Inactive)
ROOT
ATOM      1  C   UNL d   1      -5.718  -0.331  -0.431  0.00  0.00     0.023 A 
ATOM      2  C1  UNL d   1      -5.705   0.311  -1.669  0.00  0.00     0.003 A 
ATOM      3  C2  UNL d   1      -4.499   0.758  -2.212  0.00  0.00     0.048 A 
ATOM      4  C3  UNL d   1      -3.309   0.558  -1.513  0.00  0.00     0.023 A 
ATOM      5  C4  UNL d   1      -3.318  -0.086  -0.274  0.00  0.00     0.048 A 
ATOM      6  C5  UNL d   1      -4.526  -0.530   0.266  0.00  0.00     0.003 A 
ATOM      7  I   UNL d   1      -1.513   1.221  -2.320  0.00  0.00    -0.146 I 
ENDROOT
TORSDOF 0
ENDMDL
