MODEL 1
REMARK minimizedAffinity 3.39176369
REMARK minimizedRMSD -1
REMARK  0 active torsions:
REMARK  status: ('A' for Active; 'I' for Inactive)
ROOT
ATOM      1  C   UNL d   1       2.007   0.781  -0.468  0.00  0.00     0.023 A 
ATOM      2  C1  UNL d   1       3.102   0.160   0.132  0.00  0.00     0.003 A 
ATOM      3  C2  UNL d   1       2.923  -0.626   1.272  0.00  0.00     0.048 A 
ATOM      4  C3  UNL d   1       1.645  -0.788   1.806  0.00  0.00     0.023 A 
ATOM      5  C4  UNL d   1       0.545  -0.170   1.208  0.00  0.00     0.048 A 
ATOM      6  C5  UNL d   1       0.730   0.616   0.069  0.00  0.00     0.003 A 
ATOM      7  I   UNL d   1       1.375  -1.958   3.502  0.00  0.00    -0.146 I 
ENDROOT
TORSDOF 0
ENDMDL
