MODEL 1
REMARK minimizedAffinity 6.69955206
REMARK minimizedRMSD -1
REMARK  0 active torsions:
REMARK  status: ('A' for Active; 'I' for Inactive)
ROOT
ATOM      1  C   UNL d   1       2.405  -0.802   1.559  0.00  0.00     0.023 A 
ATOM      2  C1  UNL d   1       1.471  -1.519   2.307  0.00  0.00     0.003 A 
ATOM      3  C2  UNL d   1       0.107  -1.385   2.038  0.00  0.00     0.048 A 
ATOM      4  C3  UNL d   1      -0.316  -0.533   1.018  0.00  0.00     0.023 A 
ATOM      5  C4  UNL d   1       0.615   0.185   0.266  0.00  0.00     0.048 A 
ATOM      6  C5  UNL d   1       1.977   0.049   0.539  0.00  0.00     0.003 A 
ATOM      7  I   UNL d   1      -2.345  -0.332   0.615  0.00  0.00    -0.146 I 
ENDROOT
TORSDOF 0
ENDMDL
