MODEL 1
REMARK minimizedAffinity 3.66998315
REMARK minimizedRMSD -1
REMARK  0 active torsions:
REMARK  status: ('A' for Active; 'I' for Inactive)
ROOT
ATOM      1  C   UNL d   1      -4.246  -0.818   0.364  0.00  0.00     0.023 A 
ATOM      2  C1  UNL d   1      -3.892   0.391   0.964  0.00  0.00     0.003 A 
ATOM      3  C2  UNL d   1      -4.264   1.600   0.372  0.00  0.00     0.048 A 
ATOM      4  C3  UNL d   1      -4.990   1.594  -0.818  0.00  0.00     0.023 A 
ATOM      5  C4  UNL d   1      -5.347   0.387  -1.421  0.00  0.00     0.048 A 
ATOM      6  C5  UNL d   1      -4.973  -0.820  -0.827  0.00  0.00     0.003 A 
ATOM      7  I   UNL d   1      -5.544   3.392  -1.700  0.00  0.00    -0.146 I 
ENDROOT
TORSDOF 0
ENDMDL
