MODEL 1
REMARK minimizedAffinity 5.90324545
REMARK minimizedRMSD -1
REMARK  0 active torsions:
REMARK  status: ('A' for Active; 'I' for Inactive)
ROOT
ATOM      1  C   UNL d   1       1.730  -2.741   2.604  0.00  0.00     0.023 A 
ATOM      2  C1  UNL d   1       2.336  -1.537   2.963  0.00  0.00     0.003 A 
ATOM      3  C2  UNL d   1       2.050  -0.370   2.252  0.00  0.00     0.048 A 
ATOM      4  C3  UNL d   1       1.156  -0.414   1.183  0.00  0.00     0.023 A 
ATOM      5  C4  UNL d   1       0.546  -1.616   0.820  0.00  0.00     0.048 A 
ATOM      6  C5  UNL d   1       0.836  -2.780   1.534  0.00  0.00     0.003 A 
ATOM      7  I   UNL d   1       0.728   1.322   0.122  0.00  0.00    -0.146 I 
ENDROOT
TORSDOF 0
ENDMDL
