MODEL 1
REMARK minimizedAffinity 0.0519267544
REMARK minimizedRMSD -1
REMARK  0 active torsions:
REMARK  status: ('A' for Active; 'I' for Inactive)
ROOT
ATOM      1  C   UNL d   1       0.452  -5.994  -4.108  0.00  0.00     0.023 A 
ATOM      2  C1  UNL d   1       0.050  -5.995  -2.773  0.00  0.00     0.003 A 
ATOM      3  C2  UNL d   1      -1.309  -5.996  -2.451  0.00  0.00     0.048 A 
ATOM      4  C3  UNL d   1      -2.261  -5.998  -3.470  0.00  0.00     0.023 A 
ATOM      5  C4  UNL d   1      -1.863  -5.998  -4.808  0.00  0.00     0.048 A 
ATOM      6  C5  UNL d   1      -0.504  -5.996  -5.125  0.00  0.00     0.003 A 
ATOM      7  I   UNL d   1      -4.284  -6.000  -2.994  0.00  0.00    -0.146 I 
ENDROOT
TORSDOF 0
ENDMDL
