MODEL 1
REMARK minimizedAffinity -1.80419993
REMARK minimizedRMSD -1
REMARK  0 active torsions:
REMARK  status: ('A' for Active; 'I' for Inactive)
ROOT
ATOM      1  C   UNL d   1       1.119  -5.967  -4.939  0.00  0.00     0.023 A 
ATOM      2  C1  UNL d   1       0.944  -5.967  -3.555  0.00  0.00     0.003 A 
ATOM      3  C2  UNL d   1      -0.343  -5.975  -3.013  0.00  0.00     0.048 A 
ATOM      4  C3  UNL d   1      -1.450  -5.983  -3.861  0.00  0.00     0.023 A 
ATOM      5  C4  UNL d   1      -1.280  -5.984  -5.247  0.00  0.00     0.048 A 
ATOM      6  C5  UNL d   1       0.009  -5.975  -5.784  0.00  0.00     0.003 A 
ATOM      7  I   UNL d   1      -3.367  -5.995  -3.057  0.00  0.00    -0.146 I 
ENDROOT
TORSDOF 0
ENDMDL
