MODEL 1
REMARK minimizedAffinity 6.37846661
REMARK minimizedRMSD -1
REMARK  0 active torsions:
REMARK  status: ('A' for Active; 'I' for Inactive)
ROOT
ATOM      1  C   UNL d   1      -2.182  -5.999  -4.140  0.00  0.00     0.023 A 
ATOM      2  C1  UNL d   1      -1.562  -5.991  -5.390  0.00  0.00     0.003 A 
ATOM      3  C2  UNL d   1      -0.169  -5.983  -5.480  0.00  0.00     0.048 A 
ATOM      4  C3  UNL d   1       0.599  -5.983  -4.315  0.00  0.00     0.023 A 
ATOM      5  C4  UNL d   1      -0.017  -5.992  -3.063  0.00  0.00     0.048 A 
ATOM      6  C5  UNL d   1      -1.411  -6.000  -2.978  0.00  0.00     0.003 A 
ATOM      7  I   UNL d   1       2.673  -5.971  -4.446  0.00  0.00    -0.146 I 
ENDROOT
TORSDOF 0
ENDMDL
