MODEL 1
REMARK minimizedAffinity 0.388102382
REMARK minimizedRMSD -1
REMARK  0 active torsions:
REMARK  status: ('A' for Active; 'I' for Inactive)
ROOT
ATOM      1  C   UNL d   1      -2.049  -5.998  -1.862  0.00  0.00     0.023 A 
ATOM      2  C1  UNL d   1      -2.645  -5.999  -3.123  0.00  0.00     0.003 A 
ATOM      3  C2  UNL d   1      -1.851  -5.999  -4.272  0.00  0.00     0.048 A 
ATOM      4  C3  UNL d   1      -0.461  -5.999  -4.152  0.00  0.00     0.023 A 
ATOM      5  C4  UNL d   1       0.139  -5.999  -2.892  0.00  0.00     0.048 A 
ATOM      6  C5  UNL d   1      -0.659  -5.998  -1.746  0.00  0.00     0.003 A 
ATOM      7  I   UNL d   1       0.722  -6.000  -5.860  0.00  0.00    -0.146 I 
ENDROOT
TORSDOF 0
ENDMDL
