MODEL 1
REMARK minimizedAffinity -0.79149276
REMARK minimizedRMSD -1
REMARK  0 active torsions:
REMARK  status: ('A' for Active; 'I' for Inactive)
ROOT
ATOM      1  C   UNL d   1       0.733  -5.999  -5.499  0.00  0.00     0.023 A 
ATOM      2  C1  UNL d   1      -0.575  -5.999  -5.985  0.00  0.00     0.003 A 
ATOM      3  C2  UNL d   1      -1.651  -6.000  -5.095  0.00  0.00     0.048 A 
ATOM      4  C3  UNL d   1      -1.412  -5.999  -3.721  0.00  0.00     0.023 A 
ATOM      5  C4  UNL d   1      -0.105  -5.998  -3.231  0.00  0.00     0.048 A 
ATOM      6  C5  UNL d   1       0.968  -5.999  -4.124  0.00  0.00     0.003 A 
ATOM      7  I   UNL d   1      -3.012  -6.000  -2.395  0.00  0.00    -0.146 I 
ENDROOT
TORSDOF 0
ENDMDL
