MODEL 1
REMARK minimizedAffinity 1.23623919
REMARK minimizedRMSD -1
REMARK  0 active torsions:
REMARK  status: ('A' for Active; 'I' for Inactive)
ROOT
ATOM      1  C   UNL d   1       0.474  -5.911  -4.450  0.00  0.00     0.023 A 
ATOM      2  C1  UNL d   1       0.374  -5.940  -3.059  0.00  0.00     0.003 A 
ATOM      3  C2  UNL d   1      -0.881  -5.964  -2.447  0.00  0.00     0.048 A 
ATOM      4  C3  UNL d   1      -2.033  -5.960  -3.234  0.00  0.00     0.023 A 
ATOM      5  C4  UNL d   1      -1.938  -5.932  -4.626  0.00  0.00     0.048 A 
ATOM      6  C5  UNL d   1      -0.681  -5.907  -5.232  0.00  0.00     0.003 A 
ATOM      7  I   UNL d   1      -3.903  -5.997  -2.326  0.00  0.00    -0.146 I 
ENDROOT
TORSDOF 0
ENDMDL
