MODEL 1
REMARK minimizedAffinity 6.6543026
REMARK minimizedRMSD -1
REMARK  0 active torsions:
REMARK  status: ('A' for Active; 'I' for Inactive)
ROOT
ATOM      1  C   UNL d   1       2.037  -0.345   0.661  0.00  0.00     0.023 A 
ATOM      2  C1  UNL d   1       1.526  -1.637   0.779  0.00  0.00     0.003 A 
ATOM      3  C2  UNL d   1       0.145  -1.846   0.785  0.00  0.00     0.048 A 
ATOM      4  C3  UNL d   1      -0.718  -0.757   0.671  0.00  0.00     0.023 A 
ATOM      5  C4  UNL d   1      -0.211   0.538   0.551  0.00  0.00     0.048 A 
ATOM      6  C5  UNL d   1       1.170   0.741   0.547  0.00  0.00     0.003 A 
ATOM      7  I   UNL d   1      -2.774  -1.064   0.679  0.00  0.00    -0.146 I 
ENDROOT
TORSDOF 0
ENDMDL
