MODEL 1
REMARK minimizedAffinity 5.51229429
REMARK minimizedRMSD -1
REMARK  0 active torsions:
REMARK  status: ('A' for Active; 'I' for Inactive)
ROOT
ATOM      1  C   UNL d   1      -5.916   0.612  -1.914  0.00  0.00     0.023 A 
ATOM      2  C1  UNL d   1      -5.425   1.117  -0.710  0.00  0.00     0.003 A 
ATOM      3  C2  UNL d   1      -4.366   0.476  -0.063  0.00  0.00     0.048 A 
ATOM      4  C3  UNL d   1      -3.802  -0.668  -0.626  0.00  0.00     0.023 A 
ATOM      5  C4  UNL d   1      -4.290  -1.176  -1.832  0.00  0.00     0.048 A 
ATOM      6  C5  UNL d   1      -5.349  -0.533  -2.474  0.00  0.00     0.003 A 
ATOM      7  I   UNL d   1      -2.226  -1.623   0.334  0.00  0.00    -0.146 I 
ENDROOT
TORSDOF 0
ENDMDL
