MODEL 1
REMARK minimizedAffinity 8.15589714
REMARK minimizedRMSD -1
REMARK  1 active torsions:
REMARK  status: ('A' for Active; 'I' for Inactive)
REMARK    1  A    between atoms: C1_2  and  C2_3 
ROOT
ATOM      1  C2  UNL d   1      -0.691  -5.860  -3.243  0.00  0.00    -0.077 A 
ATOM      2  C3  UNL d   1       0.365  -5.644  -4.140  0.00  0.00     0.002 A 
ATOM      3  C4  UNL d   1       0.120  -5.570  -5.513  0.00  0.00     0.002 A 
ATOM      4  C5  UNL d   1      -1.178  -5.707  -5.999  0.00  0.00    -0.004 A 
ATOM      5  C6  UNL d   1      -2.234  -5.924  -5.115  0.00  0.00     0.002 A 
ATOM      6  C7  UNL d   1      -1.991  -6.000  -3.743  0.00  0.00     0.002 A 
ENDROOT
BRANCH   1   7
ATOM      7  C1  UNL d   1      -0.436  -5.891  -1.758  0.00  0.00     0.055 C 
ATOM      8  C   UNL d   1      -1.737  -5.999  -0.976  0.00  0.00     0.019 C 
ENDBRANCH   1   7
TORSDOF 1
ENDMDL
