MODEL 1
REMARK minimizedAffinity -3.53943801
REMARK minimizedRMSD -1
REMARK  1 active torsions:
REMARK  status: ('A' for Active; 'I' for Inactive)
REMARK    1  A    between atoms: C1_2  and  C2_3 
ROOT
ATOM      1  C2  UNL d   1      -2.369  -5.707  -3.464  0.00  0.00    -0.077 A 
ATOM      2  C3  UNL d   1      -1.266  -5.880  -2.617  0.00  0.00     0.002 A 
ATOM      3  C4  UNL d   1       0.020  -6.000  -3.148  0.00  0.00     0.002 A 
ATOM      4  C5  UNL d   1       0.215  -5.944  -4.526  0.00  0.00    -0.004 A 
ATOM      5  C6  UNL d   1      -0.876  -5.774  -5.377  0.00  0.00     0.002 A 
ATOM      6  C7  UNL d   1      -2.162  -5.655  -4.849  0.00  0.00     0.002 A 
ENDROOT
BRANCH   1   7
ATOM      7  C1  UNL d   1      -3.751  -5.529  -2.892  0.00  0.00     0.055 C 
ATOM      8  C   UNL d   1      -3.810  -5.979  -1.439  0.00  0.00     0.019 C 
ENDBRANCH   1   7
TORSDOF 1
ENDMDL
