MODEL 1
REMARK minimizedAffinity -1.96005476
REMARK minimizedRMSD -1
REMARK  1 active torsions:
REMARK  status: ('A' for Active; 'I' for Inactive)
REMARK    1  A    between atoms: C1_2  and  C2_3 
ROOT
ATOM      1  C2  UNL d   1      -0.540  -5.834  -4.639  0.00  0.00    -0.077 A 
ATOM      2  C3  UNL d   1      -1.925  -5.661  -4.506  0.00  0.00     0.002 A 
ATOM      3  C4  UNL d   1      -2.518  -5.657  -3.243  0.00  0.00     0.002 A 
ATOM      4  C5  UNL d   1      -1.734  -5.820  -2.102  0.00  0.00    -0.004 A 
ATOM      5  C6  UNL d   1      -0.356  -5.994  -2.224  0.00  0.00     0.002 A 
ATOM      6  C7  UNL d   1       0.239  -6.000  -3.486  0.00  0.00     0.002 A 
ENDROOT
BRANCH   1   7
ATOM      7  C1  UNL d   1       0.109  -5.790  -5.998  0.00  0.00     0.055 C 
ATOM      8  C   UNL d   1       1.613  -5.996  -5.901  0.00  0.00     0.019 C 
ENDBRANCH   1   7
TORSDOF 1
ENDMDL
