MODEL 1
REMARK minimizedAffinity -1.65913606
REMARK minimizedRMSD -1
REMARK  1 active torsions:
REMARK  status: ('A' for Active; 'I' for Inactive)
REMARK    1  A    between atoms: C1_2  and  C2_3 
ROOT
ATOM      1  C2  UNL d   1      -1.859  -5.187  -3.478  0.00  0.00    -0.077 A 
ATOM      2  C3  UNL d   1      -1.543  -5.187  -4.844  0.00  0.00     0.002 A 
ATOM      3  C4  UNL d   1      -0.277  -5.589  -5.276  0.00  0.00     0.002 A 
ATOM      4  C5  UNL d   1       0.680  -5.998  -4.350  0.00  0.00    -0.004 A 
ATOM      5  C6  UNL d   1       0.376  -6.000  -2.989  0.00  0.00     0.002 A 
ATOM      6  C7  UNL d   1      -0.888  -5.597  -2.555  0.00  0.00     0.002 A 
ENDROOT
BRANCH   1   7
ATOM      7  C1  UNL d   1      -3.239  -4.800  -3.014  0.00  0.00     0.055 C 
ATOM      8  C   UNL d   1      -4.175  -6.000  -3.003  0.00  0.00     0.019 C 
ENDBRANCH   1   7
TORSDOF 1
ENDMDL
