MODEL 1
REMARK minimizedAffinity 0.235953853
REMARK minimizedRMSD -1
REMARK  1 active torsions:
REMARK  status: ('A' for Active; 'I' for Inactive)
REMARK    1  A    between atoms: C1_2  and  C2_3 
ROOT
ATOM      1  C2  UNL d   1      -1.198  -5.254  -3.870  0.00  0.00    -0.077 A 
ATOM      2  C3  UNL d   1      -0.177  -5.627  -2.986  0.00  0.00     0.002 A 
ATOM      3  C4  UNL d   1       1.078  -6.000  -3.472  0.00  0.00     0.002 A 
ATOM      4  C5  UNL d   1       1.323  -6.000  -4.844  0.00  0.00    -0.004 A 
ATOM      5  C6  UNL d   1       0.313  -5.633  -5.732  0.00  0.00     0.002 A 
ATOM      6  C7  UNL d   1      -0.942  -5.261  -5.247  0.00  0.00     0.002 A 
ENDROOT
BRANCH   1   7
ATOM      7  C1  UNL d   1      -2.537  -4.804  -3.345  0.00  0.00     0.055 C 
ATOM      8  C   UNL d   1      -3.250  -5.930  -2.611  0.00  0.00     0.019 C 
ENDBRANCH   1   7
TORSDOF 1
ENDMDL
