MODEL 1
REMARK minimizedAffinity -0.443590164
REMARK minimizedRMSD -1
REMARK  1 active torsions:
REMARK  status: ('A' for Active; 'I' for Inactive)
REMARK    1  A    between atoms: C1_2  and  C2_3 
ROOT
ATOM      1  C2  UNL d   1       0.010   2.472  -1.126  0.00  0.00    -0.077 A 
ATOM      2  C3  UNL d   1      -0.779   3.614  -1.329  0.00  0.00     0.002 A 
ATOM      3  C4  UNL d   1      -1.099   4.030  -2.623  0.00  0.00     0.002 A 
ATOM      4  C5  UNL d   1      -0.638   3.309  -3.722  0.00  0.00    -0.004 A 
ATOM      5  C6  UNL d   1       0.149   2.174  -3.531  0.00  0.00     0.002 A 
ATOM      6  C7  UNL d   1       0.471   1.757  -2.238  0.00  0.00     0.002 A 
ENDROOT
BRANCH   1   7
ATOM      7  C1  UNL d   1       0.315   1.994   0.270  0.00  0.00     0.055 C 
ATOM      8  C   UNL d   1       0.811   0.555   0.265  0.00  0.00     0.019 C 
ENDBRANCH   1   7
TORSDOF 1
ENDMDL
