MODEL 1
REMARK minimizedAffinity -1.10609448
REMARK minimizedRMSD -1
REMARK  1 active torsions:
REMARK  status: ('A' for Active; 'I' for Inactive)
REMARK    1  A    between atoms: C1_2  and  C2_3 
ROOT
ATOM      1  C2  UNL d   1      -0.630  -5.966  -3.365  0.00  0.00    -0.077 A 
ATOM      2  C3  UNL d   1      -1.518  -5.976  -4.450  0.00  0.00     0.002 A 
ATOM      3  C4  UNL d   1      -1.034  -5.991  -5.759  0.00  0.00     0.002 A 
ATOM      4  C5  UNL d   1       0.339  -6.000  -5.996  0.00  0.00    -0.004 A 
ATOM      5  C6  UNL d   1       1.231  -5.988  -4.924  0.00  0.00     0.002 A 
ATOM      6  C7  UNL d   1       0.748  -5.972  -3.614  0.00  0.00     0.002 A 
ENDROOT
BRANCH   1   7
ATOM      7  C1  UNL d   1      -1.151  -6.000  -1.952  0.00  0.00     0.055 C 
ATOM      8  C   UNL d   1      -2.672  -5.973  -1.921  0.00  0.00     0.019 C 
ENDBRANCH   1   7
TORSDOF 1
ENDMDL
