MODEL 1
REMARK minimizedAffinity 2.97396016
REMARK minimizedRMSD -1
REMARK  1 active torsions:
REMARK  status: ('A' for Active; 'I' for Inactive)
REMARK    1  A    between atoms: C1_2  and  C2_3 
ROOT
ATOM      1  C2  UNL d   1      -2.627  -5.954  -3.701  0.00  0.00    -0.077 A 
ATOM      2  C3  UNL d   1      -2.892  -5.950  -5.078  0.00  0.00     0.002 A 
ATOM      3  C4  UNL d   1      -1.842  -5.956  -5.999  0.00  0.00     0.002 A 
ATOM      4  C5  UNL d   1      -0.522  -5.972  -5.553  0.00  0.00    -0.004 A 
ATOM      5  C6  UNL d   1      -0.249  -5.974  -4.186  0.00  0.00     0.002 A 
ATOM      6  C7  UNL d   1      -1.297  -5.966  -3.264  0.00  0.00     0.002 A 
ENDROOT
BRANCH   1   7
ATOM      7  C1  UNL d   1      -3.758  -5.997  -2.707  0.00  0.00     0.055 C 
ATOM      8  C   UNL d   1      -3.238  -5.999  -1.277  0.00  0.00     0.019 C 
ENDBRANCH   1   7
TORSDOF 1
ENDMDL
