MODEL 1
REMARK minimizedAffinity -2.37961674
REMARK minimizedRMSD -1
REMARK  1 active torsions:
REMARK  status: ('A' for Active; 'I' for Inactive)
REMARK    1  A    between atoms: C1_2  and  C2_3 
ROOT
ATOM      1  C2  UNL d   1      -1.961  -5.714  -3.244  0.00  0.00    -0.077 A 
ATOM      2  C3  UNL d   1      -0.889  -5.701  -4.148  0.00  0.00     0.002 A 
ATOM      3  C4  UNL d   1      -1.121  -5.822  -5.519  0.00  0.00     0.002 A 
ATOM      4  C5  UNL d   1      -2.422  -5.954  -5.999  0.00  0.00    -0.004 A 
ATOM      5  C6  UNL d   1      -3.494  -5.971  -5.108  0.00  0.00     0.002 A 
ATOM      6  C7  UNL d   1      -3.265  -5.851  -3.737  0.00  0.00     0.002 A 
ENDROOT
BRANCH   1   7
ATOM      7  C1  UNL d   1      -1.718  -5.534  -1.768  0.00  0.00     0.055 C 
ATOM      8  C   UNL d   1      -0.323  -6.000  -1.376  0.00  0.00     0.019 C 
ENDBRANCH   1   7
TORSDOF 1
ENDMDL
