MODEL 1
REMARK minimizedAffinity 0.0638797656
REMARK minimizedRMSD -1
REMARK  1 active torsions:
REMARK  status: ('A' for Active; 'I' for Inactive)
REMARK    1  A    between atoms: C1_2  and  C2_3 
ROOT
ATOM      1  C2  UNL d   1      -1.168  -5.999  -3.160  0.00  0.00    -0.077 A 
ATOM      2  C3  UNL d   1       0.016  -5.954  -3.909  0.00  0.00     0.002 A 
ATOM      3  C4  UNL d   1      -0.032  -5.908  -5.304  0.00  0.00     0.002 A 
ATOM      4  C5  UNL d   1      -1.261  -5.902  -5.960  0.00  0.00    -0.004 A 
ATOM      5  C6  UNL d   1      -2.444  -5.949  -5.224  0.00  0.00     0.002 A 
ATOM      6  C7  UNL d   1      -2.398  -5.997  -3.830  0.00  0.00     0.002 A 
ENDROOT
BRANCH   1   7
ATOM      7  C1  UNL d   1      -1.120  -5.999  -1.654  0.00  0.00     0.055 C 
ATOM      8  C   UNL d   1      -0.766  -4.622  -1.112  0.00  0.00     0.019 C 
ENDBRANCH   1   7
TORSDOF 1
ENDMDL
