MODEL 1
REMARK minimizedAffinity -3.88653159
REMARK minimizedRMSD -1
REMARK  0 active torsions:
REMARK  status: ('A' for Active; 'I' for Inactive)
ROOT
ATOM      1  C1  DEN d   1       0.945   1.112   0.339  0.00  0.00     0.130 A 
ATOM      2  C2  DEN d   1      -0.445   1.464   0.059  0.00  0.00    -0.031 A 
ATOM      3  C3  DEN d   1      -1.115   0.271  -0.496  0.00  0.00     0.027 A 
ATOM      4  C4  DEN d   1      -0.142  -2.076  -0.941  0.00  0.00     0.027 A 
ATOM      5  C5  DEN d   1       0.995  -2.851  -0.875  0.00  0.00    -0.003 A 
ATOM      6  C6  DEN d   1       2.193  -2.354  -0.434  0.00  0.00     0.001 A 
ATOM      7  C7  DEN d   1       2.271  -1.057  -0.001  0.00  0.00     0.017 A 
ATOM      8  C8  DEN d   1       1.131  -0.267  -0.072  0.00  0.00    -0.094 A 
ATOM      9  C9  DEN d   1      -0.073  -0.792  -0.509  0.00  0.00    -0.072 A 
ENDROOT
TORSDOF 0
ENDMDL
