MODEL 1
REMARK minimizedAffinity -1.51376903
REMARK minimizedRMSD -1
REMARK  0 active torsions:
REMARK  status: ('A' for Active; 'I' for Inactive)
ROOT
ATOM      1  C1  DEN d   1      -0.699   0.045  -0.566  0.00  0.00     0.130 A 
ATOM      2  C2  DEN d   1      -1.581   0.426   0.533  0.00  0.00    -0.031 A 
ATOM      3  C3  DEN d   1      -0.882   0.137   1.801  0.00  0.00     0.027 A 
ATOM      4  C4  DEN d   1       1.471  -0.855   2.167  0.00  0.00     0.027 A 
ATOM      5  C5  DEN d   1       2.593  -1.346   1.536  0.00  0.00    -0.003 A 
ATOM      6  C6  DEN d   1       2.681  -1.440   0.172  0.00  0.00     0.001 A 
ATOM      7  C7  DEN d   1       1.647  -0.993  -0.608  0.00  0.00     0.017 A 
ATOM      8  C8  DEN d   1       0.510  -0.503   0.021  0.00  0.00    -0.094 A 
ATOM      9  C9  DEN d   1       0.445  -0.405   1.401  0.00  0.00    -0.072 A 
ENDROOT
TORSDOF 0
ENDMDL
