MODEL 1
REMARK minimizedAffinity -6.66583824
REMARK minimizedRMSD -1
REMARK  0 active torsions:
REMARK  status: ('A' for Active; 'I' for Inactive)
ROOT
ATOM      1  C1  DEN d   1      -0.128   1.060  -0.349  0.00  0.00     0.130 A 
ATOM      2  C2  DEN d   1      -1.044  -0.056  -0.569  0.00  0.00    -0.031 A 
ATOM      3  C3  DEN d   1      -0.318  -1.307  -0.272  0.00  0.00     0.027 A 
ATOM      4  C4  DEN d   1       2.120  -1.623   0.507  0.00  0.00     0.027 A 
ATOM      5  C5  DEN d   1       3.292  -0.971   0.821  0.00  0.00    -0.003 A 
ATOM      6  C6  DEN d   1       3.415   0.391   0.736  0.00  0.00     0.001 A 
ATOM      7  C7  DEN d   1       2.334   1.148   0.369  0.00  0.00     0.017 A 
ATOM      8  C8  DEN d   1       1.151   0.497   0.043  0.00  0.00    -0.094 A 
ATOM      9  C9  DEN d   1       1.043  -0.880   0.148  0.00  0.00    -0.072 A 
ENDROOT
TORSDOF 0
ENDMDL
