MODEL 1
REMARK minimizedAffinity -5.73549366
REMARK minimizedRMSD -1
REMARK  0 active torsions:
REMARK  status: ('A' for Active; 'I' for Inactive)
ROOT
ATOM      1  C1  DEN d   1      -0.023  -1.606  -1.066  0.00  0.00     0.130 A 
ATOM      2  C2  DEN d   1      -1.069  -0.597  -0.921  0.00  0.00    -0.031 A 
ATOM      3  C3  DEN d   1      -0.479   0.579  -0.251  0.00  0.00     0.027 A 
ATOM      4  C4  DEN d   1       1.941   0.935   0.569  0.00  0.00     0.027 A 
ATOM      5  C5  DEN d   1       3.186   0.356   0.677  0.00  0.00    -0.003 A 
ATOM      6  C6  DEN d   1       3.438  -0.919   0.247  0.00  0.00     0.001 A 
ATOM      7  C7  DEN d   1       2.442  -1.643  -0.354  0.00  0.00     0.017 A 
ATOM      8  C8  DEN d   1       1.182  -1.068  -0.460  0.00  0.00    -0.094 A 
ATOM      9  C9  DEN d   1       0.950   0.227  -0.030  0.00  0.00    -0.072 A 
ENDROOT
TORSDOF 0
ENDMDL
