MODEL 1
REMARK minimizedAffinity -2.92595124
REMARK minimizedRMSD -1
REMARK  0 active torsions:
REMARK  status: ('A' for Active; 'I' for Inactive)
ROOT
ATOM      1  C1  DEN d   1      -1.596  -0.650  -0.480  0.00  0.00     0.130 A 
ATOM      2  C2  DEN d   1      -2.129   0.660  -0.117  0.00  0.00    -0.031 A 
ATOM      3  C3  DEN d   1      -1.008   1.492   0.366  0.00  0.00     0.027 A 
ATOM      4  C4  DEN d   1       1.488   0.882   0.583  0.00  0.00     0.027 A 
ATOM      5  C5  DEN d   1       2.419  -0.118   0.408  0.00  0.00    -0.003 A 
ATOM      6  C6  DEN d   1       2.074  -1.366  -0.039  0.00  0.00     0.001 A 
ATOM      7  C7  DEN d   1       0.772  -1.633  -0.370  0.00  0.00     0.017 A 
ATOM      8  C8  DEN d   1      -0.173  -0.632  -0.189  0.00  0.00    -0.094 A 
ATOM      9  C9  DEN d   1       0.197   0.627   0.252  0.00  0.00    -0.072 A 
ENDROOT
TORSDOF 0
ENDMDL
