MODEL 1
REMARK minimizedAffinity -4.89400768
REMARK minimizedRMSD -1
REMARK  0 active torsions:
REMARK  status: ('A' for Active; 'I' for Inactive)
ROOT
ATOM      1  C1  DEN d   1       1.109   0.798  -0.965  0.00  0.00     0.130 A 
ATOM      2  C2  DEN d   1       0.026   0.440  -1.877  0.00  0.00    -0.031 A 
ATOM      3  C3  DEN d   1      -0.951  -0.375  -1.127  0.00  0.00     0.027 A 
ATOM      4  C4  DEN d   1      -0.894  -1.109   1.345  0.00  0.00     0.027 A 
ATOM      5  C5  DEN d   1      -0.169  -1.058   2.515  0.00  0.00    -0.003 A 
ATOM      6  C6  DEN d   1       1.040  -0.419   2.597  0.00  0.00     0.001 A 
ATOM      7  C7  DEN d   1       1.538   0.234   1.501  0.00  0.00     0.017 A 
ATOM      8  C8  DEN d   1       0.816   0.181   0.316  0.00  0.00    -0.094 A 
ATOM      9  C9  DEN d   1      -0.410  -0.460   0.256  0.00  0.00    -0.072 A 
ENDROOT
TORSDOF 0
ENDMDL
