MODEL 1
REMARK minimizedAffinity 6.77360535
REMARK minimizedRMSD -1
REMARK  0 active torsions:
REMARK  status: ('A' for Active; 'I' for Inactive)
ROOT
ATOM      1  C1  DEN d   1       2.814  -3.010  -0.595  0.00  0.00     0.130 A 
ATOM      2  C2  DEN d   1       1.526  -3.416  -0.040  0.00  0.00    -0.031 A 
ATOM      3  C3  DEN d   1       1.780  -4.404   1.028  0.00  0.00     0.027 A 
ATOM      4  C4  DEN d   1       4.031  -5.336   1.874  0.00  0.00     0.027 A 
ATOM      5  C5  DEN d   1       5.397  -5.299   1.702  0.00  0.00    -0.003 A 
ATOM      6  C6  DEN d   1       5.991  -4.528   0.738  0.00  0.00     0.001 A 
ATOM      7  C7  DEN d   1       5.219  -3.728  -0.062  0.00  0.00     0.017 A 
ATOM      8  C8  DEN d   1       3.840  -3.766   0.100  0.00  0.00    -0.094 A 
ATOM      9  C9  DEN d   1       3.260  -4.542   1.089  0.00  0.00    -0.072 A 
ENDROOT
TORSDOF 0
ENDMDL
