MODEL 1
REMARK minimizedAffinity -7.34816074
REMARK minimizedRMSD -1
REMARK  0 active torsions:
REMARK  status: ('A' for Active; 'I' for Inactive)
ROOT
ATOM      1  C1  DEN d   1      -2.480  -1.119  -3.192  0.00  0.00     0.130 A 
ATOM      2  C2  DEN d   1      -3.062  -2.044  -4.160  0.00  0.00    -0.031 A 
ATOM      3  C3  DEN d   1      -4.133  -1.332  -4.886  0.00  0.00     0.027 A 
ATOM      4  C4  DEN d   1      -4.939   1.102  -4.609  0.00  0.00     0.027 A 
ATOM      5  C5  DEN d   1      -4.757   2.272  -3.905  0.00  0.00    -0.003 A 
ATOM      6  C6  DEN d   1      -3.834   2.382  -2.899  0.00  0.00     0.001 A 
ATOM      7  C7  DEN d   1      -3.026   1.317  -2.599  0.00  0.00     0.017 A 
ATOM      8  C8  DEN d   1      -3.209   0.132  -3.300  0.00  0.00    -0.094 A 
ATOM      9  C9  DEN d   1      -4.139   0.044  -4.321  0.00  0.00    -0.072 A 
ENDROOT
TORSDOF 0
ENDMDL
