MODEL 1
REMARK minimizedAffinity 4.21900845
REMARK minimizedRMSD -1
REMARK  0 active torsions:
REMARK  status: ('A' for Active; 'I' for Inactive)
ROOT
ATOM      1  C1  DEN d   1       3.128   0.959  -0.035  0.00  0.00     0.130 A 
ATOM      2  C2  DEN d   1       3.127   2.166   0.787  0.00  0.00    -0.031 A 
ATOM      3  C3  DEN d   1       2.312   1.899   1.989  0.00  0.00     0.027 A 
ATOM      4  C4  DEN d   1       1.064  -0.257   2.657  0.00  0.00     0.027 A 
ATOM      5  C5  DEN d   1       0.762  -1.545   2.272  0.00  0.00    -0.003 A 
ATOM      6  C6  DEN d   1       1.197  -2.072   1.085  0.00  0.00     0.001 A 
ATOM      7  C7  DEN d   1       1.995  -1.324   0.261  0.00  0.00     0.017 A 
ATOM      8  C8  DEN d   1       2.297  -0.022   0.639  0.00  0.00    -0.094 A 
ATOM      9  C9  DEN d   1       1.858   0.489   1.848  0.00  0.00    -0.072 A 
ENDROOT
TORSDOF 0
ENDMDL
