MODEL 1
REMARK minimizedAffinity -6.53784847
REMARK minimizedRMSD -1
REMARK  0 active torsions:
REMARK  status: ('A' for Active; 'I' for Inactive)
ROOT
ATOM      1  C1  DEN d   1      -1.780  -0.900  -3.065  0.00  0.00     0.130 A 
ATOM      2  C2  DEN d   1      -1.920   0.483  -2.618  0.00  0.00    -0.031 A 
ATOM      3  C3  DEN d   1      -2.998   1.111  -3.408  0.00  0.00     0.027 A 
ATOM      4  C4  DEN d   1      -4.460   0.079  -5.266  0.00  0.00     0.027 A 
ATOM      5  C5  DEN d   1      -4.703  -1.061  -6.000  0.00  0.00    -0.003 A 
ATOM      6  C6  DEN d   1      -3.972  -2.207  -5.833  0.00  0.00     0.001 A 
ATOM      7  C7  DEN d   1      -2.991  -2.253  -4.877  0.00  0.00     0.017 A 
ATOM      8  C8  DEN d   1      -2.736  -1.106  -4.138  0.00  0.00    -0.094 A 
ATOM      9  C9  DEN d   1      -3.494   0.039  -4.313  0.00  0.00    -0.072 A 
ENDROOT
TORSDOF 0
ENDMDL
