MODEL 1
REMARK minimizedAffinity 0.297571033
REMARK minimizedRMSD -1
REMARK  0 active torsions:
REMARK  status: ('A' for Active; 'I' for Inactive)
ROOT
ATOM      1  C1  DEN d   1       3.344  -4.751   2.382  0.00  0.00     0.130 A 
ATOM      2  C2  DEN d   1       3.022  -3.374   2.017  0.00  0.00    -0.031 A 
ATOM      3  C3  DEN d   1       3.533  -2.488   3.082  0.00  0.00     0.027 A 
ATOM      4  C4  DEN d   1       4.789  -3.111   5.247  0.00  0.00     0.027 A 
ATOM      5  C5  DEN d   1       5.282  -4.156   5.998  0.00  0.00    -0.003 A 
ATOM      6  C6  DEN d   1       5.135  -5.463   5.616  0.00  0.00     0.001 A 
ATOM      7  C7  DEN d   1       4.518  -5.758   4.429  0.00  0.00     0.017 A 
ATOM      8  C8  DEN d   1       4.012  -4.711   3.670  0.00  0.00    -0.094 A 
ATOM      9  C9  DEN d   1       4.181  -3.395   4.067  0.00  0.00    -0.072 A 
ENDROOT
TORSDOF 0
ENDMDL
