MODEL 1
REMARK minimizedAffinity 4.13254309
REMARK minimizedRMSD -1
REMARK  0 active torsions:
REMARK  status: ('A' for Active; 'I' for Inactive)
ROOT
ATOM      1  C1  DEN d   1      -4.503   2.073  -4.038  0.00  0.00     0.130 A 
ATOM      2  C2  DEN d   1      -3.859   2.610  -5.233  0.00  0.00    -0.031 A 
ATOM      3  C3  DEN d   1      -3.118   1.511  -5.885  0.00  0.00     0.027 A 
ATOM      4  C4  DEN d   1      -2.911  -0.957  -5.165  0.00  0.00     0.027 A 
ATOM      5  C5  DEN d   1      -3.272  -1.882  -4.211  0.00  0.00    -0.003 A 
ATOM      6  C6  DEN d   1      -4.035  -1.549  -3.123  0.00  0.00     0.001 A 
ATOM      7  C7  DEN d   1      -4.499  -0.268  -2.986  0.00  0.00     0.017 A 
ATOM      8  C8  DEN d   1      -4.133   0.672  -3.940  0.00  0.00    -0.094 A 
ATOM      9  C9  DEN d   1      -3.371   0.313  -5.040  0.00  0.00    -0.072 A 
ENDROOT
TORSDOF 0
ENDMDL
