MODEL 1
REMARK minimizedAffinity -0.456547737
REMARK minimizedRMSD -1
REMARK  0 active torsions:
REMARK  status: ('A' for Active; 'I' for Inactive)
ROOT
ATOM      1  C1  DEN d   1       1.360   5.966   3.702  0.00  0.00     0.130 A 
ATOM      2  C2  DEN d   1       0.823   5.911   5.058  0.00  0.00    -0.031 A 
ATOM      3  C3  DEN d   1       1.961   5.898   6.000  0.00  0.00     0.027 A 
ATOM      4  C4  DEN d   1       4.488   5.961   5.491  0.00  0.00     0.027 A 
ATOM      5  C5  DEN d   1       5.431   5.999   4.488  0.00  0.00    -0.003 A 
ATOM      6  C6  DEN d   1       5.086   5.995   3.162  0.00  0.00     0.001 A 
ATOM      7  C7  DEN d   1       3.764   5.997   2.804  0.00  0.00     0.017 A 
ATOM      8  C8  DEN d   1       2.808   5.951   3.811  0.00  0.00    -0.094 A 
ATOM      9  C9  DEN d   1       3.176   5.968   5.145  0.00  0.00    -0.072 A 
ENDROOT
TORSDOF 0
ENDMDL
