MODEL 1
REMARK minimizedAffinity -1.96564138
REMARK minimizedRMSD -1
REMARK  1 active torsions:
REMARK  status: ('A' for Active; 'I' for Inactive)
REMARK    1  A    between atoms: C3_4  and  O_7 
ROOT
ATOM      1  C   UNL d   1      -1.432   0.250   0.496  0.00  0.00    -0.033 A 
ATOM      2  C1  UNL d   1      -0.859  -0.642  -0.413  0.00  0.00     0.039 A 
ATOM      3  C2  UNL d   1       0.529  -0.768  -0.491  0.00  0.00    -0.080 A 
ATOM      4  C3  UNL d   1       1.332   0.002   0.347  0.00  0.00     0.150 A 
ATOM      5  C4  UNL d   1       0.769   0.889   1.258  0.00  0.00    -0.007 A 
ATOM      6  C5  UNL d   1      -0.618   1.014   1.333  0.00  0.00     0.039 A 
ENDROOT
BRANCH   4   7
ATOM      7  O   UNL d   1       2.692  -0.083   0.304  0.00  0.00    -0.526 OA
ATOM      8  H5  UNL d   1       2.940  -0.714  -0.392  0.00  0.00     0.418 HD
ENDBRANCH   4   7
TORSDOF 1
ENDMDL
