MODEL 1
REMARK minimizedAffinity -3.91147566
REMARK minimizedRMSD -1
REMARK  1 active torsions:
REMARK  status: ('A' for Active; 'I' for Inactive)
REMARK    1  A    between atoms: C3_4  and  O_7 
ROOT
ATOM      1  C   UNL d   1       1.328  -0.773  -0.105  0.00  0.00    -0.033 A 
ATOM      2  C1  UNL d   1       1.805  -0.635   1.200  0.00  0.00     0.039 A 
ATOM      3  C2  UNL d   1       0.982  -0.101   2.194  0.00  0.00    -0.080 A 
ATOM      4  C3  UNL d   1      -0.314   0.290   1.870  0.00  0.00     0.150 A 
ATOM      5  C4  UNL d   1      -0.798   0.151   0.574  0.00  0.00    -0.007 A 
ATOM      6  C5  UNL d   1       0.026  -0.381  -0.418  0.00  0.00     0.039 A 
ENDROOT
BRANCH   4   7
ATOM      7  O   UNL d   1      -1.153   0.820   2.805  0.00  0.00    -0.526 OA
ATOM      8  H5  UNL d   1      -0.674   0.882   3.649  0.00  0.00     0.418 HD
ENDBRANCH   4   7
TORSDOF 1
ENDMDL
