MODEL 1
REMARK minimizedAffinity -4.90097904
REMARK minimizedRMSD -1
REMARK  1 active torsions:
REMARK  status: ('A' for Active; 'I' for Inactive)
REMARK    1  A    between atoms: C3_4  and  O_7 
ROOT
ATOM      1  C   UNL d   1       0.302   0.537   2.739  0.00  0.00    -0.033 A 
ATOM      2  C1  UNL d   1       1.553   0.259   2.184  0.00  0.00     0.039 A 
ATOM      3  C2  UNL d   1       1.663  -0.060   0.829  0.00  0.00    -0.080 A 
ATOM      4  C3  UNL d   1       0.516  -0.097   0.041  0.00  0.00     0.150 A 
ATOM      5  C4  UNL d   1      -0.733   0.183   0.586  0.00  0.00    -0.007 A 
ATOM      6  C5  UNL d   1      -0.841   0.500   1.939  0.00  0.00     0.039 A 
ENDROOT
BRANCH   4   7
ATOM      7  O   UNL d   1       0.573  -0.408  -1.285  0.00  0.00    -0.526 OA
ATOM      8  H5  UNL d   1       1.496  -0.605  -1.516  0.00  0.00     0.418 HD
ENDBRANCH   4   7
TORSDOF 1
ENDMDL
