MODEL 1
REMARK minimizedAffinity -5.4315877
REMARK minimizedRMSD -1
REMARK  1 active torsions:
REMARK  status: ('A' for Active; 'I' for Inactive)
REMARK    1  A    between atoms: C3_4  and  O_7 
ROOT
ATOM      1  C   UNL d   1       2.181  -0.017   1.040  0.00  0.00    -0.033 A 
ATOM      2  C1  UNL d   1       0.953   0.199   0.411  0.00  0.00     0.039 A 
ATOM      3  C2  UNL d   1      -0.145   0.639   1.153  0.00  0.00    -0.080 A 
ATOM      4  C3  UNL d   1      -0.002   0.860   2.520  0.00  0.00     0.150 A 
ATOM      5  C4  UNL d   1       1.219   0.650   3.152  0.00  0.00    -0.007 A 
ATOM      6  C5  UNL d   1       2.314   0.210   2.410  0.00  0.00     0.039 A 
ENDROOT
BRANCH   4   7
ATOM      7  O   UNL d   1      -1.046   1.285   3.286  0.00  0.00    -0.526 OA
ATOM      8  H5  UNL d   1      -1.833   1.359   2.720  0.00  0.00     0.418 HD
ENDBRANCH   4   7
TORSDOF 1
ENDMDL
