MODEL 1
REMARK minimizedAffinity -3.42651916
REMARK minimizedRMSD -1
REMARK  1 active torsions:
REMARK  status: ('A' for Active; 'I' for Inactive)
REMARK    1  A    between atoms: C3_4  and  O_7 
ROOT
ATOM      1  C   UNL d   1       0.532  -0.521   0.289  0.00  0.00    -0.033 A 
ATOM      2  C1  UNL d   1      -0.030   0.467  -0.522  0.00  0.00     0.039 A 
ATOM      3  C2  UNL d   1       0.581   0.814  -1.728  0.00  0.00    -0.080 A 
ATOM      4  C3  UNL d   1       1.751   0.166  -2.113  0.00  0.00     0.150 A 
ATOM      5  C4  UNL d   1       2.314  -0.823  -1.312  0.00  0.00    -0.007 A 
ATOM      6  C5  UNL d   1       1.703  -1.167  -0.107  0.00  0.00     0.039 A 
ENDROOT
BRANCH   4   7
ATOM      7  O   UNL d   1       2.386   0.473  -3.279  0.00  0.00    -0.526 OA
ATOM      8  H5  UNL d   1       1.900   1.193  -3.714  0.00  0.00     0.418 HD
ENDBRANCH   4   7
TORSDOF 1
ENDMDL
