MODEL 1
REMARK minimizedAffinity -3.50110507
REMARK minimizedRMSD -1
REMARK  1 active torsions:
REMARK  status: ('A' for Active; 'I' for Inactive)
REMARK    1  A    between atoms: C3_4  and  O_7 
ROOT
ATOM      1  C   UNL d   1      -2.654   0.393   1.280  0.00  0.00    -0.033 A 
ATOM      2  C1  UNL d   1      -2.393  -0.584   0.317  0.00  0.00     0.039 A 
ATOM      3  C2  UNL d   1      -1.086  -0.803  -0.121  0.00  0.00    -0.080 A 
ATOM      4  C3  UNL d   1      -0.050  -0.041   0.411  0.00  0.00     0.150 A 
ATOM      5  C4  UNL d   1      -0.302   0.931   1.373  0.00  0.00    -0.007 A 
ATOM      6  C5  UNL d   1      -1.608   1.149   1.809  0.00  0.00     0.039 A 
ENDROOT
BRANCH   4   7
ATOM      7  O   UNL d   1       1.242  -0.216   0.011  0.00  0.00    -0.526 OA
ATOM      8  H5  UNL d   1       1.260  -0.900  -0.679  0.00  0.00     0.418 HD
ENDBRANCH   4   7
TORSDOF 1
ENDMDL
