MODEL 1
REMARK minimizedAffinity -3.69097829
REMARK minimizedRMSD -1
REMARK  1 active torsions:
REMARK  status: ('A' for Active; 'I' for Inactive)
REMARK    1  A    between atoms: C3_4  and  O_7 
ROOT
ATOM      1  C   UNL d   1       1.023  -0.971  -0.506  0.00  0.00    -0.033 A 
ATOM      2  C1  UNL d   1       1.423  -0.611   0.782  0.00  0.00     0.039 A 
ATOM      3  C2  UNL d   1       0.493  -0.089   1.684  0.00  0.00    -0.080 A 
ATOM      4  C3  UNL d   1      -0.832   0.066   1.285  0.00  0.00     0.150 A 
ATOM      5  C4  UNL d   1      -1.238  -0.294   0.005  0.00  0.00    -0.007 A 
ATOM      6  C5  UNL d   1      -0.308  -0.814  -0.894  0.00  0.00     0.039 A 
ENDROOT
BRANCH   4   7
ATOM      7  O   UNL d   1      -1.774   0.575   2.129  0.00  0.00    -0.526 OA
ATOM      8  H5  UNL d   1      -1.343   0.806   2.968  0.00  0.00     0.418 HD
ENDBRANCH   4   7
TORSDOF 1
ENDMDL
