MODEL 1
REMARK minimizedAffinity -3.02551079
REMARK minimizedRMSD -1
REMARK  1 active torsions:
REMARK  status: ('A' for Active; 'I' for Inactive)
REMARK    1  A    between atoms: C3_4  and  O_7 
ROOT
ATOM      1  C   UNL d   1      -2.063  -0.046   2.614  0.00  0.00    -0.033 A 
ATOM      2  C1  UNL d   1      -0.884  -0.426   3.258  0.00  0.00     0.039 A 
ATOM      3  C2  UNL d   1       0.247  -0.759   2.509  0.00  0.00    -0.080 A 
ATOM      4  C3  UNL d   1       0.185  -0.707   1.120  0.00  0.00     0.150 A 
ATOM      5  C4  UNL d   1      -0.985  -0.325   0.471  0.00  0.00    -0.007 A 
ATOM      6  C5  UNL d   1      -2.113   0.006   1.221  0.00  0.00     0.039 A 
ENDROOT
BRANCH   4   7
ATOM      7  O   UNL d   1       1.261  -1.028   0.346  0.00  0.00    -0.526 OA
ATOM      8  H5  UNL d   1       1.989  -1.300   0.930  0.00  0.00     0.418 HD
ENDBRANCH   4   7
TORSDOF 1
ENDMDL
