MODEL 1
REMARK minimizedAffinity -0.848055243
REMARK minimizedRMSD -1
REMARK  1 active torsions:
REMARK  status: ('A' for Active; 'I' for Inactive)
REMARK    1  A    between atoms: C3_4  and  O_7 
ROOT
ATOM      1  C   UNL d   1      -1.343   0.399   3.574  0.00  0.00    -0.033 A 
ATOM      2  C1  UNL d   1       0.032   0.408   3.817  0.00  0.00     0.039 A 
ATOM      3  C2  UNL d   1       0.928   0.153   2.777  0.00  0.00    -0.080 A 
ATOM      4  C3  UNL d   1       0.437  -0.108   1.500  0.00  0.00     0.150 A 
ATOM      5  C4  UNL d   1      -0.931  -0.114   1.250  0.00  0.00    -0.007 A 
ATOM      6  C5  UNL d   1      -1.825   0.139   2.291  0.00  0.00     0.039 A 
ENDROOT
BRANCH   4   7
ATOM      7  O   UNL d   1       1.273  -0.366   0.455  0.00  0.00    -0.526 OA
ATOM      8  H5  UNL d   1       2.188  -0.357   0.782  0.00  0.00     0.418 HD
ENDBRANCH   4   7
TORSDOF 1
ENDMDL
