MODEL 1
REMARK minimizedAffinity 3.97772741
REMARK minimizedRMSD -1
REMARK  1 active torsions:
REMARK  status: ('A' for Active; 'I' for Inactive)
REMARK    1  A    between atoms: C3_4  and  O_7 
ROOT
ATOM      1  C   UNL d   1      -1.060   1.205   1.795  0.00  0.00    -0.033 A 
ATOM      2  C1  UNL d   1      -2.016   0.321   2.299  0.00  0.00     0.039 A 
ATOM      3  C2  UNL d   1      -3.013   0.785   3.159  0.00  0.00    -0.080 A 
ATOM      4  C3  UNL d   1      -3.044   2.133   3.505  0.00  0.00     0.150 A 
ATOM      5  C4  UNL d   1      -2.097   3.020   3.003  0.00  0.00    -0.007 A 
ATOM      6  C5  UNL d   1      -1.102   2.554   2.146  0.00  0.00     0.039 A 
ENDROOT
BRANCH   4   7
ATOM      7  O   UNL d   1      -3.996   2.631   4.345  0.00  0.00    -0.526 OA
ATOM      8  H5  UNL d   1      -4.564   1.899   4.635  0.00  0.00     0.418 HD
ENDBRANCH   4   7
TORSDOF 1
ENDMDL
