MODEL 1
REMARK minimizedAffinity -5.17786741
REMARK minimizedRMSD -1
REMARK  1 active torsions:
REMARK  status: ('A' for Active; 'I' for Inactive)
REMARK    1  A    between atoms: C3_4  and  O_7 
ROOT
ATOM      1  C   UNL d   1       0.307   0.347   0.741  0.00  0.00    -0.033 A 
ATOM      2  C1  UNL d   1      -0.022   1.497   1.460  0.00  0.00     0.039 A 
ATOM      3  C2  UNL d   1      -1.189   1.533   2.226  0.00  0.00    -0.080 A 
ATOM      4  C3  UNL d   1      -2.016   0.414   2.265  0.00  0.00     0.150 A 
ATOM      5  C4  UNL d   1      -1.692  -0.737   1.554  0.00  0.00    -0.007 A 
ATOM      6  C5  UNL d   1      -0.527  -0.771   0.789  0.00  0.00     0.039 A 
ENDROOT
BRANCH   4   7
ATOM      7  O   UNL d   1      -3.167   0.404   2.995  0.00  0.00    -0.526 OA
ATOM      8  H5  UNL d   1      -3.276   1.276   3.409  0.00  0.00     0.418 HD
ENDBRANCH   4   7
TORSDOF 1
ENDMDL
