MODEL 1
REMARK minimizedAffinity -4.08212948
REMARK minimizedRMSD -1
REMARK  1 active torsions:
REMARK  status: ('A' for Active; 'I' for Inactive)
REMARK    1  A    between atoms: C3_4  and  O_7 
ROOT
ATOM      1  C   UNL d   1      -0.061   0.252   0.973  0.00  0.00    -0.033 A 
ATOM      2  C1  UNL d   1      -0.024   1.646   1.041  0.00  0.00     0.039 A 
ATOM      3  C2  UNL d   1      -0.957   2.334   1.819  0.00  0.00    -0.080 A 
ATOM      4  C3  UNL d   1      -1.920   1.618   2.525  0.00  0.00     0.150 A 
ATOM      5  C4  UNL d   1      -1.960   0.229   2.465  0.00  0.00    -0.007 A 
ATOM      6  C5  UNL d   1      -1.028  -0.457   1.687  0.00  0.00     0.039 A 
ENDROOT
BRANCH   4   7
ATOM      7  O   UNL d   1      -2.854   2.246   3.294  0.00  0.00    -0.526 OA
ATOM      8  H5  UNL d   1      -2.721   3.205   3.216  0.00  0.00     0.418 HD
ENDBRANCH   4   7
TORSDOF 1
ENDMDL
