MODEL 1
REMARK minimizedAffinity -2.6049974
REMARK minimizedRMSD -1
REMARK  1 active torsions:
REMARK  status: ('A' for Active; 'I' for Inactive)
REMARK    1  A    between atoms: C3_4  and  O_7 
ROOT
ATOM      1  C   UNL d   1       0.324   0.113   1.010  0.00  0.00    -0.033 A 
ATOM      2  C1  UNL d   1      -0.732  -0.583   1.603  0.00  0.00     0.039 A 
ATOM      3  C2  UNL d   1      -1.776   0.115   2.212  0.00  0.00    -0.080 A 
ATOM      4  C3  UNL d   1      -1.753   1.507   2.222  0.00  0.00     0.150 A 
ATOM      5  C4  UNL d   1      -0.707   2.207   1.630  0.00  0.00    -0.007 A 
ATOM      6  C5  UNL d   1       0.335   1.508   1.023  0.00  0.00     0.039 A 
ENDROOT
BRANCH   4   7
ATOM      7  O   UNL d   1      -2.748   2.232   2.809  0.00  0.00    -0.526 OA
ATOM      8  H5  UNL d   1      -3.388   1.615   3.201  0.00  0.00     0.418 HD
ENDBRANCH   4   7
TORSDOF 1
ENDMDL
