MODEL 1
REMARK minimizedAffinity -4.69168091
REMARK minimizedRMSD -1
REMARK  1 active torsions:
REMARK  status: ('A' for Active; 'I' for Inactive)
REMARK    1  A    between atoms: C3_4  and  O_7 
ROOT
ATOM      1  C   UNL d   1       0.024   1.787   1.020  0.00  0.00    -0.033 A 
ATOM      2  C1  UNL d   1      -0.596   3.031   1.154  0.00  0.00     0.039 A 
ATOM      3  C2  UNL d   1      -1.624   3.203   2.083  0.00  0.00    -0.080 A 
ATOM      4  C3  UNL d   1      -2.021   2.126   2.871  0.00  0.00     0.150 A 
ATOM      5  C4  UNL d   1      -1.404   0.885   2.745  0.00  0.00    -0.007 A 
ATOM      6  C5  UNL d   1      -0.379   0.715   1.817  0.00  0.00     0.039 A 
ENDROOT
BRANCH   4   7
ATOM      7  O   UNL d   1      -3.023   2.244   3.788  0.00  0.00    -0.526 OA
ATOM      8  H5  UNL d   1      -3.375   3.149   3.744  0.00  0.00     0.418 HD
ENDBRANCH   4   7
TORSDOF 1
ENDMDL
