MODEL 1
REMARK minimizedAffinity -2.25306058
REMARK minimizedRMSD -1
REMARK  1 active torsions:
REMARK  status: ('A' for Active; 'I' for Inactive)
REMARK    1  A    between atoms: C3_4  and  O_7 
ROOT
ATOM      1  C   UNL d   1       1.550   0.499   0.899  0.00  0.00    -0.033 A 
ATOM      2  C1  UNL d   1       0.893  -0.117   1.967  0.00  0.00     0.039 A 
ATOM      3  C2  UNL d   1      -0.230   0.484   2.538  0.00  0.00    -0.080 A 
ATOM      4  C3  UNL d   1      -0.687   1.698   2.034  0.00  0.00     0.150 A 
ATOM      5  C4  UNL d   1      -0.040   2.316   0.968  0.00  0.00    -0.007 A 
ATOM      6  C5  UNL d   1       1.082   1.715   0.399  0.00  0.00     0.039 A 
ENDROOT
BRANCH   4   7
ATOM      7  O   UNL d   1      -1.776   2.325   2.562  0.00  0.00    -0.526 OA
ATOM      8  H5  UNL d   1      -2.102   1.797   3.310  0.00  0.00     0.418 HD
ENDBRANCH   4   7
TORSDOF 1
ENDMDL
