MODEL 1
REMARK minimizedAffinity 0.815226018
REMARK minimizedRMSD -1
REMARK  1 active torsions:
REMARK  status: ('A' for Active; 'I' for Inactive)
REMARK    1  A    between atoms: C3_4  and  O_7 
ROOT
ATOM      1  C   UNL d   1       0.638  -0.442   1.000  0.00  0.00    -0.033 A 
ATOM      2  C1  UNL d   1       1.028   0.868   0.713  0.00  0.00     0.039 A 
ATOM      3  C2  UNL d   1       0.331   1.943   1.268  0.00  0.00    -0.080 A 
ATOM      4  C3  UNL d   1      -0.751   1.695   2.108  0.00  0.00     0.150 A 
ATOM      5  C4  UNL d   1      -1.143   0.393   2.401  0.00  0.00    -0.007 A 
ATOM      6  C5  UNL d   1      -0.446  -0.679   1.845  0.00  0.00     0.039 A 
ENDROOT
BRANCH   4   7
ATOM      7  O   UNL d   1      -1.465   2.713   2.669  0.00  0.00    -0.526 OA
ATOM      8  H5  UNL d   1      -1.098   3.556   2.354  0.00  0.00     0.418 HD
ENDBRANCH   4   7
TORSDOF 1
ENDMDL
