MODEL 1
REMARK minimizedAffinity -1.14018381
REMARK minimizedRMSD -1
REMARK  1 active torsions:
REMARK  status: ('A' for Active; 'I' for Inactive)
REMARK    1  A    between atoms: C3_4  and  O_7 
ROOT
ATOM      1  C   UNL d   1      -0.136  -0.020   1.033  0.00  0.00    -0.033 A 
ATOM      2  C1  UNL d   1      -1.395  -0.284   1.575  0.00  0.00     0.039 A 
ATOM      3  C2  UNL d   1      -2.081   0.714   2.271  0.00  0.00    -0.080 A 
ATOM      4  C3  UNL d   1      -1.497   1.969   2.417  0.00  0.00     0.150 A 
ATOM      5  C4  UNL d   1      -0.245   2.240   1.876  0.00  0.00    -0.007 A 
ATOM      6  C5  UNL d   1       0.439   1.243   1.182  0.00  0.00     0.039 A 
ENDROOT
BRANCH   4   7
ATOM      7  O   UNL d   1      -2.126   2.973   3.092  0.00  0.00    -0.526 OA
ATOM      8  H5  UNL d   1      -2.969   2.633   3.434  0.00  0.00     0.418 HD
ENDBRANCH   4   7
TORSDOF 1
ENDMDL
