MODEL 1
REMARK minimizedAffinity 2.32424474
REMARK minimizedRMSD -1
REMARK  1 active torsions:
REMARK  status: ('A' for Active; 'I' for Inactive)
REMARK    1  A    between atoms: C3_4  and  O_7 
ROOT
ATOM      1  C   UNL d   1       0.734   1.173   0.898  0.00  0.00    -0.033 A 
ATOM      2  C1  UNL d   1      -0.330   0.407   1.378  0.00  0.00     0.039 A 
ATOM      3  C2  UNL d   1      -1.382   1.021   2.060  0.00  0.00    -0.080 A 
ATOM      4  C3  UNL d   1      -1.358   2.400   2.255  0.00  0.00     0.150 A 
ATOM      5  C4  UNL d   1      -0.303   3.169   1.776  0.00  0.00    -0.007 A 
ATOM      6  C5  UNL d   1       0.747   2.554   1.096  0.00  0.00     0.039 A 
ENDROOT
BRANCH   4   7
ATOM      7  O   UNL d   1      -2.360   3.043   2.920  0.00  0.00    -0.526 OA
ATOM      8  H5  UNL d   1      -3.006   2.381   3.218  0.00  0.00     0.418 HD
ENDBRANCH   4   7
TORSDOF 1
ENDMDL
