MODEL 1
REMARK minimizedAffinity -4.68073606
REMARK minimizedRMSD -1
REMARK  1 active torsions:
REMARK  status: ('A' for Active; 'I' for Inactive)
REMARK    1  A    between atoms: C3_4  and  O_7 
ROOT
ATOM      1  C   UNL d   1       0.935   1.421   1.048  0.00  0.00    -0.033 A 
ATOM      2  C1  UNL d   1       0.381   0.250   0.528  0.00  0.00     0.039 A 
ATOM      3  C2  UNL d   1      -0.850  -0.211   0.999  0.00  0.00    -0.080 A 
ATOM      4  C3  UNL d   1      -1.515   0.506   1.989  0.00  0.00     0.150 A 
ATOM      5  C4  UNL d   1      -0.971   1.676   2.509  0.00  0.00    -0.007 A 
ATOM      6  C5  UNL d   1       0.259   2.135   2.038  0.00  0.00     0.039 A 
ENDROOT
BRANCH   4   7
ATOM      7  O   UNL d   1      -2.716   0.093   2.484  0.00  0.00    -0.526 OA
ATOM      8  H5  UNL d   1      -2.955  -0.744   2.052  0.00  0.00     0.418 HD
ENDBRANCH   4   7
TORSDOF 1
ENDMDL
