MODEL 1
REMARK minimizedAffinity -1.86011541
REMARK minimizedRMSD -1
REMARK  1 active torsions:
REMARK  status: ('A' for Active; 'I' for Inactive)
REMARK    1  A    between atoms: C3_4  and  O_7 
ROOT
ATOM      1  C   UNL d   1      -0.319   0.738   1.217  0.00  0.00    -0.033 A 
ATOM      2  C1  UNL d   1      -1.244  -0.124   1.809  0.00  0.00     0.039 A 
ATOM      3  C2  UNL d   1      -2.201   0.376   2.694  0.00  0.00    -0.080 A 
ATOM      4  C3  UNL d   1      -2.223   1.738   2.978  0.00  0.00     0.150 A 
ATOM      5  C4  UNL d   1      -1.307   2.604   2.389  0.00  0.00    -0.007 A 
ATOM      6  C5  UNL d   1      -0.352   2.103   1.507  0.00  0.00     0.039 A 
ENDROOT
BRANCH   4   7
ATOM      7  O   UNL d   1      -3.136   2.272   3.839  0.00  0.00    -0.526 OA
ATOM      8  H5  UNL d   1      -3.685   1.552   4.191  0.00  0.00     0.418 HD
ENDBRANCH   4   7
TORSDOF 1
ENDMDL
