MODEL 1
REMARK minimizedAffinity -2.02322674
REMARK minimizedRMSD -1
REMARK  1 active torsions:
REMARK  status: ('A' for Active; 'I' for Inactive)
REMARK    1  A    between atoms: C3_4  and  O_7 
ROOT
ATOM      1  C   UNL d   1       0.682   2.693   1.521  0.00  0.00    -0.033 A 
ATOM      2  C1  UNL d   1       1.223   1.522   0.985  0.00  0.00     0.039 A 
ATOM      3  C2  UNL d   1       0.441   0.369   0.890  0.00  0.00    -0.080 A 
ATOM      4  C3  UNL d   1      -0.879   0.401   1.332  0.00  0.00     0.150 A 
ATOM      5  C4  UNL d   1      -1.425   1.565   1.863  0.00  0.00    -0.007 A 
ATOM      6  C5  UNL d   1      -0.642   2.714   1.958  0.00  0.00     0.039 A 
ENDROOT
BRANCH   4   7
ATOM      7  O   UNL d   1      -1.680  -0.700   1.264  0.00  0.00    -0.526 OA
ATOM      8  H5  UNL d   1      -1.160  -1.437   0.902  0.00  0.00     0.418 HD
ENDBRANCH   4   7
TORSDOF 1
ENDMDL
