MODEL 1
REMARK minimizedAffinity -4.20795441
REMARK minimizedRMSD -1
REMARK  1 active torsions:
REMARK  status: ('A' for Active; 'I' for Inactive)
REMARK    1  A    between atoms: C3_4  and  O_7 
ROOT
ATOM      1  C   UNL d   1      -0.364   0.624   1.213  0.00  0.00    -0.033 A 
ATOM      2  C1  UNL d   1      -0.476   2.009   1.354  0.00  0.00     0.039 A 
ATOM      3  C2  UNL d   1      -1.575   2.558   2.017  0.00  0.00    -0.080 A 
ATOM      4  C3  UNL d   1      -2.554   1.714   2.534  0.00  0.00     0.150 A 
ATOM      5  C4  UNL d   1      -2.447   0.333   2.401  0.00  0.00    -0.007 A 
ATOM      6  C5  UNL d   1      -1.349  -0.214   1.738  0.00  0.00     0.039 A 
ENDROOT
BRANCH   4   7
ATOM      7  O   UNL d   1      -3.647   2.204   3.184  0.00  0.00    -0.526 OA
ATOM      8  H5  UNL d   1      -3.601   3.174   3.175  0.00  0.00     0.418 HD
ENDBRANCH   4   7
TORSDOF 1
ENDMDL
