MODEL 1
REMARK minimizedAffinity -1.80036473
REMARK minimizedRMSD -1
REMARK  1 active torsions:
REMARK  status: ('A' for Active; 'I' for Inactive)
REMARK    1  A    between atoms: C3_4  and  O_7 
ROOT
ATOM      1  C   UNL d   1      -0.226   1.793   0.634  0.00  0.00    -0.033 A 
ATOM      2  C1  UNL d   1      -0.503   0.675   1.423  0.00  0.00     0.039 A 
ATOM      3  C2  UNL d   1      -1.461   0.753   2.436  0.00  0.00    -0.080 A 
ATOM      4  C3  UNL d   1      -2.133   1.953   2.649  0.00  0.00     0.150 A 
ATOM      5  C4  UNL d   1      -1.865   3.070   1.864  0.00  0.00    -0.007 A 
ATOM      6  C5  UNL d   1      -0.908   2.990   0.853  0.00  0.00     0.039 A 
ENDROOT
BRANCH   4   7
ATOM      7  O   UNL d   1      -3.073   2.079   3.629  0.00  0.00    -0.526 OA
ATOM      8  H5  UNL d   1      -3.132   1.237   4.109  0.00  0.00     0.418 HD
ENDBRANCH   4   7
TORSDOF 1
ENDMDL
