MODEL 1
REMARK minimizedAffinity 12.8803501
REMARK minimizedRMSD -1
REMARK  1 active torsions:
REMARK  status: ('A' for Active; 'I' for Inactive)
REMARK    1  A    between atoms: C1_2  and  C2_3 
ROOT
ATOM      1  C2  UNL d   1      -0.779   3.118  -1.493  0.00  0.00    -0.077 A 
ATOM      2  C3  UNL d   1      -1.791   3.935  -0.968  0.00  0.00     0.002 A 
ATOM      3  C4  UNL d   1      -3.032   4.018  -1.603  0.00  0.00     0.002 A 
ATOM      4  C5  UNL d   1      -3.274   3.284  -2.763  0.00  0.00    -0.004 A 
ATOM      5  C6  UNL d   1      -2.273   2.471  -3.293  0.00  0.00     0.002 A 
ATOM      6  C7  UNL d   1      -1.032   2.387  -2.661  0.00  0.00     0.002 A 
ENDROOT
BRANCH   1   7
ATOM      7  C1  UNL d   1       0.542   2.989  -0.782  0.00  0.00     0.055 C 
ATOM      8  C   UNL d   1       0.536   3.741   0.541  0.00  0.00     0.019 C 
ENDBRANCH   1   7
TORSDOF 1
ENDMDL
