MODEL 1
REMARK minimizedAffinity 15.3006926
REMARK minimizedRMSD -1
REMARK  1 active torsions:
REMARK  status: ('A' for Active; 'I' for Inactive)
REMARK    1  A    between atoms: C1_2  and  C2_3 
ROOT
ATOM      1  C2  UNL d   1      -1.869   3.606  -3.559  0.00  0.00    -0.077 A 
ATOM      2  C3  UNL d   1      -1.882   3.391  -4.944  0.00  0.00     0.002 A 
ATOM      3  C4  UNL d   1      -1.889   4.473  -5.827  0.00  0.00     0.002 A 
ATOM      4  C5  UNL d   1      -1.881   5.776  -5.334  0.00  0.00    -0.004 A 
ATOM      5  C6  UNL d   1      -1.871   6.000  -3.958  0.00  0.00     0.002 A 
ATOM      6  C7  UNL d   1      -1.864   4.920  -3.074  0.00  0.00     0.002 A 
ENDROOT
BRANCH   1   7
ATOM      7  C1  UNL d   1      -1.811   2.440  -2.606  0.00  0.00     0.055 C 
ATOM      8  C   UNL d   1      -0.444   2.331  -1.947  0.00  0.00     0.019 C 
ENDBRANCH   1   7
TORSDOF 1
ENDMDL
