MODEL 1
REMARK minimizedAffinity 3.43912864
REMARK minimizedRMSD -1
REMARK  1 active torsions:
REMARK  status: ('A' for Active; 'I' for Inactive)
REMARK    1  A    between atoms: C1_2  and  C2_3 
ROOT
ATOM      1  C2  UNL d   1      -4.363  -4.542   0.514  0.00  0.00    -0.077 A 
ATOM      2  C3  UNL d   1      -5.523  -3.841   0.872  0.00  0.00     0.002 A 
ATOM      3  C4  UNL d   1      -5.512  -2.962   1.956  0.00  0.00     0.002 A 
ATOM      4  C5  UNL d   1      -4.342  -2.773   2.690  0.00  0.00    -0.004 A 
ATOM      5  C6  UNL d   1      -3.183  -3.467   2.343  0.00  0.00     0.002 A 
ATOM      6  C7  UNL d   1      -3.194  -4.347   1.260  0.00  0.00     0.002 A 
ENDROOT
BRANCH   1   7
ATOM      7  C1  UNL d   1      -4.361  -5.453  -0.686  0.00  0.00     0.055 C 
ATOM      8  C   UNL d   1      -5.776  -5.842  -1.088  0.00  0.00     0.019 C 
ENDBRANCH   1   7
TORSDOF 1
ENDMDL
