MODEL 1
REMARK minimizedAffinity 3.62386703
REMARK minimizedRMSD -1
REMARK  1 active torsions:
REMARK  status: ('A' for Active; 'I' for Inactive)
REMARK    1  A    between atoms: C1_2  and  C2_3 
ROOT
ATOM      1  C2  UNL d   1      -4.161  -4.909   1.102  0.00  0.00    -0.077 A 
ATOM      2  C3  UNL d   1      -2.894  -5.073   1.679  0.00  0.00     0.002 A 
ATOM      3  C4  UNL d   1      -2.369  -4.090   2.521  0.00  0.00     0.002 A 
ATOM      4  C5  UNL d   1      -3.106  -2.940   2.796  0.00  0.00    -0.004 A 
ATOM      5  C6  UNL d   1      -4.366  -2.767   2.225  0.00  0.00     0.002 A 
ATOM      6  C7  UNL d   1      -4.891  -3.748   1.382  0.00  0.00     0.002 A 
ENDROOT
BRANCH   1   7
ATOM      7  C1  UNL d   1      -4.749  -5.990   0.233  0.00  0.00     0.055 C 
ATOM      8  C   UNL d   1      -4.124  -5.986  -1.155  0.00  0.00     0.019 C 
ENDBRANCH   1   7
TORSDOF 1
ENDMDL
