MODEL 1
REMARK minimizedAffinity 2.22563028
REMARK minimizedRMSD -1
REMARK  1 active torsions:
REMARK  status: ('A' for Active; 'I' for Inactive)
REMARK    1  A    between atoms: C1_2  and  C2_3 
ROOT
ATOM      1  C2  UNL d   1      -1.579  -2.313   3.127  0.00  0.00    -0.077 A 
ATOM      2  C3  UNL d   1      -0.458  -1.969   2.360  0.00  0.00     0.002 A 
ATOM      3  C4  UNL d   1       0.459  -1.028   2.833  0.00  0.00     0.002 A 
ATOM      4  C5  UNL d   1       0.266  -0.427   4.075  0.00  0.00    -0.004 A 
ATOM      5  C6  UNL d   1      -0.847  -0.762   4.845  0.00  0.00     0.002 A 
ATOM      6  C7  UNL d   1      -1.765  -1.701   4.374  0.00  0.00     0.002 A 
ENDROOT
BRANCH   1   7
ATOM      7  C1  UNL d   1      -2.543  -3.364   2.642  0.00  0.00     0.055 C 
ATOM      8  C   UNL d   1      -3.906  -2.763   2.328  0.00  0.00     0.019 C 
ENDBRANCH   1   7
TORSDOF 1
ENDMDL
