MODEL 1
REMARK minimizedAffinity 8.0320425
REMARK minimizedRMSD -1
REMARK  1 active torsions:
REMARK  status: ('A' for Active; 'I' for Inactive)
REMARK    1  A    between atoms: C1_2  and  C2_3 
ROOT
ATOM      1  C2  UNL d   1       3.093  -0.103   2.578  0.00  0.00    -0.077 A 
ATOM      2  C3  UNL d   1       2.459  -0.990   1.697  0.00  0.00     0.002 A 
ATOM      3  C4  UNL d   1       1.131  -1.366   1.907  0.00  0.00     0.002 A 
ATOM      4  C5  UNL d   1       0.425  -0.857   2.995  0.00  0.00    -0.004 A 
ATOM      5  C6  UNL d   1       1.047   0.023   3.879  0.00  0.00     0.002 A 
ATOM      6  C7  UNL d   1       2.375   0.400   3.671  0.00  0.00     0.002 A 
ENDROOT
BRANCH   1   7
ATOM      7  C1  UNL d   1       4.510   0.342   2.326  0.00  0.00     0.055 C 
ATOM      8  C   UNL d   1       5.509  -0.724   2.749  0.00  0.00     0.019 C 
ENDBRANCH   1   7
TORSDOF 1
ENDMDL
