MODEL 1
REMARK minimizedAffinity 5.10276747
REMARK minimizedRMSD -1
REMARK  1 active torsions:
REMARK  status: ('A' for Active; 'I' for Inactive)
REMARK    1  A    between atoms: C1_2  and  C2_3 
ROOT
ATOM      1  C2  UNL d   1      -3.362   4.148  -1.752  0.00  0.00    -0.077 A 
ATOM      2  C3  UNL d   1      -3.540   2.882  -1.177  0.00  0.00     0.002 A 
ATOM      3  C4  UNL d   1      -2.658   1.841  -1.474  0.00  0.00     0.002 A 
ATOM      4  C5  UNL d   1      -1.591   2.057  -2.343  0.00  0.00    -0.004 A 
ATOM      5  C6  UNL d   1      -1.407   3.312  -2.922  0.00  0.00     0.002 A 
ATOM      6  C7  UNL d   1      -2.288   4.353  -2.628  0.00  0.00     0.002 A 
ENDROOT
BRANCH   1   7
ATOM      7  C1  UNL d   1      -4.283   5.286  -1.395  0.00  0.00     0.055 C 
ATOM      8  C   UNL d   1      -5.150   4.939  -0.193  0.00  0.00     0.019 C 
ENDBRANCH   1   7
TORSDOF 1
ENDMDL
