MODEL 1
REMARK minimizedAffinity 9.29640675
REMARK minimizedRMSD -1
REMARK  1 active torsions:
REMARK  status: ('A' for Active; 'I' for Inactive)
REMARK    1  A    between atoms: C1_2  and  C2_3 
ROOT
ATOM      1  C2  UNL d   1      -1.882   3.999  -3.474  0.00  0.00    -0.077 A 
ATOM      2  C3  UNL d   1      -1.023   2.920  -3.224  0.00  0.00     0.002 A 
ATOM      3  C4  UNL d   1      -1.315   2.005  -2.211  0.00  0.00     0.002 A 
ATOM      4  C5  UNL d   1      -2.468   2.157  -1.444  0.00  0.00    -0.004 A 
ATOM      5  C6  UNL d   1      -3.328   3.228  -1.684  0.00  0.00     0.002 A 
ATOM      6  C7  UNL d   1      -3.037   4.145  -2.695  0.00  0.00     0.002 A 
ENDROOT
BRANCH   1   7
ATOM      7  C1  UNL d   1      -1.594   4.960  -4.598  0.00  0.00     0.055 C 
ATOM      8  C   UNL d   1      -1.843   4.315  -5.954  0.00  0.00     0.019 C 
ENDBRANCH   1   7
TORSDOF 1
ENDMDL
