MODEL 1
REMARK minimizedAffinity 8.33956528
REMARK minimizedRMSD -1
REMARK  1 active torsions:
REMARK  status: ('A' for Active; 'I' for Inactive)
REMARK    1  A    between atoms: C1_2  and  C2_3 
ROOT
ATOM      1  C2  UNL d   1      -1.486   2.545  -1.989  0.00  0.00    -0.077 A 
ATOM      2  C3  UNL d   1      -1.420   2.376  -0.599  0.00  0.00     0.002 A 
ATOM      3  C4  UNL d   1      -0.223   2.603   0.084  0.00  0.00     0.002 A 
ATOM      4  C5  UNL d   1       0.914   3.005  -0.613  0.00  0.00    -0.004 A 
ATOM      5  C6  UNL d   1       0.859   3.174  -1.996  0.00  0.00     0.002 A 
ATOM      6  C7  UNL d   1      -0.336   2.946  -2.681  0.00  0.00     0.002 A 
ENDROOT
BRANCH   1   7
ATOM      7  C1  UNL d   1      -2.787   2.348  -2.721  0.00  0.00     0.055 C 
ATOM      8  C   UNL d   1      -3.924   2.041  -1.757  0.00  0.00     0.019 C 
ENDBRANCH   1   7
TORSDOF 1
ENDMDL
