MODEL 1
REMARK minimizedAffinity 14.2419729
REMARK minimizedRMSD -1
REMARK  1 active torsions:
REMARK  status: ('A' for Active; 'I' for Inactive)
REMARK    1  A    between atoms: C1_2  and  C2_3 
ROOT
ATOM      1  C2  UNL d   1      -2.161   3.343  -3.682  0.00  0.00    -0.077 A 
ATOM      2  C3  UNL d   1      -2.508   2.962  -4.986  0.00  0.00     0.002 A 
ATOM      3  C4  UNL d   1      -2.610   3.918  -5.998  0.00  0.00     0.002 A 
ATOM      4  C5  UNL d   1      -2.363   5.260  -5.718  0.00  0.00    -0.004 A 
ATOM      5  C6  UNL d   1      -2.019   5.650  -4.424  0.00  0.00     0.002 A 
ATOM      6  C7  UNL d   1      -1.918   4.696  -3.411  0.00  0.00     0.002 A 
ENDROOT
BRANCH   1   7
ATOM      7  C1  UNL d   1      -2.003   2.307  -2.601  0.00  0.00     0.055 C 
ATOM      8  C   UNL d   1      -0.640   2.409  -1.931  0.00  0.00     0.019 C 
ENDBRANCH   1   7
TORSDOF 1
ENDMDL
