MODEL 1
REMARK minimizedAffinity -2.38074017
REMARK minimizedRMSD -1
REMARK  0 active torsions:
REMARK  status: ('A' for Active; 'I' for Inactive)
ROOT
ATOM      1  C1  DEN d   1      -1.914  -0.227  -1.094  0.00  0.00     0.130 A 
ATOM      2  C2  DEN d   1      -1.342  -1.496  -1.533  0.00  0.00    -0.031 A 
ATOM      3  C3  DEN d   1      -1.352  -1.515  -3.010  0.00  0.00     0.027 A 
ATOM      4  C4  DEN d   1      -2.190   0.292  -4.649  0.00  0.00     0.027 A 
ATOM      5  C5  DEN d   1      -2.771   1.537  -4.746  0.00  0.00    -0.003 A 
ATOM      6  C6  DEN d   1      -3.135   2.261  -3.642  0.00  0.00     0.001 A 
ATOM      7  C7  DEN d   1      -2.881   1.765  -2.391  0.00  0.00     0.017 A 
ATOM      8  C8  DEN d   1      -2.302   0.506  -2.285  0.00  0.00    -0.094 A 
ATOM      9  C9  DEN d   1      -1.930  -0.205  -3.413  0.00  0.00    -0.072 A 
ENDROOT
TORSDOF 0
ENDMDL
