MODEL 1
REMARK minimizedAffinity -2.64125419
REMARK minimizedRMSD -1
REMARK  0 active torsions:
REMARK  status: ('A' for Active; 'I' for Inactive)
ROOT
ATOM      1  C1  DEN d   1      -3.625   3.388  -5.240  0.00  0.00     0.130 A 
ATOM      2  C2  DEN d   1      -4.849   3.631  -5.999  0.00  0.00    -0.031 A 
ATOM      3  C3  DEN d   1      -5.998   3.372  -5.107  0.00  0.00     0.027 A 
ATOM      4  C4  DEN d   1      -5.999   2.627  -2.638  0.00  0.00     0.027 A 
ATOM      5  C5  DEN d   1      -5.202   2.282  -1.569  0.00  0.00    -0.003 A 
ATOM      6  C6  DEN d   1      -3.836   2.249  -1.658  0.00  0.00     0.001 A 
ATOM      7  C7  DEN d   1      -3.223   2.611  -2.828  0.00  0.00     0.017 A 
ATOM      8  C8  DEN d   1      -4.020   2.952  -3.913  0.00  0.00    -0.094 A 
ATOM      9  C9  DEN d   1      -5.399   2.991  -3.799  0.00  0.00    -0.072 A 
ENDROOT
TORSDOF 0
ENDMDL
