MODEL 1
REMARK minimizedAffinity 6.71816492
REMARK minimizedRMSD -1
REMARK  0 active torsions:
REMARK  status: ('A' for Active; 'I' for Inactive)
ROOT
ATOM      1  C1  DEN d   1       0.562   2.582   2.188  0.00  0.00     0.130 A 
ATOM      2  C2  DEN d   1       1.564   2.895   3.203  0.00  0.00    -0.031 A 
ATOM      3  C3  DEN d   1       2.387   4.014   2.703  0.00  0.00     0.027 A 
ATOM      4  C4  DEN d   1       2.206   5.290   0.469  0.00  0.00     0.027 A 
ATOM      5  C5  DEN d   1       1.518   5.377  -0.722  0.00  0.00    -0.003 A 
ATOM      6  C6  DEN d   1       0.494   4.523  -1.037  0.00  0.00     0.001 A 
ATOM      7  C7  DEN d   1       0.099   3.574  -0.133  0.00  0.00     0.017 A 
ATOM      8  C8  DEN d   1       0.792   3.475   1.066  0.00  0.00    -0.094 A 
ATOM      9  C9  DEN d   1       1.816   4.355   1.372  0.00  0.00    -0.072 A 
ENDROOT
TORSDOF 0
ENDMDL
