MODEL 1
REMARK minimizedAffinity 7.84379673
REMARK minimizedRMSD -1
REMARK  0 active torsions:
REMARK  status: ('A' for Active; 'I' for Inactive)
ROOT
ATOM      1  C1  DEN d   1       0.582   0.837  -1.976  0.00  0.00     0.130 A 
ATOM      2  C2  DEN d   1       1.548  -0.090  -1.393  0.00  0.00    -0.031 A 
ATOM      3  C3  DEN d   1       1.798   0.328   0.001  0.00  0.00     0.027 A 
ATOM      4  C4  DEN d   1       0.786   2.309   1.308  0.00  0.00     0.027 A 
ATOM      5  C5  DEN d   1      -0.071   3.384   1.230  0.00  0.00    -0.003 A 
ATOM      6  C6  DEN d   1      -0.739   3.703   0.077  0.00  0.00     0.001 A 
ATOM      7  C7  DEN d   1      -0.596   2.912  -1.032  0.00  0.00     0.017 A 
ATOM      8  C8  DEN d   1       0.272   1.830  -0.963  0.00  0.00    -0.094 A 
ATOM      9  C9  DEN d   1       0.929   1.517   0.215  0.00  0.00    -0.072 A 
ENDROOT
TORSDOF 0
ENDMDL
