MODEL 1
REMARK minimizedAffinity -4.76905632
REMARK minimizedRMSD -1
REMARK  0 active torsions:
REMARK  status: ('A' for Active; 'I' for Inactive)
ROOT
ATOM      1  C1  DEN d   1      -5.016   0.406  -4.902  0.00  0.00     0.130 A 
ATOM      2  C2  DEN d   1      -4.114   0.743  -6.000  0.00  0.00    -0.031 A 
ATOM      3  C3  DEN d   1      -3.740   2.165  -5.863  0.00  0.00     0.027 A 
ATOM      4  C4  DEN d   1      -4.462   3.867  -4.064  0.00  0.00     0.027 A 
ATOM      5  C5  DEN d   1      -5.229   4.049  -2.934  0.00  0.00    -0.003 A 
ATOM      6  C6  DEN d   1      -5.999   3.047  -2.405  0.00  0.00     0.001 A 
ATOM      7  C7  DEN d   1      -5.984   1.804  -2.980  0.00  0.00     0.017 A 
ATOM      8  C8  DEN d   1      -5.219   1.615  -4.124  0.00  0.00    -0.094 A 
ATOM      9  C9  DEN d   1      -4.438   2.637  -4.637  0.00  0.00    -0.072 A 
ENDROOT
TORSDOF 0
ENDMDL
