MODEL 1
REMARK minimizedAffinity -2.69365335
REMARK minimizedRMSD -1
REMARK  0 active torsions:
REMARK  status: ('A' for Active; 'I' for Inactive)
ROOT
ATOM      1  C1  DEN d   1      -5.984   2.932  -5.969  0.00  0.00     0.130 A 
ATOM      2  C2  DEN d   1      -4.982   3.994  -5.963  0.00  0.00    -0.031 A 
ATOM      3  C3  DEN d   1      -3.647   3.362  -5.969  0.00  0.00     0.027 A 
ATOM      4  C4  DEN d   1      -3.038   0.856  -5.991  0.00  0.00     0.027 A 
ATOM      5  C5  DEN d   1      -3.549  -0.424  -5.989  0.00  0.00    -0.003 A 
ATOM      6  C6  DEN d   1      -4.896  -0.672  -5.945  0.00  0.00     0.001 A 
ATOM      7  C7  DEN d   1      -5.779   0.374  -5.948  0.00  0.00     0.017 A 
ATOM      8  C8  DEN d   1      -5.272   1.667  -5.943  0.00  0.00    -0.094 A 
ATOM      9  C9  DEN d   1      -3.908   1.898  -6.000  0.00  0.00    -0.072 A 
ENDROOT
TORSDOF 0
ENDMDL
