MODEL 1
REMARK minimizedAffinity 3.33095574
REMARK minimizedRMSD -1
REMARK  0 active torsions:
REMARK  status: ('A' for Active; 'I' for Inactive)
ROOT
ATOM      1  C1  DEN d   1       0.632   2.937   1.100  0.00  0.00     0.130 A 
ATOM      2  C2  DEN d   1      -0.252   3.503   0.085  0.00  0.00    -0.031 A 
ATOM      3  C3  DEN d   1      -0.261   2.587  -1.074  0.00  0.00     0.027 A 
ATOM      4  C4  DEN d   1       0.997   0.358  -1.390  0.00  0.00     0.027 A 
ATOM      5  C5  DEN d   1       1.877  -0.527  -0.806  0.00  0.00    -0.003 A 
ATOM      6  C6  DEN d   1       2.425  -0.304   0.429  0.00  0.00     0.001 A 
ATOM      7  C7  DEN d   1       2.064   0.809   1.141  0.00  0.00     0.017 A 
ATOM      8  C8  DEN d   1       1.183   1.710   0.556  0.00  0.00    -0.094 A 
ATOM      9  C9  DEN d   1       0.630   1.460  -0.688  0.00  0.00    -0.072 A 
ENDROOT
TORSDOF 0
ENDMDL
