MODEL 1
REMARK minimizedAffinity 10.8362293
REMARK minimizedRMSD -1
REMARK  0 active torsions:
REMARK  status: ('A' for Active; 'I' for Inactive)
ROOT
ATOM      1  C1  DEN d   1       3.063  -3.011   0.376  0.00  0.00     0.130 A 
ATOM      2  C2  DEN d   1       3.080  -1.581   0.078  0.00  0.00    -0.031 A 
ATOM      3  C3  DEN d   1       1.844  -1.255  -0.661  0.00  0.00     0.027 A 
ATOM      4  C4  DEN d   1      -0.086  -2.814  -1.364  0.00  0.00     0.027 A 
ATOM      5  C5  DEN d   1      -0.544  -4.113  -1.345  0.00  0.00    -0.003 A 
ATOM      6  C6  DEN d   1       0.179  -5.133  -0.785  0.00  0.00     0.001 A 
ATOM      7  C7  DEN d   1       1.379  -4.864  -0.182  0.00  0.00     0.017 A 
ATOM      8  C8  DEN d   1       1.850  -3.558  -0.203  0.00  0.00    -0.094 A 
ATOM      9  C9  DEN d   1       1.099  -2.538  -0.763  0.00  0.00    -0.072 A 
ENDROOT
TORSDOF 0
ENDMDL
