MODEL 1
REMARK minimizedAffinity 7.47822237
REMARK minimizedRMSD -1
REMARK  0 active torsions:
REMARK  status: ('A' for Active; 'I' for Inactive)
ROOT
ATOM      1  C1  DEN d   1      -3.759   3.746  -5.412  0.00  0.00     0.130 A 
ATOM      2  C2  DEN d   1      -4.912   4.423  -6.000  0.00  0.00    -0.031 A 
ATOM      3  C3  DEN d   1      -5.996   4.432  -4.997  0.00  0.00     0.027 A 
ATOM      4  C4  DEN d   1      -6.000   3.471  -2.603  0.00  0.00     0.027 A 
ATOM      5  C5  DEN d   1      -5.253   2.794  -1.664  0.00  0.00    -0.003 A 
ATOM      6  C6  DEN d   1      -3.979   2.361  -1.918  0.00  0.00     0.001 A 
ATOM      7  C7  DEN d   1      -3.395   2.640  -3.126  0.00  0.00     0.017 A 
ATOM      8  C8  DEN d   1      -4.144   3.315  -4.081  0.00  0.00    -0.094 A 
ATOM      9  C9  DEN d   1      -5.427   3.755  -3.800  0.00  0.00    -0.072 A 
ENDROOT
TORSDOF 0
ENDMDL
