MODEL 1
REMARK minimizedAffinity 6.46220922
REMARK minimizedRMSD -1
REMARK  0 active torsions:
REMARK  status: ('A' for Active; 'I' for Inactive)
ROOT
ATOM      1  C1  DEN d   1      -2.768   5.065  -0.660  0.00  0.00     0.130 A 
ATOM      2  C2  DEN d   1      -3.477   4.346  -1.714  0.00  0.00    -0.031 A 
ATOM      3  C3  DEN d   1      -2.702   3.132  -2.041  0.00  0.00     0.027 A 
ATOM      4  C4  DEN d   1      -0.486   2.298  -1.018  0.00  0.00     0.027 A 
ATOM      5  C5  DEN d   1       0.502   2.578  -0.100  0.00  0.00    -0.003 A 
ATOM      6  C6  DEN d   1       0.487   3.713   0.666  0.00  0.00     0.001 A 
ATOM      7  C7  DEN d   1      -0.561   4.590   0.560  0.00  0.00     0.017 A 
ATOM      8  C8  DEN d   1      -1.556   4.319  -0.370  0.00  0.00    -0.094 A 
ATOM      9  C9  DEN d   1      -1.529   3.159  -1.126  0.00  0.00    -0.072 A 
ENDROOT
TORSDOF 0
ENDMDL
