MODEL 1
REMARK minimizedAffinity 5.75651121
REMARK minimizedRMSD -1
REMARK  0 active torsions:
REMARK  status: ('A' for Active; 'I' for Inactive)
ROOT
ATOM      1  C   UNL d   1       1.851  -3.302   1.181  0.00  0.00     0.020 A 
ATOM      2  C1  UNL d   1       1.897  -1.911   1.094  0.00  0.00     0.020 A 
ATOM      3  C2  UNL d   1       0.884  -1.142   1.671  0.00  0.00     0.034 A 
ATOM      4  C3  UNL d   1      -0.179  -1.763   2.336  0.00  0.00     0.017 A 
ATOM      5  C4  UNL d   1      -0.224  -3.159   2.423  0.00  0.00     0.017 A 
ATOM      6  C5  UNL d   1       0.793  -3.924   1.844  0.00  0.00     0.034 A 
ATOM      7 Cl   UNL d   1      -1.504  -3.997   3.228  0.00  0.00    -0.070 Cl
ATOM      8 Cl1  UNL d   1      -1.397  -0.749   3.026  0.00  0.00    -0.070 Cl
ENDROOT
TORSDOF 0
ENDMDL
