MODEL 1
REMARK minimizedAffinity 8.61919403
REMARK minimizedRMSD -1
REMARK  0 active torsions:
REMARK  status: ('A' for Active; 'I' for Inactive)
ROOT
ATOM      1  C   UNL d   1       0.383  -2.636   1.171  0.00  0.00     0.020 A 
ATOM      2  C1  UNL d   1       1.146  -1.472   1.250  0.00  0.00     0.020 A 
ATOM      3  C2  UNL d   1       2.518  -1.517   0.994  0.00  0.00     0.034 A 
ATOM      4  C3  UNL d   1       3.131  -2.730   0.658  0.00  0.00     0.017 A 
ATOM      5  C4  UNL d   1       2.365  -3.898   0.578  0.00  0.00     0.017 A 
ATOM      6  C5  UNL d   1       0.991  -3.846   0.836  0.00  0.00     0.034 A 
ATOM      7 Cl   UNL d   1       3.050  -5.431   0.169  0.00  0.00    -0.070 Cl
ATOM      8 Cl1  UNL d   1       4.832  -2.712   0.353  0.00  0.00    -0.070 Cl
ENDROOT
TORSDOF 0
ENDMDL
