MODEL 1
REMARK minimizedAffinity 15.3341866
REMARK minimizedRMSD -1
REMARK  0 active torsions:
REMARK  status: ('A' for Active; 'I' for Inactive)
ROOT
ATOM      1  C   UNL d   1       2.453  -3.271   0.563  0.00  0.00     0.020 A 
ATOM      2  C1  UNL d   1       1.395  -2.432   0.217  0.00  0.00     0.020 A 
ATOM      3  C2  UNL d   1       0.957  -1.454   1.112  0.00  0.00     0.034 A 
ATOM      4  C3  UNL d   1       1.578  -1.312   2.359  0.00  0.00     0.017 A 
ATOM      5  C4  UNL d   1       2.640  -2.155   2.705  0.00  0.00     0.017 A 
ATOM      6  C5  UNL d   1       3.075  -3.133   1.805  0.00  0.00     0.034 A 
ATOM      7 Cl   UNL d   1       3.456  -2.041   4.225  0.00  0.00    -0.070 Cl
ATOM      8 Cl1  UNL d   1       0.985  -0.082   3.417  0.00  0.00    -0.070 Cl
ENDROOT
TORSDOF 0
ENDMDL
