MODEL 1
REMARK minimizedAffinity 13.5035362
REMARK minimizedRMSD -1
REMARK  0 active torsions:
REMARK  status: ('A' for Active; 'I' for Inactive)
ROOT
ATOM      1  C   UNL d   1       4.262   4.237  -5.711  0.00  0.00     0.020 A 
ATOM      2  C1  UNL d   1       3.926   5.573  -5.926  0.00  0.00     0.020 A 
ATOM      3  C2  UNL d   1       2.586   5.967  -5.912  0.00  0.00     0.034 A 
ATOM      4  C3  UNL d   1       1.578   5.024  -5.681  0.00  0.00     0.017 A 
ATOM      5  C4  UNL d   1       1.916   3.683  -5.465  0.00  0.00     0.017 A 
ATOM      6  C5  UNL d   1       3.260   3.294  -5.481  0.00  0.00     0.034 A 
ATOM      7 Cl   UNL d   1       0.728   2.462  -5.173  0.00  0.00    -0.070 Cl
ATOM      8 Cl1  UNL d   1      -0.058   5.581  -5.676  0.00  0.00    -0.070 Cl
ENDROOT
TORSDOF 0
ENDMDL
