MODEL 1
REMARK minimizedAffinity 7.57784128
REMARK minimizedRMSD -1
REMARK  0 active torsions:
REMARK  status: ('A' for Active; 'I' for Inactive)
ROOT
ATOM      1  C   UNL d   1       5.365   2.050  -5.511  0.00  0.00     0.020 A 
ATOM      2  C1  UNL d   1       3.975   1.944  -5.507  0.00  0.00     0.020 A 
ATOM      3  C2  UNL d   1       3.187   3.087  -5.654  0.00  0.00     0.034 A 
ATOM      4  C3  UNL d   1       3.788   4.342  -5.807  0.00  0.00     0.017 A 
ATOM      5  C4  UNL d   1       5.184   4.447  -5.811  0.00  0.00     0.017 A 
ATOM      6  C5  UNL d   1       5.968   3.299  -5.663  0.00  0.00     0.034 A 
ATOM      7 Cl   UNL d   1       5.999   5.961  -5.995  0.00  0.00    -0.070 Cl
ATOM      8 Cl1  UNL d   1       2.753   5.713  -5.985  0.00  0.00    -0.070 Cl
ENDROOT
TORSDOF 0
ENDMDL
