MODEL 1
REMARK minimizedAffinity 10.6612806
REMARK minimizedRMSD -1
REMARK  0 active torsions:
REMARK  status: ('A' for Active; 'I' for Inactive)
ROOT
ATOM      1  C   UNL d   1      -0.531  -2.438   2.378  0.00  0.00     0.020 A 
ATOM      2  C1  UNL d   1       0.293  -1.346   2.646  0.00  0.00     0.020 A 
ATOM      3  C2  UNL d   1       1.624  -1.355   2.223  0.00  0.00     0.034 A 
ATOM      4  C3  UNL d   1       2.135  -2.459   1.531  0.00  0.00     0.017 A 
ATOM      5  C4  UNL d   1       1.307  -3.555   1.262  0.00  0.00     0.017 A 
ATOM      6  C5  UNL d   1      -0.025  -3.540   1.687  0.00  0.00     0.034 A 
ATOM      7 Cl   UNL d   1       1.866  -4.952   0.412  0.00  0.00    -0.070 Cl
ATOM      8 Cl1  UNL d   1       3.790  -2.402   1.038  0.00  0.00    -0.070 Cl
ENDROOT
TORSDOF 0
ENDMDL
