MODEL 1
REMARK minimizedAffinity 11.1527414
REMARK minimizedRMSD -1
REMARK  0 active torsions:
REMARK  status: ('A' for Active; 'I' for Inactive)
ROOT
ATOM      1  C   UNL d   1      -1.375   2.452  -2.788  0.00  0.00     0.020 A 
ATOM      2  C1  UNL d   1      -2.710   2.399  -3.186  0.00  0.00     0.020 A 
ATOM      3  C2  UNL d   1      -3.513   1.326  -2.795  0.00  0.00     0.034 A 
ATOM      4  C3  UNL d   1      -2.983   0.302  -2.003  0.00  0.00     0.017 A 
ATOM      5  C4  UNL d   1      -1.643   0.356  -1.603  0.00  0.00     0.017 A 
ATOM      6  C5  UNL d   1      -0.843   1.432  -1.997  0.00  0.00     0.034 A 
ATOM      7 Cl   UNL d   1      -0.917  -0.871  -0.625  0.00  0.00    -0.070 Cl
ATOM      8 Cl1  UNL d   1      -4.034  -0.995  -1.556  0.00  0.00    -0.070 Cl
ENDROOT
TORSDOF 0
ENDMDL
