MODEL 1
REMARK minimizedAffinity 7.65940571
REMARK minimizedRMSD -1
REMARK  0 active torsions:
REMARK  status: ('A' for Active; 'I' for Inactive)
ROOT
ATOM      1  C   UNL d   1       0.638   4.884  -4.319  0.00  0.00     0.020 A 
ATOM      2  C1  UNL d   1       1.154   4.349  -5.498  0.00  0.00     0.020 A 
ATOM      3  C2  UNL d   1       0.648   3.148  -6.000  0.00  0.00     0.034 A 
ATOM      4  C3  UNL d   1      -0.377   2.478  -5.322  0.00  0.00     0.017 A 
ATOM      5  C4  UNL d   1      -0.894   3.016  -4.138  0.00  0.00     0.017 A 
ATOM      6  C5  UNL d   1      -0.384   4.219  -3.640  0.00  0.00     0.034 A 
ATOM      7 Cl   UNL d   1      -2.159   2.247  -3.246  0.00  0.00    -0.070 Cl
ATOM      8 Cl1  UNL d   1      -0.955   0.998  -6.000  0.00  0.00    -0.070 Cl
ENDROOT
TORSDOF 0
ENDMDL
