MODEL 1
REMARK minimizedAffinity 12.8081913
REMARK minimizedRMSD -1
REMARK  0 active torsions:
REMARK  status: ('A' for Active; 'I' for Inactive)
ROOT
ATOM      1  C   UNL d   1      -1.981   3.147  -3.741  0.00  0.00     0.020 A 
ATOM      2  C1  UNL d   1      -0.679   2.659  -3.631  0.00  0.00     0.020 A 
ATOM      3  C2  UNL d   1      -0.412   1.565  -2.804  0.00  0.00     0.034 A 
ATOM      4  C3  UNL d   1      -1.447   0.957  -2.085  0.00  0.00     0.017 A 
ATOM      5  C4  UNL d   1      -2.752   1.448  -2.196  0.00  0.00     0.017 A 
ATOM      6  C5  UNL d   1      -3.015   2.543  -3.025  0.00  0.00     0.034 A 
ATOM      7 Cl   UNL d   1      -4.081   0.750  -1.339  0.00  0.00    -0.070 Cl
ATOM      8 Cl1  UNL d   1      -1.043  -0.391  -1.082  0.00  0.00    -0.070 Cl
ENDROOT
TORSDOF 0
ENDMDL
