MODEL 1
REMARK minimizedAffinity 1.14423966
REMARK minimizedRMSD -1
REMARK  3 active torsions:
REMARK  status: ('A' for Active; 'I' for Inactive)
REMARK    1  A    between atoms: C3'_2  and  C2'_3 
REMARK    2  A    between atoms: C2'_3  and  C1'_4 
REMARK    3  A    between atoms: C1'_4  and  C1_5 
ROOT
ATOM      1  C1  N4B d   1       1.620  -1.801   3.239  0.00  0.00    -0.075 A 
ATOM      2  C2  N4B d   1       1.219  -0.896   4.246  0.00  0.00     0.002 A 
ATOM      3  C3  N4B d   1       1.476   0.445   4.106  0.00  0.00     0.002 A 
ATOM      4  C4  N4B d   1       2.147   0.901   2.981  0.00  0.00    -0.004 A 
ATOM      5  C5  N4B d   1       2.508   0.024   2.001  0.00  0.00     0.002 A 
ATOM      6  C6  N4B d   1       2.253  -1.326   2.126  0.00  0.00     0.002 A 
ENDROOT
BRANCH   1   7
ATOM      7  C1' N4B d   1       1.437  -3.287   3.387  0.00  0.00     0.057 C 
BRANCH   7   8
ATOM      8  C2' N4B d   1       0.396  -3.558   4.469  0.00  0.00     0.009 C 
BRANCH   8   9
ATOM      9  C3' N4B d   1       0.942  -4.447   5.573  0.00  0.00     0.004 C 
ATOM     10  C4' N4B d   1      -0.030  -5.506   6.000  0.00  0.00     0.003 C 
ENDBRANCH   8   9
ENDBRANCH   7   8
ENDBRANCH   1   7
TORSDOF 3
ENDMDL
