MODEL 1
REMARK minimizedAffinity 7.40104294
REMARK minimizedRMSD -1
REMARK  3 active torsions:
REMARK  status: ('A' for Active; 'I' for Inactive)
REMARK    1  A    between atoms: C3'_2  and  C2'_3 
REMARK    2  A    between atoms: C2'_3  and  C1'_4 
REMARK    3  A    between atoms: C1'_4  and  C1_5 
ROOT
ATOM      1  C1  N4B d   1       3.561  -5.998  -3.568  0.00  0.00    -0.075 A 
ATOM      2  C2  N4B d   1       2.150  -5.999  -3.616  0.00  0.00     0.002 A 
ATOM      3  C3  N4B d   1       1.505  -5.982  -4.828  0.00  0.00     0.002 A 
ATOM      4  C4  N4B d   1       2.246  -5.946  -6.000  0.00  0.00    -0.004 A 
ATOM      5  C5  N4B d   1       3.609  -5.971  -5.945  0.00  0.00     0.002 A 
ATOM      6  C6  N4B d   1       4.271  -5.992  -4.734  0.00  0.00     0.002 A 
ENDROOT
BRANCH   1   7
ATOM      7  C1' N4B d   1       4.311  -5.928  -2.265  0.00  0.00     0.057 C 
BRANCH   7   8
ATOM      8  C2' N4B d   1       3.388  -5.372  -1.185  0.00  0.00     0.009 C 
BRANCH   8   9
ATOM      9  C3' N4B d   1       4.016  -5.452   0.195  0.00  0.00     0.004 C 
ATOM     10  C4' N4B d   1       3.065  -5.070   1.290  0.00  0.00     0.003 C 
ENDBRANCH   8   9
ENDBRANCH   7   8
ENDBRANCH   1   7
TORSDOF 3
ENDMDL
