MODEL 1
REMARK minimizedAffinity 7.46013641
REMARK minimizedRMSD -1
REMARK  3 active torsions:
REMARK  status: ('A' for Active; 'I' for Inactive)
REMARK    1  A    between atoms: C3'_2  and  C2'_3 
REMARK    2  A    between atoms: C2'_3  and  C1'_4 
REMARK    3  A    between atoms: C1'_4  and  C1_5 
ROOT
ATOM      1  C1  N4B d   1       1.699  -2.148   3.328  0.00  0.00    -0.075 A 
ATOM      2  C2  N4B d   1       0.912  -3.321   3.326  0.00  0.00     0.002 A 
ATOM      3  C3  N4B d   1       1.429  -4.495   3.817  0.00  0.00     0.002 A 
ATOM      4  C4  N4B d   1       2.730  -4.525   4.296  0.00  0.00    -0.004 A 
ATOM      5  C5  N4B d   1       3.474  -3.382   4.318  0.00  0.00     0.002 A 
ATOM      6  C6  N4B d   1       2.967  -2.194   3.832  0.00  0.00     0.002 A 
ENDROOT
BRANCH   1   7
ATOM      7  C1' N4B d   1       1.208  -0.861   2.723  0.00  0.00     0.057 C 
BRANCH   7   8
ATOM      8  C2' N4B d   1       2.253  -0.339   1.741  0.00  0.00     0.009 C 
BRANCH   8   9
ATOM      9  C3' N4B d   1       2.260   1.178   1.672  0.00  0.00     0.004 C 
ATOM     10  C4' N4B d   1       3.163   1.707   0.599  0.00  0.00     0.003 C 
ENDBRANCH   8   9
ENDBRANCH   7   8
ENDBRANCH   1   7
TORSDOF 3
ENDMDL
