MODEL 1
REMARK minimizedAffinity 3.89036632
REMARK minimizedRMSD -1
REMARK  3 active torsions:
REMARK  status: ('A' for Active; 'I' for Inactive)
REMARK    1  A    between atoms: C3'_2  and  C2'_3 
REMARK    2  A    between atoms: C2'_3  and  C1'_4 
REMARK    3  A    between atoms: C1'_4  and  C1_5 
ROOT
ATOM      1  C1  N4B d   1      -3.393  -1.844  -3.898  0.00  0.00    -0.075 A 
ATOM      2  C2  N4B d   1      -3.454  -2.137  -5.278  0.00  0.00     0.002 A 
ATOM      3  C3  N4B d   1      -4.082  -3.279  -5.711  0.00  0.00     0.002 A 
ATOM      4  C4  N4B d   1      -4.637  -4.149  -4.784  0.00  0.00    -0.004 A 
ATOM      5  C5  N4B d   1      -4.597  -3.846  -3.455  0.00  0.00     0.002 A 
ATOM      6  C6  N4B d   1      -3.972  -2.699  -3.006  0.00  0.00     0.002 A 
ENDROOT
BRANCH   1   7
ATOM      7  C1' N4B d   1      -2.643  -0.651  -3.372  0.00  0.00     0.057 C 
BRANCH   7   8
ATOM      8  C2' N4B d   1      -3.487   0.603  -3.580  0.00  0.00     0.009 C 
BRANCH   8   9
ATOM      9  C3' N4B d   1      -3.136   1.696  -2.585  0.00  0.00     0.004 C 
ATOM     10  C4' N4B d   1      -2.389   1.177  -1.393  0.00  0.00     0.003 C 
ENDBRANCH   8   9
ENDBRANCH   7   8
ENDBRANCH   1   7
TORSDOF 3
ENDMDL
