MODEL 1
REMARK minimizedAffinity -2.39692545
REMARK minimizedRMSD -1
REMARK  1 active torsions:
REMARK  status: ('A' for Active; 'I' for Inactive)
REMARK    1  A    between atoms: C3_4  and  O_7 
ROOT
ATOM      1  C   UNL d   1       0.664  -0.438  -1.435  0.00  0.00    -0.033 A 
ATOM      2  C1  UNL d   1      -0.138   0.229  -0.507  0.00  0.00     0.039 A 
ATOM      3  C2  UNL d   1       0.223   0.252   0.841  0.00  0.00    -0.080 A 
ATOM      4  C3  UNL d   1       1.388  -0.393   1.248  0.00  0.00     0.150 A 
ATOM      5  C4  UNL d   1       2.193  -1.056   0.328  0.00  0.00    -0.007 A 
ATOM      6  C5  UNL d   1       1.830  -1.079  -1.018  0.00  0.00     0.039 A 
ENDROOT
BRANCH   4   7
ATOM      7  O   UNL d   1       1.779  -0.402   2.554  0.00  0.00    -0.526 OA
ATOM      8  H5  UNL d   1       1.111   0.070   3.078  0.00  0.00     0.418 HD
ENDBRANCH   4   7
TORSDOF 1
ENDMDL
