MODEL 1
REMARK minimizedAffinity -3.90430331
REMARK minimizedRMSD -1
REMARK  1 active torsions:
REMARK  status: ('A' for Active; 'I' for Inactive)
REMARK    1  A    between atoms: C3_4  and  O_7 
ROOT
ATOM      1  C   UNL d   1      -0.966   0.414  -0.806  0.00  0.00    -0.033 A 
ATOM      2  C1  UNL d   1       0.391   0.087  -0.754  0.00  0.00     0.039 A 
ATOM      3  C2  UNL d   1       0.968  -0.312   0.454  0.00  0.00    -0.080 A 
ATOM      4  C3  UNL d   1       0.180  -0.380   1.599  0.00  0.00     0.150 A 
ATOM      5  C4  UNL d   1      -1.173  -0.059   1.553  0.00  0.00    -0.007 A 
ATOM      6  C5  UNL d   1      -1.748   0.340   0.347  0.00  0.00     0.039 A 
ENDROOT
BRANCH   4   7
ATOM      7  O   UNL d   1       0.699  -0.759   2.801  0.00  0.00    -0.526 OA
ATOM      8  H5  UNL d   1       1.651  -0.922   2.687  0.00  0.00     0.418 HD
ENDBRANCH   4   7
TORSDOF 1
ENDMDL
