MODEL 1
REMARK minimizedAffinity -2.9426198
REMARK minimizedRMSD -1
REMARK  1 active torsions:
REMARK  status: ('A' for Active; 'I' for Inactive)
REMARK    1  A    between atoms: C3_4  and  O_7 
ROOT
ATOM      1  C   UNL d   1      -0.050   0.554  -0.309  0.00  0.00    -0.033 A 
ATOM      2  C1  UNL d   1       1.125   0.295   0.398  0.00  0.00     0.039 A 
ATOM      3  C2  UNL d   1       1.103  -0.559   1.503  0.00  0.00    -0.080 A 
ATOM      4  C3  UNL d   1      -0.099  -1.146   1.889  0.00  0.00     0.150 A 
ATOM      5  C4  UNL d   1      -1.273  -0.895   1.186  0.00  0.00    -0.007 A 
ATOM      6  C5  UNL d   1      -1.249  -0.041   0.084  0.00  0.00     0.039 A 
ENDROOT
BRANCH   4   7
ATOM      7  O   UNL d   1      -0.171  -1.982   2.963  0.00  0.00    -0.526 OA
ATOM      8  H5  UNL d   1       0.711  -2.040   3.368  0.00  0.00     0.418 HD
ENDBRANCH   4   7
TORSDOF 1
ENDMDL
