MODEL 1
REMARK minimizedAffinity -3.01946235
REMARK minimizedRMSD -1
REMARK  1 active torsions:
REMARK  status: ('A' for Active; 'I' for Inactive)
REMARK    1  A    between atoms: C3_4  and  O_7 
ROOT
ATOM      1  C   UNL d   1       3.502   6.000   4.589  0.00  0.00    -0.033 A 
ATOM      2  C1  UNL d   1       2.696   5.997   3.448  0.00  0.00     0.039 A 
ATOM      3  C2  UNL d   1       1.308   5.914   3.573  0.00  0.00    -0.080 A 
ATOM      4  C3  UNL d   1       0.739   5.835   4.841  0.00  0.00     0.150 A 
ATOM      5  C4  UNL d   1       1.535   5.841   5.981  0.00  0.00    -0.007 A 
ATOM      6  C5  UNL d   1       2.921   5.923   5.855  0.00  0.00     0.039 A 
ENDROOT
BRANCH   4   7
ATOM      7  O   UNL d   1      -0.611   5.747   5.012  0.00  0.00    -0.526 OA
ATOM      8  H5  UNL d   1      -1.032   5.725   4.136  0.00  0.00     0.418 HD
ENDBRANCH   4   7
TORSDOF 1
ENDMDL
