MODEL 1
REMARK minimizedAffinity -3.58008933
REMARK minimizedRMSD -1
REMARK  1 active torsions:
REMARK  status: ('A' for Active; 'I' for Inactive)
REMARK    1  A    between atoms: C3_4  and  O_7 
ROOT
ATOM      1  C   UNL d   1       0.403   0.468   0.746  0.00  0.00    -0.033 A 
ATOM      2  C1  UNL d   1      -0.931   0.073   0.623  0.00  0.00     0.039 A 
ATOM      3  C2  UNL d   1      -1.455  -0.898   1.478  0.00  0.00    -0.080 A 
ATOM      4  C3  UNL d   1      -0.637  -1.465   2.451  0.00  0.00     0.150 A 
ATOM      5  C4  UNL d   1       0.692  -1.074   2.582  0.00  0.00    -0.007 A 
ATOM      6  C5  UNL d   1       1.214  -0.104   1.727  0.00  0.00     0.039 A 
ENDROOT
BRANCH   4   7
ATOM      7  O   UNL d   1      -1.102  -2.420   3.305  0.00  0.00    -0.526 OA
ATOM      8  H5  UNL d   1      -2.028  -2.611   3.079  0.00  0.00     0.418 HD
ENDBRANCH   4   7
TORSDOF 1
ENDMDL
