MODEL 1
REMARK minimizedAffinity -1.89440489
REMARK minimizedRMSD -1
REMARK  1 active torsions:
REMARK  status: ('A' for Active; 'I' for Inactive)
REMARK    1  A    between atoms: C3_4  and  O_7 
ROOT
ATOM      1  C   UNL d   1       1.504  -0.582  -0.068  0.00  0.00    -0.033 A 
ATOM      2  C1  UNL d   1       0.593   0.331   0.467  0.00  0.00     0.039 A 
ATOM      3  C2  UNL d   1      -0.403   0.882  -0.342  0.00  0.00    -0.080 A 
ATOM      4  C3  UNL d   1      -0.477   0.512  -1.682  0.00  0.00     0.150 A 
ATOM      5  C4  UNL d   1       0.426  -0.399  -2.221  0.00  0.00    -0.007 A 
ATOM      6  C5  UNL d   1       1.420  -0.948  -1.412  0.00  0.00     0.039 A 
ENDROOT
BRANCH   4   7
ATOM      7  O   UNL d   1      -1.428   1.027  -2.512  0.00  0.00    -0.526 OA
ATOM      8  H5  UNL d   1      -1.962   1.664  -2.009  0.00  0.00     0.418 HD
ENDBRANCH   4   7
TORSDOF 1
ENDMDL
