MODEL 1
REMARK minimizedAffinity -5.03197241
REMARK minimizedRMSD -1
REMARK  1 active torsions:
REMARK  status: ('A' for Active; 'I' for Inactive)
REMARK    1  A    between atoms: C3_4  and  O_7 
ROOT
ATOM      1  C   UNL d   1       1.927  -2.218   2.238  0.00  0.00    -0.033 A 
ATOM      2  C1  UNL d   1       2.369  -2.281   0.915  0.00  0.00     0.039 A 
ATOM      3  C2  UNL d   1       1.739  -1.518  -0.070  0.00  0.00    -0.080 A 
ATOM      4  C3  UNL d   1       0.671  -0.697   0.280  0.00  0.00     0.150 A 
ATOM      5  C4  UNL d   1       0.228  -0.626   1.597  0.00  0.00    -0.007 A 
ATOM      6  C5  UNL d   1       0.858  -1.390   2.579  0.00  0.00     0.039 A 
ENDROOT
BRANCH   4   7
ATOM      7  O   UNL d   1       0.021   0.062  -0.647  0.00  0.00    -0.526 OA
ATOM      8  H5  UNL d   1       0.417  -0.110  -1.518  0.00  0.00     0.418 HD
ENDBRANCH   4   7
TORSDOF 1
ENDMDL
