MODEL 1
REMARK minimizedAffinity -2.6633389
REMARK minimizedRMSD -1
REMARK  1 active torsions:
REMARK  status: ('A' for Active; 'I' for Inactive)
REMARK    1  A    between atoms: C3_4  and  O_7 
ROOT
ATOM      1  C   UNL d   1      -1.030   0.121  -0.935  0.00  0.00    -0.033 A 
ATOM      2  C1  UNL d   1       0.340   0.167  -1.197  0.00  0.00     0.039 A 
ATOM      3  C2  UNL d   1       1.254  -0.218  -0.215  0.00  0.00    -0.080 A 
ATOM      4  C3  UNL d   1       0.786  -0.648   1.024  0.00  0.00     0.150 A 
ATOM      5  C4  UNL d   1      -0.579  -0.700   1.291  0.00  0.00    -0.007 A 
ATOM      6  C5  UNL d   1      -1.490  -0.314   0.309  0.00  0.00     0.039 A 
ENDROOT
BRANCH   4   7
ATOM      7  O   UNL d   1       1.639  -1.029   2.016  0.00  0.00    -0.526 OA
ATOM      8  H5  UNL d   1       2.551  -0.914   1.699  0.00  0.00     0.418 HD
ENDBRANCH   4   7
TORSDOF 1
ENDMDL
