MODEL 1
REMARK minimizedAffinity -2.9430542
REMARK minimizedRMSD -1
REMARK  1 active torsions:
REMARK  status: ('A' for Active; 'I' for Inactive)
REMARK    1  A    between atoms: C3_4  and  O_7 
ROOT
ATOM      1  C   UNL d   1      -1.345   0.054   0.236  0.00  0.00    -0.033 A 
ATOM      2  C1  UNL d   1      -1.908  -0.307   1.461  0.00  0.00     0.039 A 
ATOM      3  C2  UNL d   1      -1.085  -0.654   2.534  0.00  0.00    -0.080 A 
ATOM      4  C3  UNL d   1       0.297  -0.635   2.369  0.00  0.00     0.150 A 
ATOM      5  C4  UNL d   1       0.865  -0.273   1.152  0.00  0.00    -0.007 A 
ATOM      6  C5  UNL d   1       0.042   0.073   0.082  0.00  0.00     0.039 A 
ENDROOT
BRANCH   4   7
ATOM      7  O   UNL d   1       1.141  -0.971   3.386  0.00  0.00    -0.526 OA
ATOM      8  H5  UNL d   1       0.607  -1.227   4.157  0.00  0.00     0.418 HD
ENDBRANCH   4   7
TORSDOF 1
ENDMDL
