MODEL 1
REMARK minimizedAffinity -4.36947727
REMARK minimizedRMSD -1
REMARK  1 active torsions:
REMARK  status: ('A' for Active; 'I' for Inactive)
REMARK    1  A    between atoms: C3_4  and  O_7 
ROOT
ATOM      1  C   UNL d   1       0.852   1.163  -1.875  0.00  0.00    -0.033 A 
ATOM      2  C1  UNL d   1       0.604   2.335  -2.593  0.00  0.00     0.039 A 
ATOM      3  C2  UNL d   1      -0.655   2.936  -2.538  0.00  0.00    -0.080 A 
ATOM      4  C3  UNL d   1      -1.656   2.357  -1.762  0.00  0.00     0.150 A 
ATOM      5  C4  UNL d   1      -1.414   1.192  -1.041  0.00  0.00    -0.007 A 
ATOM      6  C5  UNL d   1      -0.157   0.593  -1.098  0.00  0.00     0.039 A 
ENDROOT
BRANCH   4   7
ATOM      7  O   UNL d   1      -2.901   2.904  -1.681  0.00  0.00    -0.526 OA
ATOM      8  H5  UNL d   1      -2.930   3.689  -2.253  0.00  0.00     0.418 HD
ENDBRANCH   4   7
TORSDOF 1
ENDMDL
