MODEL 1
REMARK minimizedAffinity -3.45555806
REMARK minimizedRMSD -1
REMARK  1 active torsions:
REMARK  status: ('A' for Active; 'I' for Inactive)
REMARK    1  A    between atoms: C3_4  and  O_7 
ROOT
ATOM      1  C   UNL d   1      -0.630  -0.600   2.639  0.00  0.00    -0.033 A 
ATOM      2  C1  UNL d   1       0.689  -0.796   2.225  0.00  0.00     0.039 A 
ATOM      3  C2  UNL d   1       1.021  -0.685   0.873  0.00  0.00    -0.080 A 
ATOM      4  C3  UNL d   1       0.027  -0.379  -0.052  0.00  0.00     0.150 A 
ATOM      5  C4  UNL d   1      -1.288  -0.179   0.354  0.00  0.00    -0.007 A 
ATOM      6  C5  UNL d   1      -1.618  -0.291   1.704  0.00  0.00     0.039 A 
ENDROOT
BRANCH   4   7
ATOM      7  O   UNL d   1       0.302  -0.265  -1.383  0.00  0.00    -0.526 OA
ATOM      8  H5  UNL d   1       1.245  -0.458  -1.519  0.00  0.00     0.418 HD
ENDBRANCH   4   7
TORSDOF 1
ENDMDL
