MODEL 1
REMARK minimizedAffinity -2.57515931
REMARK minimizedRMSD -1
REMARK  1 active torsions:
REMARK  status: ('A' for Active; 'I' for Inactive)
REMARK    1  A    between atoms: C3_4  and  O_7 
ROOT
ATOM      1  C   UNL d   1      -1.238   0.230   0.187  0.00  0.00    -0.033 A 
ATOM      2  C1  UNL d   1      -0.585  -0.390   1.255  0.00  0.00     0.039 A 
ATOM      3  C2  UNL d   1       0.592  -1.107   1.035  0.00  0.00    -0.080 A 
ATOM      4  C3  UNL d   1       1.106  -1.196  -0.256  0.00  0.00     0.150 A 
ATOM      5  C4  UNL d   1       0.463  -0.578  -1.324  0.00  0.00    -0.007 A 
ATOM      6  C5  UNL d   1      -0.713   0.137  -1.102  0.00  0.00     0.039 A 
ENDROOT
BRANCH   4   7
ATOM      7  O   UNL d   1       2.250  -1.889  -0.521  0.00  0.00    -0.526 OA
ATOM      8  H5  UNL d   1       2.568  -2.286   0.307  0.00  0.00     0.418 HD
ENDBRANCH   4   7
TORSDOF 1
ENDMDL
