MODEL 1
REMARK minimizedAffinity -2.30664635
REMARK minimizedRMSD -1
REMARK  0 active torsions:
REMARK  status: ('A' for Active; 'I' for Inactive)
ROOT
ATOM      1  C1  DEN d   1      -0.247  -0.923   2.751  0.00  0.00     0.130 A 
ATOM      2  C2  DEN d   1       0.808  -1.890   3.036  0.00  0.00    -0.031 A 
ATOM      3  C3  DEN d   1       1.647  -2.021   1.827  0.00  0.00     0.027 A 
ATOM      4  C4  DEN d   1       1.416  -0.820  -0.444  0.00  0.00     0.027 A 
ATOM      5  C5  DEN d   1       0.667   0.082  -1.166  0.00  0.00    -0.003 A 
ATOM      6  C6  DEN d   1      -0.450   0.683  -0.648  0.00  0.00     0.001 A 
ATOM      7  C7  DEN d   1      -0.824   0.422   0.643  0.00  0.00     0.017 A 
ATOM      8  C8  DEN d   1      -0.078  -0.493   1.375  0.00  0.00    -0.094 A 
ATOM      9  C9  DEN d   1       1.055  -1.080   0.838  0.00  0.00    -0.072 A 
ENDROOT
TORSDOF 0
ENDMDL
