MODEL 1
REMARK minimizedAffinity 16.1903591
REMARK minimizedRMSD -1
REMARK  0 active torsions:
REMARK  status: ('A' for Active; 'I' for Inactive)
ROOT
ATOM      1  C1  DEN d   1       3.148  -2.176  -1.886  0.00  0.00     0.130 A 
ATOM      2  C2  DEN d   1       3.523  -1.299  -2.992  0.00  0.00    -0.031 A 
ATOM      3  C3  DEN d   1       4.182  -2.124  -4.025  0.00  0.00     0.027 A 
ATOM      4  C4  DEN d   1       4.651  -4.660  -4.021  0.00  0.00     0.027 A 
ATOM      5  C5  DEN d   1       4.528  -5.823  -3.294  0.00  0.00    -0.003 A 
ATOM      6  C6  DEN d   1       3.971  -5.847  -2.043  0.00  0.00     0.001 A 
ATOM      7  C7  DEN d   1       3.475  -4.691  -1.499  0.00  0.00     0.017 A 
ATOM      8  C8  DEN d   1       3.603  -3.513  -2.223  0.00  0.00    -0.094 A 
ATOM      9  C9  DEN d   1       4.158  -3.512  -3.491  0.00  0.00    -0.072 A 
ENDROOT
TORSDOF 0
ENDMDL
