MODEL 1
REMARK minimizedAffinity 1.59087861
REMARK minimizedRMSD -1
REMARK  0 active torsions:
REMARK  status: ('A' for Active; 'I' for Inactive)
ROOT
ATOM      1  C1  DEN d   1       1.867  -4.446  -0.162  0.00  0.00     0.130 A 
ATOM      2  C2  DEN d   1       1.822  -5.785  -0.742  0.00  0.00    -0.031 A 
ATOM      3  C3  DEN d   1       3.076  -6.000  -1.492  0.00  0.00     0.027 A 
ATOM      4  C4  DEN d   1       5.074  -4.399  -1.806  0.00  0.00     0.027 A 
ATOM      5  C5  DEN d   1       5.566  -3.147  -1.511  0.00  0.00    -0.003 A 
ATOM      6  C6  DEN d   1       4.852  -2.235  -0.780  0.00  0.00     0.001 A 
ATOM      7  C7  DEN d   1       3.623  -2.578  -0.281  0.00  0.00     0.017 A 
ATOM      8  C8  DEN d   1       3.117  -3.836  -0.580  0.00  0.00    -0.094 A 
ATOM      9  C9  DEN d   1       3.860  -4.749  -1.310  0.00  0.00    -0.072 A 
ENDROOT
TORSDOF 0
ENDMDL
