MODEL 1
REMARK minimizedAffinity 3.36050224
REMARK minimizedRMSD -1
REMARK  0 active torsions:
REMARK  status: ('A' for Active; 'I' for Inactive)
ROOT
ATOM      1  C1  DEN d   1       3.109  -2.248  -0.096  0.00  0.00     0.130 A 
ATOM      2  C2  DEN d   1       4.445  -1.678  -0.247  0.00  0.00    -0.031 A 
ATOM      3  C3  DEN d   1       5.257  -2.622  -1.039  0.00  0.00     0.027 A 
ATOM      4  C4  DEN d   1       4.578  -4.898  -2.046  0.00  0.00     0.027 A 
ATOM      5  C5  DEN d   1       3.552  -5.808  -2.174  0.00  0.00    -0.003 A 
ATOM      6  C6  DEN d   1       2.327  -5.613  -1.593  0.00  0.00     0.001 A 
ATOM      7  C7  DEN d   1       2.082  -4.459  -0.896  0.00  0.00     0.017 A 
ATOM      8  C8  DEN d   1       3.114  -3.540  -0.757  0.00  0.00    -0.094 A 
ATOM      9  C9  DEN d   1       4.342  -3.750  -1.362  0.00  0.00    -0.072 A 
ENDROOT
TORSDOF 0
ENDMDL
