MODEL 1
REMARK minimizedAffinity 3.90089297
REMARK minimizedRMSD -1
REMARK  0 active torsions:
REMARK  status: ('A' for Active; 'I' for Inactive)
ROOT
ATOM      1  C1  DEN d   1      -1.452   1.035  -1.075  0.00  0.00     0.130 A 
ATOM      2  C2  DEN d   1      -2.642   0.470  -1.704  0.00  0.00    -0.031 A 
ATOM      3  C3  DEN d   1      -3.304   1.543  -2.474  0.00  0.00     0.027 A 
ATOM      4  C4  DEN d   1      -2.602   4.009  -2.754  0.00  0.00     0.027 A 
ATOM      5  C5  DEN d   1      -1.668   4.957  -2.400  0.00  0.00    -0.003 A 
ATOM      6  C6  DEN d   1      -0.625   4.676  -1.558  0.00  0.00     0.001 A 
ATOM      7  C7  DEN d   1      -0.464   3.403  -1.079  0.00  0.00     0.017 A 
ATOM      8  C8  DEN d   1      -1.405   2.443  -1.426  0.00  0.00    -0.094 A 
ATOM      9  C9  DEN d   1      -2.446   2.744  -2.288  0.00  0.00    -0.072 A 
ENDROOT
TORSDOF 0
ENDMDL
