MODEL 1
REMARK minimizedAffinity -1.74458981
REMARK minimizedRMSD -1
REMARK  0 active torsions:
REMARK  status: ('A' for Active; 'I' for Inactive)
ROOT
ATOM      1  C1  DEN d   1       1.664  -4.612  -0.355  0.00  0.00     0.130 A 
ATOM      2  C2  DEN d   1       1.775  -5.749  -1.265  0.00  0.00    -0.031 A 
ATOM      3  C3  DEN d   1       3.046  -5.618  -2.006  0.00  0.00     0.027 A 
ATOM      4  C4  DEN d   1       4.845  -3.778  -1.830  0.00  0.00     0.027 A 
ATOM      5  C5  DEN d   1       5.188  -2.600  -1.204  0.00  0.00    -0.003 A 
ATOM      6  C6  DEN d   1       4.372  -1.997  -0.284  0.00  0.00     0.001 A 
ATOM      7  C7  DEN d   1       3.191  -2.595   0.070  0.00  0.00     0.017 A 
ATOM      8  C8  DEN d   1       2.835  -3.779  -0.562  0.00  0.00    -0.094 A 
ATOM      9  C9  DEN d   1       3.679  -4.378  -1.480  0.00  0.00    -0.072 A 
ENDROOT
TORSDOF 0
ENDMDL
