MODEL 1
REMARK minimizedAffinity -0.284749508
REMARK minimizedRMSD -1
REMARK  0 active torsions:
REMARK  status: ('A' for Active; 'I' for Inactive)
ROOT
ATOM      1  C1  DEN d   1       3.198  -4.124  -3.648  0.00  0.00     0.130 A 
ATOM      2  C2  DEN d   1       3.905  -5.357  -3.984  0.00  0.00    -0.031 A 
ATOM      3  C3  DEN d   1       4.910  -5.608  -2.931  0.00  0.00     0.027 A 
ATOM      4  C4  DEN d   1       5.434  -4.218  -0.823  0.00  0.00     0.027 A 
ATOM      5  C5  DEN d   1       5.104  -3.082  -0.117  0.00  0.00    -0.003 A 
ATOM      6  C6  DEN d   1       4.147  -2.204  -0.552  0.00  0.00     0.001 A 
ATOM      7  C7  DEN d   1       3.454  -2.470  -1.703  0.00  0.00     0.017 A 
ATOM      8  C8  DEN d   1       3.786  -3.610  -2.425  0.00  0.00    -0.094 A 
ATOM      9  C9  DEN d   1       4.748  -4.491  -1.962  0.00  0.00    -0.072 A 
ENDROOT
TORSDOF 0
ENDMDL
