MODEL 1
REMARK minimizedAffinity 8.24951077
REMARK minimizedRMSD -1
REMARK  0 active torsions:
REMARK  status: ('A' for Active; 'I' for Inactive)
ROOT
ATOM      1  C   UNL d   1       0.736  -1.890   0.456  0.00  0.00     0.020 A 
ATOM      2  C1  UNL d   1       0.338  -2.907  -0.410  0.00  0.00     0.020 A 
ATOM      3  C2  UNL d   1       1.081  -3.173  -1.563  0.00  0.00     0.034 A 
ATOM      4  C3  UNL d   1       2.225  -2.421  -1.851  0.00  0.00     0.017 A 
ATOM      5  C4  UNL d   1       2.624  -1.401  -0.980  0.00  0.00     0.017 A 
ATOM      6  C5  UNL d   1       1.877  -1.139   0.172  0.00  0.00     0.034 A 
ATOM      7 Cl   UNL d   1       4.025  -0.430  -1.269  0.00  0.00    -0.070 Cl
ATOM      8 Cl1  UNL d   1       3.096  -2.805  -3.294  0.00  0.00    -0.070 Cl
ENDROOT
TORSDOF 0
ENDMDL
