MODEL 1
REMARK minimizedAffinity -0.116107352
REMARK minimizedRMSD -1
REMARK  0 active torsions:
REMARK  status: ('A' for Active; 'I' for Inactive)
ROOT
ATOM      1  C   UNL d   1      -1.151  -1.452  -2.411  0.00  0.00     0.020 A 
ATOM      2  C1  UNL d   1      -1.489  -0.133  -2.110  0.00  0.00     0.020 A 
ATOM      3  C2  UNL d   1      -0.830   0.538  -1.078  0.00  0.00     0.034 A 
ATOM      4  C3  UNL d   1       0.170  -0.109  -0.343  0.00  0.00     0.017 A 
ATOM      5  C4  UNL d   1       0.508  -1.433  -0.646  0.00  0.00     0.017 A 
ATOM      6  C5  UNL d   1      -0.155  -2.100  -1.681  0.00  0.00     0.034 A 
ATOM      7 Cl   UNL d   1       1.732  -2.297   0.216  0.00  0.00    -0.070 Cl
ATOM      8 Cl1  UNL d   1       0.943   0.782   0.919  0.00  0.00    -0.070 Cl
ENDROOT
TORSDOF 0
ENDMDL
