MODEL 1
REMARK minimizedAffinity -1.07804179
REMARK minimizedRMSD -1
REMARK  0 active torsions:
REMARK  status: ('A' for Active; 'I' for Inactive)
ROOT
ATOM      1  C   UNL d   1       0.600  -0.258  -0.351  0.00  0.00     0.020 A 
ATOM      2  C1  UNL d   1       0.197  -1.521  -0.784  0.00  0.00     0.020 A 
ATOM      3  C2  UNL d   1       1.098  -2.349  -1.457  0.00  0.00     0.034 A 
ATOM      4  C3  UNL d   1       2.407  -1.915  -1.699  0.00  0.00     0.017 A 
ATOM      5  C4  UNL d   1       2.810  -0.648  -1.264  0.00  0.00     0.017 A 
ATOM      6  C5  UNL d   1       1.904   0.177  -0.591  0.00  0.00     0.034 A 
ATOM      7 Cl   UNL d   1       4.409  -0.044  -1.526  0.00  0.00    -0.070 Cl
ATOM      8 Cl1  UNL d   1       3.468  -2.991  -2.537  0.00  0.00    -0.070 Cl
ENDROOT
TORSDOF 0
ENDMDL
