MODEL 1
REMARK minimizedAffinity -3.07926798
REMARK minimizedRMSD -1
REMARK  0 active torsions:
REMARK  status: ('A' for Active; 'I' for Inactive)
ROOT
ATOM      1  C   UNL d   1       1.183  -1.092  -0.683  0.00  0.00     0.020 A 
ATOM      2  C1  UNL d   1       0.406  -0.295  -1.522  0.00  0.00     0.020 A 
ATOM      3  C2  UNL d   1      -0.511  -0.886  -2.395  0.00  0.00     0.034 A 
ATOM      4  C3  UNL d   1      -0.652  -2.278  -2.429  0.00  0.00     0.017 A 
ATOM      5  C4  UNL d   1       0.128  -3.077  -1.586  0.00  0.00     0.017 A 
ATOM      6  C5  UNL d   1       1.045  -2.480  -0.714  0.00  0.00     0.034 A 
ATOM      7 Cl   UNL d   1       0.010  -4.801  -1.571  0.00  0.00    -0.070 Cl
ATOM      8 Cl1  UNL d   1      -1.805  -2.941  -3.532  0.00  0.00    -0.070 Cl
ENDROOT
TORSDOF 0
ENDMDL
