MODEL 1
REMARK minimizedAffinity 1.95911586
REMARK minimizedRMSD -1
REMARK  0 active torsions:
REMARK  status: ('A' for Active; 'I' for Inactive)
ROOT
ATOM      1  C   UNL d   1       0.719   0.022  -0.197  0.00  0.00     0.020 A 
ATOM      2  C1  UNL d   1       0.358  -1.260  -0.611  0.00  0.00     0.020 A 
ATOM      3  C2  UNL d   1       1.237  -2.016  -1.389  0.00  0.00     0.034 A 
ATOM      4  C3  UNL d   1       2.482  -1.492  -1.755  0.00  0.00     0.017 A 
ATOM      5  C4  UNL d   1       2.844  -0.206  -1.339  0.00  0.00     0.017 A 
ATOM      6  C5  UNL d   1       1.960   0.547  -0.560  0.00  0.00     0.034 A 
ATOM      7 Cl   UNL d   1       4.363   0.509  -1.751  0.00  0.00    -0.070 Cl
ATOM      8 Cl1  UNL d   1       3.519  -2.483  -2.718  0.00  0.00    -0.070 Cl
ENDROOT
TORSDOF 0
ENDMDL
