MODEL 1
REMARK minimizedAffinity 1.28665578
REMARK minimizedRMSD -1
REMARK  0 active torsions:
REMARK  status: ('A' for Active; 'I' for Inactive)
ROOT
ATOM      1  C   UNL d   1       0.289   0.426  -0.304  0.00  0.00     0.020 A 
ATOM      2  C1  UNL d   1      -0.208  -0.770  -0.820  0.00  0.00     0.020 A 
ATOM      3  C2  UNL d   1       0.668  -1.716  -1.357  0.00  0.00     0.034 A 
ATOM      4  C3  UNL d   1       2.045  -1.467  -1.379  0.00  0.00     0.017 A 
ATOM      5  C4  UNL d   1       2.543  -0.266  -0.861  0.00  0.00     0.017 A 
ATOM      6  C5  UNL d   1       1.661   0.678  -0.325  0.00  0.00     0.034 A 
ATOM      7 Cl   UNL d   1       4.229   0.112  -0.853  0.00  0.00    -0.070 Cl
ATOM      8 Cl1  UNL d   1       3.070  -2.681  -2.058  0.00  0.00    -0.070 Cl
ENDROOT
TORSDOF 0
ENDMDL
