MODEL 1
REMARK minimizedAffinity 12.8138895
REMARK minimizedRMSD -1
REMARK  0 active torsions:
REMARK  status: ('A' for Active; 'I' for Inactive)
ROOT
ATOM      1  C   UNL d   1       1.300  -1.005   2.909  0.00  0.00     0.023 A 
ATOM      2  C1  UNL d   1       2.061  -1.052   1.741  0.00  0.00     0.003 A 
ATOM      3  C2  UNL d   1       1.921  -2.125   0.858  0.00  0.00     0.048 A 
ATOM      4  C3  UNL d   1       1.016  -3.145   1.148  0.00  0.00     0.023 A 
ATOM      5  C4  UNL d   1       0.251  -3.101   2.315  0.00  0.00     0.048 A 
ATOM      6  C5  UNL d   1       0.396  -2.028   3.195  0.00  0.00     0.003 A 
ATOM      7  I   UNL d   1       0.805  -4.742  -0.166  0.00  0.00    -0.146 I 
ENDROOT
TORSDOF 0
ENDMDL
