MODEL 1
REMARK minimizedAffinity 11.3731842
REMARK minimizedRMSD -1
REMARK  0 active torsions:
REMARK  status: ('A' for Active; 'I' for Inactive)
ROOT
ATOM      1  C   UNL d   1      -5.469  -5.653  -5.450  0.00  0.00     0.023 A 
ATOM      2  C1  UNL d   1      -6.000  -4.487  -6.000  0.00  0.00     0.003 A 
ATOM      3  C2  UNL d   1      -5.747  -3.252  -5.399  0.00  0.00     0.048 A 
ATOM      4  C3  UNL d   1      -4.961  -3.191  -4.249  0.00  0.00     0.023 A 
ATOM      5  C4  UNL d   1      -4.427  -4.355  -3.695  0.00  0.00     0.048 A 
ATOM      6  C5  UNL d   1      -4.683  -5.588  -4.299  0.00  0.00     0.003 A 
ATOM      7  I   UNL d   1      -4.583  -1.354  -3.353  0.00  0.00    -0.146 I 
ENDROOT
TORSDOF 0
ENDMDL
