MODEL 1
REMARK minimizedAffinity 16.4497223
REMARK minimizedRMSD -1
REMARK  0 active torsions:
REMARK  status: ('A' for Active; 'I' for Inactive)
ROOT
ATOM      1  C   UNL d   1       1.673   5.784  -0.458  0.00  0.00     0.023 A 
ATOM      2  C1  UNL d   1       2.091   4.500  -0.810  0.00  0.00     0.003 A 
ATOM      3  C2  UNL d   1       1.203   3.427  -0.723  0.00  0.00     0.048 A 
ATOM      4  C3  UNL d   1      -0.103   3.643  -0.285  0.00  0.00     0.023 A 
ATOM      5  C4  UNL d   1      -0.527   4.926   0.067  0.00  0.00     0.048 A 
ATOM      6  C5  UNL d   1       0.365   5.996  -0.020  0.00  0.00     0.003 A 
ATOM      7  I   UNL d   1      -1.427   2.046  -0.156  0.00  0.00    -0.146 I 
ENDROOT
TORSDOF 0
ENDMDL
