MODEL 1
REMARK minimizedAffinity 7.48400688
REMARK minimizedRMSD -1
REMARK  0 active torsions:
REMARK  status: ('A' for Active; 'I' for Inactive)
ROOT
ATOM      1  C   UNL d   1       1.528  -0.756   2.185  0.00  0.00     0.023 A 
ATOM      2  C1  UNL d   1       1.477  -0.349   3.518  0.00  0.00     0.003 A 
ATOM      3  C2  UNL d   1       1.218  -1.280   4.526  0.00  0.00     0.048 A 
ATOM      4  C3  UNL d   1       1.013  -2.619   4.193  0.00  0.00     0.023 A 
ATOM      5  C4  UNL d   1       1.063  -3.032   2.861  0.00  0.00     0.048 A 
ATOM      6  C5  UNL d   1       1.321  -2.096   1.857  0.00  0.00     0.003 A 
ATOM      7  I   UNL d   1       0.628  -4.008   5.691  0.00  0.00    -0.146 I 
ENDROOT
TORSDOF 0
ENDMDL
