MODEL 1
REMARK minimizedAffinity -2.60437179
REMARK minimizedRMSD -1
REMARK  0 active torsions:
REMARK  status: ('A' for Active; 'I' for Inactive)
ROOT
ATOM      1  C   UNL d   1       1.103  -1.326   1.862  0.00  0.00     0.023 A 
ATOM      2  C1  UNL d   1       1.854  -2.276   1.171  0.00  0.00     0.003 A 
ATOM      3  C2  UNL d   1       1.812  -3.617   1.557  0.00  0.00     0.048 A 
ATOM      4  C3  UNL d   1       1.015  -4.001   2.635  0.00  0.00     0.023 A 
ATOM      5  C4  UNL d   1       0.261  -3.054   3.330  0.00  0.00     0.048 A 
ATOM      6  C5  UNL d   1       0.307  -1.714   2.940  0.00  0.00     0.003 A 
ATOM      7  I   UNL d   1       0.951  -5.997   3.212  0.00  0.00    -0.146 I 
ENDROOT
TORSDOF 0
ENDMDL
