MODEL 1
REMARK minimizedAffinity 12.4738255
REMARK minimizedRMSD -1
REMARK  0 active torsions:
REMARK  status: ('A' for Active; 'I' for Inactive)
ROOT
ATOM      1  C   UNL d   1       2.835   2.007   0.705  0.00  0.00     0.023 A 
ATOM      2  C1  UNL d   1       2.881   0.832  -0.045  0.00  0.00     0.003 A 
ATOM      3  C2  UNL d   1       2.366  -0.354   0.480  0.00  0.00     0.048 A 
ATOM      4  C3  UNL d   1       1.805  -0.358   1.757  0.00  0.00     0.023 A 
ATOM      5  C4  UNL d   1       1.755   0.815   2.511  0.00  0.00     0.048 A 
ATOM      6  C5  UNL d   1       2.273   1.999   1.982  0.00  0.00     0.003 A 
ATOM      7  I   UNL d   1       1.036  -2.123   2.542  0.00  0.00    -0.146 I 
ENDROOT
TORSDOF 0
ENDMDL
