MODEL 1
REMARK minimizedAffinity 4.84705639
REMARK minimizedRMSD -1
REMARK  0 active torsions:
REMARK  status: ('A' for Active; 'I' for Inactive)
ROOT
ATOM      1  C   UNL d   1       5.990   6.000  -3.841  0.00  0.00     0.023 A 
ATOM      2  C1  UNL d   1       5.907   5.988  -2.448  0.00  0.00     0.003 A 
ATOM      3  C2  UNL d   1       4.663   5.882  -1.823  0.00  0.00     0.048 A 
ATOM      4  C3  UNL d   1       3.506   5.787  -2.595  0.00  0.00     0.023 A 
ATOM      5  C4  UNL d   1       3.584   5.797  -3.989  0.00  0.00     0.048 A 
ATOM      6  C5  UNL d   1       4.830   5.905  -4.610  0.00  0.00     0.003 A 
ATOM      7  I   UNL d   1       1.654   5.628  -1.666  0.00  0.00    -0.146 I 
ENDROOT
TORSDOF 0
ENDMDL
