MODEL 1
REMARK minimizedAffinity 8.05735588
REMARK minimizedRMSD -1
REMARK  0 active torsions:
REMARK  status: ('A' for Active; 'I' for Inactive)
ROOT
ATOM      1  C   UNL d   1      -5.122  -1.338  -4.633  0.00  0.00     0.023 A 
ATOM      2  C1  UNL d   1      -5.971  -1.892  -5.592  0.00  0.00     0.003 A 
ATOM      3  C2  UNL d   1      -5.810  -3.222  -5.984  0.00  0.00     0.048 A 
ATOM      4  C3  UNL d   1      -4.798  -3.994  -5.413  0.00  0.00     0.023 A 
ATOM      5  C4  UNL d   1      -3.946  -3.444  -4.453  0.00  0.00     0.048 A 
ATOM      6  C5  UNL d   1      -4.111  -2.113  -4.065  0.00  0.00     0.003 A 
ATOM      7  I   UNL d   1      -4.556  -5.974  -5.995  0.00  0.00    -0.146 I 
ENDROOT
TORSDOF 0
ENDMDL
