MODEL 1
REMARK minimizedAffinity -1.51796949
REMARK minimizedRMSD -1
REMARK  1 active torsions:
REMARK  status: ('A' for Active; 'I' for Inactive)
REMARK    1  A    between atoms: C3_4  and  O_7 
ROOT
ATOM      1  C   UNL d   1       0.152   0.017   2.314  0.00  0.00    -0.033 A 
ATOM      2  C1  UNL d   1       1.135  -0.024   1.324  0.00  0.00     0.039 A 
ATOM      3  C2  UNL d   1       1.709  -1.244   0.957  0.00  0.00    -0.080 A 
ATOM      4  C3  UNL d   1       1.290  -2.412   1.587  0.00  0.00     0.150 A 
ATOM      5  C4  UNL d   1       0.308  -2.379   2.571  0.00  0.00    -0.007 A 
ATOM      6  C5  UNL d   1      -0.263  -1.160   2.936  0.00  0.00     0.039 A 
ENDROOT
BRANCH   4   7
ATOM      7  O   UNL d   1       1.824  -3.625   1.267  0.00  0.00    -0.526 OA
ATOM      8  H5  UNL d   1       2.510  -3.491   0.592  0.00  0.00     0.418 HD
ENDBRANCH   4   7
TORSDOF 1
ENDMDL
