MODEL 1
REMARK minimizedAffinity 2.07854271
REMARK minimizedRMSD -1
REMARK  1 active torsions:
REMARK  status: ('A' for Active; 'I' for Inactive)
REMARK    1  A    between atoms: C3_4  and  O_7 
ROOT
ATOM      1  C   UNL d   1       2.353  -3.708   0.848  0.00  0.00    -0.033 A 
ATOM      2  C1  UNL d   1       1.452  -4.564   1.485  0.00  0.00     0.039 A 
ATOM      3  C2  UNL d   1       0.482  -4.044   2.344  0.00  0.00    -0.080 A 
ATOM      4  C3  UNL d   1       0.422  -2.669   2.556  0.00  0.00     0.150 A 
ATOM      5  C4  UNL d   1       1.314  -1.811   1.922  0.00  0.00    -0.007 A 
ATOM      6  C5  UNL d   1       2.283  -2.332   1.065  0.00  0.00     0.039 A 
ENDROOT
BRANCH   4   7
ATOM      7  O   UNL d   1      -0.504  -2.116   3.390  0.00  0.00    -0.526 OA
ATOM      8  H5  UNL d   1      -1.033  -2.832   3.780  0.00  0.00     0.418 HD
ENDBRANCH   4   7
TORSDOF 1
ENDMDL
