MODEL 1
REMARK minimizedAffinity 2.75174928
REMARK minimizedRMSD -1
REMARK  1 active torsions:
REMARK  status: ('A' for Active; 'I' for Inactive)
REMARK    1  A    between atoms: C3_4  and  O_7 
ROOT
ATOM      1  C   UNL d   1       2.715  -3.846   0.052  0.00  0.00    -0.033 A 
ATOM      2  C1  UNL d   1       2.679  -2.450   0.032  0.00  0.00     0.039 A 
ATOM      3  C2  UNL d   1       2.029  -1.752   1.051  0.00  0.00    -0.080 A 
ATOM      4  C3  UNL d   1       1.422  -2.459   2.085  0.00  0.00     0.150 A 
ATOM      5  C4  UNL d   1       1.457  -3.850   2.114  0.00  0.00    -0.007 A 
ATOM      6  C5  UNL d   1       2.105  -4.546   1.094  0.00  0.00     0.039 A 
ENDROOT
BRANCH   4   7
ATOM      7  O   UNL d   1       0.772  -1.822   3.099  0.00  0.00    -0.526 OA
ATOM      8  H5  UNL d   1       0.804  -0.865   2.932  0.00  0.00     0.418 HD
ENDBRANCH   4   7
TORSDOF 1
ENDMDL
