MODEL 1
REMARK minimizedAffinity -1.35522079
REMARK minimizedRMSD -1
REMARK  1 active torsions:
REMARK  status: ('A' for Active; 'I' for Inactive)
REMARK    1  A    between atoms: C3_4  and  O_7 
ROOT
ATOM      1  C   UNL d   1       1.842  -2.880   1.621  0.00  0.00    -0.033 A 
ATOM      2  C1  UNL d   1       0.519  -2.761   1.190  0.00  0.00     0.039 A 
ATOM      3  C2  UNL d   1      -0.363  -1.915   1.863  0.00  0.00    -0.080 A 
ATOM      4  C3  UNL d   1       0.088  -1.193   2.965  0.00  0.00     0.150 A 
ATOM      5  C4  UNL d   1       1.405  -1.304   3.398  0.00  0.00    -0.007 A 
ATOM      6  C5  UNL d   1       2.285  -2.151   2.725  0.00  0.00     0.039 A 
ENDROOT
BRANCH   4   7
ATOM      7  O   UNL d   1      -0.737  -0.358   3.657  0.00  0.00    -0.526 OA
ATOM      8  H5  UNL d   1      -1.624  -0.405   3.262  0.00  0.00     0.418 HD
ENDBRANCH   4   7
TORSDOF 1
ENDMDL
