MODEL 1
REMARK minimizedAffinity 1.57101285
REMARK minimizedRMSD -1
REMARK  1 active torsions:
REMARK  status: ('A' for Active; 'I' for Inactive)
REMARK    1  A    between atoms: C3_4  and  O_7 
ROOT
ATOM      1  C   UNL d   1       0.460  -2.168   2.439  0.00  0.00    -0.033 A 
ATOM      2  C1  UNL d   1      -0.274  -2.008   1.262  0.00  0.00     0.039 A 
ATOM      3  C2  UNL d   1      -1.372  -1.145   1.234  0.00  0.00    -0.080 A 
ATOM      4  C3  UNL d   1      -1.723  -0.448   2.387  0.00  0.00     0.150 A 
ATOM      5  C4  UNL d   1      -0.993  -0.600   3.562  0.00  0.00    -0.007 A 
ATOM      6  C5  UNL d   1       0.102  -1.463   3.588  0.00  0.00     0.039 A 
ENDROOT
BRANCH   4   7
ATOM      7  O   UNL d   1      -2.788   0.401   2.410  0.00  0.00    -0.526 OA
ATOM      8  H5  UNL d   1      -3.215   0.384   1.537  0.00  0.00     0.418 HD
ENDBRANCH   4   7
TORSDOF 1
ENDMDL
