MODEL 1
REMARK minimizedAffinity 4.35141134
REMARK minimizedRMSD -1
REMARK  1 active torsions:
REMARK  status: ('A' for Active; 'I' for Inactive)
REMARK    1  A    between atoms: C3_4  and  O_7 
ROOT
ATOM      1  C   UNL d   1       2.358  -2.524   2.376  0.00  0.00    -0.033 A 
ATOM      2  C1  UNL d   1       3.103  -2.206   1.239  0.00  0.00     0.039 A 
ATOM      3  C2  UNL d   1       2.457  -1.796   0.071  0.00  0.00    -0.080 A 
ATOM      4  C3  UNL d   1       1.068  -1.706   0.054  0.00  0.00     0.150 A 
ATOM      5  C4  UNL d   1       0.320  -2.017   1.184  0.00  0.00    -0.007 A 
ATOM      6  C5  UNL d   1       0.966  -2.428   2.349  0.00  0.00     0.039 A 
ENDROOT
BRANCH   4   7
ATOM      7  O   UNL d   1       0.393  -1.315  -1.064  0.00  0.00    -0.526 OA
ATOM      8  H5  UNL d   1       1.038  -1.161  -1.775  0.00  0.00     0.418 HD
ENDBRANCH   4   7
TORSDOF 1
ENDMDL
