MODEL 1
REMARK minimizedAffinity 4.96557045
REMARK minimizedRMSD -1
REMARK  1 active torsions:
REMARK  status: ('A' for Active; 'I' for Inactive)
REMARK    1  A    between atoms: C3_4  and  O_7 
ROOT
ATOM      1  C   UNL d   1       3.637  -4.875   2.183  0.00  0.00    -0.033 A 
ATOM      2  C1  UNL d   1       3.578  -3.640   2.833  0.00  0.00     0.039 A 
ATOM      3  C2  UNL d   1       2.808  -2.605   2.300  0.00  0.00    -0.080 A 
ATOM      4  C3  UNL d   1       2.102  -2.817   1.119  0.00  0.00     0.150 A 
ATOM      5  C4  UNL d   1       2.154  -4.045   0.468  0.00  0.00    -0.007 A 
ATOM      6  C5  UNL d   1       2.924  -5.077   1.002  0.00  0.00     0.039 A 
ENDROOT
BRANCH   4   7
ATOM      7  O   UNL d   1       1.341  -1.835   0.558  0.00  0.00    -0.526 OA
ATOM      8  H5  UNL d   1       1.423  -1.033   1.101  0.00  0.00     0.418 HD
ENDBRANCH   4   7
TORSDOF 1
ENDMDL
