MODEL 1
REMARK minimizedAffinity -3.28325915
REMARK minimizedRMSD -1
REMARK  1 active torsions:
REMARK  status: ('A' for Active; 'I' for Inactive)
REMARK    1  A    between atoms: N_2  and  C1_3 
ROOT
ATOM      1  C1  UNL d   1       0.477  -0.072   0.530  0.00  0.00     0.143 A 
ATOM      2  C2  UNL d   1      -0.841   0.381   0.663  0.00  0.00    -0.057 A 
ATOM      3  C3  UNL d   1      -1.745  -0.258   1.520  0.00  0.00     0.033 A 
ATOM      4  C4  UNL d   1      -1.354  -1.382   2.240  0.00  0.00    -0.042 A 
ATOM      5  C5  UNL d   1      -0.057  -1.864   2.105  0.00  0.00     0.033 A 
ATOM      6  C6  UNL d   1       0.843  -1.218   1.252  0.00  0.00    -0.057 A 
ENDROOT
BRANCH   1   7
ATOM      7  N   UNL d   1       1.394   0.460  -0.380  0.00  0.00    -0.732 N 
ATOM      8  C   UNL d   1       1.136   0.407  -1.803  0.00  0.00     0.284 C 
ATOM      9  H3  UNL d   1       1.789   1.342  -0.061  0.00  0.00     0.395 HD
ENDBRANCH   1   7
TORSDOF 1
ENDMDL
