MODEL 1
REMARK minimizedAffinity -0.890963972
REMARK minimizedRMSD -1
REMARK  1 active torsions:
REMARK  status: ('A' for Active; 'I' for Inactive)
REMARK    1  A    between atoms: N_2  and  C1_3 
ROOT
ATOM      1  C1  UNL d   1       1.870   1.047   0.449  0.00  0.00     0.143 A 
ATOM      2  C2  UNL d   1       2.187   2.226  -0.233  0.00  0.00    -0.057 A 
ATOM      3  C3  UNL d   1       2.815   3.295   0.418  0.00  0.00     0.033 A 
ATOM      4  C4  UNL d   1       3.112   3.214   1.774  0.00  0.00    -0.042 A 
ATOM      5  C5  UNL d   1       2.783   2.060   2.478  0.00  0.00     0.033 A 
ATOM      6  C6  UNL d   1       2.162   0.994   1.821  0.00  0.00    -0.057 A 
ENDROOT
BRANCH   1   7
ATOM      7  N   UNL d   1       1.157  -0.012  -0.118  0.00  0.00    -0.732 N 
ATOM      8  C   UNL d   1      -0.215   0.165  -0.540  0.00  0.00     0.284 C 
ATOM      9  H3  UNL d   1       1.723  -0.560  -0.763  0.00  0.00     0.395 HD
ENDBRANCH   1   7
TORSDOF 1
ENDMDL
