MODEL 1
REMARK minimizedAffinity -3.65823674
REMARK minimizedRMSD -1
REMARK  1 active torsions:
REMARK  status: ('A' for Active; 'I' for Inactive)
REMARK    1  A    between atoms: N_2  and  C1_3 
ROOT
ATOM      1  C1  UNL d   1       0.357   0.851  -0.047  0.00  0.00     0.143 A 
ATOM      2  C2  UNL d   1       0.135   1.685  -1.149  0.00  0.00    -0.057 A 
ATOM      3  C3  UNL d   1      -0.944   1.471  -2.015  0.00  0.00     0.033 A 
ATOM      4  C4  UNL d   1      -1.805   0.397  -1.811  0.00  0.00    -0.042 A 
ATOM      5  C5  UNL d   1      -1.589  -0.459  -0.737  0.00  0.00     0.033 A 
ATOM      6  C6  UNL d   1      -0.514  -0.235   0.128  0.00  0.00    -0.057 A 
ENDROOT
BRANCH   1   7
ATOM      7  N   UNL d   1       1.468   0.954   0.793  0.00  0.00    -0.732 N 
ATOM      8  C   UNL d   1       2.445   2.004   0.600  0.00  0.00     0.284 C 
ATOM      9  H3  UNL d   1       1.236   0.776   1.768  0.00  0.00     0.395 HD
ENDBRANCH   1   7
TORSDOF 1
ENDMDL
