MODEL 1
REMARK minimizedAffinity -2.99932051
REMARK minimizedRMSD -1
REMARK  1 active torsions:
REMARK  status: ('A' for Active; 'I' for Inactive)
REMARK    1  A    between atoms: N_2  and  C1_3 
ROOT
ATOM      1  C1  UNL d   1       1.302   0.417  -0.030  0.00  0.00     0.143 A 
ATOM      2  C2  UNL d   1       0.587  -0.323   0.918  0.00  0.00    -0.057 A 
ATOM      3  C3  UNL d   1      -0.662  -0.879   0.614  0.00  0.00     0.033 A 
ATOM      4  C4  UNL d   1      -1.233  -0.679  -0.638  0.00  0.00    -0.042 A 
ATOM      5  C5  UNL d   1      -0.551   0.074  -1.588  0.00  0.00     0.033 A 
ATOM      6  C6  UNL d   1       0.698   0.621  -1.281  0.00  0.00    -0.057 A 
ENDROOT
BRANCH   1   7
ATOM      7  N   UNL d   1       2.502   1.077   0.242  0.00  0.00    -0.732 N 
ATOM      8  C   UNL d   1       2.519   2.265   1.070  0.00  0.00     0.284 C 
ATOM      9  H3  UNL d   1       3.268   0.433   0.425  0.00  0.00     0.395 HD
ENDBRANCH   1   7
TORSDOF 1
ENDMDL
