MODEL 1
REMARK minimizedAffinity 0.714300513
REMARK minimizedRMSD -1
REMARK  1 active torsions:
REMARK  status: ('A' for Active; 'I' for Inactive)
REMARK    1  A    between atoms: N_2  and  C1_3 
ROOT
ATOM      1  C1  UNL d   1       1.824   1.072  -0.005  0.00  0.00     0.143 A 
ATOM      2  C2  UNL d   1       1.143   0.782   1.182  0.00  0.00    -0.057 A 
ATOM      3  C3  UNL d   1      -0.087   0.114   1.169  0.00  0.00     0.033 A 
ATOM      4  C4  UNL d   1      -0.675  -0.250  -0.038  0.00  0.00    -0.042 A 
ATOM      5  C5  UNL d   1      -0.028   0.050  -1.231  0.00  0.00     0.033 A 
ATOM      6  C6  UNL d   1       1.204   0.710  -1.212  0.00  0.00    -0.057 A 
ENDROOT
BRANCH   1   7
ATOM      7  N   UNL d   1       3.003   1.820  -0.063  0.00  0.00    -0.732 N 
ATOM      8  C   UNL d   1       3.101   3.094   0.615  0.00  0.00     0.284 C 
ATOM      9  H3  UNL d   1       3.835   1.240   0.018  0.00  0.00     0.395 HD
ENDBRANCH   1   7
TORSDOF 1
ENDMDL
