MODEL 1
REMARK minimizedAffinity -3.24529648
REMARK minimizedRMSD -1
REMARK  1 active torsions:
REMARK  status: ('A' for Active; 'I' for Inactive)
REMARK    1  A    between atoms: N_2  and  C1_3 
ROOT
ATOM      1  C1  UNL d   1       0.105  -0.275  -0.253  0.00  0.00     0.143 A 
ATOM      2  C2  UNL d   1      -0.642  -1.025   0.661  0.00  0.00    -0.057 A 
ATOM      3  C3  UNL d   1      -1.883  -1.569   0.311  0.00  0.00     0.033 A 
ATOM      4  C4  UNL d   1      -2.415  -1.347  -0.955  0.00  0.00    -0.042 A 
ATOM      5  C5  UNL d   1      -1.701  -0.584  -1.872  0.00  0.00     0.033 A 
ATOM      6  C6  UNL d   1      -0.459  -0.049  -1.519  0.00  0.00    -0.057 A 
ENDROOT
BRANCH   1   7
ATOM      7  N   UNL d   1       1.300   0.375   0.066  0.00  0.00    -0.732 N 
ATOM      8  C   UNL d   1       1.296   1.560   0.896  0.00  0.00     0.284 C 
ATOM      9  H3  UNL d   1       2.053  -0.277   0.276  0.00  0.00     0.395 HD
ENDBRANCH   1   7
TORSDOF 1
ENDMDL
