MODEL 1
REMARK minimizedAffinity -2.52671933
REMARK minimizedRMSD -1
REMARK  1 active torsions:
REMARK  status: ('A' for Active; 'I' for Inactive)
REMARK    1  A    between atoms: N_2  and  C1_3 
ROOT
ATOM      1  C1  UNL d   1       2.076   1.286   0.476  0.00  0.00     0.143 A 
ATOM      2  C2  UNL d   1       2.987   2.063  -0.247  0.00  0.00    -0.057 A 
ATOM      3  C3  UNL d   1       3.319   3.360   0.162  0.00  0.00     0.033 A 
ATOM      4  C4  UNL d   1       2.723   3.915   1.289  0.00  0.00    -0.042 A 
ATOM      5  C5  UNL d   1       1.796   3.170   2.010  0.00  0.00     0.033 A 
ATOM      6  C6  UNL d   1       1.473   1.872   1.600  0.00  0.00    -0.057 A 
ENDROOT
BRANCH   1   7
ATOM      7  N   UNL d   1       1.630   0.027   0.066  0.00  0.00    -0.732 N 
ATOM      8  C   UNL d   1       0.216  -0.239  -0.092  0.00  0.00     0.284 C 
ATOM      9  H3  UNL d   1       2.212  -0.371  -0.668  0.00  0.00     0.395 HD
ENDBRANCH   1   7
TORSDOF 1
ENDMDL
