MODEL 1
REMARK minimizedAffinity -3.47301698
REMARK minimizedRMSD -1
REMARK  1 active torsions:
REMARK  status: ('A' for Active; 'I' for Inactive)
REMARK    1  A    between atoms: N_2  and  C1_3 
ROOT
ATOM      1  C1  UNL d   1      -0.770  -0.272  -0.057  0.00  0.00     0.143 A 
ATOM      2  C2  UNL d   1      -0.649  -1.266   0.920  0.00  0.00    -0.057 A 
ATOM      3  C3  UNL d   1       0.593  -1.578   1.488  0.00  0.00     0.033 A 
ATOM      4  C4  UNL d   1       1.742  -0.917   1.067  0.00  0.00    -0.042 A 
ATOM      5  C5  UNL d   1       1.649   0.057   0.080  0.00  0.00     0.033 A 
ATOM      6  C6  UNL d   1       0.406   0.368  -0.479  0.00  0.00    -0.057 A 
ENDROOT
BRANCH   1   7
ATOM      7  N   UNL d   1      -1.960   0.016  -0.731  0.00  0.00    -0.732 N 
ATOM      8  C   UNL d   1      -2.322  -0.711  -1.929  0.00  0.00     0.284 C 
ATOM      9  H3  UNL d   1      -2.736   0.182  -0.094  0.00  0.00     0.395 HD
ENDBRANCH   1   7
TORSDOF 1
ENDMDL
