MODEL 1
REMARK minimizedAffinity -1.22575223
REMARK minimizedRMSD -1
REMARK  1 active torsions:
REMARK  status: ('A' for Active; 'I' for Inactive)
REMARK    1  A    between atoms: N_2  and  C1_3 
ROOT
ATOM      1  C1  UNL d   1      -1.910  -1.486  -0.663  0.00  0.00     0.143 A 
ATOM      2  C2  UNL d   1      -2.367  -0.836  -1.815  0.00  0.00    -0.057 A 
ATOM      3  C3  UNL d   1      -1.743   0.323  -2.290  0.00  0.00     0.033 A 
ATOM      4  C4  UNL d   1      -0.665   0.872  -1.604  0.00  0.00    -0.042 A 
ATOM      5  C5  UNL d   1      -0.209   0.258  -0.443  0.00  0.00     0.033 A 
ATOM      6  C6  UNL d   1      -0.832  -0.904   0.024  0.00  0.00    -0.057 A 
ENDROOT
BRANCH   1   7
ATOM      7  N   UNL d   1      -2.548  -2.585  -0.085  0.00  0.00    -0.732 N 
ATOM      8  C   UNL d   1      -1.889  -3.365   0.942  0.00  0.00     0.284 C 
ATOM      9  H3  UNL d   1      -3.535  -2.412   0.094  0.00  0.00     0.395 HD
ENDBRANCH   1   7
TORSDOF 1
ENDMDL
