MODEL 1
REMARK minimizedAffinity 1.00449991
REMARK minimizedRMSD -1
REMARK  0 active torsions:
REMARK  status: ('A' for Active; 'I' for Inactive)
ROOT
ATOM      1  C   UNL d   1      -2.423  -0.042  -2.969  0.00  0.00     0.124 A 
ATOM      2  C1  UNL d   1      -1.291  -0.760  -3.330  0.00  0.00     0.062 A 
ATOM      3  C2  UNL d   1      -0.251  -0.929  -2.421  0.00  0.00     0.162 A 
ATOM      4  C3  UNL d   1      -0.337  -0.379  -1.142  0.00  0.00    -0.034 A 
ATOM      5  C4  UNL d   1      -1.479   0.343  -0.787  0.00  0.00     0.162 A 
ATOM      6  C5  UNL d   1      -2.516   0.508  -1.699  0.00  0.00     0.062 A 
ATOM      7  F   UNL d   1      -3.609   1.202  -1.349  0.00  0.00    -0.097 F 
ATOM      8  F1  UNL d   1      -1.595   0.885   0.434  0.00  0.00    -0.096 F 
ATOM      9  I   UNL d   1       1.217  -0.628   0.220  0.00  0.00    -0.060 I 
ATOM     10  F2  UNL d   1       0.831  -1.627  -2.796  0.00  0.00    -0.096 F 
ATOM     11  F3  UNL d   1      -1.199  -1.292  -4.557  0.00  0.00    -0.097 F 
ATOM     12  F4  UNL d   1      -3.423   0.119  -3.846  0.00  0.00    -0.092 F 
ENDROOT
TORSDOF 0
ENDMDL
