MODEL 1
REMARK minimizedAffinity -1.94504559
REMARK minimizedRMSD -1
REMARK  0 active torsions:
REMARK  status: ('A' for Active; 'I' for Inactive)
ROOT
ATOM      1  C   UNL d   1       1.646   0.942   0.557  0.00  0.00     0.124 A 
ATOM      2  C1  UNL d   1       1.911  -0.367   0.177  0.00  0.00     0.062 A 
ATOM      3  C2  UNL d   1       0.920  -1.135  -0.427  0.00  0.00     0.162 A 
ATOM      4  C3  UNL d   1      -0.346  -0.596  -0.657  0.00  0.00    -0.034 A 
ATOM      5  C4  UNL d   1      -0.605   0.721  -0.272  0.00  0.00     0.162 A 
ATOM      6  C5  UNL d   1       0.389   1.485   0.332  0.00  0.00     0.062 A 
ATOM      7  F   UNL d   1       0.131   2.749   0.697  0.00  0.00    -0.097 F 
ATOM      8  F1  UNL d   1      -1.811   1.271  -0.478  0.00  0.00    -0.096 F 
ATOM      9  I   UNL d   1      -1.830  -1.741  -1.560  0.00  0.00    -0.060 I 
ATOM     10  F2  UNL d   1       1.204  -2.396  -0.783  0.00  0.00    -0.096 F 
ATOM     11  F3  UNL d   1       3.125  -0.893   0.394  0.00  0.00    -0.097 F 
ATOM     12  F4  UNL d   1       2.601   1.679   1.139  0.00  0.00    -0.092 F 
ENDROOT
TORSDOF 0
ENDMDL
