MODEL 1
REMARK minimizedAffinity -2.28072643
REMARK minimizedRMSD -1
REMARK  0 active torsions:
REMARK  status: ('A' for Active; 'I' for Inactive)
ROOT
ATOM      1  C   UNL d   1      -2.027  -0.779  -0.754  0.00  0.00     0.124 A 
ATOM      2  C1  UNL d   1      -1.414   0.403  -1.146  0.00  0.00     0.062 A 
ATOM      3  C2  UNL d   1      -0.230   0.811  -0.538  0.00  0.00     0.162 A 
ATOM      4  C3  UNL d   1       0.349   0.037   0.468  0.00  0.00    -0.034 A 
ATOM      5  C4  UNL d   1      -0.275  -1.149   0.857  0.00  0.00     0.162 A 
ATOM      6  C5  UNL d   1      -1.458  -1.553   0.247  0.00  0.00     0.062 A 
ATOM      7  F   UNL d   1      -2.050  -2.695   0.627  0.00  0.00    -0.097 F 
ATOM      8  F1  UNL d   1       0.254  -1.917   1.821  0.00  0.00    -0.096 F 
ATOM      9  I   UNL d   1       2.118   0.645   1.379  0.00  0.00    -0.060 I 
ATOM     10  F2  UNL d   1       0.341   1.958  -0.937  0.00  0.00    -0.096 F 
ATOM     11  F3  UNL d   1      -1.962   1.153  -2.112  0.00  0.00    -0.097 F 
ATOM     12  F4  UNL d   1      -3.167  -1.169  -1.339  0.00  0.00    -0.092 F 
ENDROOT
TORSDOF 0
ENDMDL
