MODEL 1
REMARK minimizedAffinity 0.104322374
REMARK minimizedRMSD -1
REMARK  0 active torsions:
REMARK  status: ('A' for Active; 'I' for Inactive)
ROOT
ATOM      1  C   UNL d   1      -1.092   0.737   0.352  0.00  0.00     0.124 A 
ATOM      2  C1  UNL d   1      -0.086   1.692   0.320  0.00  0.00     0.062 A 
ATOM      3  C2  UNL d   1       1.247   1.309   0.433  0.00  0.00     0.162 A 
ATOM      4  C3  UNL d   1       1.582  -0.038   0.577  0.00  0.00    -0.034 A 
ATOM      5  C4  UNL d   1       0.565  -0.993   0.609  0.00  0.00     0.162 A 
ATOM      6  C5  UNL d   1      -0.766  -0.604   0.496  0.00  0.00     0.062 A 
ATOM      7  F   UNL d   1      -1.737  -1.529   0.527  0.00  0.00    -0.097 F 
ATOM      8  F1  UNL d   1       0.852  -2.296   0.747  0.00  0.00    -0.096 F 
ATOM      9  I   UNL d   1       3.575  -0.616   0.746  0.00  0.00    -0.060 I 
ATOM     10  F2  UNL d   1       2.199   2.253   0.399  0.00  0.00    -0.096 F 
ATOM     11  F3  UNL d   1      -0.398   2.989   0.181  0.00  0.00    -0.097 F 
ATOM     12  F4  UNL d   1      -2.374   1.109   0.244  0.00  0.00    -0.092 F 
ENDROOT
TORSDOF 0
ENDMDL
