MODEL 1
REMARK minimizedAffinity -2.98659325
REMARK minimizedRMSD -1
REMARK  0 active torsions:
REMARK  status: ('A' for Active; 'I' for Inactive)
ROOT
ATOM      1  C   UNL d   1       2.419  -1.284   1.452  0.00  0.00     0.124 A 
ATOM      2  C1  UNL d   1       2.376  -0.137   0.672  0.00  0.00     0.062 A 
ATOM      3  C2  UNL d   1       1.169   0.301   0.136  0.00  0.00     0.162 A 
ATOM      4  C3  UNL d   1      -0.007  -0.409   0.378  0.00  0.00    -0.034 A 
ATOM      5  C4  UNL d   1       0.044  -1.563   1.163  0.00  0.00     0.162 A 
ATOM      6  C5  UNL d   1       1.253  -1.996   1.697  0.00  0.00     0.062 A 
ATOM      7  F   UNL d   1       1.292  -3.104   2.450  0.00  0.00    -0.097 F 
ATOM      8  F1  UNL d   1      -1.068  -2.269   1.416  0.00  0.00    -0.096 F 
ATOM      9  I   UNL d   1      -1.815   0.241  -0.422  0.00  0.00    -0.060 I 
ATOM     10  F2  UNL d   1       1.157   1.413  -0.614  0.00  0.00    -0.096 F 
ATOM     11  F3  UNL d   1       3.501   0.552   0.433  0.00  0.00    -0.097 F 
ATOM     12  F4  UNL d   1       3.582  -1.703   1.966  0.00  0.00    -0.092 F 
ENDROOT
TORSDOF 0
ENDMDL
