MODEL 1
REMARK minimizedAffinity -3.14113259
REMARK minimizedRMSD -1
REMARK  0 active torsions:
REMARK  status: ('A' for Active; 'I' for Inactive)
ROOT
ATOM      1  C   UNL d   1      -1.402   0.705   0.129  0.00  0.00     0.124 A 
ATOM      2  C1  UNL d   1      -0.489   1.750   0.095  0.00  0.00     0.062 A 
ATOM      3  C2  UNL d   1       0.872   1.495   0.238  0.00  0.00     0.162 A 
ATOM      4  C3  UNL d   1       1.328   0.189   0.415  0.00  0.00    -0.034 A 
ATOM      5  C4  UNL d   1       0.404  -0.857   0.450  0.00  0.00     0.162 A 
ATOM      6  C5  UNL d   1      -0.955  -0.597   0.306  0.00  0.00     0.062 A 
ATOM      7  F   UNL d   1      -1.836  -1.607   0.340  0.00  0.00    -0.097 F 
ATOM      8  F1  UNL d   1       0.808  -2.124   0.619  0.00  0.00    -0.096 F 
ATOM      9  I   UNL d   1       3.362  -0.197   0.630  0.00  0.00    -0.060 I 
ATOM     10  F2  UNL d   1       1.732   2.523   0.201  0.00  0.00    -0.096 F 
ATOM     11  F3  UNL d   1      -0.918   3.008  -0.076  0.00  0.00    -0.097 F 
ATOM     12  F4  UNL d   1      -2.711   0.953  -0.008  0.00  0.00    -0.092 F 
ENDROOT
TORSDOF 0
ENDMDL
