MODEL 1
REMARK minimizedAffinity -5.23001194
REMARK minimizedRMSD -1
REMARK  0 active torsions:
REMARK  status: ('A' for Active; 'I' for Inactive)
ROOT
ATOM      1  C   UNL d   1      -3.297   0.540  -2.996  0.00  0.00     0.124 A 
ATOM      2  C1  UNL d   1      -2.474  -0.560  -3.192  0.00  0.00     0.062 A 
ATOM      3  C2  UNL d   1      -1.454  -0.841  -2.288  0.00  0.00     0.162 A 
ATOM      4  C3  UNL d   1      -1.252  -0.021  -1.178  0.00  0.00    -0.034 A 
ATOM      5  C4  UNL d   1      -2.084   1.084  -0.988  0.00  0.00     0.162 A 
ATOM      6  C5  UNL d   1      -3.101   1.361  -1.895  0.00  0.00     0.062 A 
ATOM      7  F   UNL d   1      -3.896   2.424  -1.704  0.00  0.00    -0.097 F 
ATOM      8  F1  UNL d   1      -1.917   1.894   0.069  0.00  0.00    -0.096 F 
ATOM      9  I   UNL d   1       0.272  -0.438   0.177  0.00  0.00    -0.060 I 
ATOM     10  F2  UNL d   1      -0.674  -1.911  -2.502  0.00  0.00    -0.096 F 
ATOM     11  F3  UNL d   1      -2.661  -1.354  -4.256  0.00  0.00    -0.097 F 
ATOM     12  F4  UNL d   1      -4.277   0.809  -3.869  0.00  0.00    -0.092 F 
ENDROOT
TORSDOF 0
ENDMDL
