MODEL 1
REMARK minimizedAffinity -0.838987112
REMARK minimizedRMSD -1
REMARK  0 active torsions:
REMARK  status: ('A' for Active; 'I' for Inactive)
ROOT
ATOM      1  C   UNL d   1      -1.631  -0.893  -0.037  0.00  0.00     0.124 A 
ATOM      2  C1  UNL d   1      -0.886   0.049  -0.733  0.00  0.00     0.062 A 
ATOM      3  C2  UNL d   1       0.403   0.370  -0.316  0.00  0.00     0.162 A 
ATOM      4  C3  UNL d   1       0.956  -0.253   0.803  0.00  0.00    -0.034 A 
ATOM      5  C4  UNL d   1       0.200  -1.199   1.498  0.00  0.00     0.162 A 
ATOM      6  C5  UNL d   1      -1.088  -1.515   1.077  0.00  0.00     0.062 A 
ATOM      7  F   UNL d   1      -1.806  -2.425   1.751  0.00  0.00    -0.097 F 
ATOM      8  F1  UNL d   1       0.700  -1.816   2.579  0.00  0.00    -0.096 F 
ATOM      9  I   UNL d   1       2.882   0.223   1.430  0.00  0.00    -0.060 I 
ATOM     10  F2  UNL d   1       1.100   1.283  -1.008  0.00  0.00    -0.096 F 
ATOM     11  F3  UNL d   1      -1.408   0.653  -1.810  0.00  0.00    -0.097 F 
ATOM     12  F4  UNL d   1      -2.871  -1.198  -0.440  0.00  0.00    -0.092 F 
ENDROOT
TORSDOF 0
ENDMDL
