MODEL 1
REMARK minimizedAffinity -4.87710905
REMARK minimizedRMSD -1
REMARK  1 active torsions:
REMARK  status: ('A' for Active; 'I' for Inactive)
REMARK    1  A    between atoms: C3_4  and  O_7 
ROOT
ATOM      1  C   UNL d   1       0.245   0.427   0.129  0.00  0.00    -0.033 A 
ATOM      2  C1  UNL d   1      -1.023  -0.106   0.368  0.00  0.00     0.039 A 
ATOM      3  C2  UNL d   1      -1.321  -0.674   1.608  0.00  0.00    -0.080 A 
ATOM      4  C3  UNL d   1      -0.344  -0.702   2.600  0.00  0.00     0.150 A 
ATOM      5  C4  UNL d   1       0.920  -0.169   2.370  0.00  0.00    -0.007 A 
ATOM      6  C5  UNL d   1       1.216   0.397   1.131  0.00  0.00     0.039 A 
ENDROOT
BRANCH   4   7
ATOM      7  O   UNL d   1      -0.587  -1.250   3.824  0.00  0.00    -0.526 OA
ATOM      8  H5  UNL d   1      -1.492  -1.604   3.829  0.00  0.00     0.418 HD
ENDBRANCH   4   7
TORSDOF 1
ENDMDL
