MODEL 1
REMARK minimizedAffinity -4.8854599
REMARK minimizedRMSD -1
REMARK  1 active torsions:
REMARK  status: ('A' for Active; 'I' for Inactive)
REMARK    1  A    between atoms: C3_4  and  O_7 
ROOT
ATOM      1  C   UNL d   1      -0.480   0.421  -0.191  0.00  0.00    -0.033 A 
ATOM      2  C1  UNL d   1      -1.614  -0.168   0.371  0.00  0.00     0.039 A 
ATOM      3  C2  UNL d   1      -1.561  -0.701   1.660  0.00  0.00    -0.080 A 
ATOM      4  C3  UNL d   1      -0.369  -0.637   2.376  0.00  0.00     0.150 A 
ATOM      5  C4  UNL d   1       0.764  -0.048   1.825  0.00  0.00    -0.007 A 
ATOM      6  C5  UNL d   1       0.709   0.482   0.537  0.00  0.00     0.039 A 
ENDROOT
BRANCH   4   7
ATOM      7  O   UNL d   1      -0.266  -1.148   3.636  0.00  0.00    -0.526 OA
ATOM      8  H5  UNL d   1      -1.119  -1.549   3.876  0.00  0.00     0.418 HD
ENDBRANCH   4   7
TORSDOF 1
ENDMDL
