MODEL 1
REMARK minimizedAffinity -4.00215912
REMARK minimizedRMSD -1
REMARK  1 active torsions:
REMARK  status: ('A' for Active; 'I' for Inactive)
REMARK    1  A    between atoms: C3_4  and  O_7 
ROOT
ATOM      1  C   UNL d   1       0.346   1.121  -0.717  0.00  0.00    -0.033 A 
ATOM      2  C1  UNL d   1       1.418   0.950   0.160  0.00  0.00     0.039 A 
ATOM      3  C2  UNL d   1       1.216   0.347   1.403  0.00  0.00    -0.080 A 
ATOM      4  C3  UNL d   1      -0.061  -0.082   1.755  0.00  0.00     0.150 A 
ATOM      5  C4  UNL d   1      -1.133   0.081   0.884  0.00  0.00    -0.007 A 
ATOM      6  C5  UNL d   1      -0.929   0.685  -0.356  0.00  0.00     0.039 A 
ENDROOT
BRANCH   4   7
ATOM      7  O   UNL d   1      -0.308  -0.672   2.959  0.00  0.00    -0.526 OA
ATOM      8  H5  UNL d   1       0.520  -0.692   3.467  0.00  0.00     0.418 HD
ENDBRANCH   4   7
TORSDOF 1
ENDMDL
