MODEL 1
REMARK minimizedAffinity -5.12538671
REMARK minimizedRMSD -1
REMARK  1 active torsions:
REMARK  status: ('A' for Active; 'I' for Inactive)
REMARK    1  A    between atoms: C3_4  and  O_7 
ROOT
ATOM      1  C   UNL d   1      -0.328   0.584  -0.870  0.00  0.00    -0.033 A 
ATOM      2  C1  UNL d   1      -1.563   0.066  -0.474  0.00  0.00     0.039 A 
ATOM      3  C2  UNL d   1      -1.735  -0.415   0.826  0.00  0.00    -0.080 A 
ATOM      4  C3  UNL d   1      -0.667  -0.371   1.718  0.00  0.00     0.150 A 
ATOM      5  C4  UNL d   1       0.564   0.148   1.331  0.00  0.00    -0.007 A 
ATOM      6  C5  UNL d   1       0.735   0.626   0.032  0.00  0.00     0.039 A 
ENDROOT
BRANCH   4   7
ATOM      7  O   UNL d   1      -0.786  -0.833   2.995  0.00  0.00    -0.526 OA
ATOM      8  H5  UNL d   1      -1.683  -1.188   3.112  0.00  0.00     0.418 HD
ENDBRANCH   4   7
TORSDOF 1
ENDMDL
