MODEL 1
REMARK minimizedAffinity -4.9637661
REMARK minimizedRMSD -1
REMARK  1 active torsions:
REMARK  status: ('A' for Active; 'I' for Inactive)
REMARK    1  A    between atoms: C3_4  and  O_7 
ROOT
ATOM      1  C   UNL d   1      -0.471   0.783  -0.489  0.00  0.00    -0.033 A 
ATOM      2  C1  UNL d   1       0.785   0.413  -0.004  0.00  0.00     0.039 A 
ATOM      3  C2  UNL d   1       0.889  -0.334   1.172  0.00  0.00    -0.080 A 
ATOM      4  C3  UNL d   1      -0.268  -0.704   1.851  0.00  0.00     0.150 A 
ATOM      5  C4  UNL d   1      -1.523  -0.342   1.371  0.00  0.00    -0.007 A 
ATOM      6  C5  UNL d   1      -1.625   0.405   0.198  0.00  0.00     0.039 A 
ENDROOT
BRANCH   4   7
ATOM      7  O   UNL d   1      -0.216  -1.429   3.004  0.00  0.00    -0.526 OA
ATOM      8  H5  UNL d   1       0.716  -1.581   3.230  0.00  0.00     0.418 HD
ENDBRANCH   4   7
TORSDOF 1
ENDMDL
