MODEL 1
REMARK minimizedAffinity -5.16748476
REMARK minimizedRMSD -1
REMARK  1 active torsions:
REMARK  status: ('A' for Active; 'I' for Inactive)
REMARK    1  A    between atoms: C3_4  and  O_7 
ROOT
ATOM      1  C   UNL d   1       0.354  -0.285   0.114  0.00  0.00    -0.033 A 
ATOM      2  C1  UNL d   1       0.628   0.694   1.070  0.00  0.00     0.039 A 
ATOM      3  C2  UNL d   1       0.139   0.559   2.371  0.00  0.00    -0.080 A 
ATOM      4  C3  UNL d   1      -0.620  -0.560   2.702  0.00  0.00     0.150 A 
ATOM      5  C4  UNL d   1      -0.894  -1.542   1.755  0.00  0.00    -0.007 A 
ATOM      6  C5  UNL d   1      -0.406  -1.404   0.457  0.00  0.00     0.039 A 
ENDROOT
BRANCH   4   7
ATOM      7  O   UNL d   1      -1.123  -0.734   3.957  0.00  0.00    -0.526 OA
ATOM      8  H5  UNL d   1      -0.878   0.037   4.496  0.00  0.00     0.418 HD
ENDBRANCH   4   7
TORSDOF 1
ENDMDL
