MODEL 1
REMARK minimizedAffinity -1.54242074
REMARK minimizedRMSD -1
REMARK  1 active torsions:
REMARK  status: ('A' for Active; 'I' for Inactive)
REMARK    1  A    between atoms: C3_4  and  O_7 
ROOT
ATOM      1  C   UNL d   1      -0.987  -0.270   2.947  0.00  0.00    -0.033 A 
ATOM      2  C1  UNL d   1      -0.163   0.798   2.587  0.00  0.00     0.039 A 
ATOM      3  C2  UNL d   1       0.297   0.916   1.274  0.00  0.00    -0.080 A 
ATOM      4  C3  UNL d   1      -0.074  -0.039   0.332  0.00  0.00     0.150 A 
ATOM      5  C4  UNL d   1      -0.897  -1.104   0.682  0.00  0.00    -0.007 A 
ATOM      6  C5  UNL d   1      -1.355  -1.220   1.994  0.00  0.00     0.039 A 
ENDROOT
BRANCH   4   7
ATOM      7  O   UNL d   1       0.354   0.032  -0.961  0.00  0.00    -0.526 OA
ATOM      8  H5  UNL d   1       0.939   0.803  -1.050  0.00  0.00     0.418 HD
ENDBRANCH   4   7
TORSDOF 1
ENDMDL
