MODEL 1
REMARK minimizedAffinity -2.9629159
REMARK minimizedRMSD -1
REMARK  1 active torsions:
REMARK  status: ('A' for Active; 'I' for Inactive)
REMARK    1  A    between atoms: C3_4  and  O_7 
ROOT
ATOM      1  C   UNL d   1       0.707   0.720  -0.595  0.00  0.00    -0.033 A 
ATOM      2  C1  UNL d   1      -0.583   0.256  -0.327  0.00  0.00     0.039 A 
ATOM      3  C2  UNL d   1      -0.924  -0.157   0.963  0.00  0.00    -0.080 A 
ATOM      4  C3  UNL d   1       0.031  -0.100   1.974  0.00  0.00     0.150 A 
ATOM      5  C4  UNL d   1       1.316   0.365   1.715  0.00  0.00    -0.007 A 
ATOM      6  C5  UNL d   1       1.656   0.776   0.427  0.00  0.00     0.039 A 
ENDROOT
BRANCH   4   7
ATOM      7  O   UNL d   1      -0.254  -0.496   3.247  0.00  0.00    -0.526 OA
ATOM      8  H5  UNL d   1      -1.170  -0.820   3.270  0.00  0.00     0.418 HD
ENDBRANCH   4   7
TORSDOF 1
ENDMDL
