MODEL 1
REMARK minimizedAffinity -5.70074224
REMARK minimizedRMSD -1
REMARK  1 active torsions:
REMARK  status: ('A' for Active; 'I' for Inactive)
REMARK    1  A    between atoms: C3_4  and  O_7 
ROOT
ATOM      1  C   UNL d   1      -0.321  -0.661   2.754  0.00  0.00    -0.033 A 
ATOM      2  C1  UNL d   1      -0.220  -0.757   1.364  0.00  0.00     0.039 A 
ATOM      3  C2  UNL d   1      -1.295  -0.382   0.556  0.00  0.00    -0.080 A 
ATOM      4  C3  UNL d   1      -2.464   0.089   1.149  0.00  0.00     0.150 A 
ATOM      5  C4  UNL d   1      -2.570   0.191   2.532  0.00  0.00    -0.007 A 
ATOM      6  C5  UNL d   1      -1.496  -0.185   3.337  0.00  0.00     0.039 A 
ENDROOT
BRANCH   4   7
ATOM      7  O   UNL d   1      -3.541   0.463   0.402  0.00  0.00    -0.526 OA
ATOM      8  H5  UNL d   1      -3.333   0.311  -0.535  0.00  0.00     0.418 HD
ENDBRANCH   4   7
TORSDOF 1
ENDMDL
