MODEL 1
REMARK minimizedAffinity -3.02290654
REMARK minimizedRMSD -1
REMARK  1 active torsions:
REMARK  status: ('A' for Active; 'I' for Inactive)
REMARK    1  A    between atoms: C3_4  and  O_7 
ROOT
ATOM      1  C   UNL d   1      -0.005   0.230  -1.077  0.00  0.00    -0.033 A 
ATOM      2  C1  UNL d   1      -1.184   0.485  -0.373  0.00  0.00     0.039 A 
ATOM      3  C2  UNL d   1      -1.189   0.442   1.022  0.00  0.00    -0.080 A 
ATOM      4  C3  UNL d   1      -0.011   0.145   1.701  0.00  0.00     0.150 A 
ATOM      5  C4  UNL d   1       1.168  -0.106   1.007  0.00  0.00    -0.007 A 
ATOM      6  C5  UNL d   1       1.171  -0.064  -0.387  0.00  0.00     0.039 A 
ENDROOT
BRANCH   4   7
ATOM      7  O   UNL d   1       0.032   0.087   3.063  0.00  0.00    -0.526 OA
ATOM      8  H5  UNL d   1      -0.861   0.254   3.406  0.00  0.00     0.418 HD
ENDBRANCH   4   7
TORSDOF 1
ENDMDL
