MODEL 1
REMARK minimizedAffinity -4.91966009
REMARK minimizedRMSD -1
REMARK  1 active torsions:
REMARK  status: ('A' for Active; 'I' for Inactive)
REMARK    1  A    between atoms: C3_4  and  O_7 
ROOT
ATOM      1  C   UNL d   1      -0.967  -0.424   2.966  0.00  0.00    -0.033 A 
ATOM      2  C1  UNL d   1       0.385  -0.290   2.641  0.00  0.00     0.039 A 
ATOM      3  C2  UNL d   1       0.781  -0.241   1.303  0.00  0.00    -0.080 A 
ATOM      4  C3  UNL d   1      -0.182  -0.325   0.301  0.00  0.00     0.150 A 
ATOM      5  C4  UNL d   1      -1.530  -0.455   0.618  0.00  0.00    -0.007 A 
ATOM      6  C5  UNL d   1      -1.924  -0.505   1.954  0.00  0.00     0.039 A 
ENDROOT
BRANCH   4   7
ATOM      7  O   UNL d   1       0.158  -0.287  -1.018  0.00  0.00    -0.526 OA
ATOM      8  H5  UNL d   1       1.125  -0.224  -1.086  0.00  0.00     0.418 HD
ENDBRANCH   4   7
TORSDOF 1
ENDMDL
