MODEL 1
REMARK minimizedAffinity -2.83527112
REMARK minimizedRMSD -1
REMARK  1 active torsions:
REMARK  status: ('A' for Active; 'I' for Inactive)
REMARK    1  A    between atoms: C3_4  and  O_7 
ROOT
ATOM      1  C   UNL d   1       0.231   0.479  -0.338  0.00  0.00    -0.033 A 
ATOM      2  C1  UNL d   1       0.694   0.975   0.882  0.00  0.00     0.039 A 
ATOM      3  C2  UNL d   1       0.220   0.438   2.080  0.00  0.00    -0.080 A 
ATOM      4  C3  UNL d   1      -0.715  -0.593   2.045  0.00  0.00     0.150 A 
ATOM      5  C4  UNL d   1      -1.178  -1.094   0.832  0.00  0.00    -0.007 A 
ATOM      6  C5  UNL d   1      -0.704  -0.556  -0.363  0.00  0.00     0.039 A 
ENDROOT
BRANCH   4   7
ATOM      7  O   UNL d   1      -1.211  -1.146   3.188  0.00  0.00    -0.526 OA
ATOM      8  H5  UNL d   1      -0.823  -0.680   3.948  0.00  0.00     0.418 HD
ENDBRANCH   4   7
TORSDOF 1
ENDMDL
