MODEL 1
REMARK minimizedAffinity -3.27340364
REMARK minimizedRMSD -1
REMARK  1 active torsions:
REMARK  status: ('A' for Active; 'I' for Inactive)
REMARK    1  A    between atoms: C3_4  and  O_7 
ROOT
ATOM      1  C   UNL d   1       1.056   0.657  -0.016  0.00  0.00    -0.033 A 
ATOM      2  C1  UNL d   1       0.762   0.132   1.243  0.00  0.00     0.039 A 
ATOM      3  C2  UNL d   1      -0.541  -0.265   1.549  0.00  0.00    -0.080 A 
ATOM      4  C3  UNL d   1      -1.539  -0.134   0.587  0.00  0.00     0.150 A 
ATOM      5  C4  UNL d   1      -1.252   0.385  -0.671  0.00  0.00    -0.007 A 
ATOM      6  C5  UNL d   1       0.050   0.782  -0.974  0.00  0.00     0.039 A 
ENDROOT
BRANCH   4   7
ATOM      7  O   UNL d   1      -2.826  -0.503   0.841  0.00  0.00    -0.526 OA
ATOM      8  H5  UNL d   1      -2.882  -0.817   1.759  0.00  0.00     0.418 HD
ENDBRANCH   4   7
TORSDOF 1
ENDMDL
