MODEL 1
REMARK minimizedAffinity 2.73750424
REMARK minimizedRMSD -1
REMARK  0 active torsions:
REMARK  status: ('A' for Active; 'I' for Inactive)
ROOT
ATOM      1  C4' PXY d   1       3.554   1.489  -0.374  0.00  0.00     0.077 C 
ATOM      2  C1' PXY d   1       6.000   6.000   2.287  0.00  0.00     0.077 C 
ATOM      3  C1  PXY d   1       5.351   4.815   1.600  0.00  0.00    -0.082 A 
ATOM      4  C2  PXY d   1       5.997   4.186   0.631  0.00  0.00     0.003 A 
ATOM      5  C3  PXY d   1       5.411   3.133  -0.023  0.00  0.00     0.003 A 
ATOM      6  C4  PXY d   1       4.174   2.684   0.354  0.00  0.00    -0.082 A 
ATOM      7  C5  PXY d   1       3.513   3.313   1.349  0.00  0.00     0.003 A 
ATOM      8  C6  PXY d   1       4.107   4.407   1.972  0.00  0.00     0.003 A 
ENDROOT
TORSDOF 0
ENDMDL
