MODEL 1
REMARK minimizedAffinity -5.14524555
REMARK minimizedRMSD -1
REMARK  0 active torsions:
REMARK  status: ('A' for Active; 'I' for Inactive)
ROOT
ATOM      1  C4' PXY d   1       3.849   0.007  -1.114  0.00  0.00     0.077 C 
ATOM      2  C1' PXY d   1      -1.612  -1.495   0.044  0.00  0.00     0.077 C 
ATOM      3  C1  PXY d   1      -0.184  -1.090  -0.266  0.00  0.00    -0.082 A 
ATOM      4  C2  PXY d   1       0.756  -2.017  -0.346  0.00  0.00     0.003 A 
ATOM      5  C3  PXY d   1       2.058  -1.666  -0.593  0.00  0.00     0.003 A 
ATOM      6  C4  PXY d   1       2.392  -0.356  -0.813  0.00  0.00    -0.082 A 
ATOM      7  C5  PXY d   1       1.437   0.595  -0.744  0.00  0.00     0.003 A 
ATOM      8  C6  PXY d   1       0.128   0.221  -0.451  0.00  0.00     0.003 A 
ENDROOT
TORSDOF 0
ENDMDL
