MODEL 1
REMARK minimizedAffinity -2.83497
REMARK minimizedRMSD -1
REMARK  0 active torsions:
REMARK  status: ('A' for Active; 'I' for Inactive)
ROOT
ATOM      1  C4' PXY d   1      -1.551   0.611   0.771  0.00  0.00     0.077 C 
ATOM      2  C1' PXY d   1       3.544  -1.041  -1.404  0.00  0.00     0.077 C 
ATOM      3  C1  PXY d   1       2.203  -0.619  -0.837  0.00  0.00    -0.082 A 
ATOM      4  C2  PXY d   1       1.914   0.667  -0.729  0.00  0.00     0.003 A 
ATOM      5  C3  PXY d   1       0.718   1.067  -0.189  0.00  0.00     0.003 A 
ATOM      6  C4  PXY d   1      -0.213   0.139   0.196  0.00  0.00    -0.082 A 
ATOM      7  C5  PXY d   1       0.070  -1.175   0.078  0.00  0.00     0.003 A 
ATOM      8  C6  PXY d   1       1.306  -1.560  -0.434  0.00  0.00     0.003 A 
ENDROOT
TORSDOF 0
ENDMDL
