MODEL 1
REMARK minimizedAffinity -4.4979825
REMARK minimizedRMSD -1
REMARK  0 active torsions:
REMARK  status: ('A' for Active; 'I' for Inactive)
ROOT
ATOM      1  C4' PXY d   1      -1.630   0.209   0.902  0.00  0.00     0.077 C 
ATOM      2  C1' PXY d   1       3.574  -0.832  -1.389  0.00  0.00     0.077 C 
ATOM      3  C1  PXY d   1       2.206  -0.572  -0.790  0.00  0.00    -0.082 A 
ATOM      4  C2  PXY d   1       1.686   0.644  -0.850  0.00  0.00     0.003 A 
ATOM      5  C3  PXY d   1       0.464   0.904  -0.285  0.00  0.00     0.003 A 
ATOM      6  C4  PXY d   1      -0.256  -0.102   0.301  0.00  0.00    -0.082 A 
ATOM      7  C5  PXY d   1       0.263  -1.347   0.357  0.00  0.00     0.003 A 
ATOM      8  C6  PXY d   1       1.523  -1.581  -0.186  0.00  0.00     0.003 A 
ENDROOT
TORSDOF 0
ENDMDL
