MODEL 1
REMARK minimizedAffinity -2.91966105
REMARK minimizedRMSD -1
REMARK  0 active torsions:
REMARK  status: ('A' for Active; 'I' for Inactive)
ROOT
ATOM      1  C4' PXY d   1       0.106  -2.214   0.083  0.00  0.00     0.077 C 
ATOM      2  C1' PXY d   1       1.102   3.300  -1.339  0.00  0.00     0.077 C 
ATOM      3  C1  PXY d   1       0.850   1.850  -0.974  0.00  0.00    -0.082 A 
ATOM      4  C2  PXY d   1      -0.345   1.482  -0.544  0.00  0.00     0.003 A 
ATOM      5  C3  PXY d   1      -0.581   0.181  -0.179  0.00  0.00     0.003 A 
ATOM      6  C4  PXY d   1       0.402  -0.763  -0.306  0.00  0.00    -0.082 A 
ATOM      7  C5  PXY d   1       1.622  -0.397  -0.754  0.00  0.00     0.003 A 
ATOM      8  C6  PXY d   1       1.853   0.936  -1.080  0.00  0.00     0.003 A 
ENDROOT
TORSDOF 0
ENDMDL
