MODEL 1
REMARK minimizedAffinity -0.516339004
REMARK minimizedRMSD -1
REMARK  0 active torsions:
REMARK  status: ('A' for Active; 'I' for Inactive)
ROOT
ATOM      1  C4' PXY d   1      -2.331  -0.053   1.849  0.00  0.00     0.077 C 
ATOM      2  C1' PXY d   1       1.886  -1.046  -1.979  0.00  0.00     0.077 C 
ATOM      3  C1  PXY d   1       0.783  -0.773  -0.975  0.00  0.00    -0.082 A 
ATOM      4  C2  PXY d   1       0.326  -1.760  -0.221  0.00  0.00     0.003 A 
ATOM      5  C3  PXY d   1      -0.692  -1.538   0.670  0.00  0.00     0.003 A 
ATOM      6  C4  PXY d   1      -1.212  -0.281   0.828  0.00  0.00    -0.082 A 
ATOM      7  C5  PXY d   1      -0.744   0.733   0.071  0.00  0.00     0.003 A 
ATOM      8  C6  PXY d   1       0.262   0.478  -0.857  0.00  0.00     0.003 A 
ENDROOT
TORSDOF 0
ENDMDL
