MODEL 1
REMARK minimizedAffinity 1.59970164
REMARK minimizedRMSD -1
REMARK  0 active torsions:
REMARK  status: ('A' for Active; 'I' for Inactive)
ROOT
ATOM      1  C4' PXY d   1      -1.094   0.407   2.336  0.00  0.00     0.077 C 
ATOM      2  C1' PXY d   1       1.912  -1.210  -2.329  0.00  0.00     0.077 C 
ATOM      3  C1  PXY d   1       1.113  -0.791  -1.110  0.00  0.00    -0.082 A 
ATOM      4  C2  PXY d   1       1.516   0.240  -0.387  0.00  0.00     0.003 A 
ATOM      5  C3  PXY d   1       0.823   0.613   0.737  0.00  0.00     0.003 A 
ATOM      6  C4  PXY d   1      -0.324  -0.045   1.093  0.00  0.00    -0.082 A 
ATOM      7  C5  PXY d   1      -0.748  -1.092   0.353  0.00  0.00     0.003 A 
ATOM      8  C6  PXY d   1      -0.007  -1.479  -0.760  0.00  0.00     0.003 A 
ENDROOT
TORSDOF 0
ENDMDL
