MODEL 1
REMARK minimizedAffinity -5.21094179
REMARK minimizedRMSD -1
REMARK  0 active torsions:
REMARK  status: ('A' for Active; 'I' for Inactive)
ROOT
ATOM      1  C4' PXY d   1      -1.214   2.368   2.698  0.00  0.00     0.077 C 
ATOM      2  C1' PXY d   1      -3.806  -2.712   3.638  0.00  0.00     0.077 C 
ATOM      3  C1  PXY d   1      -3.120  -1.385   3.381  0.00  0.00    -0.082 A 
ATOM      4  C2  PXY d   1      -2.982  -0.517   4.371  0.00  0.00     0.003 A 
ATOM      5  C3  PXY d   1      -2.393   0.700   4.149  0.00  0.00     0.003 A 
ATOM      6  C4  PXY d   1      -1.892   1.012   2.913  0.00  0.00    -0.082 A 
ATOM      7  C5  PXY d   1      -2.019   0.129   1.901  0.00  0.00     0.003 A 
ATOM      8  C6  PXY d   1      -2.658  -1.086   2.137  0.00  0.00     0.003 A 
ENDROOT
TORSDOF 0
ENDMDL
