MODEL 1
REMARK minimizedAffinity -4.88542414
REMARK minimizedRMSD -1
REMARK  0 active torsions:
REMARK  status: ('A' for Active; 'I' for Inactive)
ROOT
ATOM      1  C4' PXY d   1      -1.240   0.380   0.844  0.00  0.00     0.077 C 
ATOM      2  C1' PXY d   1       3.500  -0.676  -2.292  0.00  0.00     0.077 C 
ATOM      3  C1  PXY d   1       2.252  -0.411  -1.473  0.00  0.00    -0.082 A 
ATOM      4  C2  PXY d   1       1.904   0.836  -1.196  0.00  0.00     0.003 A 
ATOM      5  C3  PXY d   1       0.796   1.092  -0.430  0.00  0.00     0.003 A 
ATOM      6  C4  PXY d   1       0.007   0.065   0.013  0.00  0.00    -0.082 A 
ATOM      7  C5  PXY d   1       0.349  -1.209  -0.274  0.00  0.00     0.003 A 
ATOM      8  C6  PXY d   1       1.500  -1.450  -1.019  0.00  0.00     0.003 A 
ENDROOT
TORSDOF 0
ENDMDL
