MODEL 1
REMARK minimizedAffinity -2.70547271
REMARK minimizedRMSD -1
REMARK  0 active torsions:
REMARK  status: ('A' for Active; 'I' for Inactive)
ROOT
ATOM      1  C4' PXY d   1      -1.768  -1.434   0.440  0.00  0.00     0.077 C 
ATOM      2  C1' PXY d   1       3.761  -0.650  -1.052  0.00  0.00     0.077 C 
ATOM      3  C1  PXY d   1       2.311  -0.843  -0.656  0.00  0.00    -0.082 A 
ATOM      4  C2  PXY d   1       1.856  -2.062  -0.413  0.00  0.00     0.003 A 
ATOM      5  C3  PXY d   1       0.539  -2.258  -0.085  0.00  0.00     0.003 A 
ATOM      6  C4  PXY d   1      -0.308  -1.190   0.047  0.00  0.00    -0.082 A 
ATOM      7  C5  PXY d   1       0.151   0.057  -0.190  0.00  0.00     0.003 A 
ATOM      8  C6  PXY d   1       1.481   0.231  -0.561  0.00  0.00     0.003 A 
ENDROOT
TORSDOF 0
ENDMDL
