MODEL 1
REMARK minimizedAffinity -4.18840122
REMARK minimizedRMSD -1
REMARK  0 active torsions:
REMARK  status: ('A' for Active; 'I' for Inactive)
ROOT
ATOM      1  C4' PXY d   1       1.882  -1.848  -2.091  0.00  0.00     0.077 C 
ATOM      2  C1' PXY d   1      -1.456   0.853   1.778  0.00  0.00     0.077 C 
ATOM      3  C1  PXY d   1      -0.572   0.155   0.765  0.00  0.00    -0.082 A 
ATOM      4  C2  PXY d   1      -1.108  -0.697  -0.094  0.00  0.00     0.003 A 
ATOM      5  C3  PXY d   1      -0.318  -1.362  -0.997  0.00  0.00     0.003 A 
ATOM      6  C4  PXY d   1       1.026  -1.112  -1.056  0.00  0.00    -0.082 A 
ATOM      7  C5  PXY d   1       1.580  -0.237  -0.190  0.00  0.00     0.003 A 
ATOM      8  C6  PXY d   1       0.767   0.397   0.745  0.00  0.00     0.003 A 
ENDROOT
TORSDOF 0
ENDMDL
