MODEL 1
REMARK minimizedAffinity -4.58680058
REMARK minimizedRMSD -1
REMARK  0 active torsions:
REMARK  status: ('A' for Active; 'I' for Inactive)
ROOT
ATOM      1  C4' PXY d   1       1.926   2.403  -2.563  0.00  0.00     0.077 C 
ATOM      2  C1' PXY d   1       0.975  -2.544   0.272  0.00  0.00     0.077 C 
ATOM      3  C1  PXY d   1       1.237  -1.250  -0.473  0.00  0.00    -0.082 A 
ATOM      4  C2  PXY d   1       0.460  -0.201  -0.255  0.00  0.00     0.003 A 
ATOM      5  C3  PXY d   1       0.663   0.967  -0.944  0.00  0.00     0.003 A 
ATOM      6  C4  PXY d   1       1.704   1.080  -1.826  0.00  0.00    -0.082 A 
ATOM      7  C5  PXY d   1       2.508   0.017  -2.046  0.00  0.00     0.003 A 
ATOM      8  C6  PXY d   1       2.260  -1.172  -1.367  0.00  0.00     0.003 A 
ENDROOT
TORSDOF 0
ENDMDL
