MODEL 1
REMARK minimizedAffinity -3.39837074
REMARK minimizedRMSD -1
REMARK  0 active torsions:
REMARK  status: ('A' for Active; 'I' for Inactive)
ROOT
ATOM      1  C4' PXY d   1      -1.661   0.183   0.984  0.00  0.00     0.077 C 
ATOM      2  C1' PXY d   1       3.398  -0.707  -1.668  0.00  0.00     0.077 C 
ATOM      3  C1  PXY d   1       2.066  -0.485  -0.978  0.00  0.00    -0.082 A 
ATOM      4  C2  PXY d   1       1.709   0.740  -0.626  0.00  0.00     0.003 A 
ATOM      5  C3  PXY d   1       0.523   0.955   0.028  0.00  0.00     0.003 A 
ATOM      6  C4  PXY d   1      -0.330  -0.087   0.277  0.00  0.00    -0.082 A 
ATOM      7  C5  PXY d   1       0.023  -1.338  -0.089  0.00  0.00     0.003 A 
ATOM      8  C6  PXY d   1       1.250  -1.541  -0.714  0.00  0.00     0.003 A 
ENDROOT
TORSDOF 0
ENDMDL
