MODEL 1
REMARK minimizedAffinity -5.58978987
REMARK minimizedRMSD -1
REMARK  0 active torsions:
REMARK  status: ('A' for Active; 'I' for Inactive)
ROOT
ATOM      1  C4' PXY d   1      -1.489   0.308   1.066  0.00  0.00     0.077 C 
ATOM      2  C1' PXY d   1       3.048   0.288  -2.515  0.00  0.00     0.077 C 
ATOM      3  C1  PXY d   1       1.856   0.305  -1.579  0.00  0.00    -0.082 A 
ATOM      4  C2  PXY d   1       1.814  -0.533  -0.556  0.00  0.00     0.003 A 
ATOM      5  C3  PXY d   1       0.729  -0.552   0.282  0.00  0.00     0.003 A 
ATOM      6  C4  PXY d   1      -0.301   0.332   0.101  0.00  0.00    -0.082 A 
ATOM      7  C5  PXY d   1      -0.261   1.197  -0.934  0.00  0.00     0.003 A 
ATOM      8  C6  PXY d   1       0.830   1.173  -1.797  0.00  0.00     0.003 A 
ENDROOT
TORSDOF 0
ENDMDL
