MODEL 1
REMARK minimizedAffinity -4.78246164
REMARK minimizedRMSD -1
REMARK  0 active torsions:
REMARK  status: ('A' for Active; 'I' for Inactive)
ROOT
ATOM      1  C4' PXY d   1       1.523   2.560  -1.887  0.00  0.00     0.077 C 
ATOM      2  C1' PXY d   1       0.796  -2.975  -0.387  0.00  0.00     0.077 C 
ATOM      3  C1  PXY d   1       0.999  -1.526  -0.782  0.00  0.00    -0.082 A 
ATOM      4  C2  PXY d   1       0.169  -0.601  -0.329  0.00  0.00     0.003 A 
ATOM      5  C3  PXY d   1       0.319   0.709  -0.702  0.00  0.00     0.003 A 
ATOM      6  C4  PXY d   1       1.362   1.086  -1.506  0.00  0.00    -0.082 A 
ATOM      7  C5  PXY d   1       2.219   0.150  -1.964  0.00  0.00     0.003 A 
ATOM      8  C6  PXY d   1       2.025  -1.181  -1.607  0.00  0.00     0.003 A 
ENDROOT
TORSDOF 0
ENDMDL
