MODEL 1
REMARK minimizedAffinity -5.25562525
REMARK minimizedRMSD -1
REMARK  0 active torsions:
REMARK  status: ('A' for Active; 'I' for Inactive)
ROOT
ATOM      1  C4' PXY d   1      -1.524   1.545   0.104  0.00  0.00     0.077 C 
ATOM      2  C1' PXY d   1       3.321  -0.366  -2.402  0.00  0.00     0.077 C 
ATOM      3  C1  PXY d   1       2.047   0.123  -1.742  0.00  0.00    -0.082 A 
ATOM      4  C2  PXY d   1       1.552   1.305  -2.071  0.00  0.00     0.003 A 
ATOM      5  C3  PXY d   1       0.418   1.777  -1.461  0.00  0.00     0.003 A 
ATOM      6  C4  PXY d   1      -0.245   1.007  -0.543  0.00  0.00    -0.082 A 
ATOM      7  C5  PXY d   1       0.247  -0.205  -0.210  0.00  0.00     0.003 A 
ATOM      8  C6  PXY d   1       1.422  -0.647  -0.811  0.00  0.00     0.003 A 
ENDROOT
TORSDOF 0
ENDMDL
