MODEL 1
REMARK minimizedAffinity -5.10752869
REMARK minimizedRMSD -1
REMARK  0 active torsions:
REMARK  status: ('A' for Active; 'I' for Inactive)
ROOT
ATOM      1  C4' PXY d   1      -1.939  -0.316   0.838  0.00  0.00     0.077 C 
ATOM      2  C1' PXY d   1       3.449  -0.752  -1.210  0.00  0.00     0.077 C 
ATOM      3  C1  PXY d   1       2.040  -0.630  -0.664  0.00  0.00    -0.082 A 
ATOM      4  C2  PXY d   1       1.149  -1.569  -0.938  0.00  0.00     0.003 A 
ATOM      5  C3  PXY d   1      -0.138  -1.458  -0.478  0.00  0.00     0.003 A 
ATOM      6  C4  PXY d   1      -0.502  -0.402   0.315  0.00  0.00    -0.082 A 
ATOM      7  C5  PXY d   1       0.404   0.554   0.608  0.00  0.00     0.003 A 
ATOM      8  C6  PXY d   1       1.695   0.444   0.097  0.00  0.00     0.003 A 
ENDROOT
TORSDOF 0
ENDMDL
