MODEL 1
REMARK minimizedAffinity 2.60190296
REMARK minimizedRMSD -1
REMARK  0 active torsions:
REMARK  status: ('A' for Active; 'I' for Inactive)
ROOT
ATOM      1  C4' PXY d   1      -1.330   2.296   2.337  0.00  0.00     0.077 C 
ATOM      2  C1' PXY d   1      -4.142  -2.359   4.295  0.00  0.00     0.077 C 
ATOM      3  C1  PXY d   1      -3.412  -1.131   3.789  0.00  0.00    -0.082 A 
ATOM      4  C2  PXY d   1      -2.847  -1.152   2.593  0.00  0.00     0.003 A 
ATOM      5  C3  PXY d   1      -2.155  -0.061   2.133  0.00  0.00     0.003 A 
ATOM      6  C4  PXY d   1      -2.086   1.082   2.884  0.00  0.00    -0.082 A 
ATOM      7  C5  PXY d   1      -2.669   1.115   4.101  0.00  0.00     0.003 A 
ATOM      8  C6  PXY d   1      -3.332  -0.017   4.566  0.00  0.00     0.003 A 
ENDROOT
TORSDOF 0
ENDMDL
