MODEL 1
REMARK minimizedAffinity -4.23116541
REMARK minimizedRMSD -1
REMARK  0 active torsions:
REMARK  status: ('A' for Active; 'I' for Inactive)
ROOT
ATOM      1  C4' PXY d   1      -0.839  -3.005  -1.028  0.00  0.00     0.077 C 
ATOM      2  C1' PXY d   1       2.995   1.184   0.052  0.00  0.00     0.077 C 
ATOM      3  C1  PXY d   1       1.982   0.089  -0.221  0.00  0.00    -0.082 A 
ATOM      4  C2  PXY d   1       2.355  -0.998  -0.878  0.00  0.00     0.003 A 
ATOM      5  C3  PXY d   1       1.444  -1.983  -1.161  0.00  0.00     0.003 A 
ATOM      6  C4  PXY d   1       0.152  -1.879  -0.722  0.00  0.00    -0.082 A 
ATOM      7  C5  PXY d   1      -0.234  -0.778  -0.042  0.00  0.00     0.003 A 
ATOM      8  C6  PXY d   1       0.696   0.229   0.200  0.00  0.00     0.003 A 
ENDROOT
TORSDOF 0
ENDMDL
