MODEL 1
REMARK minimizedAffinity -5.1155777
REMARK minimizedRMSD -1
REMARK  0 active torsions:
REMARK  status: ('A' for Active; 'I' for Inactive)
ROOT
ATOM      1  C4' PXY d   1      -0.563  -3.371  -0.105  0.00  0.00     0.077 C 
ATOM      2  C1' PXY d   1       1.644   1.770  -1.560  0.00  0.00     0.077 C 
ATOM      3  C1  PXY d   1       1.060   0.427  -1.167  0.00  0.00    -0.082 A 
ATOM      4  C2  PXY d   1       1.603  -0.685  -1.636  0.00  0.00     0.003 A 
ATOM      5  C3  PXY d   1       1.069  -1.906  -1.317  0.00  0.00     0.003 A 
ATOM      6  C4  PXY d   1      -0.001  -1.993  -0.467  0.00  0.00    -0.082 A 
ATOM      7  C5  PXY d   1      -0.555  -0.864   0.024  0.00  0.00     0.003 A 
ATOM      8  C6  PXY d   1      -0.023   0.368  -0.345  0.00  0.00     0.003 A 
ENDROOT
TORSDOF 0
ENDMDL
