MODEL 1
REMARK minimizedAffinity 6.16185236
REMARK minimizedRMSD -1
REMARK  1 active torsions:
REMARK  status: ('A' for Active; 'I' for Inactive)
REMARK    1  A    between atoms: C3_4  and  O_7 
ROOT
ATOM      1  C   UNL d   1       5.999  -3.966   2.797  0.00  0.00    -0.033 A 
ATOM      2  C1  UNL d   1       4.915  -3.271   2.258  0.00  0.00     0.039 A 
ATOM      3  C2  UNL d   1       3.720  -3.939   1.985  0.00  0.00    -0.080 A 
ATOM      4  C3  UNL d   1       3.622  -5.301   2.256  0.00  0.00     0.150 A 
ATOM      5  C4  UNL d   1       4.697  -6.000   2.796  0.00  0.00    -0.007 A 
ATOM      6  C5  UNL d   1       5.889  -5.331   3.067  0.00  0.00     0.039 A 
ENDROOT
BRANCH   4   7
ATOM      7  O   UNL d   1       2.478  -5.998   2.002  0.00  0.00    -0.526 OA
ATOM      8  H5  UNL d   1       1.831  -5.392   1.603  0.00  0.00     0.418 HD
ENDBRANCH   4   7
TORSDOF 1
ENDMDL
