MODEL 1
REMARK minimizedAffinity -1.16883588
REMARK minimizedRMSD -1
REMARK  1 active torsions:
REMARK  status: ('A' for Active; 'I' for Inactive)
REMARK    1  A    between atoms: C3_4  and  O_7 
ROOT
ATOM      1  C   UNL d   1      -5.573   5.305   6.000  0.00  0.00    -0.033 A 
ATOM      2  C1  UNL d   1      -4.369   5.999   5.869  0.00  0.00     0.039 A 
ATOM      3  C2  UNL d   1      -3.586   5.834   4.724  0.00  0.00    -0.080 A 
ATOM      4  C3  UNL d   1      -4.019   4.973   3.719  0.00  0.00     0.150 A 
ATOM      5  C4  UNL d   1      -5.219   4.281   3.841  0.00  0.00    -0.007 A 
ATOM      6  C5  UNL d   1      -5.999   4.447   4.985  0.00  0.00     0.039 A 
ENDROOT
BRANCH   4   7
ATOM      7  O   UNL d   1      -3.287   4.776   2.586  0.00  0.00    -0.526 OA
ATOM      8  H5  UNL d   1      -2.469   5.297   2.654  0.00  0.00     0.418 HD
ENDBRANCH   4   7
TORSDOF 1
ENDMDL
