MODEL 1
REMARK minimizedAffinity 5.31931639
REMARK minimizedRMSD -1
REMARK  1 active torsions:
REMARK  status: ('A' for Active; 'I' for Inactive)
REMARK    1  A    between atoms: C3_4  and  O_7 
ROOT
ATOM      1  C   UNL d   1      -5.626   0.301   5.990  0.00  0.00    -0.033 A 
ATOM      2  C1  UNL d   1      -4.902  -0.703   5.342  0.00  0.00     0.039 A 
ATOM      3  C2  UNL d   1      -4.553  -0.558   3.998  0.00  0.00    -0.080 A 
ATOM      4  C3  UNL d   1      -4.932   0.594   3.314  0.00  0.00     0.150 A 
ATOM      5  C4  UNL d   1      -5.649   1.599   3.954  0.00  0.00    -0.007 A 
ATOM      6  C5  UNL d   1      -5.998   1.452   5.296  0.00  0.00     0.039 A 
ENDROOT
BRANCH   4   7
ATOM      7  O   UNL d   1      -4.618   0.779   2.001  0.00  0.00    -0.526 OA
ATOM      8  H5  UNL d   1      -4.147  -0.010   1.683  0.00  0.00     0.418 HD
ENDBRANCH   4   7
TORSDOF 1
ENDMDL
