MODEL 1
REMARK minimizedAffinity 8.67029381
REMARK minimizedRMSD -1
REMARK  1 active torsions:
REMARK  status: ('A' for Active; 'I' for Inactive)
REMARK    1  A    between atoms: C3_4  and  O_7 
ROOT
ATOM      1  C   UNL d   1      -5.939   4.885   5.995  0.00  0.00    -0.033 A 
ATOM      2  C1  UNL d   1      -5.760   3.838   5.088  0.00  0.00     0.039 A 
ATOM      3  C2  UNL d   1      -4.698   3.872   4.181  0.00  0.00    -0.080 A 
ATOM      4  C3  UNL d   1      -3.825   4.956   4.192  0.00  0.00     0.150 A 
ATOM      5  C4  UNL d   1      -3.995   6.000   5.095  0.00  0.00    -0.007 A 
ATOM      6  C5  UNL d   1      -5.056   5.965   5.999  0.00  0.00     0.039 A 
ENDROOT
BRANCH   4   7
ATOM      7  O   UNL d   1      -2.777   5.036   3.323  0.00  0.00    -0.526 OA
ATOM      8  H5  UNL d   1      -2.801   4.259   2.740  0.00  0.00     0.418 HD
ENDBRANCH   4   7
TORSDOF 1
ENDMDL
