MODEL 1
REMARK minimizedAffinity -2.6218636
REMARK minimizedRMSD -1
REMARK  1 active torsions:
REMARK  status: ('A' for Active; 'I' for Inactive)
REMARK    1  A    between atoms: C3_4  and  O_7 
ROOT
ATOM      1  C   UNL d   1      -0.287   1.436   3.841  0.00  0.00    -0.033 A 
ATOM      2  C1  UNL d   1      -1.157   2.492   3.565  0.00  0.00     0.039 A 
ATOM      3  C2  UNL d   1      -2.192   2.324   2.643  0.00  0.00    -0.080 A 
ATOM      4  C3  UNL d   1      -2.346   1.097   2.005  0.00  0.00     0.150 A 
ATOM      5  C4  UNL d   1      -1.485   0.039   2.278  0.00  0.00    -0.007 A 
ATOM      6  C5  UNL d   1      -0.452   0.209   3.199  0.00  0.00     0.039 A 
ENDROOT
BRANCH   4   7
ATOM      7  O   UNL d   1      -3.337   0.886   1.094  0.00  0.00    -0.526 OA
ATOM      8  H5  UNL d   1      -3.836   1.713   0.985  0.00  0.00     0.418 HD
ENDBRANCH   4   7
TORSDOF 1
ENDMDL
