MODEL 1
REMARK minimizedAffinity 2.25982809
REMARK minimizedRMSD -1
REMARK  1 active torsions:
REMARK  status: ('A' for Active; 'I' for Inactive)
REMARK    1  A    between atoms: C3_4  and  O_7 
ROOT
ATOM      1  C   UNL d   1       1.501  -0.758  -3.513  0.00  0.00    -0.033 A 
ATOM      2  C1  UNL d   1       1.464  -1.137  -4.856  0.00  0.00     0.039 A 
ATOM      3  C2  UNL d   1       2.519  -0.803  -5.707  0.00  0.00    -0.080 A 
ATOM      4  C3  UNL d   1       3.604  -0.092  -5.203  0.00  0.00     0.150 A 
ATOM      5  C4  UNL d   1       3.650   0.286  -3.865  0.00  0.00    -0.007 A 
ATOM      6  C5  UNL d   1       2.595  -0.048  -3.017  0.00  0.00     0.039 A 
ENDROOT
BRANCH   4   7
ATOM      7  O   UNL d   1       4.655   0.261  -5.996  0.00  0.00    -0.526 OA
ATOM      8  H5  UNL d   1       4.473  -0.041  -6.902  0.00  0.00     0.418 HD
ENDBRANCH   4   7
TORSDOF 1
ENDMDL
