MODEL 1
REMARK minimizedAffinity 7.60160828
REMARK minimizedRMSD -1
REMARK  1 active torsions:
REMARK  status: ('A' for Active; 'I' for Inactive)
REMARK    1  A    between atoms: C3_4  and  O_7 
ROOT
ATOM      1  C   UNL d   1      -3.487  -2.544   0.514  0.00  0.00    -0.033 A 
ATOM      2  C1  UNL d   1      -4.257  -1.380   0.536  0.00  0.00     0.039 A 
ATOM      3  C2  UNL d   1      -3.676  -0.162   0.895  0.00  0.00    -0.080 A 
ATOM      4  C3  UNL d   1      -2.325  -0.123   1.229  0.00  0.00     0.150 A 
ATOM      5  C4  UNL d   1      -1.551  -1.278   1.206  0.00  0.00    -0.007 A 
ATOM      6  C5  UNL d   1      -2.133  -2.493   0.848  0.00  0.00     0.039 A 
ENDROOT
BRANCH   4   7
ATOM      7  O   UNL d   1      -1.715   1.041   1.591  0.00  0.00    -0.526 OA
ATOM      8  H5  UNL d   1      -2.379   1.751   1.590  0.00  0.00     0.418 HD
ENDBRANCH   4   7
TORSDOF 1
ENDMDL
