MODEL 1
REMARK minimizedAffinity 8.13855648
REMARK minimizedRMSD -1
REMARK  1 active torsions:
REMARK  status: ('A' for Active; 'I' for Inactive)
REMARK    1  A    between atoms: C3_4  and  O_7 
ROOT
ATOM      1  C   UNL d   1      -2.323   0.798   2.249  0.00  0.00    -0.033 A 
ATOM      2  C1  UNL d   1      -2.286   2.104   1.757  0.00  0.00     0.039 A 
ATOM      3  C2  UNL d   1      -1.108   2.849   1.835  0.00  0.00    -0.080 A 
ATOM      4  C3  UNL d   1       0.026   2.277   2.406  0.00  0.00     0.150 A 
ATOM      5  C4  UNL d   1      -0.002   0.974   2.894  0.00  0.00    -0.007 A 
ATOM      6  C5  UNL d   1      -1.180   0.233   2.816  0.00  0.00     0.039 A 
ENDROOT
BRANCH   4   7
ATOM      7  O   UNL d   1       1.197   2.966   2.508  0.00  0.00    -0.526 OA
ATOM      8  H5  UNL d   1       1.059   3.861   2.156  0.00  0.00     0.418 HD
ENDBRANCH   4   7
TORSDOF 1
ENDMDL
