MODEL 1
REMARK minimizedAffinity 8.26947021
REMARK minimizedRMSD -1
REMARK  1 active torsions:
REMARK  status: ('A' for Active; 'I' for Inactive)
REMARK    1  A    between atoms: C3_4  and  O_7 
ROOT
ATOM      1  C   UNL d   1      -0.638  -0.764  -5.941  0.00  0.00    -0.033 A 
ATOM      2  C1  UNL d   1      -0.569  -2.158  -5.977  0.00  0.00     0.039 A 
ATOM      3  C2  UNL d   1      -1.741  -2.917  -5.999  0.00  0.00    -0.080 A 
ATOM      4  C3  UNL d   1      -2.974  -2.271  -5.985  0.00  0.00     0.150 A 
ATOM      5  C4  UNL d   1      -3.050  -0.882  -5.952  0.00  0.00    -0.007 A 
ATOM      6  C5  UNL d   1      -1.879  -0.126  -5.930  0.00  0.00     0.039 A 
ENDROOT
BRANCH   4   7
ATOM      7  O   UNL d   1      -4.144  -2.969  -6.000  0.00  0.00    -0.526 OA
ATOM      8  H5  UNL d   1      -3.937  -3.918  -5.993  0.00  0.00     0.418 HD
ENDBRANCH   4   7
TORSDOF 1
ENDMDL
