MODEL 1
REMARK minimizedAffinity 2.80277252
REMARK minimizedRMSD -1
REMARK  1 active torsions:
REMARK  status: ('A' for Active; 'I' for Inactive)
REMARK    1  A    between atoms: C3_4  and  O_7 
ROOT
ATOM      1  C   UNL d   1       0.097   0.942   2.660  0.00  0.00    -0.033 A 
ATOM      2  C1  UNL d   1       0.277   0.268   1.451  0.00  0.00     0.039 A 
ATOM      3  C2  UNL d   1      -0.823  -0.026   0.643  0.00  0.00    -0.080 A 
ATOM      4  C3  UNL d   1      -2.096   0.360   1.054  0.00  0.00     0.150 A 
ATOM      5  C4  UNL d   1      -2.282   1.035   2.256  0.00  0.00    -0.007 A 
ATOM      6  C5  UNL d   1      -1.183   1.327   3.062  0.00  0.00     0.039 A 
ENDROOT
BRANCH   4   7
ATOM      7  O   UNL d   1      -3.200   0.091   0.301  0.00  0.00    -0.526 OA
ATOM      8  H5  UNL d   1      -2.922  -0.405  -0.487  0.00  0.00     0.418 HD
ENDBRANCH   4   7
TORSDOF 1
ENDMDL
