MODEL 1
REMARK minimizedAffinity 0.772500753
REMARK minimizedRMSD -1
REMARK  1 active torsions:
REMARK  status: ('A' for Active; 'I' for Inactive)
REMARK    1  A    between atoms: C3_4  and  O_7 
ROOT
ATOM      1  C   UNL d   1      -4.621   0.337   2.091  0.00  0.00    -0.033 A 
ATOM      2  C1  UNL d   1      -4.232   0.236   3.428  0.00  0.00     0.039 A 
ATOM      3  C2  UNL d   1      -2.881   0.317   3.772  0.00  0.00    -0.080 A 
ATOM      4  C3  UNL d   1      -1.931   0.500   2.771  0.00  0.00     0.150 A 
ATOM      5  C4  UNL d   1      -2.312   0.606   1.437  0.00  0.00    -0.007 A 
ATOM      6  C5  UNL d   1      -3.661   0.523   1.096  0.00  0.00     0.039 A 
ENDROOT
BRANCH   4   7
ATOM      7  O   UNL d   1      -0.601   0.581   3.057  0.00  0.00    -0.526 OA
ATOM      8  H5  UNL d   1      -0.484   0.463   4.015  0.00  0.00     0.418 HD
ENDBRANCH   4   7
TORSDOF 1
ENDMDL
