MODEL 1
REMARK minimizedAffinity 2.28967977
REMARK minimizedRMSD -1
REMARK  1 active torsions:
REMARK  status: ('A' for Active; 'I' for Inactive)
REMARK    1  A    between atoms: C3_4  and  O_7 
ROOT
ATOM      1  C   UNL d   1      -3.380  -3.882  -5.990  0.00  0.00    -0.033 A 
ATOM      2  C1  UNL d   1      -4.318  -2.848  -5.996  0.00  0.00     0.039 A 
ATOM      3  C2  UNL d   1      -3.893  -1.518  -6.000  0.00  0.00    -0.080 A 
ATOM      4  C3  UNL d   1      -2.530  -1.236  -5.998  0.00  0.00     0.150 A 
ATOM      5  C4  UNL d   1      -1.590  -2.262  -5.995  0.00  0.00    -0.007 A 
ATOM      6  C5  UNL d   1      -2.016  -3.589  -5.991  0.00  0.00     0.039 A 
ENDROOT
BRANCH   4   7
ATOM      7  O   UNL d   1      -2.067   0.046  -5.996  0.00  0.00    -0.526 OA
ATOM      8  H5  UNL d   1      -2.830   0.648  -5.968  0.00  0.00     0.418 HD
ENDBRANCH   4   7
TORSDOF 1
ENDMDL
