MODEL 1
REMARK minimizedAffinity 7.82762098
REMARK minimizedRMSD -1
REMARK  1 active torsions:
REMARK  status: ('A' for Active; 'I' for Inactive)
REMARK    1  A    between atoms: C3_4  and  O_7 
ROOT
ATOM      1  C   UNL d   1      -5.612   0.081   3.365  0.00  0.00    -0.033 A 
ATOM      2  C1  UNL d   1      -5.522  -0.039   1.977  0.00  0.00     0.039 A 
ATOM      3  C2  UNL d   1      -4.382   0.410   1.308  0.00  0.00    -0.080 A 
ATOM      4  C3  UNL d   1      -3.340   0.975   2.038  0.00  0.00     0.150 A 
ATOM      5  C4  UNL d   1      -3.421   1.094   3.421  0.00  0.00    -0.007 A 
ATOM      6  C5  UNL d   1      -4.561   0.646   4.087  0.00  0.00     0.039 A 
ENDROOT
BRANCH   4   7
ATOM      7  O   UNL d   1      -2.209   1.432   1.429  0.00  0.00    -0.526 OA
ATOM      8  H5  UNL d   1      -2.306   1.311   0.469  0.00  0.00     0.418 HD
ENDBRANCH   4   7
TORSDOF 1
ENDMDL
