MODEL 1
REMARK minimizedAffinity 0.353493065
REMARK minimizedRMSD -1
REMARK  1 active torsions:
REMARK  status: ('A' for Active; 'I' for Inactive)
REMARK    1  A    between atoms: C3_4  and  O_7 
ROOT
ATOM      1  C   UNL d   1       1.792   1.432   3.707  0.00  0.00    -0.033 A 
ATOM      2  C1  UNL d   1       1.063   2.458   4.310  0.00  0.00     0.039 A 
ATOM      3  C2  UNL d   1      -0.298   2.604   4.036  0.00  0.00    -0.080 A 
ATOM      4  C3  UNL d   1      -0.917   1.718   3.159  0.00  0.00     0.150 A 
ATOM      5  C4  UNL d   1      -0.198   0.691   2.557  0.00  0.00    -0.007 A 
ATOM      6  C5  UNL d   1       1.162   0.547   2.831  0.00  0.00     0.039 A 
ENDROOT
BRANCH   4   7
ATOM      7  O   UNL d   1      -2.242   1.824   2.856  0.00  0.00    -0.526 OA
ATOM      8  H5  UNL d   1      -2.604   2.596   3.323  0.00  0.00     0.418 HD
ENDBRANCH   4   7
TORSDOF 1
ENDMDL
