MODEL 1
REMARK minimizedAffinity 19.3013668
REMARK minimizedRMSD -1
REMARK  0 active torsions:
REMARK  status: ('A' for Active; 'I' for Inactive)
ROOT
ATOM      1  C   UNL d   1       1.005  -2.282   3.985  0.00  0.00     0.020 A 
ATOM      2  C1  UNL d   1      -0.364  -2.548   3.984  0.00  0.00     0.020 A 
ATOM      3  C2  UNL d   1      -0.852  -3.697   4.611  0.00  0.00     0.034 A 
ATOM      4  C3  UNL d   1       0.029  -4.583   5.242  0.00  0.00     0.017 A 
ATOM      5  C4  UNL d   1       1.403  -4.314   5.242  0.00  0.00     0.017 A 
ATOM      6  C5  UNL d   1       1.886  -3.163   4.613  0.00  0.00     0.034 A 
ATOM      7 Cl   UNL d   1       2.552  -5.361   5.999  0.00  0.00    -0.070 Cl
ATOM      8 Cl1  UNL d   1      -0.644  -5.983   5.997  0.00  0.00    -0.070 Cl
ENDROOT
TORSDOF 0
ENDMDL
