MODEL 1
REMARK minimizedAffinity 18.34828
REMARK minimizedRMSD -1
REMARK  0 active torsions:
REMARK  status: ('A' for Active; 'I' for Inactive)
ROOT
ATOM      1  C   UNL d   1       0.044   1.674  -0.010  0.00  0.00     0.020 A 
ATOM      2  C1  UNL d   1       0.744   2.880  -0.023  0.00  0.00     0.020 A 
ATOM      3  C2  UNL d   1       2.086   2.904  -0.410  0.00  0.00     0.034 A 
ATOM      4  C3  UNL d   1       2.732   1.721  -0.785  0.00  0.00     0.017 A 
ATOM      5  C4  UNL d   1       2.028   0.511  -0.772  0.00  0.00     0.017 A 
ATOM      6  C5  UNL d   1       0.685   0.492  -0.383  0.00  0.00     0.034 A 
ATOM      7 Cl   UNL d   1       2.757  -0.990  -1.222  0.00  0.00    -0.070 Cl
ATOM      8 Cl1  UNL d   1       4.392   1.825  -1.253  0.00  0.00    -0.070 Cl
ENDROOT
TORSDOF 0
ENDMDL
