MODEL 1
REMARK minimizedAffinity 11.0231009
REMARK minimizedRMSD -1
REMARK  0 active torsions:
REMARK  status: ('A' for Active; 'I' for Inactive)
ROOT
ATOM      1  C   UNL d   1       2.477  -1.828  -1.190  0.00  0.00     0.020 A 
ATOM      2  C1  UNL d   1       1.406  -0.935  -1.207  0.00  0.00     0.020 A 
ATOM      3  C2  UNL d   1       1.295   0.041  -0.215  0.00  0.00     0.034 A 
ATOM      4  C3  UNL d   1       2.257   0.128   0.798  0.00  0.00     0.017 A 
ATOM      5  C4  UNL d   1       3.332  -0.768   0.814  0.00  0.00     0.017 A 
ATOM      6  C5  UNL d   1       3.438  -1.744  -0.182  0.00  0.00     0.034 A 
ATOM      7 Cl   UNL d   1       4.558  -0.724   2.031  0.00  0.00    -0.070 Cl
ATOM      8 Cl1  UNL d   1       2.057   1.361   1.992  0.00  0.00    -0.070 Cl
ENDROOT
TORSDOF 0
ENDMDL
