MODEL 1
REMARK minimizedAffinity 8.89888191
REMARK minimizedRMSD -1
REMARK  0 active torsions:
REMARK  status: ('A' for Active; 'I' for Inactive)
ROOT
ATOM      1  C   UNL d   1       4.235   5.776   5.008  0.00  0.00     0.020 A 
ATOM      2  C1  UNL d   1       4.943   5.089   5.994  0.00  0.00     0.020 A 
ATOM      3  C2  UNL d   1       5.388   3.787   5.755  0.00  0.00     0.034 A 
ATOM      4  C3  UNL d   1       5.125   3.168   4.528  0.00  0.00     0.017 A 
ATOM      5  C4  UNL d   1       4.415   3.858   3.539  0.00  0.00     0.017 A 
ATOM      6  C5  UNL d   1       3.972   5.161   3.783  0.00  0.00     0.034 A 
ATOM      7 Cl   UNL d   1       4.053   3.159   2.000  0.00  0.00    -0.070 Cl
ATOM      8 Cl1  UNL d   1       5.706   1.556   4.301  0.00  0.00    -0.070 Cl
ENDROOT
TORSDOF 0
ENDMDL
