MODEL 1
REMARK minimizedAffinity 6.42964125
REMARK minimizedRMSD -1
REMARK  0 active torsions:
REMARK  status: ('A' for Active; 'I' for Inactive)
ROOT
ATOM      1  C   UNL d   1       3.103   1.723  -0.002  0.00  0.00     0.020 A 
ATOM      2  C1  UNL d   1       2.432   2.665   0.777  0.00  0.00     0.020 A 
ATOM      3  C2  UNL d   1       1.732   2.258   1.915  0.00  0.00     0.034 A 
ATOM      4  C3  UNL d   1       1.702   0.907   2.278  0.00  0.00     0.017 A 
ATOM      5  C4  UNL d   1       2.376  -0.038   1.495  0.00  0.00     0.017 A 
ATOM      6  C5  UNL d   1       3.075   0.375   0.356  0.00  0.00     0.034 A 
ATOM      7 Cl   UNL d   1       2.384  -1.723   1.878  0.00  0.00    -0.070 Cl
ATOM      8 Cl1  UNL d   1       0.818   0.475   3.698  0.00  0.00    -0.070 Cl
ENDROOT
TORSDOF 0
ENDMDL
