MODEL 1
REMARK minimizedAffinity 5.65341091
REMARK minimizedRMSD -1
REMARK  0 active torsions:
REMARK  status: ('A' for Active; 'I' for Inactive)
ROOT
ATOM      1  C   UNL d   1       2.621   0.032  -1.123  0.00  0.00     0.020 A 
ATOM      2  C1  UNL d   1       2.572   0.597   0.151  0.00  0.00     0.020 A 
ATOM      3  C2  UNL d   1       3.465   1.612   0.500  0.00  0.00     0.034 A 
ATOM      4  C3  UNL d   1       4.410   2.067  -0.427  0.00  0.00     0.017 A 
ATOM      5  C4  UNL d   1       4.458   1.500  -1.706  0.00  0.00     0.017 A 
ATOM      6  C5  UNL d   1       3.562   0.483  -2.049  0.00  0.00     0.034 A 
ATOM      7 Cl   UNL d   1       5.596   2.008  -2.903  0.00  0.00    -0.070 Cl
ATOM      8 Cl1  UNL d   1       5.483   3.326   0.071  0.00  0.00    -0.070 Cl
ENDROOT
TORSDOF 0
ENDMDL
