MODEL 1
REMARK minimizedAffinity 4.22616148
REMARK minimizedRMSD -1
REMARK  0 active torsions:
REMARK  status: ('A' for Active; 'I' for Inactive)
ROOT
ATOM      1  C1  DEN d   1       2.300   0.273   0.718  0.00  0.00     0.130 A 
ATOM      2  C2  DEN d   1       2.960   1.459   1.257  0.00  0.00    -0.031 A 
ATOM      3  C3  DEN d   1       1.918   2.452   1.585  0.00  0.00     0.027 A 
ATOM      4  C4  DEN d   1      -0.641   2.268   1.318  0.00  0.00     0.027 A 
ATOM      5  C5  DEN d   1      -1.670   1.457   0.893  0.00  0.00    -0.003 A 
ATOM      6  C6  DEN d   1      -1.447   0.218   0.353  0.00  0.00     0.001 A 
ATOM      7  C7  DEN d   1      -0.168  -0.264   0.265  0.00  0.00     0.017 A 
ATOM      8  C8  DEN d   1       0.875   0.551   0.684  0.00  0.00    -0.094 A 
ATOM      9  C9  DEN d   1       0.629   1.795   1.239  0.00  0.00    -0.072 A 
ENDROOT
TORSDOF 0
ENDMDL
