MODEL 1
REMARK minimizedAffinity -3.92389059
REMARK minimizedRMSD -1
REMARK  0 active torsions:
REMARK  status: ('A' for Active; 'I' for Inactive)
ROOT
ATOM      1  C1  DEN d   1      -1.706   0.347   0.078  0.00  0.00     0.130 A 
ATOM      2  C2  DEN d   1      -1.088  -0.975   0.022  0.00  0.00    -0.031 A 
ATOM      3  C3  DEN d   1       0.377  -0.794   0.021  0.00  0.00     0.027 A 
ATOM      4  C4  DEN d   1       1.742   1.392   0.104  0.00  0.00     0.027 A 
ATOM      5  C5  DEN d   1       1.659   2.767   0.148  0.00  0.00    -0.003 A 
ATOM      6  C6  DEN d   1       0.459   3.426   0.137  0.00  0.00     0.001 A 
ATOM      7  C7  DEN d   1      -0.709   2.710   0.126  0.00  0.00     0.017 A 
ATOM      8  C8  DEN d   1      -0.633   1.325   0.075  0.00  0.00    -0.094 A 
ATOM      9  C9  DEN d   1       0.590   0.676   0.099  0.00  0.00    -0.072 A 
ENDROOT
TORSDOF 0
ENDMDL
