MODEL 1
REMARK minimizedAffinity -5.56867838
REMARK minimizedRMSD -1
REMARK  0 active torsions:
REMARK  status: ('A' for Active; 'I' for Inactive)
ROOT
ATOM      1  C1  DEN d   1       2.457   0.124   0.396  0.00  0.00     0.130 A 
ATOM      2  C2  DEN d   1       1.683  -1.112   0.315  0.00  0.00    -0.031 A 
ATOM      3  C3  DEN d   1       0.261  -0.751   0.149  0.00  0.00     0.027 A 
ATOM      4  C4  DEN d   1      -0.812   1.590   0.005  0.00  0.00     0.027 A 
ATOM      5  C5  DEN d   1      -0.561   2.944   0.036  0.00  0.00    -0.003 A 
ATOM      6  C6  DEN d   1       0.698   3.449   0.222  0.00  0.00     0.001 A 
ATOM      7  C7  DEN d   1       1.762   2.593   0.339  0.00  0.00     0.017 A 
ATOM      8  C8  DEN d   1       1.516   1.227   0.316  0.00  0.00    -0.094 A 
ATOM      9  C9  DEN d   1       0.237   0.736   0.115  0.00  0.00    -0.072 A 
ENDROOT
TORSDOF 0
ENDMDL
