MODEL 1
REMARK minimizedAffinity 1.01033664
REMARK minimizedRMSD -1
REMARK  0 active torsions:
REMARK  status: ('A' for Active; 'I' for Inactive)
ROOT
ATOM      1  C1  DEN d   1       0.145   2.306   1.675  0.00  0.00     0.130 A 
ATOM      2  C2  DEN d   1      -1.306   2.306   1.507  0.00  0.00    -0.031 A 
ATOM      3  C3  DEN d   1      -1.676   1.108   0.726  0.00  0.00     0.027 A 
ATOM      4  C4  DEN d   1      -0.151  -0.739  -0.230  0.00  0.00     0.027 A 
ATOM      5  C5  DEN d   1       1.153  -1.166  -0.355  0.00  0.00    -0.003 A 
ATOM      6  C6  DEN d   1       2.206  -0.453   0.154  0.00  0.00     0.001 A 
ATOM      7  C7  DEN d   1       1.970   0.702   0.852  0.00  0.00     0.017 A 
ATOM      8  C8  DEN d   1       0.659   1.142   0.976  0.00  0.00    -0.094 A 
ATOM      9  C9  DEN d   1      -0.393   0.401   0.464  0.00  0.00    -0.072 A 
ENDROOT
TORSDOF 0
ENDMDL
