MODEL 1
REMARK minimizedAffinity -0.0279193688
REMARK minimizedRMSD -1
REMARK  0 active torsions:
REMARK  status: ('A' for Active; 'I' for Inactive)
ROOT
ATOM      1  C1  DEN d   1      -1.646  -3.226  -0.279  0.00  0.00     0.130 A 
ATOM      2  C2  DEN d   1      -1.612  -4.081  -1.462  0.00  0.00    -0.031 A 
ATOM      3  C3  DEN d   1      -0.523  -3.605  -2.338  0.00  0.00     0.027 A 
ATOM      4  C4  DEN d   1       1.109  -1.641  -1.978  0.00  0.00     0.027 A 
ATOM      5  C5  DEN d   1       1.461  -0.616  -1.128  0.00  0.00    -0.003 A 
ATOM      6  C6  DEN d   1       0.787  -0.370   0.039  0.00  0.00     0.001 A 
ATOM      7  C7  DEN d   1      -0.247  -1.188   0.410  0.00  0.00     0.017 A 
ATOM      8  C8  DEN d   1      -0.614  -2.219  -0.446  0.00  0.00    -0.094 A 
ATOM      9  C9  DEN d   1       0.088  -2.458  -1.615  0.00  0.00    -0.072 A 
ENDROOT
TORSDOF 0
ENDMDL
