MODEL 1
REMARK minimizedAffinity -6.74396181
REMARK minimizedRMSD -1
REMARK  0 active torsions:
REMARK  status: ('A' for Active; 'I' for Inactive)
ROOT
ATOM      1  C1  DEN d   1      -0.122   2.981   0.062  0.00  0.00     0.130 A 
ATOM      2  C2  DEN d   1       1.196   3.587   0.226  0.00  0.00    -0.031 A 
ATOM      3  C3  DEN d   1       2.175   2.502   0.434  0.00  0.00     0.027 A 
ATOM      4  C4  DEN d   1       1.782  -0.046   0.511  0.00  0.00     0.027 A 
ATOM      5  C5  DEN d   1       0.828  -1.038   0.434  0.00  0.00    -0.003 A 
ATOM      6  C6  DEN d   1      -0.502  -0.760   0.263  0.00  0.00     0.001 A 
ATOM      7  C7  DEN d   1      -0.911   0.540   0.118  0.00  0.00     0.017 A 
ATOM      8  C8  DEN d   1       0.043   1.545   0.202  0.00  0.00    -0.094 A 
ATOM      9  C9  DEN d   1       1.385   1.243   0.363  0.00  0.00    -0.072 A 
ENDROOT
TORSDOF 0
ENDMDL
