MODEL 1
REMARK minimizedAffinity -2.76955914
REMARK minimizedRMSD -1
REMARK  0 active torsions:
REMARK  status: ('A' for Active; 'I' for Inactive)
ROOT
ATOM      1  C1  DEN d   1      -0.107   0.072  -1.158  0.00  0.00     0.130 A 
ATOM      2  C2  DEN d   1      -0.031   0.211   0.294  0.00  0.00    -0.031 A 
ATOM      3  C3  DEN d   1      -0.465  -1.065   0.898  0.00  0.00     0.027 A 
ATOM      4  C4  DEN d   1      -1.240  -3.231  -0.268  0.00  0.00     0.027 A 
ATOM      5  C5  DEN d   1      -1.482  -3.825  -1.487  0.00  0.00    -0.003 A 
ATOM      6  C6  DEN d   1      -1.317  -3.156  -2.671  0.00  0.00     0.001 A 
ATOM      7  C7  DEN d   1      -0.855  -1.867  -2.663  0.00  0.00     0.017 A 
ATOM      8  C8  DEN d   1      -0.615  -1.259  -1.438  0.00  0.00    -0.094 A 
ATOM      9  C9  DEN d   1      -0.776  -1.956  -0.252  0.00  0.00    -0.072 A 
ENDROOT
TORSDOF 0
ENDMDL
