MODEL 1
REMARK minimizedAffinity -0.784677982
REMARK minimizedRMSD -1
REMARK  0 active torsions:
REMARK  status: ('A' for Active; 'I' for Inactive)
ROOT
ATOM      1  C1  DEN d   1      -1.741  -2.858  -1.542  0.00  0.00     0.130 A 
ATOM      2  C2  DEN d   1      -0.807  -3.353  -2.550  0.00  0.00    -0.031 A 
ATOM      3  C3  DEN d   1       0.463  -2.614  -2.397  0.00  0.00     0.027 A 
ATOM      4  C4  DEN d   1       1.071  -0.766  -0.704  0.00  0.00     0.027 A 
ATOM      5  C5  DEN d   1       0.600  -0.002   0.342  0.00  0.00    -0.003 A 
ATOM      6  C6  DEN d   1      -0.683  -0.112   0.807  0.00  0.00     0.001 A 
ATOM      7  C7  DEN d   1      -1.528  -1.038   0.254  0.00  0.00     0.017 A 
ATOM      8  C8  DEN d   1      -1.063  -1.806  -0.805  0.00  0.00    -0.094 A 
ATOM      9  C9  DEN d   1       0.242  -1.689  -1.253  0.00  0.00    -0.072 A 
ENDROOT
TORSDOF 0
ENDMDL
