MODEL 1
REMARK minimizedAffinity -3.85624647
REMARK minimizedRMSD -1
REMARK  0 active torsions:
REMARK  status: ('A' for Active; 'I' for Inactive)
ROOT
ATOM      1  C1  DEN d   1      -1.620   0.290   0.026  0.00  0.00     0.130 A 
ATOM      2  C2  DEN d   1      -1.002  -0.910  -0.533  0.00  0.00    -0.031 A 
ATOM      3  C3  DEN d   1       0.451  -0.835  -0.281  0.00  0.00     0.027 A 
ATOM      4  C4  DEN d   1       1.797   1.010   0.918  0.00  0.00     0.027 A 
ATOM      5  C5  DEN d   1       1.711   2.229   1.552  0.00  0.00    -0.003 A 
ATOM      6  C6  DEN d   1       0.524   2.899   1.691  0.00  0.00     0.001 A 
ATOM      7  C7  DEN d   1      -0.633   2.330   1.229  0.00  0.00     0.017 A 
ATOM      8  C8  DEN d   1      -0.554   1.104   0.581  0.00  0.00    -0.094 A 
ATOM      9  C9  DEN d   1       0.654   0.438   0.462  0.00  0.00    -0.072 A 
ENDROOT
TORSDOF 0
ENDMDL
