MODEL 1
REMARK minimizedAffinity -4.67342854
REMARK minimizedRMSD -1
REMARK  0 active torsions:
REMARK  status: ('A' for Active; 'I' for Inactive)
ROOT
ATOM      1  C1  DEN d   1       0.532  -0.306  -0.276  0.00  0.00     0.130 A 
ATOM      2  C2  DEN d   1      -0.731  -0.580   0.404  0.00  0.00    -0.031 A 
ATOM      3  C3  DEN d   1      -1.129   0.640   1.135  0.00  0.00     0.027 A 
ATOM      4  C4  DEN d   1       0.078   2.915   1.274  0.00  0.00     0.027 A 
ATOM      5  C5  DEN d   1       1.190   3.622   0.873  0.00  0.00    -0.003 A 
ATOM      6  C6  DEN d   1       2.169   3.064   0.096  0.00  0.00     0.001 A 
ATOM      7  C7  DEN d   1       2.034   1.773  -0.344  0.00  0.00     0.017 A 
ATOM      8  C8  DEN d   1       0.919   1.052   0.063  0.00  0.00    -0.094 A 
ATOM      9  C9  DEN d   1      -0.066   1.638   0.839  0.00  0.00    -0.072 A 
ENDROOT
TORSDOF 0
ENDMDL
