MODEL 1
REMARK minimizedAffinity -3.10586309
REMARK minimizedRMSD -1
REMARK  0 active torsions:
REMARK  status: ('A' for Active; 'I' for Inactive)
ROOT
ATOM      1  C1  DEN d   1       1.023  -0.717   0.063  0.00  0.00     0.130 A 
ATOM      2  C2  DEN d   1      -0.390  -1.017  -0.151  0.00  0.00    -0.031 A 
ATOM      3  C3  DEN d   1      -1.136   0.258  -0.124  0.00  0.00     0.027 A 
ATOM      4  C4  DEN d   1      -0.244   2.653   0.223  0.00  0.00     0.027 A 
ATOM      5  C5  DEN d   1       0.885   3.407   0.456  0.00  0.00    -0.003 A 
ATOM      6  C6  DEN d   1       2.123   2.842   0.607  0.00  0.00     0.001 A 
ATOM      7  C7  DEN d   1       2.270   1.486   0.482  0.00  0.00     0.017 A 
ATOM      8  C8  DEN d   1       1.136   0.717   0.254  0.00  0.00    -0.094 A 
ATOM      9  C9  DEN d   1      -0.106   1.309   0.093  0.00  0.00    -0.072 A 
ENDROOT
TORSDOF 0
ENDMDL
