MODEL 1
REMARK minimizedAffinity -6.88571405
REMARK minimizedRMSD -1
REMARK  0 active torsions:
REMARK  status: ('A' for Active; 'I' for Inactive)
ROOT
ATOM      1  C1  DEN d   1      -1.254   0.720   0.401  0.00  0.00     0.130 A 
ATOM      2  C2  DEN d   1      -0.750  -0.648   0.477  0.00  0.00    -0.031 A 
ATOM      3  C3  DEN d   1       0.725  -0.591   0.506  0.00  0.00     0.027 A 
ATOM      4  C4  DEN d   1       2.270   1.473   0.445  0.00  0.00     0.027 A 
ATOM      5  C5  DEN d   1       2.304   2.848   0.369  0.00  0.00    -0.003 A 
ATOM      6  C6  DEN d   1       1.166   3.602   0.265  0.00  0.00     0.001 A 
ATOM      7  C7  DEN d   1      -0.059   2.988   0.280  0.00  0.00     0.017 A 
ATOM      8  C8  DEN d   1      -0.101   1.601   0.349  0.00  0.00    -0.094 A 
ATOM      9  C9  DEN d   1       1.061   0.857   0.465  0.00  0.00    -0.072 A 
ENDROOT
TORSDOF 0
ENDMDL
