MODEL 1
REMARK minimizedAffinity 33.8009071
REMARK minimizedRMSD -1
REMARK  0 active torsions:
REMARK  status: ('A' for Active; 'I' for Inactive)
ROOT
ATOM      1  C   UNL d   1       5.973   2.537  -0.332  0.00  0.00     0.124 A 
ATOM      2  C1  UNL d   1       5.963   3.924  -0.290  0.00  0.00     0.062 A 
ATOM      3  C2  UNL d   1       5.946   4.660  -1.471  0.00  0.00     0.162 A 
ATOM      4  C3  UNL d   1       5.938   4.011  -2.705  0.00  0.00    -0.034 A 
ATOM      5  C4  UNL d   1       5.948   2.615  -2.740  0.00  0.00     0.162 A 
ATOM      6  C5  UNL d   1       5.965   1.884  -1.557  0.00  0.00     0.062 A 
ATOM      7  F   UNL d   1       5.974   0.544  -1.600  0.00  0.00    -0.097 F 
ATOM      8  F1  UNL d   1       5.940   1.959  -3.909  0.00  0.00    -0.096 F 
ATOM      9  I   UNL d   1       5.912   5.108  -4.473  0.00  0.00    -0.060 I 
ATOM     10  F2  UNL d   1       5.937   6.000  -1.400  0.00  0.00    -0.096 F 
ATOM     11  F3  UNL d   1       5.972   4.557   0.892  0.00  0.00    -0.097 F 
ATOM     12  F4  UNL d   1       5.990   1.831   0.806  0.00  0.00    -0.092 F 
ENDROOT
TORSDOF 0
ENDMDL
