MODEL 1
REMARK minimizedAffinity 21.4899845
REMARK minimizedRMSD -1
REMARK  0 active torsions:
REMARK  status: ('A' for Active; 'I' for Inactive)
ROOT
ATOM      1  C   UNL d   1      -3.254  -3.509  -5.126  0.00  0.00     0.124 A 
ATOM      2  C1  UNL d   1      -2.991  -2.150  -5.027  0.00  0.00     0.062 A 
ATOM      3  C2  UNL d   1      -2.045  -1.684  -4.119  0.00  0.00     0.162 A 
ATOM      4  C3  UNL d   1      -1.353  -2.579  -3.303  0.00  0.00    -0.034 A 
ATOM      5  C4  UNL d   1      -1.624  -3.945  -3.407  0.00  0.00     0.162 A 
ATOM      6  C5  UNL d   1      -2.571  -4.405  -4.316  0.00  0.00     0.062 A 
ATOM      7  F   UNL d   1      -2.824  -5.719  -4.410  0.00  0.00    -0.097 F 
ATOM      8  F1  UNL d   1      -0.977  -4.833  -2.638  0.00  0.00    -0.096 F 
ATOM      9  I   UNL d   1       0.063  -1.887  -1.944  0.00  0.00    -0.060 I 
ATOM     10  F2  UNL d   1      -1.811  -0.366  -4.045  0.00  0.00    -0.096 F 
ATOM     11  F3  UNL d   1      -3.651  -1.282  -5.808  0.00  0.00    -0.097 F 
ATOM     12  F4  UNL d   1      -4.166  -3.954  -6.000  0.00  0.00    -0.092 F 
ENDROOT
TORSDOF 0
ENDMDL
