MODEL 1
REMARK minimizedAffinity 12.5944157
REMARK minimizedRMSD -1
REMARK  0 active torsions:
REMARK  status: ('A' for Active; 'I' for Inactive)
ROOT
ATOM      1  C   UNL d   1       1.175   4.128   2.283  0.00  0.00     0.124 A 
ATOM      2  C1  UNL d   1       2.240   3.312   2.639  0.00  0.00     0.062 A 
ATOM      3  C2  UNL d   1       2.712   2.350   1.751  0.00  0.00     0.162 A 
ATOM      4  C3  UNL d   1       2.119   2.198   0.497  0.00  0.00    -0.034 A 
ATOM      5  C4  UNL d   1       1.048   3.022   0.147  0.00  0.00     0.162 A 
ATOM      6  C5  UNL d   1       0.580   3.982   1.038  0.00  0.00     0.062 A 
ATOM      7  F   UNL d   1      -0.449   4.770   0.692  0.00  0.00    -0.097 F 
ATOM      8  F1  UNL d   1       0.455   2.903  -1.051  0.00  0.00    -0.096 F 
ATOM      9  I   UNL d   1       2.822   0.760  -0.834  0.00  0.00    -0.060 I 
ATOM     10  F2  UNL d   1       3.742   1.575   2.121  0.00  0.00    -0.096 F 
ATOM     11  F3  UNL d   1       2.816   3.450   3.842  0.00  0.00    -0.097 F 
ATOM     12  F4  UNL d   1       0.723   5.052   3.140  0.00  0.00    -0.092 F 
ENDROOT
TORSDOF 0
ENDMDL
