MODEL 1
REMARK minimizedAffinity 17.8845482
REMARK minimizedRMSD -1
REMARK  0 active torsions:
REMARK  status: ('A' for Active; 'I' for Inactive)
ROOT
ATOM      1  C   UNL d   1       2.760   0.032   0.370  0.00  0.00     0.124 A 
ATOM      2  C1  UNL d   1       3.913   0.763   0.621  0.00  0.00     0.062 A 
ATOM      3  C2  UNL d   1       4.840   0.309   1.555  0.00  0.00     0.162 A 
ATOM      4  C3  UNL d   1       4.617  -0.882   2.246  0.00  0.00    -0.034 A 
ATOM      5  C4  UNL d   1       3.455  -1.611   1.988  0.00  0.00     0.162 A 
ATOM      6  C5  UNL d   1       2.532  -1.153   1.054  0.00  0.00     0.062 A 
ATOM      7  F   UNL d   1       1.418  -1.860   0.813  0.00  0.00    -0.097 F 
ATOM      8  F1  UNL d   1       3.209  -2.761   2.634  0.00  0.00    -0.096 F 
ATOM      9  I   UNL d   1       6.000  -1.564   3.644  0.00  0.00    -0.060 I 
ATOM     10  F2  UNL d   1       5.945   1.036   1.777  0.00  0.00    -0.096 F 
ATOM     11  F3  UNL d   1       4.135   1.909  -0.038  0.00  0.00    -0.097 F 
ATOM     12  F4  UNL d   1       1.870   0.472  -0.529  0.00  0.00    -0.092 F 
ENDROOT
TORSDOF 0
ENDMDL
