MODEL 1
REMARK minimizedAffinity 10.64114
REMARK minimizedRMSD -1
REMARK  0 active torsions:
REMARK  status: ('A' for Active; 'I' for Inactive)
ROOT
ATOM      1  C   UNL d   1       3.091   1.664   0.761  0.00  0.00     0.124 A 
ATOM      2  C1  UNL d   1       4.132   2.563   0.941  0.00  0.00     0.062 A 
ATOM      3  C2  UNL d   1       4.964   2.894  -0.124  0.00  0.00     0.162 A 
ATOM      4  C3  UNL d   1       4.758   2.325  -1.381  0.00  0.00    -0.034 A 
ATOM      5  C4  UNL d   1       3.709   1.421  -1.555  0.00  0.00     0.162 A 
ATOM      6  C5  UNL d   1       2.880   1.094  -0.487  0.00  0.00     0.062 A 
ATOM      7  F   UNL d   1       1.874   0.225  -0.663  0.00  0.00    -0.097 F 
ATOM      8  F1  UNL d   1       3.482   0.856  -2.750  0.00  0.00    -0.096 F 
ATOM      9  I   UNL d   1       6.000   2.817  -2.977  0.00  0.00    -0.060 I 
ATOM     10  F2  UNL d   1       5.963   3.766   0.079  0.00  0.00    -0.096 F 
ATOM     11  F3  UNL d   1       4.339   3.115   2.146  0.00  0.00    -0.097 F 
ATOM     12  F4  UNL d   1       2.292   1.347   1.788  0.00  0.00    -0.092 F 
ENDROOT
TORSDOF 0
ENDMDL
