MODEL 1
REMARK minimizedAffinity 10.388669
REMARK minimizedRMSD -1
REMARK  0 active torsions:
REMARK  status: ('A' for Active; 'I' for Inactive)
ROOT
ATOM      1  C   UNL d   1       1.107   3.814   2.072  0.00  0.00     0.124 A 
ATOM      2  C1  UNL d   1       2.313   3.144   2.222  0.00  0.00     0.062 A 
ATOM      3  C2  UNL d   1       2.726   2.223   1.264  0.00  0.00     0.162 A 
ATOM      4  C3  UNL d   1       1.933   1.966   0.146  0.00  0.00    -0.034 A 
ATOM      5  C4  UNL d   1       0.721   2.643   0.002  0.00  0.00     0.162 A 
ATOM      6  C5  UNL d   1       0.312   3.563   0.962  0.00  0.00     0.062 A 
ATOM      7  F   UNL d   1      -0.854   4.209   0.815  0.00  0.00    -0.097 F 
ATOM      8  F1  UNL d   1      -0.067   2.421  -1.061  0.00  0.00    -0.096 F 
ATOM      9  I   UNL d   1       2.547   0.590  -1.289  0.00  0.00    -0.060 I 
ATOM     10  F2  UNL d   1       3.897   1.590   1.435  0.00  0.00    -0.096 F 
ATOM     11  F3  UNL d   1       3.083   3.383   3.294  0.00  0.00    -0.097 F 
ATOM     12  F4  UNL d   1       0.711   4.699   2.996  0.00  0.00    -0.092 F 
ENDROOT
TORSDOF 0
ENDMDL
