MODEL 1
REMARK minimizedAffinity 13.8699751
REMARK minimizedRMSD -1
REMARK  0 active torsions:
REMARK  status: ('A' for Active; 'I' for Inactive)
ROOT
ATOM      1  C   UNL d   1       2.888   0.273   0.069  0.00  0.00     0.124 A 
ATOM      2  C1  UNL d   1       3.027   0.375  -1.309  0.00  0.00     0.062 A 
ATOM      3  C2  UNL d   1       3.842   1.361  -1.858  0.00  0.00     0.162 A 
ATOM      4  C3  UNL d   1       4.523   2.253  -1.030  0.00  0.00    -0.034 A 
ATOM      5  C4  UNL d   1       4.377   2.144   0.354  0.00  0.00     0.162 A 
ATOM      6  C5  UNL d   1       3.562   1.157   0.898  0.00  0.00     0.062 A 
ATOM      7  F   UNL d   1       3.428   1.059   2.229  0.00  0.00    -0.097 F 
ATOM      8  F1  UNL d   1       5.018   2.985   1.179  0.00  0.00    -0.096 F 
ATOM      9  I   UNL d   1       5.742   3.729  -1.848  0.00  0.00    -0.060 I 
ATOM     10  F2  UNL d   1       3.958   1.437  -3.192  0.00  0.00    -0.096 F 
ATOM     11  F3  UNL d   1       2.376  -0.478  -2.112  0.00  0.00    -0.097 F 
ATOM     12  F4  UNL d   1       2.103  -0.677   0.595  0.00  0.00    -0.092 F 
ENDROOT
TORSDOF 0
ENDMDL
