MODEL 1
REMARK minimizedAffinity 14.6273375
REMARK minimizedRMSD -1
REMARK  0 active torsions:
REMARK  status: ('A' for Active; 'I' for Inactive)
ROOT
ATOM      1  C   UNL d   1       3.153   0.812  -0.141  0.00  0.00     0.124 A 
ATOM      2  C1  UNL d   1       2.508  -0.267   0.447  0.00  0.00     0.062 A 
ATOM      3  C2  UNL d   1       2.904  -0.721   1.701  0.00  0.00     0.162 A 
ATOM      4  C3  UNL d   1       3.952  -0.096   2.377  0.00  0.00    -0.034 A 
ATOM      5  C4  UNL d   1       4.597   0.988   1.779  0.00  0.00     0.162 A 
ATOM      6  C5  UNL d   1       4.197   1.439   0.525  0.00  0.00     0.062 A 
ATOM      7  F   UNL d   1       4.821   2.481  -0.041  0.00  0.00    -0.097 F 
ATOM      8  F1  UNL d   1       5.608   1.613   2.401  0.00  0.00    -0.096 F 
ATOM      9  I   UNL d   1       4.548  -0.772   4.253  0.00  0.00    -0.060 I 
ATOM     10  F2  UNL d   1       2.263  -1.766   2.245  0.00  0.00    -0.096 F 
ATOM     11  F3  UNL d   1       1.499  -0.874  -0.196  0.00  0.00    -0.097 F 
ATOM     12  F4  UNL d   1       2.770   1.247  -1.348  0.00  0.00    -0.092 F 
ENDROOT
TORSDOF 0
ENDMDL
