MODEL 1
REMARK minimizedAffinity 4.90329218
REMARK minimizedRMSD -1
REMARK  0 active torsions:
REMARK  status: ('A' for Active; 'I' for Inactive)
ROOT
ATOM      1  C   UNL d   1       3.536   1.075  -0.648  0.00  0.00     0.124 A 
ATOM      2  C1  UNL d   1       4.649   1.520   0.050  0.00  0.00     0.062 A 
ATOM      3  C2  UNL d   1       4.915   1.034   1.327  0.00  0.00     0.162 A 
ATOM      4  C3  UNL d   1       4.065   0.096   1.914  0.00  0.00    -0.034 A 
ATOM      5  C4  UNL d   1       2.947  -0.346   1.206  0.00  0.00     0.162 A 
ATOM      6  C5  UNL d   1       2.686   0.143  -0.070  0.00  0.00     0.062 A 
ATOM      7  F   UNL d   1       1.609  -0.289  -0.744  0.00  0.00    -0.097 F 
ATOM      8  F1  UNL d   1       2.109  -1.247   1.740  0.00  0.00    -0.096 F 
ATOM      9  I   UNL d   1       4.459  -0.633   3.823  0.00  0.00    -0.060 I 
ATOM     10  F2  UNL d   1       5.998   1.482   1.979  0.00  0.00    -0.096 F 
ATOM     11  F3  UNL d   1       5.472   2.422  -0.505  0.00  0.00    -0.097 F 
ATOM     12  F4  UNL d   1       3.282   1.545  -1.877  0.00  0.00    -0.092 F 
ENDROOT
TORSDOF 0
ENDMDL
