MODEL 1
REMARK minimizedAffinity 26.6704159
REMARK minimizedRMSD -1
REMARK  0 active torsions:
REMARK  status: ('A' for Active; 'I' for Inactive)
ROOT
ATOM      1  C   UNL d   1       2.087   0.455  -0.169  0.00  0.00     0.124 A 
ATOM      2  C1  UNL d   1       0.921  -0.274  -0.357  0.00  0.00     0.062 A 
ATOM      3  C2  UNL d   1       0.619  -1.340   0.485  0.00  0.00     0.162 A 
ATOM      4  C3  UNL d   1       1.485  -1.684   1.523  0.00  0.00    -0.034 A 
ATOM      5  C4  UNL d   1       2.656  -0.948   1.705  0.00  0.00     0.162 A 
ATOM      6  C5  UNL d   1       2.954   0.117   0.861  0.00  0.00     0.062 A 
ATOM      7  F   UNL d   1       4.081   0.820   1.043  0.00  0.00    -0.097 F 
ATOM      8  F1  UNL d   1       3.511  -1.251   2.693  0.00  0.00    -0.096 F 
ATOM      9  I   UNL d   1       1.037  -3.278   2.784  0.00  0.00    -0.060 I 
ATOM     10  F2  UNL d   1      -0.515  -2.027   0.281  0.00  0.00    -0.096 F 
ATOM     11  F3  UNL d   1       0.083   0.049  -1.352  0.00  0.00    -0.097 F 
ATOM     12  F4  UNL d   1       2.376   1.480  -0.982  0.00  0.00    -0.092 F 
ENDROOT
TORSDOF 0
ENDMDL
