MODEL 1
REMARK minimizedAffinity -3.59018111
REMARK minimizedRMSD -1
REMARK  0 active torsions:
REMARK  status: ('A' for Active; 'I' for Inactive)
ROOT
ATOM      1  C2' OXE d   1      -0.510  -2.738  -1.494  0.00  0.00     0.078 C 
ATOM      2  C1' OXE d   1       2.050  -2.229  -0.460  0.00  0.00     0.078 C 
ATOM      3  C1  OXE d   1       1.109  -1.061  -0.616  0.00  0.00    -0.078 A 
ATOM      4  C2  OXE d   1      -0.125  -1.311  -1.167  0.00  0.00    -0.078 A 
ATOM      5  C3  OXE d   1      -1.051  -0.279  -1.283  0.00  0.00     0.003 A 
ATOM      6  C4  OXE d   1      -0.683   1.040  -0.987  0.00  0.00    -0.002 A 
ATOM      7  C5  OXE d   1       0.582   1.323  -0.462  0.00  0.00    -0.002 A 
ATOM      8  C6  OXE d   1       1.473   0.281  -0.231  0.00  0.00     0.003 A 
ENDROOT
TORSDOF 0
ENDMDL
