MODEL 1
REMARK minimizedAffinity 8.80532455
REMARK minimizedRMSD -1
REMARK  0 active torsions:
REMARK  status: ('A' for Active; 'I' for Inactive)
ROOT
ATOM      1  C2' OXE d   1       3.903  -0.514  -1.351  0.00  0.00     0.078 C 
ATOM      2  C1' OXE d   1       3.078  -2.516  -3.139  0.00  0.00     0.078 C 
ATOM      3  C1  OXE d   1       2.272  -2.322  -1.879  0.00  0.00    -0.078 A 
ATOM      4  C2  OXE d   1       2.710  -1.372  -0.988  0.00  0.00    -0.078 A 
ATOM      5  C3  OXE d   1       1.972  -1.116   0.164  0.00  0.00     0.003 A 
ATOM      6  C4  OXE d   1       0.876  -1.920   0.498  0.00  0.00    -0.002 A 
ATOM      7  C5  OXE d   1       0.437  -2.920  -0.377  0.00  0.00    -0.002 A 
ATOM      8  C6  OXE d   1       1.097  -3.105  -1.587  0.00  0.00     0.003 A 
ENDROOT
TORSDOF 0
ENDMDL
