MODEL 1
REMARK minimizedAffinity -0.211886361
REMARK minimizedRMSD -1
REMARK  0 active torsions:
REMARK  status: ('A' for Active; 'I' for Inactive)
ROOT
ATOM      1  C2' OXE d   1       1.543  -2.146   0.077  0.00  0.00     0.078 C 
ATOM      2  C1' OXE d   1       0.941   0.544   0.610  0.00  0.00     0.078 C 
ATOM      3  C1  OXE d   1       0.151  -0.154  -0.469  0.00  0.00    -0.078 A 
ATOM      4  C2  OXE d   1       0.484  -1.456  -0.755  0.00  0.00    -0.078 A 
ATOM      5  C3  OXE d   1      -0.249  -2.162  -1.704  0.00  0.00     0.003 A 
ATOM      6  C4  OXE d   1      -1.220  -1.513  -2.477  0.00  0.00    -0.002 A 
ATOM      7  C5  OXE d   1      -1.547  -0.176  -2.229  0.00  0.00    -0.002 A 
ATOM      8  C6  OXE d   1      -0.902   0.504  -1.202  0.00  0.00     0.003 A 
ENDROOT
TORSDOF 0
ENDMDL
