MODEL 1
REMARK minimizedAffinity -1.56569052
REMARK minimizedRMSD -1
REMARK  0 active torsions:
REMARK  status: ('A' for Active; 'I' for Inactive)
ROOT
ATOM      1  C2' OXE d   1       4.299  -0.449  -1.613  0.00  0.00     0.078 C 
ATOM      2  C1' OXE d   1       3.313  -2.944  -2.441  0.00  0.00     0.078 C 
ATOM      3  C1  OXE d   1       2.362  -2.010  -1.734  0.00  0.00    -0.078 A 
ATOM      4  C2  OXE d   1       2.865  -0.811  -1.291  0.00  0.00    -0.078 A 
ATOM      5  C3  OXE d   1       2.017   0.110  -0.682  0.00  0.00     0.003 A 
ATOM      6  C4  OXE d   1       0.695  -0.237  -0.380  0.00  0.00    -0.002 A 
ATOM      7  C5  OXE d   1       0.173  -1.469  -0.787  0.00  0.00    -0.002 A 
ATOM      8  C6  OXE d   1       0.980  -2.348  -1.501  0.00  0.00     0.003 A 
ENDROOT
TORSDOF 0
ENDMDL
