MODEL 1
REMARK minimizedAffinity 1.65087569
REMARK minimizedRMSD -1
REMARK  0 active torsions:
REMARK  status: ('A' for Active; 'I' for Inactive)
ROOT
ATOM      1  C2' OXE d   1       4.205  -0.522  -1.692  0.00  0.00     0.078 C 
ATOM      2  C1' OXE d   1       3.080  -3.009  -2.348  0.00  0.00     0.078 C 
ATOM      3  C1  OXE d   1       2.184  -1.979  -1.706  0.00  0.00    -0.078 A 
ATOM      4  C2  OXE d   1       2.755  -0.781  -1.346  0.00  0.00    -0.078 A 
ATOM      5  C3  OXE d   1       1.961   0.224  -0.801  0.00  0.00     0.003 A 
ATOM      6  C4  OXE d   1       0.623  -0.028  -0.476  0.00  0.00    -0.002 A 
ATOM      7  C5  OXE d   1       0.032  -1.255  -0.798  0.00  0.00    -0.002 A 
ATOM      8  C6  OXE d   1       0.786  -2.223  -1.450  0.00  0.00     0.003 A 
ENDROOT
TORSDOF 0
ENDMDL
