MODEL 1
REMARK minimizedAffinity 2.11710048
REMARK minimizedRMSD -1
REMARK  0 active torsions:
REMARK  status: ('A' for Active; 'I' for Inactive)
ROOT
ATOM      1  C2' OXE d   1       4.625   0.293  -1.695  0.00  0.00     0.078 C 
ATOM      2  C1' OXE d   1       3.625  -2.231  -2.407  0.00  0.00     0.078 C 
ATOM      3  C1  OXE d   1       2.656  -1.225  -1.839  0.00  0.00    -0.078 A 
ATOM      4  C2  OXE d   1       3.163  -0.009  -1.449  0.00  0.00    -0.078 A 
ATOM      5  C3  OXE d   1       2.303   0.975  -0.970  0.00  0.00     0.003 A 
ATOM      6  C4  OXE d   1       0.953   0.684  -0.736  0.00  0.00    -0.002 A 
ATOM      7  C5  OXE d   1       0.424  -0.562  -1.088  0.00  0.00    -0.002 A 
ATOM      8  C6  OXE d   1       1.252  -1.511  -1.679  0.00  0.00     0.003 A 
ENDROOT
TORSDOF 0
ENDMDL
