MODEL 1
REMARK minimizedAffinity 1.40447915
REMARK minimizedRMSD -1
REMARK  0 active torsions:
REMARK  status: ('A' for Active; 'I' for Inactive)
ROOT
ATOM      1  C2' OXE d   1       3.540  -2.828  -3.179  0.00  0.00     0.078 C 
ATOM      2  C1' OXE d   1       2.031  -1.565  -1.177  0.00  0.00     0.078 C 
ATOM      3  C1  OXE d   1       3.331  -0.922  -1.589  0.00  0.00    -0.078 A 
ATOM      4  C2  OXE d   1       4.086  -1.571  -2.536  0.00  0.00    -0.078 A 
ATOM      5  C3  OXE d   1       5.267  -0.993  -2.992  0.00  0.00     0.003 A 
ATOM      6  C4  OXE d   1       5.770   0.164  -2.385  0.00  0.00    -0.002 A 
ATOM      7  C5  OXE d   1       5.037   0.820  -1.391  0.00  0.00    -0.002 A 
ATOM      8  C6  OXE d   1       3.798   0.315  -1.012  0.00  0.00     0.003 A 
ENDROOT
TORSDOF 0
ENDMDL
