MODEL 1
REMARK minimizedAffinity 5.11824274
REMARK minimizedRMSD -1
REMARK  0 active torsions:
REMARK  status: ('A' for Active; 'I' for Inactive)
ROOT
ATOM      1  C2' OXE d   1      -1.509  -1.125  -0.191  0.00  0.00     0.078 C 
ATOM      2  C1' OXE d   1       0.028   1.219  -0.029  0.00  0.00     0.078 C 
ATOM      3  C1  OXE d   1       0.701  -0.030  -0.542  0.00  0.00    -0.078 A 
ATOM      4  C2  OXE d   1      -0.046  -1.183  -0.574  0.00  0.00    -0.078 A 
ATOM      5  C3  OXE d   1       0.510  -2.351  -1.089  0.00  0.00     0.003 A 
ATOM      6  C4  OXE d   1       1.867  -2.398  -1.431  0.00  0.00    -0.002 A 
ATOM      7  C5  OXE d   1       2.656  -1.245  -1.368  0.00  0.00    -0.002 A 
ATOM      8  C6  OXE d   1       2.079  -0.045  -0.967  0.00  0.00     0.003 A 
ENDROOT
TORSDOF 0
ENDMDL
