MODEL 1
REMARK minimizedAffinity 1.73847413
REMARK minimizedRMSD -1
REMARK  0 active torsions:
REMARK  status: ('A' for Active; 'I' for Inactive)
ROOT
ATOM      1  C2' OXE d   1       4.276   0.312  -1.777  0.00  0.00     0.078 C 
ATOM      2  C1' OXE d   1       3.495  -2.267  -2.565  0.00  0.00     0.078 C 
ATOM      3  C1  OXE d   1       2.517  -1.453  -1.755  0.00  0.00    -0.078 A 
ATOM      4  C2  OXE d   1       2.926  -0.210  -1.334  0.00  0.00    -0.078 A 
ATOM      5  C3  OXE d   1       2.042   0.604  -0.631  0.00  0.00     0.003 A 
ATOM      6  C4  OXE d   1       0.799   0.110  -0.217  0.00  0.00    -0.002 A 
ATOM      7  C5  OXE d   1       0.380  -1.168  -0.601  0.00  0.00    -0.002 A 
ATOM      8  C6  OXE d   1       1.208  -1.944  -1.405  0.00  0.00     0.003 A 
ENDROOT
TORSDOF 0
ENDMDL
