MODEL 1
REMARK minimizedAffinity -2.38760662
REMARK minimizedRMSD -1
REMARK  0 active torsions:
REMARK  status: ('A' for Active; 'I' for Inactive)
ROOT
ATOM      1  C2' OXE d   1       1.373  -1.791  -0.023  0.00  0.00     0.078 C 
ATOM      2  C1' OXE d   1      -0.828  -1.396  -1.720  0.00  0.00     0.078 C 
ATOM      3  C1  OXE d   1      -0.470  -0.287  -0.761  0.00  0.00    -0.078 A 
ATOM      4  C2  OXE d   1       0.580  -0.508   0.097  0.00  0.00    -0.078 A 
ATOM      5  C3  OXE d   1       0.986   0.502   0.964  0.00  0.00     0.003 A 
ATOM      6  C4  OXE d   1       0.240   1.682   1.076  0.00  0.00    -0.002 A 
ATOM      7  C5  OXE d   1      -0.857   1.911   0.239  0.00  0.00    -0.002 A 
ATOM      8  C6  OXE d   1      -1.199   0.957  -0.713  0.00  0.00     0.003 A 
ENDROOT
TORSDOF 0
ENDMDL
