MODEL 1
REMARK minimizedAffinity -3.50224566
REMARK minimizedRMSD -1
REMARK  1 active torsions:
REMARK  status: ('A' for Active; 'I' for Inactive)
REMARK    1  A    between atoms: N_2  and  C1_3 
ROOT
ATOM      1  C1  UNL d   1       2.847  -0.488  -3.565  0.00  0.00     0.143 A 
ATOM      2  C2  UNL d   1       2.062  -1.442  -4.221  0.00  0.00    -0.057 A 
ATOM      3  C3  UNL d   1       0.677  -1.503  -4.025  0.00  0.00     0.033 A 
ATOM      4  C4  UNL d   1       0.055  -0.626  -3.143  0.00  0.00    -0.042 A 
ATOM      5  C5  UNL d   1       0.818   0.315  -2.460  0.00  0.00     0.033 A 
ATOM      6  C6  UNL d   1       2.200   0.374  -2.666  0.00  0.00    -0.057 A 
ENDROOT
BRANCH   1   7
ATOM      7  N   UNL d   1       4.241  -0.441  -3.643  0.00  0.00    -0.732 N 
ATOM      8  C   UNL d   1       4.937   0.828  -3.635  0.00  0.00     0.284 C 
ATOM      9  H3  UNL d   1       4.686  -1.163  -3.080  0.00  0.00     0.395 HD
ENDBRANCH   1   7
TORSDOF 1
ENDMDL
