MODEL 1
REMARK minimizedAffinity -4.45417213
REMARK minimizedRMSD -1
REMARK  1 active torsions:
REMARK  status: ('A' for Active; 'I' for Inactive)
REMARK    1  A    between atoms: N_2  and  C1_3 
ROOT
ATOM      1  C1  UNL d   1      -0.571  -0.213   1.014  0.00  0.00     0.143 A 
ATOM      2  C2  UNL d   1      -0.427  -0.266   2.404  0.00  0.00    -0.057 A 
ATOM      3  C3  UNL d   1      -1.501   0.015   3.257  0.00  0.00     0.033 A 
ATOM      4  C4  UNL d   1      -2.735   0.384   2.733  0.00  0.00    -0.042 A 
ATOM      5  C5  UNL d   1      -2.895   0.467   1.354  0.00  0.00     0.033 A 
ATOM      6  C6  UNL d   1      -1.821   0.179   0.508  0.00  0.00    -0.057 A 
ENDROOT
BRANCH   1   7
ATOM      7  N   UNL d   1       0.484  -0.386   0.115  0.00  0.00    -0.732 N 
ATOM      8  C   UNL d   1       0.589   0.444  -1.066  0.00  0.00     0.284 C 
ATOM      9  H3  UNL d   1       1.370  -0.555   0.584  0.00  0.00     0.395 HD
ENDBRANCH   1   7
TORSDOF 1
ENDMDL
