MODEL 1
REMARK minimizedAffinity -3.5487957
REMARK minimizedRMSD -1
REMARK  1 active torsions:
REMARK  status: ('A' for Active; 'I' for Inactive)
REMARK    1  A    between atoms: N_2  and  C1_3 
ROOT
ATOM      1  C1  UNL d   1       0.944  -0.203  -1.795  0.00  0.00     0.143 A 
ATOM      2  C2  UNL d   1       2.304  -0.388  -2.064  0.00  0.00    -0.057 A 
ATOM      3  C3  UNL d   1       2.734  -1.301  -3.034  0.00  0.00     0.033 A 
ATOM      4  C4  UNL d   1       1.809  -2.070  -3.734  0.00  0.00    -0.042 A 
ATOM      5  C5  UNL d   1       0.453  -1.920  -3.465  0.00  0.00     0.033 A 
ATOM      6  C6  UNL d   1       0.030  -1.001  -2.499  0.00  0.00    -0.057 A 
ENDROOT
BRANCH   1   7
ATOM      7  N   UNL d   1       0.458   0.618  -0.774  0.00  0.00    -0.732 N 
ATOM      8  C   UNL d   1       0.679   0.276   0.615  0.00  0.00     0.284 C 
ATOM      9  H3  UNL d   1       0.575   1.607  -0.982  0.00  0.00     0.395 HD
ENDBRANCH   1   7
TORSDOF 1
ENDMDL
