MODEL 1
REMARK minimizedAffinity -5.76781654
REMARK minimizedRMSD -1
REMARK  1 active torsions:
REMARK  status: ('A' for Active; 'I' for Inactive)
REMARK    1  A    between atoms: N_2  and  C1_3 
ROOT
ATOM      1  C1  UNL d   1      -0.727  -0.065   0.686  0.00  0.00     0.143 A 
ATOM      2  C2  UNL d   1      -2.081   0.063   1.012  0.00  0.00    -0.057 A 
ATOM      3  C3  UNL d   1      -2.492   0.315   2.326  0.00  0.00     0.033 A 
ATOM      4  C4  UNL d   1      -1.553   0.415   3.347  0.00  0.00    -0.042 A 
ATOM      5  C5  UNL d   1      -0.202   0.266   3.052  0.00  0.00     0.033 A 
ATOM      6  C6  UNL d   1       0.202   0.021   1.736  0.00  0.00    -0.057 A 
ENDROOT
BRANCH   1   7
ATOM      7  N   UNL d   1      -0.261  -0.413  -0.584  0.00  0.00    -0.732 N 
ATOM      8  C   UNL d   1       0.751   0.384  -1.242  0.00  0.00     0.284 C 
ATOM      9  H3  UNL d   1      -0.133  -1.417  -0.689  0.00  0.00     0.395 HD
ENDBRANCH   1   7
TORSDOF 1
ENDMDL
