MODEL 1
REMARK minimizedAffinity -4.42521477
REMARK minimizedRMSD -1
REMARK  1 active torsions:
REMARK  status: ('A' for Active; 'I' for Inactive)
REMARK    1  A    between atoms: N_2  and  C1_3 
ROOT
ATOM      1  C1  UNL d   1      -0.209   0.378   0.081  0.00  0.00     0.143 A 
ATOM      2  C2  UNL d   1      -1.289  -0.363   0.573  0.00  0.00    -0.057 A 
ATOM      3  C3  UNL d   1      -1.333  -0.783   1.908  0.00  0.00     0.033 A 
ATOM      4  C4  UNL d   1      -0.280  -0.492   2.770  0.00  0.00    -0.042 A 
ATOM      5  C5  UNL d   1       0.815   0.222   2.296  0.00  0.00     0.033 A 
ATOM      6  C6  UNL d   1       0.850   0.644   0.963  0.00  0.00    -0.057 A 
ENDROOT
BRANCH   1   7
ATOM      7  N   UNL d   1      -0.061   0.739  -1.261  0.00  0.00    -0.732 N 
ATOM      8  C   UNL d   1       0.290  -0.251  -2.256  0.00  0.00     0.284 C 
ATOM      9  H3  UNL d   1      -0.771   1.402  -1.565  0.00  0.00     0.395 HD
ENDBRANCH   1   7
TORSDOF 1
ENDMDL
