MODEL 1
REMARK minimizedAffinity -3.85126209
REMARK minimizedRMSD -1
REMARK  1 active torsions:
REMARK  status: ('A' for Active; 'I' for Inactive)
REMARK    1  A    between atoms: N_2  and  C1_3 
ROOT
ATOM      1  C1  UNL d   1       0.024   0.022  -0.028  0.00  0.00     0.143 A 
ATOM      2  C2  UNL d   1       0.851  -0.017   1.099  0.00  0.00    -0.057 A 
ATOM      3  C3  UNL d   1       0.316   0.004   2.393  0.00  0.00     0.033 A 
ATOM      4  C4  UNL d   1      -1.059   0.094   2.583  0.00  0.00    -0.042 A 
ATOM      5  C5  UNL d   1      -1.898   0.160   1.476  0.00  0.00     0.033 A 
ATOM      6  C6  UNL d   1      -1.359   0.132   0.187  0.00  0.00    -0.057 A 
ENDROOT
BRANCH   1   7
ATOM      7  N   UNL d   1       0.499   0.104  -1.339  0.00  0.00    -0.732 N 
ATOM      8  C   UNL d   1       0.131  -0.895  -2.320  0.00  0.00     0.284 C 
ATOM      9  H3  UNL d   1       0.497   1.057  -1.695  0.00  0.00     0.395 HD
ENDBRANCH   1   7
TORSDOF 1
ENDMDL
