MODEL 1
REMARK minimizedAffinity -3.99231076
REMARK minimizedRMSD -1
REMARK  1 active torsions:
REMARK  status: ('A' for Active; 'I' for Inactive)
REMARK    1  A    between atoms: N_2  and  C1_3 
ROOT
ATOM      1  C1  UNL d   1      -0.185   0.328   0.324  0.00  0.00     0.143 A 
ATOM      2  C2  UNL d   1       0.749   0.494   1.351  0.00  0.00    -0.057 A 
ATOM      3  C3  UNL d   1       0.501   0.014   2.643  0.00  0.00     0.033 A 
ATOM      4  C4  UNL d   1      -0.704  -0.616   2.938  0.00  0.00    -0.042 A 
ATOM      5  C5  UNL d   1      -1.658  -0.770   1.938  0.00  0.00     0.033 A 
ATOM      6  C6  UNL d   1      -1.401  -0.294   0.648  0.00  0.00    -0.057 A 
ENDROOT
BRANCH   1   7
ATOM      7  N   UNL d   1      -0.039   0.870  -0.956  0.00  0.00    -0.732 N 
ATOM      8  C   UNL d   1       0.820   0.233  -1.931  0.00  0.00     0.284 C 
ATOM      9  H3  UNL d   1      -0.918   1.211  -1.336  0.00  0.00     0.395 HD
ENDBRANCH   1   7
TORSDOF 1
ENDMDL
