MODEL 1
REMARK minimizedAffinity -3.81013203
REMARK minimizedRMSD -1
REMARK  1 active torsions:
REMARK  status: ('A' for Active; 'I' for Inactive)
REMARK    1  A    between atoms: N_2  and  C1_3 
ROOT
ATOM      1  C1  UNL d   1       0.057   0.046  -0.095  0.00  0.00     0.143 A 
ATOM      2  C2  UNL d   1       0.943   0.947   0.506  0.00  0.00    -0.057 A 
ATOM      3  C3  UNL d   1       1.011   1.078   1.898  0.00  0.00     0.033 A 
ATOM      4  C4  UNL d   1       0.170   0.329   2.716  0.00  0.00    -0.042 A 
ATOM      5  C5  UNL d   1      -0.736  -0.554   2.139  0.00  0.00     0.033 A 
ATOM      6  C6  UNL d   1      -0.794  -0.685   0.748  0.00  0.00    -0.057 A 
ENDROOT
BRANCH   1   7
ATOM      7  N   UNL d   1      -0.127  -0.059  -1.476  0.00  0.00    -0.732 N 
ATOM      8  C   UNL d   1       0.995  -0.320  -2.352  0.00  0.00     0.284 C 
ATOM      9  H3  UNL d   1      -0.971  -0.574  -1.717  0.00  0.00     0.395 HD
ENDBRANCH   1   7
TORSDOF 1
ENDMDL
