MODEL 1
REMARK minimizedAffinity -4.35643721
REMARK minimizedRMSD -1
REMARK  1 active torsions:
REMARK  status: ('A' for Active; 'I' for Inactive)
REMARK    1  A    between atoms: N_2  and  C1_3 
ROOT
ATOM      1  C1  UNL d   1      -0.214   0.250  -0.687  0.00  0.00     0.143 A 
ATOM      2  C2  UNL d   1      -1.292  -0.345  -0.022  0.00  0.00    -0.057 A 
ATOM      3  C3  UNL d   1      -1.270  -0.543   1.364  0.00  0.00     0.033 A 
ATOM      4  C4  UNL d   1      -0.154  -0.174   2.108  0.00  0.00    -0.042 A 
ATOM      5  C5  UNL d   1       0.939   0.397   1.464  0.00  0.00     0.033 A 
ATOM      6  C6  UNL d   1       0.908   0.598   0.081  0.00  0.00    -0.057 A 
ENDROOT
BRANCH   1   7
ATOM      7  N   UNL d   1      -0.135   0.384  -2.075  0.00  0.00    -0.732 N 
ATOM      8  C   UNL d   1       1.043  -0.054  -2.792  0.00  0.00     0.284 C 
ATOM      9  H3  UNL d   1      -1.012   0.155  -2.538  0.00  0.00     0.395 HD
ENDBRANCH   1   7
TORSDOF 1
ENDMDL
