MODEL 1
REMARK minimizedAffinity -3.86274242
REMARK minimizedRMSD -1
REMARK  1 active torsions:
REMARK  status: ('A' for Active; 'I' for Inactive)
REMARK    1  A    between atoms: N_2  and  C1_3 
ROOT
ATOM      1  C1  UNL d   1       0.471  -0.125  -0.572  0.00  0.00     0.143 A 
ATOM      2  C2  UNL d   1      -0.853  -0.488  -0.306  0.00  0.00    -0.057 A 
ATOM      3  C3  UNL d   1      -1.305  -0.675   1.007  0.00  0.00     0.033 A 
ATOM      4  C4  UNL d   1      -0.429  -0.529   2.077  0.00  0.00    -0.042 A 
ATOM      5  C5  UNL d   1       0.898  -0.193   1.834  0.00  0.00     0.033 A 
ATOM      6  C6  UNL d   1       1.342  -0.002   0.522  0.00  0.00    -0.057 A 
ENDROOT
BRANCH   1   7
ATOM      7  N   UNL d   1       1.005  -0.021  -1.859  0.00  0.00    -0.732 N 
ATOM      8  C   UNL d   1       0.717  -1.026  -2.860  0.00  0.00     0.284 C 
ATOM      9  H3  UNL d   1       0.987   0.933  -2.211  0.00  0.00     0.395 HD
ENDBRANCH   1   7
TORSDOF 1
ENDMDL
