MODEL 1
REMARK minimizedAffinity -4.18517399
REMARK minimizedRMSD -1
REMARK  1 active torsions:
REMARK  status: ('A' for Active; 'I' for Inactive)
REMARK    1  A    between atoms: N_2  and  C1_3 
ROOT
ATOM      1  C1  UNL d   1       0.006  -0.384  -1.258  0.00  0.00     0.143 A 
ATOM      2  C2  UNL d   1       1.177   0.204  -1.748  0.00  0.00    -0.057 A 
ATOM      3  C3  UNL d   1       1.695  -0.144  -3.001  0.00  0.00     0.033 A 
ATOM      4  C4  UNL d   1       1.064  -1.111  -3.777  0.00  0.00    -0.042 A 
ATOM      5  C5  UNL d   1      -0.086  -1.728  -3.299  0.00  0.00     0.033 A 
ATOM      6  C6  UNL d   1      -0.602  -1.371  -2.049  0.00  0.00    -0.057 A 
ENDROOT
BRANCH   1   7
ATOM      7  N   UNL d   1      -0.504  -0.153   0.022  0.00  0.00    -0.732 N 
ATOM      8  C   UNL d   1       0.353  -0.243   1.184  0.00  0.00     0.284 C 
ATOM      9  H3  UNL d   1      -1.155   0.629   0.045  0.00  0.00     0.395 HD
ENDBRANCH   1   7
TORSDOF 1
ENDMDL
