MODEL 1
REMARK minimizedAffinity -0.988671839
REMARK minimizedRMSD -1
REMARK  1 active torsions:
REMARK  status: ('A' for Active; 'I' for Inactive)
REMARK    1  A    between atoms: N_2  and  C1_3 
ROOT
ATOM      1  C1  UNL d   1      -1.999   0.070   0.200  0.00  0.00     0.143 A 
ATOM      2  C2  UNL d   1      -0.826   0.830   0.131  0.00  0.00    -0.057 A 
ATOM      3  C3  UNL d   1       0.382   0.351   0.652  0.00  0.00     0.033 A 
ATOM      4  C4  UNL d   1       0.432  -0.890   1.279  0.00  0.00    -0.042 A 
ATOM      5  C5  UNL d   1      -0.726  -1.652   1.381  0.00  0.00     0.033 A 
ATOM      6  C6  UNL d   1      -1.928  -1.171   0.854  0.00  0.00    -0.057 A 
ENDROOT
BRANCH   1   7
ATOM      7  N   UNL d   1      -3.251   0.532  -0.211  0.00  0.00    -0.732 N 
ATOM      8  C   UNL d   1      -4.462  -0.120   0.240  0.00  0.00     0.284 C 
ATOM      9  H3  UNL d   1      -3.306   1.548  -0.222  0.00  0.00     0.395 HD
ENDBRANCH   1   7
TORSDOF 1
ENDMDL
