MODEL 1
REMARK minimizedAffinity -3.7987442
REMARK minimizedRMSD -1
REMARK  1 active torsions:
REMARK  status: ('A' for Active; 'I' for Inactive)
REMARK    1  A    between atoms: N_2  and  C1_3 
ROOT
ATOM      1  C1  UNL d   1       0.218   0.054  -0.141  0.00  0.00     0.143 A 
ATOM      2  C2  UNL d   1      -0.974  -0.571   0.243  0.00  0.00    -0.057 A 
ATOM      3  C3  UNL d   1      -1.235  -0.873   1.585  0.00  0.00     0.033 A 
ATOM      4  C4  UNL d   1      -0.294  -0.580   2.566  0.00  0.00    -0.042 A 
ATOM      5  C5  UNL d   1       0.908   0.018   2.204  0.00  0.00     0.033 A 
ATOM      6  C6  UNL d   1       1.160   0.323   0.863  0.00  0.00    -0.057 A 
ENDROOT
BRANCH   1   7
ATOM      7  N   UNL d   1       0.579   0.291  -1.470  0.00  0.00    -0.732 N 
ATOM      8  C   UNL d   1       1.082  -0.783  -2.299  0.00  0.00     0.284 C 
ATOM      9  H3  UNL d   1      -0.072   0.912  -1.944  0.00  0.00     0.395 HD
ENDBRANCH   1   7
TORSDOF 1
ENDMDL
