MODEL 1
REMARK minimizedAffinity -1.39356101
REMARK minimizedRMSD -1
REMARK  1 active torsions:
REMARK  status: ('A' for Active; 'I' for Inactive)
REMARK    1  A    between atoms: N_2  and  C1_3 
ROOT
ATOM      1  C1  UNL d   1       0.026   0.026   0.487  0.00  0.00     0.143 A 
ATOM      2  C2  UNL d   1       0.277   0.861   1.582  0.00  0.00    -0.057 A 
ATOM      3  C3  UNL d   1      -0.189   0.539   2.862  0.00  0.00     0.033 A 
ATOM      4  C4  UNL d   1      -0.942  -0.613   3.066  0.00  0.00    -0.042 A 
ATOM      5  C5  UNL d   1      -1.225  -1.444   1.988  0.00  0.00     0.033 A 
ATOM      6  C6  UNL d   1      -0.751  -1.121   0.713  0.00  0.00    -0.057 A 
ENDROOT
BRANCH   1   7
ATOM      7  N   UNL d   1       0.378   0.340  -0.828  0.00  0.00    -0.732 N 
ATOM      8  C   UNL d   1       0.725  -0.704  -1.767  0.00  0.00     0.284 C 
ATOM      9  H3  UNL d   1      -0.205   1.076  -1.220  0.00  0.00     0.395 HD
ENDBRANCH   1   7
TORSDOF 1
ENDMDL
