MODEL 1
REMARK minimizedAffinity -3.05618763
REMARK minimizedRMSD -1
REMARK  1 active torsions:
REMARK  status: ('A' for Active; 'I' for Inactive)
REMARK    1  A    between atoms: N_2  and  C1_3 
ROOT
ATOM      1  C1  UNL d   1      -0.897   0.033   0.415  0.00  0.00     0.143 A 
ATOM      2  C2  UNL d   1       0.215   0.870   0.272  0.00  0.00    -0.057 A 
ATOM      3  C3  UNL d   1       1.117   1.065   1.325  0.00  0.00     0.033 A 
ATOM      4  C4  UNL d   1       0.907   0.446   2.553  0.00  0.00    -0.042 A 
ATOM      5  C5  UNL d   1      -0.205  -0.370   2.726  0.00  0.00     0.033 A 
ATOM      6  C6  UNL d   1      -1.099  -0.566   1.669  0.00  0.00    -0.057 A 
ENDROOT
BRANCH   1   7
ATOM      7  N   UNL d   1      -1.884  -0.124  -0.561  0.00  0.00    -0.732 N 
ATOM      8  C   UNL d   1      -3.277   0.107  -0.245  0.00  0.00     0.284 C 
ATOM      9  H3  UNL d   1      -1.597   0.243  -1.466  0.00  0.00     0.395 HD
ENDBRANCH   1   7
TORSDOF 1
ENDMDL
