MODEL 1
REMARK minimizedAffinity -5.54850864
REMARK minimizedRMSD -1
REMARK  3 active torsions:
REMARK  status: ('A' for Active; 'I' for Inactive)
REMARK    1  A    between atoms: C3'_2  and  C2'_3 
REMARK    2  A    between atoms: C2'_3  and  C1'_4 
REMARK    3  A    between atoms: C1'_4  and  C1_5 
ROOT
ATOM      1  C1  N4B d   1       0.286   0.567   1.470  0.00  0.00    -0.075 A 
ATOM      2  C2  N4B d   1      -0.448   0.301   0.293  0.00  0.00     0.002 A 
ATOM      3  C3  N4B d   1      -1.468   1.139  -0.085  0.00  0.00     0.002 A 
ATOM      4  C4  N4B d   1      -1.783   2.234   0.705  0.00  0.00    -0.004 A 
ATOM      5  C5  N4B d   1      -1.054   2.499   1.827  0.00  0.00     0.002 A 
ATOM      6  C6  N4B d   1      -0.023   1.667   2.217  0.00  0.00     0.002 A 
ENDROOT
BRANCH   1   7
ATOM      7  C1' N4B d   1       1.353  -0.368   1.969  0.00  0.00     0.057 C 
BRANCH   7   8
ATOM      8  C2' N4B d   1       2.669  -0.045   1.269  0.00  0.00     0.009 C 
BRANCH   8   9
ATOM      9  C3' N4B d   1       3.690  -1.158   1.437  0.00  0.00     0.004 C 
ATOM     10  C4' N4B d   1       4.072  -1.385   2.869  0.00  0.00     0.003 C 
ENDBRANCH   8   9
ENDBRANCH   7   8
ENDBRANCH   1   7
TORSDOF 3
ENDMDL
