MODEL 1
REMARK minimizedAffinity -4.03553009
REMARK minimizedRMSD -1
REMARK  3 active torsions:
REMARK  status: ('A' for Active; 'I' for Inactive)
REMARK    1  A    between atoms: C3'_2  and  C2'_3 
REMARK    2  A    between atoms: C2'_3  and  C1'_4 
REMARK    3  A    between atoms: C1'_4  and  C1_5 
ROOT
ATOM      1  C1  N4B d   1       0.119  -0.534  -0.107  0.00  0.00    -0.075 A 
ATOM      2  C2  N4B d   1       0.728  -0.438   1.164  0.00  0.00     0.002 A 
ATOM      3  C3  N4B d   1       0.445   0.628   1.982  0.00  0.00     0.002 A 
ATOM      4  C4  N4B d   1      -0.425   1.616   1.546  0.00  0.00    -0.004 A 
ATOM      5  C5  N4B d   1      -1.029   1.502   0.328  0.00  0.00     0.002 A 
ATOM      6  C6  N4B d   1      -0.757   0.434  -0.504  0.00  0.00     0.002 A 
ENDROOT
BRANCH   1   7
ATOM      7  C1' N4B d   1       0.463  -1.636  -1.071  0.00  0.00     0.057 C 
BRANCH   7   8
ATOM      8  C2' N4B d   1      -0.796  -2.439  -1.383  0.00  0.00     0.009 C 
BRANCH   8   9
ATOM      9  C3' N4B d   1      -0.515  -3.930  -1.458  0.00  0.00     0.004 C 
ATOM     10  C4' N4B d   1      -1.264  -4.608  -2.567  0.00  0.00     0.003 C 
ENDBRANCH   8   9
ENDBRANCH   7   8
ENDBRANCH   1   7
TORSDOF 3
ENDMDL
