MODEL 1
REMARK minimizedAffinity -4.24278116
REMARK minimizedRMSD -1
REMARK  3 active torsions:
REMARK  status: ('A' for Active; 'I' for Inactive)
REMARK    1  A    between atoms: C3'_2  and  C2'_3 
REMARK    2  A    between atoms: C2'_3  and  C1'_4 
REMARK    3  A    between atoms: C1'_4  and  C1_5 
ROOT
ATOM      1  C1  N4B d   1       0.170  -0.133   0.155  0.00  0.00    -0.075 A 
ATOM      2  C2  N4B d   1       0.997   0.131   1.269  0.00  0.00     0.002 A 
ATOM      3  C3  N4B d   1       0.720   1.195   2.092  0.00  0.00     0.002 A 
ATOM      4  C4  N4B d   1      -0.362   2.015   1.813  0.00  0.00    -0.004 A 
ATOM      5  C5  N4B d   1      -1.171   1.737   0.750  0.00  0.00     0.002 A 
ATOM      6  C6  N4B d   1      -0.907   0.670  -0.084  0.00  0.00     0.002 A 
ENDROOT
BRANCH   1   7
ATOM      7  C1' N4B d   1       0.483  -1.233  -0.823  0.00  0.00     0.057 C 
BRANCH   7   8
ATOM      8  C2' N4B d   1      -0.513  -2.373  -0.629  0.00  0.00     0.009 C 
BRANCH   8   9
ATOM      9  C3' N4B d   1      -0.105  -3.620  -1.395  0.00  0.00     0.004 C 
ATOM     10  C4' N4B d   1      -1.261  -4.284  -2.081  0.00  0.00     0.003 C 
ENDBRANCH   8   9
ENDBRANCH   7   8
ENDBRANCH   1   7
TORSDOF 3
ENDMDL
