MODEL 1
REMARK minimizedAffinity -2.44404244
REMARK minimizedRMSD -1
REMARK  3 active torsions:
REMARK  status: ('A' for Active; 'I' for Inactive)
REMARK    1  A    between atoms: C3'_2  and  C2'_3 
REMARK    2  A    between atoms: C2'_3  and  C1'_4 
REMARK    3  A    between atoms: C1'_4  and  C1_5 
ROOT
ATOM      1  C1  N4B d   1       0.246  -0.396  -0.868  0.00  0.00    -0.075 A 
ATOM      2  C2  N4B d   1       0.450   0.214  -2.125  0.00  0.00     0.002 A 
ATOM      3  C3  N4B d   1      -0.043   1.474  -2.365  0.00  0.00     0.002 A 
ATOM      4  C4  N4B d   1      -0.756   2.131  -1.374  0.00  0.00    -0.004 A 
ATOM      5  C5  N4B d   1      -0.927   1.545  -0.154  0.00  0.00     0.002 A 
ATOM      6  C6  N4B d   1      -0.434   0.282   0.103  0.00  0.00     0.002 A 
ENDROOT
BRANCH   1   7
ATOM      7  C1' N4B d   1       0.691  -1.805  -0.587  0.00  0.00     0.057 C 
BRANCH   7   8
ATOM      8  C2' N4B d   1       0.058  -2.743  -1.610  0.00  0.00     0.009 C 
BRANCH   8   9
ATOM      9  C3' N4B d   1      -0.870  -3.753  -0.957  0.00  0.00     0.004 C 
ATOM     10  C4' N4B d   1      -2.219  -3.810  -1.609  0.00  0.00     0.003 C 
ENDBRANCH   8   9
ENDBRANCH   7   8
ENDBRANCH   1   7
TORSDOF 3
ENDMDL
