MODEL 1
REMARK minimizedAffinity -1.12966657
REMARK minimizedRMSD -1
REMARK  3 active torsions:
REMARK  status: ('A' for Active; 'I' for Inactive)
REMARK    1  A    between atoms: C3'_2  and  C2'_3 
REMARK    2  A    between atoms: C2'_3  and  C1'_4 
REMARK    3  A    between atoms: C1'_4  and  C1_5 
ROOT
ATOM      1  C1  N4B d   1      -0.042   0.259   0.512  0.00  0.00    -0.075 A 
ATOM      2  C2  N4B d   1      -0.705   1.345   1.127  0.00  0.00     0.002 A 
ATOM      3  C3  N4B d   1      -1.260   2.336   0.356  0.00  0.00     0.002 A 
ATOM      4  C4  N4B d   1      -1.149   2.274  -1.025  0.00  0.00    -0.004 A 
ATOM      5  C5  N4B d   1      -0.530   1.209  -1.612  0.00  0.00     0.002 A 
ATOM      6  C6  N4B d   1       0.029   0.203  -0.849  0.00  0.00     0.002 A 
ENDROOT
BRANCH   1   7
ATOM      7  C1' N4B d   1       0.655  -0.804   1.317  0.00  0.00     0.057 C 
BRANCH   7   8
ATOM      8  C2' N4B d   1       2.059  -0.324   1.671  0.00  0.00     0.009 C 
BRANCH   8   9
ATOM      9  C3' N4B d   1       3.125  -1.032   0.852  0.00  0.00     0.004 C 
ATOM     10  C4' N4B d   1       4.455  -1.073   1.543  0.00  0.00     0.003 C 
ENDBRANCH   8   9
ENDBRANCH   7   8
ENDBRANCH   1   7
TORSDOF 3
ENDMDL
