MODEL 1
REMARK minimizedAffinity -1.49255729
REMARK minimizedRMSD -1
REMARK  3 active torsions:
REMARK  status: ('A' for Active; 'I' for Inactive)
REMARK    1  A    between atoms: C3'_2  and  C2'_3 
REMARK    2  A    between atoms: C2'_3  and  C1'_4 
REMARK    3  A    between atoms: C1'_4  and  C1_5 
ROOT
ATOM      1  C1  N4B d   1      -0.476   0.225  -0.271  0.00  0.00    -0.075 A 
ATOM      2  C2  N4B d   1      -0.619   1.613  -0.052  0.00  0.00     0.002 A 
ATOM      3  C3  N4B d   1      -0.457   2.129   1.211  0.00  0.00     0.002 A 
ATOM      4  C4  N4B d   1      -0.171   1.278   2.268  0.00  0.00    -0.004 A 
ATOM      5  C5  N4B d   1      -0.008  -0.058   2.043  0.00  0.00     0.002 A 
ATOM      6  C6  N4B d   1      -0.165  -0.590   0.778  0.00  0.00     0.002 A 
ENDROOT
BRANCH   1   7
ATOM      7  C1' N4B d   1      -0.729  -0.396  -1.618  0.00  0.00     0.057 C 
BRANCH   7   8
ATOM      8  C2' N4B d   1      -2.028  -1.194  -1.565  0.00  0.00     0.009 C 
BRANCH   8   9
ATOM      9  C3' N4B d   1      -1.891  -2.548  -2.240  0.00  0.00     0.004 C 
ATOM     10  C4' N4B d   1      -1.414  -3.618  -1.304  0.00  0.00     0.003 C 
ENDBRANCH   8   9
ENDBRANCH   7   8
ENDBRANCH   1   7
TORSDOF 3
ENDMDL
