MODEL 1
REMARK minimizedAffinity -2.41932368
REMARK minimizedRMSD -1
REMARK  0 active torsions:
REMARK  status: ('A' for Active; 'I' for Inactive)
ROOT
ATOM      1  O1  BZF d   1      -0.577   0.126   1.233  0.00  0.00    -0.204 OA
ATOM      2  C2  BZF d   1      -0.056   0.025  -0.043  0.00  0.00     0.174 A 
ATOM      3  C3  BZF d   1      -1.001   0.290  -0.968  0.00  0.00    -0.012 A 
ATOM      4  C3A BZF d   1      -2.164   0.664  -0.222  0.00  0.00    -0.107 A 
ATOM      5  C4  BZF d   1      -3.422   1.055  -0.578  0.00  0.00     0.055 A 
ATOM      6  C5  BZF d   1      -4.345   1.279   0.394  0.00  0.00    -0.016 A 
ATOM      7  C6  BZF d   1      -4.045   1.116   1.731  0.00  0.00     0.022 A 
ATOM      8  C7  BZF d   1      -2.808   0.735   2.134  0.00  0.00     0.029 A 
ATOM      9  C7A BZF d   1      -1.864   0.540   1.155  0.00  0.00     0.058 A 
ENDROOT
TORSDOF 0
ENDMDL
