MODEL 1
REMARK minimizedAffinity -4.20049
REMARK minimizedRMSD -1
REMARK  0 active torsions:
REMARK  status: ('A' for Active; 'I' for Inactive)
ROOT
ATOM      1  O1  BZF d   1      -0.307   1.424   0.106  0.00  0.00    -0.204 OA
ATOM      2  C2  BZF d   1      -1.314   0.697  -0.499  0.00  0.00     0.174 A 
ATOM      3  C3  BZF d   1      -0.973  -0.604  -0.596  0.00  0.00    -0.012 A 
ATOM      4  C3A BZF d   1       0.290  -0.712   0.068  0.00  0.00    -0.107 A 
ATOM      5  C4  BZF d   1       1.134  -1.757   0.317  0.00  0.00     0.055 A 
ATOM      6  C5  BZF d   1       2.324  -1.514   0.925  0.00  0.00    -0.016 A 
ATOM      7  C6  BZF d   1       2.705  -0.240   1.293  0.00  0.00     0.022 A 
ATOM      8  C7  BZF d   1       1.900   0.827   1.071  0.00  0.00     0.029 A 
ATOM      9  C7A BZF d   1       0.682   0.581   0.486  0.00  0.00     0.058 A 
ENDROOT
TORSDOF 0
ENDMDL
