MODEL 1
REMARK minimizedAffinity -4.50185776
REMARK minimizedRMSD -1
REMARK  0 active torsions:
REMARK  status: ('A' for Active; 'I' for Inactive)
ROOT
ATOM      1  O1  BZF d   1       0.567  -1.926  -0.050  0.00  0.00    -0.204 OA
ATOM      2  C2  BZF d   1       1.756  -2.310   0.539  0.00  0.00     0.174 A 
ATOM      3  C3  BZF d   1       2.511  -1.234   0.837  0.00  0.00    -0.012 A 
ATOM      4  C3A BZF d   1       1.707  -0.102   0.492  0.00  0.00    -0.107 A 
ATOM      5  C4  BZF d   1       1.902   1.248   0.571  0.00  0.00     0.055 A 
ATOM      6  C5  BZF d   1       0.947   2.082   0.082  0.00  0.00    -0.016 A 
ATOM      7  C6  BZF d   1      -0.209   1.603  -0.497  0.00  0.00     0.022 A 
ATOM      8  C7  BZF d   1      -0.449   0.272  -0.594  0.00  0.00     0.029 A 
ATOM      9  C7A BZF d   1       0.499  -0.573  -0.071  0.00  0.00     0.058 A 
ENDROOT
TORSDOF 0
ENDMDL
