MODEL 1
REMARK minimizedAffinity -1.0386374
REMARK minimizedRMSD -1
REMARK  0 active torsions:
REMARK  status: ('A' for Active; 'I' for Inactive)
ROOT
ATOM      1  O1  BZF d   1       0.218   0.726  -0.173  0.00  0.00    -0.204 OA
ATOM      2  C2  BZF d   1      -0.748  -0.238  -0.384  0.00  0.00     0.174 A 
ATOM      3  C3  BZF d   1      -0.187  -1.457  -0.513  0.00  0.00    -0.012 A 
ATOM      4  C3A BZF d   1       1.211  -1.255  -0.281  0.00  0.00    -0.107 A 
ATOM      5  C4  BZF d   1       2.289  -2.092  -0.257  0.00  0.00     0.055 A 
ATOM      6  C5  BZF d   1       3.529  -1.567  -0.074  0.00  0.00    -0.016 A 
ATOM      7  C6  BZF d   1       3.727  -0.210   0.083  0.00  0.00     0.022 A 
ATOM      8  C7  BZF d   1       2.687   0.659   0.071  0.00  0.00     0.029 A 
ATOM      9  C7A BZF d   1       1.430   0.128  -0.081  0.00  0.00     0.058 A 
ENDROOT
TORSDOF 0
ENDMDL
