MODEL 1
REMARK minimizedAffinity -4.60145521
REMARK minimizedRMSD -1
REMARK  0 active torsions:
REMARK  status: ('A' for Active; 'I' for Inactive)
ROOT
ATOM      1  O1  BZF d   1       0.018   1.362   0.711  0.00  0.00    -0.204 OA
ATOM      2  C2  BZF d   1      -1.173   1.065   0.077  0.00  0.00     0.174 A 
ATOM      3  C3  BZF d   1      -1.131  -0.168  -0.466  0.00  0.00    -0.012 A 
ATOM      4  C3A BZF d   1       0.134  -0.710  -0.074  0.00  0.00    -0.107 A 
ATOM      5  C4  BZF d   1       0.751  -1.908  -0.293  0.00  0.00     0.055 A 
ATOM      6  C5  BZF d   1       2.016  -2.093   0.167  0.00  0.00    -0.016 A 
ATOM      7  C6  BZF d   1       2.696  -1.101   0.843  0.00  0.00     0.022 A 
ATOM      8  C7  BZF d   1       2.123   0.103   1.088  0.00  0.00     0.029 A 
ATOM      9  C7A BZF d   1       0.832   0.281   0.654  0.00  0.00     0.058 A 
ENDROOT
TORSDOF 0
ENDMDL
