MODEL 1
REMARK minimizedAffinity -4.50975657
REMARK minimizedRMSD -1
REMARK  0 active torsions:
REMARK  status: ('A' for Active; 'I' for Inactive)
ROOT
ATOM      1  O1  BZF d   1       2.027   1.941   0.128  0.00  0.00    -0.204 OA
ATOM      2  C2  BZF d   1       3.408   1.947   0.115  0.00  0.00     0.174 A 
ATOM      3  C3  BZF d   1       3.891   0.689   0.055  0.00  0.00    -0.012 A 
ATOM      4  C3A BZF d   1       2.740  -0.151  -0.063  0.00  0.00    -0.107 A 
ATOM      5  C4  BZF d   1       2.571  -1.501  -0.178  0.00  0.00     0.055 A 
ATOM      6  C5  BZF d   1       1.311  -2.010  -0.200  0.00  0.00    -0.016 A 
ATOM      7  C6  BZF d   1       0.199  -1.199  -0.104  0.00  0.00     0.022 A 
ATOM      8  C7  BZF d   1       0.316   0.147   0.007  0.00  0.00     0.029 A 
ATOM      9  C7A BZF d   1       1.587   0.666  -0.004  0.00  0.00     0.058 A 
ENDROOT
TORSDOF 0
ENDMDL
