MODEL 1
REMARK minimizedAffinity 9.11290073
REMARK minimizedRMSD -1
REMARK  0 active torsions:
REMARK  status: ('A' for Active; 'I' for Inactive)
ROOT
ATOM      1  C   UNL d   1      -1.736  -0.767   0.913  0.00  0.00     0.020 A 
ATOM      2  C1  UNL d   1      -0.835   0.296   0.945  0.00  0.00     0.020 A 
ATOM      3  C2  UNL d   1       0.539   0.047   0.966  0.00  0.00     0.034 A 
ATOM      4  C3  UNL d   1       1.016  -1.269   0.954  0.00  0.00     0.017 A 
ATOM      5  C4  UNL d   1       0.110  -2.336   0.922  0.00  0.00     0.017 A 
ATOM      6  C5  UNL d   1      -1.265  -2.080   0.901  0.00  0.00     0.034 A 
ATOM      7 Cl   UNL d   1       0.622  -3.987   0.906  0.00  0.00    -0.070 Cl
ATOM      8 Cl1  UNL d   1       2.727  -1.504   0.981  0.00  0.00    -0.070 Cl
ENDROOT
TORSDOF 0
ENDMDL
