MODEL 1
REMARK minimizedAffinity 6.30198908
REMARK minimizedRMSD -1
REMARK  0 active torsions:
REMARK  status: ('A' for Active; 'I' for Inactive)
ROOT
ATOM      1  C   UNL d   1       2.419  -2.522   2.076  0.00  0.00     0.020 A 
ATOM      2  C1  UNL d   1       2.682  -2.365   3.436  0.00  0.00     0.020 A 
ATOM      3  C2  UNL d   1       2.307  -1.189   4.089  0.00  0.00     0.034 A 
ATOM      4  C3  UNL d   1       1.667  -0.165   3.381  0.00  0.00     0.017 A 
ATOM      5  C4  UNL d   1       1.404  -0.323   2.016  0.00  0.00     0.017 A 
ATOM      6  C5  UNL d   1       1.781  -1.503   1.367  0.00  0.00     0.034 A 
ATOM      7 Cl   UNL d   1       0.618   0.896   1.076  0.00  0.00    -0.070 Cl
ATOM      8 Cl1  UNL d   1       1.232   1.262   4.252  0.00  0.00    -0.070 Cl
ENDROOT
TORSDOF 0
ENDMDL
