MODEL 1
REMARK minimizedAffinity 9.31226444
REMARK minimizedRMSD -1
REMARK  0 active torsions:
REMARK  status: ('A' for Active; 'I' for Inactive)
ROOT
ATOM      1  C   UNL d   1      -2.584  -4.614  -1.276  0.00  0.00     0.020 A 
ATOM      2  C1  UNL d   1      -1.872  -4.621  -0.077  0.00  0.00     0.020 A 
ATOM      3  C2  UNL d   1      -1.756  -3.449   0.672  0.00  0.00     0.034 A 
ATOM      4  C3  UNL d   1      -2.353  -2.265   0.224  0.00  0.00     0.017 A 
ATOM      5  C4  UNL d   1      -3.068  -2.259  -0.979  0.00  0.00     0.017 A 
ATOM      6  C5  UNL d   1      -3.181  -3.436  -1.725  0.00  0.00     0.034 A 
ATOM      7 Cl   UNL d   1      -3.832  -0.837  -1.596  0.00  0.00    -0.070 Cl
ATOM      8 Cl1  UNL d   1      -2.169  -0.852   1.203  0.00  0.00    -0.070 Cl
ENDROOT
TORSDOF 0
ENDMDL
