MODEL 1
REMARK minimizedAffinity 9.27386665
REMARK minimizedRMSD -1
REMARK  0 active torsions:
REMARK  status: ('A' for Active; 'I' for Inactive)
ROOT
ATOM      1  C   UNL d   1      -2.368  -1.939   0.415  0.00  0.00     0.020 A 
ATOM      2  C1  UNL d   1      -2.998  -1.003  -0.404  0.00  0.00     0.020 A 
ATOM      3  C2  UNL d   1      -2.496   0.297  -0.494  0.00  0.00     0.034 A 
ATOM      4  C3  UNL d   1      -1.361   0.665   0.238  0.00  0.00     0.017 A 
ATOM      5  C4  UNL d   1      -0.729  -0.276   1.059  0.00  0.00     0.017 A 
ATOM      6  C5  UNL d   1      -1.236  -1.576   1.145  0.00  0.00     0.034 A 
ATOM      7 Cl   UNL d   1       0.676   0.104   1.992  0.00  0.00    -0.070 Cl
ATOM      8 Cl1  UNL d   1      -0.794   2.289   0.079  0.00  0.00    -0.070 Cl
ENDROOT
TORSDOF 0
ENDMDL
