MODEL 1
REMARK minimizedAffinity 5.9779582
REMARK minimizedRMSD -1
REMARK  0 active torsions:
REMARK  status: ('A' for Active; 'I' for Inactive)
ROOT
ATOM      1  C   UNL d   1       0.132   0.365   1.795  0.00  0.00     0.020 A 
ATOM      2  C1  UNL d   1      -1.189   0.165   1.396  0.00  0.00     0.020 A 
ATOM      3  C2  UNL d   1      -1.628  -1.115   1.049  0.00  0.00     0.034 A 
ATOM      4  C3  UNL d   1      -0.745  -2.199   1.100  0.00  0.00     0.017 A 
ATOM      5  C4  UNL d   1       0.581  -1.998   1.500  0.00  0.00     0.017 A 
ATOM      6  C5  UNL d   1       1.015  -0.715   1.847  0.00  0.00     0.034 A 
ATOM      7 Cl   UNL d   1       1.729  -3.287   1.587  0.00  0.00    -0.070 Cl
ATOM      8 Cl1  UNL d   1      -1.356  -3.754   0.657  0.00  0.00    -0.070 Cl
ENDROOT
TORSDOF 0
ENDMDL
