MODEL 1
REMARK minimizedAffinity 8.27410221
REMARK minimizedRMSD -1
REMARK  0 active torsions:
REMARK  status: ('A' for Active; 'I' for Inactive)
ROOT
ATOM      1  C   UNL d   1       0.631   0.239   2.942  0.00  0.00     0.020 A 
ATOM      2  C1  UNL d   1       1.113  -0.431   1.818  0.00  0.00     0.020 A 
ATOM      3  C2  UNL d   1       1.638  -1.719   1.945  0.00  0.00     0.034 A 
ATOM      4  C3  UNL d   1       1.683  -2.341   3.198  0.00  0.00     0.017 A 
ATOM      5  C4  UNL d   1       1.200  -1.667   4.326  0.00  0.00     0.017 A 
ATOM      6  C5  UNL d   1       0.675  -0.378   4.193  0.00  0.00     0.034 A 
ATOM      7 Cl   UNL d   1       1.222  -2.370   5.905  0.00  0.00    -0.070 Cl
ATOM      8 Cl1  UNL d   1       2.345  -3.935   3.281  0.00  0.00    -0.070 Cl
ENDROOT
TORSDOF 0
ENDMDL
