MODEL 1
REMARK minimizedAffinity 4.22683239
REMARK minimizedRMSD -1
REMARK  0 active torsions:
REMARK  status: ('A' for Active; 'I' for Inactive)
ROOT
ATOM      1  C   UNL d   1      -0.195   0.450   1.539  0.00  0.00     0.020 A 
ATOM      2  C1  UNL d   1      -1.511   0.094   1.247  0.00  0.00     0.020 A 
ATOM      3  C2  UNL d   1      -1.830  -1.240   0.981  0.00  0.00     0.034 A 
ATOM      4  C3  UNL d   1      -0.833  -2.221   1.008  0.00  0.00     0.017 A 
ATOM      5  C4  UNL d   1       0.488  -1.862   1.302  0.00  0.00     0.017 A 
ATOM      6  C5  UNL d   1       0.802  -0.525   1.567  0.00  0.00     0.034 A 
ATOM      7 Cl   UNL d   1       1.773  -3.017   1.354  0.00  0.00    -0.070 Cl
ATOM      8 Cl1  UNL d   1      -1.299  -3.850   0.671  0.00  0.00    -0.070 Cl
ENDROOT
TORSDOF 0
ENDMDL
