MODEL 1
REMARK minimizedAffinity 1.63359988
REMARK minimizedRMSD -1
REMARK  0 active torsions:
REMARK  status: ('A' for Active; 'I' for Inactive)
ROOT
ATOM      1  C   UNL d   1      -3.078  -0.925  -0.562  0.00  0.00     0.020 A 
ATOM      2  C1  UNL d   1      -1.990  -1.791  -0.458  0.00  0.00     0.020 A 
ATOM      3  C2  UNL d   1      -2.111  -3.117  -0.879  0.00  0.00     0.034 A 
ATOM      4  C3  UNL d   1      -3.322  -3.580  -1.406  0.00  0.00     0.017 A 
ATOM      5  C4  UNL d   1      -4.413  -2.710  -1.510  0.00  0.00     0.017 A 
ATOM      6  C5  UNL d   1      -4.287  -1.384  -1.087  0.00  0.00     0.034 A 
ATOM      7 Cl   UNL d   1      -5.939  -3.210  -2.150  0.00  0.00    -0.070 Cl
ATOM      8 Cl1  UNL d   1      -3.400  -5.232  -1.908  0.00  0.00    -0.070 Cl
ENDROOT
TORSDOF 0
ENDMDL
