MODEL 1
REMARK minimizedAffinity 0.785764337
REMARK minimizedRMSD -1
REMARK  0 active torsions:
REMARK  status: ('A' for Active; 'I' for Inactive)
ROOT
ATOM      1  C   UNL d   1       2.633  -3.085   5.268  0.00  0.00     0.020 A 
ATOM      2  C1  UNL d   1       1.798  -2.046   5.677  0.00  0.00     0.020 A 
ATOM      3  C2  UNL d   1       1.349  -1.104   4.749  0.00  0.00     0.034 A 
ATOM      4  C3  UNL d   1       1.734  -1.200   3.407  0.00  0.00     0.017 A 
ATOM      5  C4  UNL d   1       2.571  -2.244   2.996  0.00  0.00     0.017 A 
ATOM      6  C5  UNL d   1       3.018  -3.184   3.930  0.00  0.00     0.034 A 
ATOM      7 Cl   UNL d   1       3.088  -2.428   1.358  0.00  0.00    -0.070 Cl
ATOM      8 Cl1  UNL d   1       1.140  -0.001   2.313  0.00  0.00    -0.070 Cl
ENDROOT
TORSDOF 0
ENDMDL
