MODEL 1
REMARK minimizedAffinity -3.41314459
REMARK minimizedRMSD -1
REMARK  0 active torsions:
REMARK  status: ('A' for Active; 'I' for Inactive)
ROOT
ATOM      1  C1  BNZ d   1       4.836  -3.294  -4.812  0.00  0.00     0.000 A 
ATOM      2  C2  BNZ d   1       3.753  -2.541  -4.445  0.00  0.00     0.000 A 
ATOM      3  C3  BNZ d   1       3.794  -1.751  -3.330  0.00  0.00     0.000 A 
ATOM      4  C4  BNZ d   1       4.903  -1.747  -2.562  0.00  0.00     0.000 A 
ATOM      5  C5  BNZ d   1       6.000  -2.508  -2.913  0.00  0.00     0.000 A 
ATOM      6  C6  BNZ d   1       5.968  -3.272  -4.058  0.00  0.00     0.000 A 
ENDROOT
TORSDOF 0
ENDMDL
