MODEL 1
REMARK minimizedAffinity -2.45076728
REMARK minimizedRMSD -1
REMARK  0 active torsions:
REMARK  status: ('A' for Active; 'I' for Inactive)
ROOT
ATOM      1  C1  BNZ d   1       1.933   3.438   2.024  0.00  0.00     0.000 A 
ATOM      2  C2  BNZ d   1       2.393   4.389   1.153  0.00  0.00     0.000 A 
ATOM      3  C3  BNZ d   1       1.718   4.665  -0.003  0.00  0.00     0.000 A 
ATOM      4  C4  BNZ d   1       0.608   3.961  -0.306  0.00  0.00     0.000 A 
ATOM      5  C5  BNZ d   1       0.136   2.992   0.557  0.00  0.00     0.000 A 
ATOM      6  C6  BNZ d   1       0.797   2.745   1.739  0.00  0.00     0.000 A 
ENDROOT
TORSDOF 0
ENDMDL
