MODEL 1
REMARK minimizedAffinity 2.68723679
REMARK minimizedRMSD -1
REMARK  0 active torsions:
REMARK  status: ('A' for Active; 'I' for Inactive)
ROOT
ATOM      1  C1  BNZ d   1       3.767  -1.835  -4.453  0.00  0.00     0.000 A 
ATOM      2  C2  BNZ d   1       3.780  -1.848  -3.084  0.00  0.00     0.000 A 
ATOM      3  C3  BNZ d   1       4.903  -2.217  -2.398  0.00  0.00     0.000 A 
ATOM      4  C4  BNZ d   1       5.998  -2.610  -3.080  0.00  0.00     0.000 A 
ATOM      5  C5  BNZ d   1       5.998  -2.612  -4.461  0.00  0.00     0.000 A 
ATOM      6  C6  BNZ d   1       4.878  -2.203  -5.148  0.00  0.00     0.000 A 
ENDROOT
TORSDOF 0
ENDMDL
