MODEL 1
REMARK minimizedAffinity 2.0540626
REMARK minimizedRMSD -1
REMARK  0 active torsions:
REMARK  status: ('A' for Active; 'I' for Inactive)
ROOT
ATOM      1  C1  BNZ d   1       5.987  -3.244  -3.007  0.00  0.00     0.000 A 
ATOM      2  C2  BNZ d   1       5.998  -1.953  -2.550  0.00  0.00     0.000 A 
ATOM      3  C3  BNZ d   1       4.844  -1.223  -2.487  0.00  0.00     0.000 A 
ATOM      4  C4  BNZ d   1       3.689  -1.771  -2.917  0.00  0.00     0.000 A 
ATOM      5  C5  BNZ d   1       3.663  -3.068  -3.389  0.00  0.00     0.000 A 
ATOM      6  C6  BNZ d   1       4.820  -3.812  -3.416  0.00  0.00     0.000 A 
ENDROOT
TORSDOF 0
ENDMDL
