MODEL 1
REMARK minimizedAffinity -4.25997162
REMARK minimizedRMSD -1
REMARK  0 active torsions:
REMARK  status: ('A' for Active; 'I' for Inactive)
ROOT
ATOM      1  C1  BNZ d   1      -0.035   2.786  -1.364  0.00  0.00     0.000 A 
ATOM      2  C2  BNZ d   1      -0.145   2.049  -0.216  0.00  0.00     0.000 A 
ATOM      3  C3  BNZ d   1       0.614   2.346   0.882  0.00  0.00     0.000 A 
ATOM      4  C4  BNZ d   1       1.509   3.352   0.817  0.00  0.00     0.000 A 
ATOM      5  C5  BNZ d   1       1.638   4.099  -0.337  0.00  0.00     0.000 A 
ATOM      6  C6  BNZ d   1       0.845   3.823  -1.427  0.00  0.00     0.000 A 
ENDROOT
TORSDOF 0
ENDMDL
