MODEL 1
REMARK minimizedAffinity -0.650728524
REMARK minimizedRMSD -1
REMARK  0 active torsions:
REMARK  status: ('A' for Active; 'I' for Inactive)
ROOT
ATOM      1  C1  BNZ d   1       4.106  -2.790  -1.247  0.00  0.00     0.000 A 
ATOM      2  C2  BNZ d   1       3.373  -3.494  -2.165  0.00  0.00     0.000 A 
ATOM      3  C3  BNZ d   1       3.562  -4.838  -2.330  0.00  0.00     0.000 A 
ATOM      4  C4  BNZ d   1       4.511  -5.468  -1.606  0.00  0.00     0.000 A 
ATOM      5  C5  BNZ d   1       5.264  -4.770  -0.684  0.00  0.00     0.000 A 
ATOM      6  C6  BNZ d   1       5.044  -3.425  -0.492  0.00  0.00     0.000 A 
ENDROOT
TORSDOF 0
ENDMDL
