MODEL 1
REMARK minimizedAffinity 0.40460977
REMARK minimizedRMSD -1
REMARK  0 active torsions:
REMARK  status: ('A' for Active; 'I' for Inactive)
ROOT
ATOM      1  C1  BNZ d   1       1.634  -5.462  -1.435  0.00  0.00     0.000 A 
ATOM      2  C2  BNZ d   1       2.606  -5.531  -2.398  0.00  0.00     0.000 A 
ATOM      3  C3  BNZ d   1       3.753  -4.795  -2.289  0.00  0.00     0.000 A 
ATOM      4  C4  BNZ d   1       3.909  -3.962  -1.240  0.00  0.00     0.000 A 
ATOM      5  C5  BNZ d   1       2.934  -3.874  -0.266  0.00  0.00     0.000 A 
ATOM      6  C6  BNZ d   1       1.799  -4.646  -0.359  0.00  0.00     0.000 A 
ENDROOT
TORSDOF 0
ENDMDL
