MODEL 1
REMARK minimizedAffinity 1.68399954
REMARK minimizedRMSD -1
REMARK  0 active torsions:
REMARK  status: ('A' for Active; 'I' for Inactive)
ROOT
ATOM      1  C1  BNZ d   1       4.078  -2.898  -1.576  0.00  0.00     0.000 A 
ATOM      2  C2  BNZ d   1       4.565  -3.830  -0.698  0.00  0.00     0.000 A 
ATOM      3  C3  BNZ d   1       4.825  -5.108  -1.107  0.00  0.00     0.000 A 
ATOM      4  C4  BNZ d   1       4.560  -5.463  -2.381  0.00  0.00     0.000 A 
ATOM      5  C5  BNZ d   1       4.060  -4.537  -3.275  0.00  0.00     0.000 A 
ATOM      6  C6  BNZ d   1       3.836  -3.241  -2.870  0.00  0.00     0.000 A 
ENDROOT
TORSDOF 0
ENDMDL
