MODEL 1
REMARK minimizedAffinity 1.83400655
REMARK minimizedRMSD -1
REMARK  0 active torsions:
REMARK  status: ('A' for Active; 'I' for Inactive)
ROOT
ATOM      1  C1  BNZ d   1       0.037   1.562   2.918  0.00  0.00     0.000 A 
ATOM      2  C2  BNZ d   1      -0.621   1.939   1.778  0.00  0.00     0.000 A 
ATOM      3  C3  BNZ d   1       0.015   2.665   0.810  0.00  0.00     0.000 A 
ATOM      4  C4  BNZ d   1       1.294   3.047   1.001  0.00  0.00     0.000 A 
ATOM      5  C5  BNZ d   1       1.969   2.683   2.149  0.00  0.00     0.000 A 
ATOM      6  C6  BNZ d   1       1.337   1.919   3.104  0.00  0.00     0.000 A 
ENDROOT
TORSDOF 0
ENDMDL
