MODEL 1
REMARK minimizedAffinity 8.2769146
REMARK minimizedRMSD -1
REMARK  1 active torsions:
REMARK  status: ('A' for Active; 'I' for Inactive)
REMARK    1  A    between atoms: C1_2  and  C2_3 
ROOT
ATOM      1  C2  UNL d   1       1.294   3.170   0.602  0.00  0.00    -0.073 A 
ATOM      2  C3  UNL d   1       1.638   3.182   1.958  0.00  0.00    -0.002 A 
ATOM      3  C4  UNL d   1       2.186   2.046   2.557  0.00  0.00     0.004 A 
ATOM      4  C5  UNL d   1       2.402   0.892   1.805  0.00  0.00    -0.004 A 
ATOM      5  C6  UNL d   1       2.076   0.864   0.445  0.00  0.00    -0.075 A 
ATOM      6  C7  UNL d   1       2.300  -0.371  -0.377  0.00  0.00     0.076 C 
ATOM      7  C8  UNL d   1       1.523   2.007  -0.148  0.00  0.00     0.001 A 
ENDROOT
BRANCH   1   8
ATOM      8  C1  UNL d   1       0.708   4.396  -0.050  0.00  0.00     0.053 C 
ATOM      9  C   UNL d   1      -0.192   5.171   0.899  0.00  0.00     0.018 C 
ENDBRANCH   1   8
TORSDOF 1
ENDMDL
