MODEL 1
REMARK minimizedAffinity 16.6413918
REMARK minimizedRMSD -1
REMARK  1 active torsions:
REMARK  status: ('A' for Active; 'I' for Inactive)
REMARK    1  A    between atoms: C1_2  and  C2_3 
ROOT
ATOM      1  C2  UNL d   1       2.288  -0.087  -0.735  0.00  0.00    -0.073 A 
ATOM      2  C3  UNL d   1       1.534   0.094   0.430  0.00  0.00    -0.002 A 
ATOM      3  C4  UNL d   1       1.790   1.174   1.275  0.00  0.00     0.004 A 
ATOM      4  C5  UNL d   1       2.797   2.087   0.962  0.00  0.00    -0.004 A 
ATOM      5  C6  UNL d   1       3.554   1.930  -0.204  0.00  0.00    -0.075 A 
ATOM      6  C7  UNL d   1       4.642   2.902  -0.554  0.00  0.00     0.076 C 
ATOM      7  C8  UNL d   1       3.293   0.841  -1.046  0.00  0.00     0.001 A 
ENDROOT
BRANCH   1   8
ATOM      8  C1  UNL d   1       2.011  -1.249  -1.654  0.00  0.00     0.053 C 
ATOM      9  C   UNL d   1       2.217  -2.586  -0.961  0.00  0.00     0.018 C 
ENDBRANCH   1   8
TORSDOF 1
ENDMDL
