MODEL 1
REMARK minimizedAffinity 12.31674
REMARK minimizedRMSD -1
REMARK  1 active torsions:
REMARK  status: ('A' for Active; 'I' for Inactive)
REMARK    1  A    between atoms: C1_2  and  C2_3 
ROOT
ATOM      1  C2  UNL d   1       2.771   1.477   1.123  0.00  0.00    -0.073 A 
ATOM      2  C3  UNL d   1       3.297   2.531   0.368  0.00  0.00    -0.002 A 
ATOM      3  C4  UNL d   1       3.597   2.349  -0.983  0.00  0.00     0.004 A 
ATOM      4  C5  UNL d   1       3.366   1.117  -1.594  0.00  0.00    -0.004 A 
ATOM      5  C6  UNL d   1       2.830   0.055  -0.859  0.00  0.00    -0.075 A 
ATOM      6  C7  UNL d   1       2.578  -1.278  -1.500  0.00  0.00     0.076 C 
ATOM      7  C8  UNL d   1       2.535   0.244   0.498  0.00  0.00     0.001 A 
ENDROOT
BRANCH   1   8
ATOM      8  C1  UNL d   1       2.440   1.670   2.580  0.00  0.00     0.053 C 
ATOM      9  C   UNL d   1       1.887   3.058   2.860  0.00  0.00     0.018 C 
ENDBRANCH   1   8
TORSDOF 1
ENDMDL
