MODEL 1
REMARK minimizedAffinity 3.32924318
REMARK minimizedRMSD -1
REMARK  1 active torsions:
REMARK  status: ('A' for Active; 'I' for Inactive)
REMARK    1  A    between atoms: C1_2  and  C2_3 
ROOT
ATOM      1  C2  UNL d   1      -1.929   4.946   1.187  0.00  0.00    -0.073 A 
ATOM      2  C3  UNL d   1      -2.517   5.282   2.412  0.00  0.00    -0.002 A 
ATOM      3  C4  UNL d   1      -3.871   5.613   2.477  0.00  0.00     0.004 A 
ATOM      4  C5  UNL d   1      -4.652   5.606   1.321  0.00  0.00    -0.004 A 
ATOM      5  C6  UNL d   1      -4.085   5.262   0.089  0.00  0.00    -0.075 A 
ATOM      6  C7  UNL d   1      -4.910   5.252  -1.164  0.00  0.00     0.076 C 
ATOM      7  C8  UNL d   1      -2.724   4.933   0.032  0.00  0.00     0.001 A 
ENDROOT
BRANCH   1   8
ATOM      8  C1  UNL d   1      -0.469   4.581   1.114  0.00  0.00     0.053 C 
ATOM      9  C   UNL d   1      -0.180   3.614  -0.024  0.00  0.00     0.018 C 
ENDBRANCH   1   8
TORSDOF 1
ENDMDL
