MODEL 1
REMARK minimizedAffinity 8.19794464
REMARK minimizedRMSD -1
REMARK  1 active torsions:
REMARK  status: ('A' for Active; 'I' for Inactive)
REMARK    1  A    between atoms: C1_2  and  C2_3 
ROOT
ATOM      1  C2  UNL d   1       2.196   2.280   4.309  0.00  0.00    -0.073 A 
ATOM      2  C3  UNL d   1       2.755   1.963   3.066  0.00  0.00    -0.002 A 
ATOM      3  C4  UNL d   1       3.878   2.649   2.603  0.00  0.00     0.004 A 
ATOM      4  C5  UNL d   1       4.457   3.653   3.379  0.00  0.00    -0.004 A 
ATOM      5  C6  UNL d   1       3.920   3.976   4.629  0.00  0.00    -0.075 A 
ATOM      6  C7  UNL d   1       4.531   5.054   5.475  0.00  0.00     0.076 C 
ATOM      7  C8  UNL d   1       2.791   3.284   5.087  0.00  0.00     0.001 A 
ENDROOT
BRANCH   1   8
ATOM      8  C1  UNL d   1       0.987   1.537   4.817  0.00  0.00     0.053 C 
ATOM      9  C   UNL d   1       0.145   2.391   5.752  0.00  0.00     0.018 C 
ENDBRANCH   1   8
TORSDOF 1
ENDMDL
