MODEL 1
REMARK minimizedAffinity -5.85878611
REMARK minimizedRMSD -1
REMARK  1 active torsions:
REMARK  status: ('A' for Active; 'I' for Inactive)
REMARK    1  A    between atoms: C1_2  and  C2_3 
ROOT
ATOM      1  C2  UNL d   1       3.591  -0.477   0.853  0.00  0.00    -0.073 A 
ATOM      2  C3  UNL d   1       4.867  -0.978   1.135  0.00  0.00    -0.002 A 
ATOM      3  C4  UNL d   1       6.000  -0.205   0.880  0.00  0.00     0.004 A 
ATOM      4  C5  UNL d   1       5.870   1.078   0.348  0.00  0.00    -0.004 A 
ATOM      5  C6  UNL d   1       4.603   1.601   0.071  0.00  0.00    -0.075 A 
ATOM      6  C7  UNL d   1       4.446   2.978  -0.504  0.00  0.00     0.076 C 
ATOM      7  C8  UNL d   1       3.469   0.817   0.326  0.00  0.00     0.001 A 
ENDROOT
BRANCH   1   8
ATOM      8  C1  UNL d   1       2.364  -1.306   1.132  0.00  0.00     0.053 C 
ATOM      9  C   UNL d   1       2.091  -2.311   0.024  0.00  0.00     0.018 C 
ENDBRANCH   1   8
TORSDOF 1
ENDMDL
