MODEL 1
REMARK minimizedAffinity 7.26255798
REMARK minimizedRMSD -1
REMARK  1 active torsions:
REMARK  status: ('A' for Active; 'I' for Inactive)
REMARK    1  A    between atoms: C1_2  and  C2_3 
ROOT
ATOM      1  C2  UNL d   1       2.658  -1.065  -0.490  0.00  0.00    -0.073 A 
ATOM      2  C3  UNL d   1       1.699  -0.430   0.308  0.00  0.00    -0.002 A 
ATOM      3  C4  UNL d   1       1.711   0.958   0.453  0.00  0.00     0.004 A 
ATOM      4  C5  UNL d   1       2.674   1.724  -0.202  0.00  0.00    -0.004 A 
ATOM      5  C6  UNL d   1       3.633   1.109  -1.013  0.00  0.00    -0.075 A 
ATOM      6  C7  UNL d   1       4.678   1.919  -1.722  0.00  0.00     0.076 C 
ATOM      7  C8  UNL d   1       3.617  -0.285  -1.152  0.00  0.00     0.001 A 
ENDROOT
BRANCH   1   8
ATOM      8  C1  UNL d   1       2.646  -2.563  -0.655  0.00  0.00     0.053 C 
ATOM      9  C   UNL d   1       2.529  -3.283   0.679  0.00  0.00     0.018 C 
ENDBRANCH   1   8
TORSDOF 1
ENDMDL
