MODEL 1
REMARK minimizedAffinity 2.20584393
REMARK minimizedRMSD -1
REMARK  1 active torsions:
REMARK  status: ('A' for Active; 'I' for Inactive)
REMARK    1  A    between atoms: N_2  and  C1_3 
ROOT
ATOM      1  C1  UNL d   1      -2.976   3.847  -5.997  0.00  0.00     0.143 A 
ATOM      2  C2  UNL d   1      -2.729   5.224  -5.983  0.00  0.00    -0.057 A 
ATOM      3  C3  UNL d   1      -1.422   5.727  -5.999  0.00  0.00     0.033 A 
ATOM      4  C4  UNL d   1      -0.336   4.858  -6.000  0.00  0.00    -0.042 A 
ATOM      5  C5  UNL d   1      -0.558   3.485  -5.988  0.00  0.00     0.033 A 
ATOM      6  C6  UNL d   1      -1.865   2.989  -5.979  0.00  0.00    -0.057 A 
ENDROOT
BRANCH   1   7
ATOM      7  N   UNL d   1      -4.250   3.284  -5.882  0.00  0.00    -0.732 N 
ATOM      8  C   UNL d   1      -5.433   4.109  -5.999  0.00  0.00     0.284 C 
ATOM      9  H3  UNL d   1      -4.321   2.386  -6.354  0.00  0.00     0.395 HD
ENDBRANCH   1   7
TORSDOF 1
ENDMDL
