MODEL 1
REMARK minimizedAffinity -1.03766704
REMARK minimizedRMSD -1
REMARK  1 active torsions:
REMARK  status: ('A' for Active; 'I' for Inactive)
REMARK    1  A    between atoms: N_2  and  C1_3 
ROOT
ATOM      1  C1  UNL d   1       2.719   4.931  -5.998  0.00  0.00     0.143 A 
ATOM      2  C2  UNL d   1       3.748   5.878  -5.976  0.00  0.00    -0.057 A 
ATOM      3  C3  UNL d   1       5.093   5.489  -5.991  0.00  0.00     0.033 A 
ATOM      4  C4  UNL d   1       5.433   4.140  -5.998  0.00  0.00    -0.042 A 
ATOM      5  C5  UNL d   1       4.427   3.181  -5.995  0.00  0.00     0.033 A 
ATOM      6  C6  UNL d   1       3.085   3.576  -5.987  0.00  0.00    -0.057 A 
ENDROOT
BRANCH   1   7
ATOM      7  N   UNL d   1       1.364   5.253  -5.886  0.00  0.00    -0.732 N 
ATOM      8  C   UNL d   1       0.356   4.215  -5.907  0.00  0.00     0.284 C 
ATOM      9  H3  UNL d   1       1.194   5.983  -5.198  0.00  0.00     0.395 HD
ENDBRANCH   1   7
TORSDOF 1
ENDMDL
