MODEL 1
REMARK minimizedAffinity 0.561534286
REMARK minimizedRMSD -1
REMARK  1 active torsions:
REMARK  status: ('A' for Active; 'I' for Inactive)
REMARK    1  A    between atoms: N_2  and  C1_3 
ROOT
ATOM      1  C1  UNL d   1       0.621   4.760  -5.997  0.00  0.00     0.143 A 
ATOM      2  C2  UNL d   1       2.017   4.664  -5.989  0.00  0.00    -0.057 A 
ATOM      3  C3  UNL d   1       2.659   3.420  -5.999  0.00  0.00     0.033 A 
ATOM      4  C4  UNL d   1       1.914   2.245  -5.988  0.00  0.00    -0.042 A 
ATOM      5  C5  UNL d   1       0.525   2.317  -5.972  0.00  0.00     0.033 A 
ATOM      6  C6  UNL d   1      -0.110   3.562  -5.968  0.00  0.00    -0.057 A 
ENDROOT
BRANCH   1   7
ATOM      7  N   UNL d   1      -0.076   5.965  -5.888  0.00  0.00    -0.732 N 
ATOM      8  C   UNL d   1      -1.523   5.980  -5.857  0.00  0.00     0.284 C 
ATOM      9  H3  UNL d   1       0.360   6.609  -5.232  0.00  0.00     0.395 HD
ENDBRANCH   1   7
TORSDOF 1
ENDMDL
