MODEL 1
REMARK minimizedAffinity -0.0977828503
REMARK minimizedRMSD -1
REMARK  1 active torsions:
REMARK  status: ('A' for Active; 'I' for Inactive)
REMARK    1  A    between atoms: N_2  and  C1_3 
ROOT
ATOM      1  C1  UNL d   1      -0.128   3.667  -5.917  0.00  0.00     0.143 A 
ATOM      2  C2  UNL d   1       0.149   5.038  -5.953  0.00  0.00    -0.057 A 
ATOM      3  C3  UNL d   1      -0.881   5.986  -5.979  0.00  0.00     0.033 A 
ATOM      4  C4  UNL d   1      -2.211   5.578  -5.999  0.00  0.00    -0.042 A 
ATOM      5  C5  UNL d   1      -2.509   4.220  -5.989  0.00  0.00     0.033 A 
ATOM      6  C6  UNL d   1      -1.476   3.278  -5.956  0.00  0.00    -0.057 A 
ENDROOT
BRANCH   1   7
ATOM      7  N   UNL d   1       0.851   2.673  -5.990  0.00  0.00    -0.732 N 
ATOM      8  C   UNL d   1       2.256   3.022  -5.998  0.00  0.00     0.284 C 
ATOM      9  H3  UNL d   1       0.627   1.864  -5.416  0.00  0.00     0.395 HD
ENDBRANCH   1   7
TORSDOF 1
ENDMDL
