MODEL 1
REMARK minimizedAffinity -0.69471246
REMARK minimizedRMSD -1
REMARK  1 active torsions:
REMARK  status: ('A' for Active; 'I' for Inactive)
REMARK    1  A    between atoms: N_2  and  C1_3 
ROOT
ATOM      1  C1  UNL d   1       0.370   4.361  -5.924  0.00  0.00     0.143 A 
ATOM      2  C2  UNL d   1      -0.198   5.638  -5.968  0.00  0.00    -0.057 A 
ATOM      3  C3  UNL d   1      -1.587   5.815  -5.991  0.00  0.00     0.033 A 
ATOM      4  C4  UNL d   1      -2.434   4.712  -6.000  0.00  0.00    -0.042 A 
ATOM      5  C5  UNL d   1      -1.891   3.432  -5.982  0.00  0.00     0.033 A 
ATOM      6  C6  UNL d   1      -0.503   3.262  -5.952  0.00  0.00    -0.057 A 
ENDROOT
BRANCH   1   7
ATOM      7  N   UNL d   1       1.744   4.118  -5.999  0.00  0.00    -0.732 N 
ATOM      8  C   UNL d   1       2.688   5.215  -6.000  0.00  0.00     0.284 C 
ATOM      9  H3  UNL d   1       2.029   3.324  -5.431  0.00  0.00     0.395 HD
ENDBRANCH   1   7
TORSDOF 1
ENDMDL
