MODEL 1
REMARK minimizedAffinity -1.86820698
REMARK minimizedRMSD -1
REMARK  1 active torsions:
REMARK  status: ('A' for Active; 'I' for Inactive)
REMARK    1  A    between atoms: N_2  and  C1_3 
ROOT
ATOM      1  C1  UNL d   1      -0.918   4.319  -5.985  0.00  0.00     0.143 A 
ATOM      2  C2  UNL d   1       0.430   3.953  -5.922  0.00  0.00    -0.057 A 
ATOM      3  C3  UNL d   1       0.818   2.607  -5.922  0.00  0.00     0.033 A 
ATOM      4  C4  UNL d   1      -0.141   1.601  -5.955  0.00  0.00    -0.042 A 
ATOM      5  C5  UNL d   1      -1.489   1.941  -5.993  0.00  0.00     0.033 A 
ATOM      6  C6  UNL d   1      -1.869   3.287  -5.999  0.00  0.00    -0.057 A 
ENDROOT
BRANCH   1   7
ATOM      7  N   UNL d   1      -1.372   5.637  -5.889  0.00  0.00    -0.732 N 
ATOM      8  C   UNL d   1      -2.783   5.940  -5.993  0.00  0.00     0.284 C 
ATOM      9  H3  UNL d   1      -0.885   6.163  -5.166  0.00  0.00     0.395 HD
ENDBRANCH   1   7
TORSDOF 1
ENDMDL
