MODEL 1
REMARK minimizedAffinity -1.66181433
REMARK minimizedRMSD -1
REMARK  1 active torsions:
REMARK  status: ('A' for Active; 'I' for Inactive)
REMARK    1  A    between atoms: N_2  and  C1_3 
ROOT
ATOM      1  C1  UNL d   1      -0.683   2.939  -6.000  0.00  0.00     0.143 A 
ATOM      2  C2  UNL d   1      -2.049   2.641  -5.976  0.00  0.00    -0.057 A 
ATOM      3  C3  UNL d   1      -3.014   3.656  -5.991  0.00  0.00     0.033 A 
ATOM      4  C4  UNL d   1      -2.627   4.992  -6.000  0.00  0.00    -0.042 A 
ATOM      5  C5  UNL d   1      -1.274   5.312  -5.999  0.00  0.00     0.033 A 
ATOM      6  C6  UNL d   1      -0.315   4.294  -5.991  0.00  0.00    -0.057 A 
ENDROOT
BRANCH   1   7
ATOM      7  N   UNL d   1       0.325   1.978  -5.887  0.00  0.00    -0.732 N 
ATOM      8  C   UNL d   1       1.718   2.355  -5.992  0.00  0.00     0.284 C 
ATOM      9  H3  UNL d   1       0.133   1.297  -5.156  0.00  0.00     0.395 HD
ENDBRANCH   1   7
TORSDOF 1
ENDMDL
