MODEL 1
REMARK minimizedAffinity 0.77910006
REMARK minimizedRMSD -1
REMARK  1 active torsions:
REMARK  status: ('A' for Active; 'I' for Inactive)
REMARK    1  A    between atoms: N_2  and  C1_3 
ROOT
ATOM      1  C1  UNL d   1      -1.580   4.476  -5.940  0.00  0.00     0.143 A 
ATOM      2  C2  UNL d   1      -2.373   3.323  -5.953  0.00  0.00    -0.057 A 
ATOM      3  C3  UNL d   1      -3.770   3.403  -5.997  0.00  0.00     0.033 A 
ATOM      4  C4  UNL d   1      -4.402   4.642  -6.000  0.00  0.00    -0.042 A 
ATOM      5  C5  UNL d   1      -3.635   5.801  -5.962  0.00  0.00     0.033 A 
ATOM      6  C6  UNL d   1      -2.240   5.715  -5.925  0.00  0.00    -0.057 A 
ENDROOT
BRANCH   1   7
ATOM      7  N   UNL d   1      -0.190   4.463  -5.797  0.00  0.00    -0.732 N 
ATOM      8  C   UNL d   1       0.560   3.242  -6.000  0.00  0.00     0.284 C 
ATOM      9  H3  UNL d   1       0.248   5.291  -6.193  0.00  0.00     0.395 HD
ENDBRANCH   1   7
TORSDOF 1
ENDMDL
