MODEL 1
REMARK minimizedAffinity -3.16098905
REMARK minimizedRMSD -1
REMARK  1 active torsions:
REMARK  status: ('A' for Active; 'I' for Inactive)
REMARK    1  A    between atoms: N_2  and  C1_3 
ROOT
ATOM      1  C1  UNL d   1       3.057   4.504  -5.998  0.00  0.00     0.143 A 
ATOM      2  C2  UNL d   1       2.313   3.321  -5.933  0.00  0.00    -0.057 A 
ATOM      3  C3  UNL d   1       0.913   3.344  -5.905  0.00  0.00     0.033 A 
ATOM      4  C4  UNL d   1       0.232   4.556  -5.913  0.00  0.00    -0.042 A 
ATOM      5  C5  UNL d   1       0.951   5.745  -5.953  0.00  0.00     0.033 A 
ATOM      6  C6  UNL d   1       2.348   5.715  -5.987  0.00  0.00    -0.057 A 
ENDROOT
BRANCH   1   7
ATOM      7  N   UNL d   1       4.452   4.551  -5.929  0.00  0.00    -0.732 N 
ATOM      8  C   UNL d   1       5.151   5.815  -5.999  0.00  0.00     0.284 C 
ATOM      9  H3  UNL d   1       4.828   3.905  -5.238  0.00  0.00     0.395 HD
ENDBRANCH   1   7
TORSDOF 1
ENDMDL
