MODEL 1
REMARK minimizedAffinity 5.86555958
REMARK minimizedRMSD -1
REMARK  1 active torsions:
REMARK  status: ('A' for Active; 'I' for Inactive)
REMARK    1  A    between atoms: N_2  and  C1_3 
ROOT
ATOM      1  C1  UNL d   1       1.767  -3.826  -2.925  0.00  0.00     0.143 A 
ATOM      2  C2  UNL d   1       2.731  -3.250  -3.759  0.00  0.00    -0.057 A 
ATOM      3  C3  UNL d   1       3.693  -2.366  -3.256  0.00  0.00     0.033 A 
ATOM      4  C4  UNL d   1       3.690  -2.018  -1.909  0.00  0.00    -0.042 A 
ATOM      5  C5  UNL d   1       2.725  -2.559  -1.066  0.00  0.00     0.033 A 
ATOM      6  C6  UNL d   1       1.771  -3.446  -1.573  0.00  0.00    -0.057 A 
ENDROOT
BRANCH   1   7
ATOM      7  N   UNL d   1       0.724  -4.634  -3.383  0.00  0.00    -0.732 N 
ATOM      8  C   UNL d   1      -0.638  -4.146  -3.390  0.00  0.00     0.284 C 
ATOM      9  H3  UNL d   1       0.980  -5.165  -4.213  0.00  0.00     0.395 HD
ENDBRANCH   1   7
TORSDOF 1
ENDMDL
