MODEL 1
REMARK minimizedAffinity -2.26899719
REMARK minimizedRMSD -1
REMARK  1 active torsions:
REMARK  status: ('A' for Active; 'I' for Inactive)
REMARK    1  A    between atoms: N_2  and  C1_3 
ROOT
ATOM      1  C1  UNL d   1       2.882   4.488  -5.818  0.00  0.00     0.143 A 
ATOM      2  C2  UNL d   1       3.778   3.434  -5.608  0.00  0.00    -0.057 A 
ATOM      3  C3  UNL d   1       5.158   3.658  -5.534  0.00  0.00     0.033 A 
ATOM      4  C4  UNL d   1       5.671   4.940  -5.700  0.00  0.00    -0.042 A 
ATOM      5  C5  UNL d   1       4.801   5.999  -5.935  0.00  0.00     0.033 A 
ATOM      6  C6  UNL d   1       3.423   5.770  -6.000  0.00  0.00    -0.057 A 
ENDROOT
BRANCH   1   7
ATOM      7  N   UNL d   1       1.508   4.316  -5.999  0.00  0.00    -0.732 N 
ATOM      8  C   UNL d   1       0.616   5.456  -6.000  0.00  0.00     0.284 C 
ATOM      9  H3  UNL d   1       1.293   3.620  -6.709  0.00  0.00     0.395 HD
ENDBRANCH   1   7
TORSDOF 1
ENDMDL
