MODEL 1
REMARK minimizedAffinity -1.18797553
REMARK minimizedRMSD -1
REMARK  3 active torsions:
REMARK  status: ('A' for Active; 'I' for Inactive)
REMARK    1  A    between atoms: C3'_2  and  C2'_3 
REMARK    2  A    between atoms: C2'_3  and  C1'_4 
REMARK    3  A    between atoms: C1'_4  and  C1_5 
ROOT
ATOM      1  C1  N4B d   1       0.983   3.177   1.842  0.00  0.00    -0.075 A 
ATOM      2  C2  N4B d   1       1.095   4.369   1.092  0.00  0.00     0.002 A 
ATOM      3  C3  N4B d   1       2.023   5.318   1.446  0.00  0.00     0.002 A 
ATOM      4  C4  N4B d   1       2.832   5.106   2.552  0.00  0.00    -0.004 A 
ATOM      5  C5  N4B d   1       2.735   3.942   3.256  0.00  0.00     0.002 A 
ATOM      6  C6  N4B d   1       1.810   2.977   2.909  0.00  0.00     0.002 A 
ENDROOT
BRANCH   1   7
ATOM      7  C1' N4B d   1      -0.074   2.149   1.545  0.00  0.00     0.057 C 
BRANCH   7   8
ATOM      8  C2' N4B d   1       0.491   1.116   0.575  0.00  0.00     0.009 C 
BRANCH   8   9
ATOM      9  C3' N4B d   1       0.510  -0.279   1.178  0.00  0.00     0.004 C 
ATOM     10  C4' N4B d   1       1.822  -0.615   1.820  0.00  0.00     0.003 C 
ENDBRANCH   8   9
ENDBRANCH   7   8
ENDBRANCH   1   7
TORSDOF 3
ENDMDL
