MODEL 1
REMARK minimizedAffinity 0.67853862
REMARK minimizedRMSD -1
REMARK  3 active torsions:
REMARK  status: ('A' for Active; 'I' for Inactive)
REMARK    1  A    between atoms: C3'_2  and  C2'_3 
REMARK    2  A    between atoms: C2'_3  and  C1'_4 
REMARK    3  A    between atoms: C1'_4  and  C1_5 
ROOT
ATOM      1  C1  N4B d   1      -2.329  -0.032  -1.384  0.00  0.00    -0.075 A 
ATOM      2  C2  N4B d   1      -3.549   0.139  -0.693  0.00  0.00     0.002 A 
ATOM      3  C3  N4B d   1      -3.544   0.482   0.636  0.00  0.00     0.002 A 
ATOM      4  C4  N4B d   1      -2.335   0.641   1.299  0.00  0.00    -0.004 A 
ATOM      5  C5  N4B d   1      -1.161   0.499   0.618  0.00  0.00     0.002 A 
ATOM      6  C6  N4B d   1      -1.152   0.158  -0.719  0.00  0.00     0.002 A 
ENDROOT
BRANCH   1   7
ATOM      7  C1' N4B d   1      -2.284  -0.491  -2.815  0.00  0.00     0.057 C 
BRANCH   7   8
ATOM      8  C2' N4B d   1      -2.530  -1.996  -2.867  0.00  0.00     0.009 C 
BRANCH   8   9
ATOM      9  C3' N4B d   1      -1.269  -2.766  -3.216  0.00  0.00     0.004 C 
ATOM     10  C4' N4B d   1      -1.096  -4.004  -2.387  0.00  0.00     0.003 C 
ENDBRANCH   8   9
ENDBRANCH   7   8
ENDBRANCH   1   7
TORSDOF 3
ENDMDL
