MODEL 1
REMARK minimizedAffinity -4.17170811
REMARK minimizedRMSD -1
REMARK  0 active torsions:
REMARK  status: ('A' for Active; 'I' for Inactive)
ROOT
ATOM      1  C4' PXY d   1       0.054  -3.211   1.132  0.00  0.00     0.077 C 
ATOM      2  C1' PXY d   1      -0.445   2.406  -0.140  0.00  0.00     0.077 C 
ATOM      3  C1  PXY d   1      -0.317   0.935   0.206  0.00  0.00    -0.082 A 
ATOM      4  C2  PXY d   1       0.470   0.158  -0.520  0.00  0.00     0.003 A 
ATOM      5  C3  PXY d   1       0.572  -1.181  -0.241  0.00  0.00     0.003 A 
ATOM      6  C4  PXY d   1      -0.098  -1.719   0.825  0.00  0.00    -0.082 A 
ATOM      7  C5  PXY d   1      -0.894  -0.931   1.577  0.00  0.00     0.003 A 
ATOM      8  C6  PXY d   1      -1.016   0.417   1.252  0.00  0.00     0.003 A 
ENDROOT
TORSDOF 0
ENDMDL
