MODEL 1
REMARK minimizedAffinity -3.4232626
REMARK minimizedRMSD -1
REMARK  0 active torsions:
REMARK  status: ('A' for Active; 'I' for Inactive)
ROOT
ATOM      1  C4' PXY d   1      -3.101  -3.118   0.398  0.00  0.00     0.077 C 
ATOM      2  C1' PXY d   1       2.394  -1.344   0.125  0.00  0.00     0.077 C 
ATOM      3  C1  PXY d   1       0.956  -1.820   0.189  0.00  0.00    -0.082 A 
ATOM      4  C2  PXY d   1      -0.017  -0.940   0.364  0.00  0.00     0.003 A 
ATOM      5  C3  PXY d   1      -1.320  -1.357   0.457  0.00  0.00     0.003 A 
ATOM      6  C4  PXY d   1      -1.635  -2.682   0.317  0.00  0.00    -0.082 A 
ATOM      7  C5  PXY d   1      -0.649  -3.584   0.128  0.00  0.00     0.003 A 
ATOM      8  C6  PXY d   1       0.671  -3.146   0.077  0.00  0.00     0.003 A 
ENDROOT
TORSDOF 0
ENDMDL
