MODEL 1
REMARK minimizedAffinity -4.27705097
REMARK minimizedRMSD -1
REMARK  0 active torsions:
REMARK  status: ('A' for Active; 'I' for Inactive)
ROOT
ATOM      1  C4' PXY d   1       0.066   2.018   0.365  0.00  0.00     0.077 C 
ATOM      2  C1' PXY d   1       0.067  -3.760   0.192  0.00  0.00     0.077 C 
ATOM      3  C1  PXY d   1       0.056  -2.245   0.245  0.00  0.00    -0.082 A 
ATOM      4  C2  PXY d   1       0.668  -1.553  -0.702  0.00  0.00     0.003 A 
ATOM      5  C3  PXY d   1       0.695  -0.183  -0.653  0.00  0.00     0.003 A 
ATOM      6  C4  PXY d   1       0.043   0.487   0.347  0.00  0.00    -0.082 A 
ATOM      7  C5  PXY d   1      -0.593  -0.212   1.311  0.00  0.00     0.003 A 
ATOM      8  C6  PXY d   1      -0.574  -1.603   1.266  0.00  0.00     0.003 A 
ENDROOT
TORSDOF 0
ENDMDL
