MODEL 1
REMARK minimizedAffinity -4.05290174
REMARK minimizedRMSD -1
REMARK  0 active torsions:
REMARK  status: ('A' for Active; 'I' for Inactive)
ROOT
ATOM      1  C4' PXY d   1       0.120  -4.063   0.472  0.00  0.00     0.077 C 
ATOM      2  C1' PXY d   1      -0.067   1.646  -0.418  0.00  0.00     0.077 C 
ATOM      3  C1  PXY d   1      -0.021   0.151  -0.172  0.00  0.00    -0.082 A 
ATOM      4  C2  PXY d   1       0.705  -0.621  -0.965  0.00  0.00     0.003 A 
ATOM      5  C3  PXY d   1       0.732  -1.979  -0.777  0.00  0.00     0.003 A 
ATOM      6  C4  PXY d   1       0.052  -2.547   0.267  0.00  0.00    -0.082 A 
ATOM      7  C5  PXY d   1      -0.682  -1.766   1.087  0.00  0.00     0.003 A 
ATOM      8  C6  PXY d   1      -0.730  -0.394   0.854  0.00  0.00     0.003 A 
ENDROOT
TORSDOF 0
ENDMDL
