MODEL 1
REMARK minimizedAffinity -0.245552644
REMARK minimizedRMSD -1
REMARK  0 active torsions:
REMARK  status: ('A' for Active; 'I' for Inactive)
ROOT
ATOM      1  C4' PXY d   1       0.569   2.210  -0.015  0.00  0.00     0.077 C 
ATOM      2  C1' PXY d   1      -1.880  -2.976   0.709  0.00  0.00     0.077 C 
ATOM      3  C1  PXY d   1      -1.227  -1.622   0.513  0.00  0.00    -0.082 A 
ATOM      4  C2  PXY d   1      -1.560  -0.615   1.305  0.00  0.00     0.003 A 
ATOM      5  C3  PXY d   1      -1.003   0.625   1.121  0.00  0.00     0.003 A 
ATOM      6  C4  PXY d   1      -0.057   0.823   0.152  0.00  0.00    -0.082 A 
ATOM      7  C5  PXY d   1       0.295  -0.202  -0.653  0.00  0.00     0.003 A 
ATOM      8  C6  PXY d   1      -0.312  -1.442  -0.477  0.00  0.00     0.003 A 
ENDROOT
TORSDOF 0
ENDMDL
