MODEL 1
REMARK minimizedAffinity -4.37005949
REMARK minimizedRMSD -1
REMARK  0 active torsions:
REMARK  status: ('A' for Active; 'I' for Inactive)
ROOT
ATOM      1  C4' PXY d   1       0.681  -0.637  -2.355  0.00  0.00     0.077 C 
ATOM      2  C1' PXY d   1       1.227   3.998   1.056  0.00  0.00     0.077 C 
ATOM      3  C1  PXY d   1       1.095   2.786   0.156  0.00  0.00    -0.082 A 
ATOM      4  C2  PXY d   1      -0.104   2.286  -0.098  0.00  0.00     0.003 A 
ATOM      5  C3  PXY d   1      -0.239   1.171  -0.883  0.00  0.00     0.003 A 
ATOM      6  C4  PXY d   1       0.861   0.592  -1.459  0.00  0.00    -0.082 A 
ATOM      7  C5  PXY d   1       2.086   1.102  -1.215  0.00  0.00     0.003 A 
ATOM      8  C6  PXY d   1       2.205   2.210  -0.381  0.00  0.00     0.003 A 
ENDROOT
TORSDOF 0
ENDMDL
