MODEL 1
REMARK minimizedAffinity 0.532761276
REMARK minimizedRMSD -1
REMARK  0 active torsions:
REMARK  status: ('A' for Active; 'I' for Inactive)
ROOT
ATOM      1  C4' PXY d   1       0.872  -1.611  -2.127  0.00  0.00     0.077 C 
ATOM      2  C1' PXY d   1      -2.275  -0.327   2.548  0.00  0.00     0.077 C 
ATOM      3  C1  PXY d   1      -1.452  -0.652   1.317  0.00  0.00    -0.082 A 
ATOM      4  C2  PXY d   1      -1.294  -1.913   0.950  0.00  0.00     0.003 A 
ATOM      5  C3  PXY d   1      -0.527  -2.227  -0.142  0.00  0.00     0.003 A 
ATOM      6  C4  PXY d   1       0.042  -1.236  -0.897  0.00  0.00    -0.082 A 
ATOM      7  C5  PXY d   1      -0.124   0.054  -0.535  0.00  0.00     0.003 A 
ATOM      8  C6  PXY d   1      -0.872   0.349   0.600  0.00  0.00     0.003 A 
ENDROOT
TORSDOF 0
ENDMDL
