MODEL 1
REMARK minimizedAffinity -3.80267239
REMARK minimizedRMSD -1
REMARK  0 active torsions:
REMARK  status: ('A' for Active; 'I' for Inactive)
ROOT
ATOM      1  C4' PXY d   1      -0.059   1.509  -0.181  0.00  0.00     0.077 C 
ATOM      2  C1' PXY d   1       0.003  -4.265  -0.444  0.00  0.00     0.077 C 
ATOM      3  C1  PXY d   1      -0.003  -2.751  -0.383  0.00  0.00    -0.082 A 
ATOM      4  C2  PXY d   1      -0.568  -2.140   0.646  0.00  0.00     0.003 A 
ATOM      5  C3  PXY d   1      -0.611  -0.770   0.701  0.00  0.00     0.003 A 
ATOM      6  C4  PXY d   1      -0.022  -0.019  -0.280  0.00  0.00    -0.082 A 
ATOM      7  C5  PXY d   1       0.567  -0.635  -1.327  0.00  0.00     0.003 A 
ATOM      8  C6  PXY d   1       0.563  -2.025  -1.385  0.00  0.00     0.003 A 
ENDROOT
TORSDOF 0
ENDMDL
