MODEL 1
REMARK minimizedAffinity -4.66910458
REMARK minimizedRMSD -1
REMARK  0 active torsions:
REMARK  status: ('A' for Active; 'I' for Inactive)
ROOT
ATOM      1  C4' PXY d   1      -2.349  -0.022   2.726  0.00  0.00     0.077 C 
ATOM      2  C1' PXY d   1       1.214  -1.419  -1.607  0.00  0.00     0.077 C 
ATOM      3  C1  PXY d   1       0.275  -1.064  -0.471  0.00  0.00    -0.082 A 
ATOM      4  C2  PXY d   1      -0.035   0.203  -0.250  0.00  0.00     0.003 A 
ATOM      5  C3  PXY d   1      -0.858   0.544   0.793  0.00  0.00     0.003 A 
ATOM      6  C4  PXY d   1      -1.411  -0.427   1.584  0.00  0.00    -0.082 A 
ATOM      7  C5  PXY d   1      -1.109  -1.723   1.358  0.00  0.00     0.003 A 
ATOM      8  C6  PXY d   1      -0.239  -2.045   0.320  0.00  0.00     0.003 A 
ENDROOT
TORSDOF 0
ENDMDL
