MODEL 1
REMARK minimizedAffinity -4.62222338
REMARK minimizedRMSD -1
REMARK  0 active torsions:
REMARK  status: ('A' for Active; 'I' for Inactive)
ROOT
ATOM      1  C4' PXY d   1       0.084  -1.553   0.488  0.00  0.00     0.077 C 
ATOM      2  C1' PXY d   1       1.835   3.940   0.080  0.00  0.00     0.077 C 
ATOM      3  C1  PXY d   1       1.364   2.503   0.184  0.00  0.00    -0.082 A 
ATOM      4  C2  PXY d   1       2.022   1.653   0.955  0.00  0.00     0.003 A 
ATOM      5  C3  PXY d   1       1.629   0.342   1.035  0.00  0.00     0.003 A 
ATOM      6  C4  PXY d   1       0.518  -0.091   0.361  0.00  0.00    -0.082 A 
ATOM      7  C5  PXY d   1      -0.165   0.774  -0.419  0.00  0.00     0.003 A 
ATOM      8  C6  PXY d   1       0.275   2.090  -0.519  0.00  0.00     0.003 A 
ENDROOT
TORSDOF 0
ENDMDL
