MODEL 1
REMARK minimizedAffinity -4.69942045
REMARK minimizedRMSD -1
REMARK  0 active torsions:
REMARK  status: ('A' for Active; 'I' for Inactive)
ROOT
ATOM      1  C4' PXY d   1       0.027   1.646  -0.651  0.00  0.00     0.077 C 
ATOM      2  C1' PXY d   1      -0.374  -4.025   0.394  0.00  0.00     0.077 C 
ATOM      3  C1  PXY d   1      -0.259  -2.540   0.112  0.00  0.00    -0.082 A 
ATOM      4  C2  PXY d   1      -0.704  -1.668   1.003  0.00  0.00     0.003 A 
ATOM      5  C3  PXY d   1      -0.637  -0.323   0.749  0.00  0.00     0.003 A 
ATOM      6  C4  PXY d   1      -0.060   0.138  -0.404  0.00  0.00    -0.082 A 
ATOM      7  C5  PXY d   1       0.406  -0.745  -1.313  0.00  0.00     0.003 A 
ATOM      8  C6  PXY d   1       0.291  -2.108  -1.055  0.00  0.00     0.003 A 
ENDROOT
TORSDOF 0
ENDMDL
