MODEL 1
REMARK minimizedAffinity -3.82966232
REMARK minimizedRMSD -1
REMARK  0 active torsions:
REMARK  status: ('A' for Active; 'I' for Inactive)
ROOT
ATOM      1  C4' PXY d   1      -0.023   2.257   0.077  0.00  0.00     0.077 C 
ATOM      2  C1' PXY d   1      -0.075  -3.514   0.412  0.00  0.00     0.077 C 
ATOM      3  C1  PXY d   1      -0.073  -2.000   0.331  0.00  0.00    -0.082 A 
ATOM      4  C2  PXY d   1       0.615  -1.398  -0.626  0.00  0.00     0.003 A 
ATOM      5  C3  PXY d   1       0.654  -0.029  -0.695  0.00  0.00     0.003 A 
ATOM      6  C4  PXY d   1      -0.062   0.730   0.192  0.00  0.00    -0.082 A 
ATOM      7  C5  PXY d   1      -0.774   0.123   1.164  0.00  0.00     0.003 A 
ATOM      8  C6  PXY d   1      -0.768  -1.267   1.242  0.00  0.00     0.003 A 
ENDROOT
TORSDOF 0
ENDMDL
