MODEL 1
REMARK minimizedAffinity -2.88743377
REMARK minimizedRMSD -1
REMARK  0 active torsions:
REMARK  status: ('A' for Active; 'I' for Inactive)
ROOT
ATOM      1  C4' PXY d   1      -2.123  -1.418   3.015  0.00  0.00     0.077 C 
ATOM      2  C1' PXY d   1       0.461  -0.888  -2.128  0.00  0.00     0.077 C 
ATOM      3  C1  PXY d   1      -0.222  -1.038  -0.783  0.00  0.00    -0.082 A 
ATOM      4  C2  PXY d   1      -0.420   0.030  -0.027  0.00  0.00     0.003 A 
ATOM      5  C3  PXY d   1      -1.008  -0.092   1.205  0.00  0.00     0.003 A 
ATOM      6  C4  PXY d   1      -1.446  -1.312   1.646  0.00  0.00    -0.082 A 
ATOM      7  C5  PXY d   1      -1.258  -2.405   0.876  0.00  0.00     0.003 A 
ATOM      8  C6  PXY d   1      -0.622  -2.266  -0.354  0.00  0.00     0.003 A 
ENDROOT
TORSDOF 0
ENDMDL
