MODEL 1
REMARK minimizedAffinity -4.24475479
REMARK minimizedRMSD -1
REMARK  0 active torsions:
REMARK  status: ('A' for Active; 'I' for Inactive)
ROOT
ATOM      1  C4' PXY d   1       0.377   2.499  -0.066  0.00  0.00     0.077 C 
ATOM      2  C1' PXY d   1      -0.749  -3.148   0.438  0.00  0.00     0.077 C 
ATOM      3  C1  PXY d   1      -0.443  -1.670   0.299  0.00  0.00    -0.082 A 
ATOM      4  C2  PXY d   1      -0.965  -0.810   1.158  0.00  0.00     0.003 A 
ATOM      5  C3  PXY d   1      -0.724   0.534   1.029  0.00  0.00     0.003 A 
ATOM      6  C4  PXY d   1       0.103   0.997   0.041  0.00  0.00    -0.082 A 
ATOM      7  C5  PXY d   1       0.649   0.125  -0.833  0.00  0.00     0.003 A 
ATOM      8  C6  PXY d   1       0.359  -1.231  -0.709  0.00  0.00     0.003 A 
ENDROOT
TORSDOF 0
ENDMDL
