MODEL 1
REMARK minimizedAffinity -3.61551952
REMARK minimizedRMSD -1
REMARK  0 active torsions:
REMARK  status: ('A' for Active; 'I' for Inactive)
ROOT
ATOM      1  C4' PXY d   1       0.086   2.611   0.189  0.00  0.00     0.077 C 
ATOM      2  C1' PXY d   1      -0.491  -3.131   0.529  0.00  0.00     0.077 C 
ATOM      3  C1  PXY d   1      -0.328  -1.627   0.433  0.00  0.00    -0.082 A 
ATOM      4  C2  PXY d   1      -0.941  -0.845   1.308  0.00  0.00     0.003 A 
ATOM      5  C3  PXY d   1      -0.831   0.518   1.217  0.00  0.00     0.003 A 
ATOM      6  C4  PXY d   1      -0.042   1.086   0.253  0.00  0.00    -0.082 A 
ATOM      7  C5  PXY d   1       0.595   0.296  -0.637  0.00  0.00     0.003 A 
ATOM      8  C6  PXY d   1       0.437  -1.084  -0.552  0.00  0.00     0.003 A 
ENDROOT
TORSDOF 0
ENDMDL
