MODEL 1
REMARK minimizedAffinity -2.85457587
REMARK minimizedRMSD -1
REMARK  0 active torsions:
REMARK  status: ('A' for Active; 'I' for Inactive)
ROOT
ATOM      1  C4' PXY d   1       1.113   3.682   2.510  0.00  0.00     0.077 C 
ATOM      2  C1' PXY d   1       0.367   0.964  -2.537  0.00  0.00     0.077 C 
ATOM      3  C1  PXY d   1       0.574   1.681  -1.217  0.00  0.00    -0.082 A 
ATOM      4  C2  PXY d   1      -0.060   1.258  -0.136  0.00  0.00     0.003 A 
ATOM      5  C3  PXY d   1       0.091   1.914   1.058  0.00  0.00     0.003 A 
ATOM      6  C4  PXY d   1       0.941   2.983   1.159  0.00  0.00    -0.082 A 
ATOM      7  C5  PXY d   1       1.600   3.414   0.062  0.00  0.00     0.003 A 
ATOM      8  C6  PXY d   1       1.401   2.760  -1.150  0.00  0.00     0.003 A 
ENDROOT
TORSDOF 0
ENDMDL
