MODEL 1
REMARK minimizedAffinity -0.843317866
REMARK minimizedRMSD -1
REMARK  0 active torsions:
REMARK  status: ('A' for Active; 'I' for Inactive)
ROOT
ATOM      1  C4' PXY d   1      -0.808  -0.869   0.798  0.00  0.00     0.077 C 
ATOM      2  C1' PXY d   1       2.325   3.777  -0.619  0.00  0.00     0.077 C 
ATOM      3  C1  PXY d   1       1.493   2.565  -0.252  0.00  0.00    -0.082 A 
ATOM      4  C2  PXY d   1       1.904   1.756   0.711  0.00  0.00     0.003 A 
ATOM      5  C3  PXY d   1       1.180   0.637   1.034  0.00  0.00     0.003 A 
ATOM      6  C4  PXY d   1      -0.005   0.372   0.400  0.00  0.00    -0.082 A 
ATOM      7  C5  PXY d   1      -0.436   1.198  -0.576  0.00  0.00     0.003 A 
ATOM      8  C6  PXY d   1       0.334   2.306  -0.917  0.00  0.00     0.003 A 
ENDROOT
TORSDOF 0
ENDMDL
