MODEL 1
REMARK minimizedAffinity -2.89804101
REMARK minimizedRMSD -1
REMARK  0 active torsions:
REMARK  status: ('A' for Active; 'I' for Inactive)
ROOT
ATOM      1  C4' PXY d   1      -0.260  -2.098  -2.966  0.00  0.00     0.077 C 
ATOM      2  C1' PXY d   1      -0.850  -0.799   2.635  0.00  0.00     0.077 C 
ATOM      3  C1  PXY d   1      -0.697  -1.127   1.163  0.00  0.00    -0.082 A 
ATOM      4  C2  PXY d   1      -1.014  -2.335   0.725  0.00  0.00     0.003 A 
ATOM      5  C3  PXY d   1      -0.851  -2.658  -0.597  0.00  0.00     0.003 A 
ATOM      6  C4  PXY d   1      -0.408  -1.720  -1.490  0.00  0.00    -0.082 A 
ATOM      7  C5  PXY d   1      -0.092  -0.482  -1.053  0.00  0.00     0.003 A 
ATOM      8  C6  PXY d   1      -0.226  -0.186   0.300  0.00  0.00     0.003 A 
ENDROOT
TORSDOF 0
ENDMDL
