MODEL 1
REMARK minimizedAffinity 4.98811054
REMARK minimizedRMSD -1
REMARK  0 active torsions:
REMARK  status: ('A' for Active; 'I' for Inactive)
ROOT
ATOM      1  C4' PXY d   1       1.988   2.944   1.306  0.00  0.00     0.077 C 
ATOM      2  C1' PXY d   1      -2.628   6.000   2.970  0.00  0.00     0.077 C 
ATOM      3  C1  PXY d   1      -1.425   5.191   2.526  0.00  0.00    -0.082 A 
ATOM      4  C2  PXY d   1      -0.333   5.179   3.273  0.00  0.00     0.003 A 
ATOM      5  C3  PXY d   1       0.775   4.478   2.871  0.00  0.00     0.003 A 
ATOM      6  C4  PXY d   1       0.747   3.739   1.719  0.00  0.00    -0.082 A 
ATOM      7  C5  PXY d   1      -0.368   3.737   0.957  0.00  0.00     0.003 A 
ATOM      8  C6  PXY d   1      -1.467   4.488   1.362  0.00  0.00     0.003 A 
ENDROOT
TORSDOF 0
ENDMDL
