MODEL 1
REMARK minimizedAffinity -4.31934643
REMARK minimizedRMSD -1
REMARK  0 active torsions:
REMARK  status: ('A' for Active; 'I' for Inactive)
ROOT
ATOM      1  C4' PXY d   1       1.893   3.526   1.431  0.00  0.00     0.077 C 
ATOM      2  C1' PXY d   1       0.964  -0.565  -2.546  0.00  0.00     0.077 C 
ATOM      3  C1  PXY d   1       1.195   0.510  -1.502  0.00  0.00    -0.082 A 
ATOM      4  C2  PXY d   1       2.345   1.164  -1.479  0.00  0.00     0.003 A 
ATOM      5  C3  PXY d   1       2.583   2.116  -0.522  0.00  0.00     0.003 A 
ATOM      6  C4  PXY d   1       1.613   2.440   0.389  0.00  0.00    -0.082 A 
ATOM      7  C5  PXY d   1       0.433   1.785   0.365  0.00  0.00     0.003 A 
ATOM      8  C6  PXY d   1       0.227   0.793  -0.589  0.00  0.00     0.003 A 
ENDROOT
TORSDOF 0
ENDMDL
