MODEL 1
REMARK minimizedAffinity -4.02127028
REMARK minimizedRMSD -1
REMARK  0 active torsions:
REMARK  status: ('A' for Active; 'I' for Inactive)
ROOT
ATOM      1  C1  BNZ d   1      -1.896   2.675   4.623  0.00  0.00     0.000 A 
ATOM      2  C2  BNZ d   1      -1.918   1.708   3.654  0.00  0.00     0.000 A 
ATOM      3  C3  BNZ d   1      -3.027   1.521   2.877  0.00  0.00     0.000 A 
ATOM      4  C4  BNZ d   1      -4.124   2.274   3.096  0.00  0.00     0.000 A 
ATOM      5  C5  BNZ d   1      -4.120   3.247   4.075  0.00  0.00     0.000 A 
ATOM      6  C6  BNZ d   1      -2.989   3.459   4.829  0.00  0.00     0.000 A 
ENDROOT
TORSDOF 0
ENDMDL
