MODEL 1
REMARK minimizedAffinity -2.96857929
REMARK minimizedRMSD -1
REMARK  0 active torsions:
REMARK  status: ('A' for Active; 'I' for Inactive)
ROOT
ATOM      1  C1  BNZ d   1       0.078   0.737   0.320  0.00  0.00     0.000 A 
ATOM      2  C2  BNZ d   1       0.631   0.732  -0.932  0.00  0.00     0.000 A 
ATOM      3  C3  BNZ d   1       0.631  -0.403  -1.693  0.00  0.00     0.000 A 
ATOM      4  C4  BNZ d   1       0.116  -1.541  -1.186  0.00  0.00     0.000 A 
ATOM      5  C5  BNZ d   1      -0.437  -1.555   0.079  0.00  0.00     0.000 A 
ATOM      6  C6  BNZ d   1      -0.471  -0.401   0.827  0.00  0.00     0.000 A 
ENDROOT
TORSDOF 0
ENDMDL
