MODEL 1
REMARK minimizedAffinity -2.13217449
REMARK minimizedRMSD -1
REMARK  0 active torsions:
REMARK  status: ('A' for Active; 'I' for Inactive)
ROOT
ATOM      1  C1  BNZ d   1      -3.621   5.335  -5.995  0.00  0.00     0.000 A 
ATOM      2  C2  BNZ d   1      -4.827   5.984  -5.997  0.00  0.00     0.000 A 
ATOM      3  C3  BNZ d   1      -6.000   5.282  -5.972  0.00  0.00     0.000 A 
ATOM      4  C4  BNZ d   1      -5.966   3.934  -5.987  0.00  0.00     0.000 A 
ATOM      5  C5  BNZ d   1      -4.759   3.265  -5.994  0.00  0.00     0.000 A 
ATOM      6  C6  BNZ d   1      -3.580   3.975  -5.980  0.00  0.00     0.000 A 
ENDROOT
TORSDOF 0
ENDMDL
