MODEL 1
REMARK minimizedAffinity 1.81230271
REMARK minimizedRMSD -1
REMARK  0 active torsions:
REMARK  status: ('A' for Active; 'I' for Inactive)
ROOT
ATOM      1  C1  BNZ d   1      -5.999   2.742  -5.721  0.00  0.00     0.000 A 
ATOM      2  C2  BNZ d   1      -5.998   4.085  -5.988  0.00  0.00     0.000 A 
ATOM      3  C3  BNZ d   1      -4.880   4.841  -5.772  0.00  0.00     0.000 A 
ATOM      4  C4  BNZ d   1      -3.778   4.261  -5.253  0.00  0.00     0.000 A 
ATOM      5  C5  BNZ d   1      -3.766   2.910  -4.970  0.00  0.00     0.000 A 
ATOM      6  C6  BNZ d   1      -4.881   2.145  -5.225  0.00  0.00     0.000 A 
ENDROOT
TORSDOF 0
ENDMDL
