MODEL 1
REMARK minimizedAffinity -4.12115479
REMARK minimizedRMSD -1
REMARK  0 active torsions:
REMARK  status: ('A' for Active; 'I' for Inactive)
ROOT
ATOM      1  C1  BNZ d   1       0.702   0.787  -0.277  0.00  0.00     0.000 A 
ATOM      2  C2  BNZ d   1       1.105   0.604  -1.573  0.00  0.00     0.000 A 
ATOM      3  C3  BNZ d   1       0.931  -0.600  -2.196  0.00  0.00     0.000 A 
ATOM      4  C4  BNZ d   1       0.393  -1.630  -1.512  0.00  0.00     0.000 A 
ATOM      5  C5  BNZ d   1      -0.009  -1.464  -0.201  0.00  0.00     0.000 A 
ATOM      6  C6  BNZ d   1       0.131  -0.240   0.411  0.00  0.00     0.000 A 
ENDROOT
TORSDOF 0
ENDMDL
