MODEL 1
REMARK minimizedAffinity -2.88856435
REMARK minimizedRMSD -1
REMARK  0 active torsions:
REMARK  status: ('A' for Active; 'I' for Inactive)
ROOT
ATOM      1  C1  BNZ d   1      -0.882  -0.776   1.253  0.00  0.00     0.000 A 
ATOM      2  C2  BNZ d   1      -2.159  -1.135   0.915  0.00  0.00     0.000 A 
ATOM      3  C3  BNZ d   1      -3.234  -0.582   1.554  0.00  0.00     0.000 A 
ATOM      4  C4  BNZ d   1      -3.029   0.298   2.555  0.00  0.00     0.000 A 
ATOM      5  C5  BNZ d   1      -1.747   0.663   2.914  0.00  0.00     0.000 A 
ATOM      6  C6  BNZ d   1      -0.669   0.134   2.243  0.00  0.00     0.000 A 
ENDROOT
TORSDOF 0
ENDMDL
