MODEL 1
REMARK minimizedAffinity -3.33669353
REMARK minimizedRMSD -1
REMARK  0 active torsions:
REMARK  status: ('A' for Active; 'I' for Inactive)
ROOT
ATOM      1  C1  BNZ d   1       0.466   1.016  -0.127  0.00  0.00     0.000 A 
ATOM      2  C2  BNZ d   1       1.071   0.636  -1.296  0.00  0.00     0.000 A 
ATOM      3  C3  BNZ d   1       1.045  -0.667  -1.706  0.00  0.00     0.000 A 
ATOM      4  C4  BNZ d   1       0.450  -1.595  -0.930  0.00  0.00     0.000 A 
ATOM      5  C5  BNZ d   1      -0.157  -1.230   0.256  0.00  0.00     0.000 A 
ATOM      6  C6  BNZ d   1      -0.162   0.089   0.647  0.00  0.00     0.000 A 
ENDROOT
TORSDOF 0
ENDMDL
