MODEL 1
REMARK minimizedAffinity 1.19560301
REMARK minimizedRMSD -1
REMARK  0 active torsions:
REMARK  status: ('A' for Active; 'I' for Inactive)
ROOT
ATOM      1  C1  BNZ d   1       2.110  -0.266  -1.437  0.00  0.00     0.000 A 
ATOM      2  C2  BNZ d   1       1.071  -0.973  -0.893  0.00  0.00     0.000 A 
ATOM      3  C3  BNZ d   1       0.481  -0.565   0.271  0.00  0.00     0.000 A 
ATOM      4  C4  BNZ d   1       0.956   0.524   0.909  0.00  0.00     0.000 A 
ATOM      5  C5  BNZ d   1       2.009   1.242   0.378  0.00  0.00     0.000 A 
ATOM      6  C6  BNZ d   1       2.575   0.851  -0.814  0.00  0.00     0.000 A 
ENDROOT
TORSDOF 0
ENDMDL
