MODEL 1
REMARK minimizedAffinity -1.59272861
REMARK minimizedRMSD -1
REMARK  0 active torsions:
REMARK  status: ('A' for Active; 'I' for Inactive)
ROOT
ATOM      1  C1  BNZ d   1       0.255  -0.176  -0.605  0.00  0.00     0.000 A 
ATOM      2  C2  BNZ d   1      -0.520  -0.999   0.168  0.00  0.00     0.000 A 
ATOM      3  C3  BNZ d   1      -1.035  -0.562   1.356  0.00  0.00     0.000 A 
ATOM      4  C4  BNZ d   1      -0.743   0.682   1.789  0.00  0.00     0.000 A 
ATOM      5  C5  BNZ d   1       0.045   1.520   1.025  0.00  0.00     0.000 A 
ATOM      6  C6  BNZ d   1       0.530   1.091  -0.189  0.00  0.00     0.000 A 
ENDROOT
TORSDOF 0
ENDMDL
