MODEL 1
REMARK minimizedAffinity -2.72985625
REMARK minimizedRMSD -1
REMARK  0 active torsions:
REMARK  status: ('A' for Active; 'I' for Inactive)
ROOT
ATOM      1  C1  BNZ d   1      -2.604   3.628  -5.624  0.00  0.00     0.000 A 
ATOM      2  C2  BNZ d   1      -2.885   2.288  -5.673  0.00  0.00     0.000 A 
ATOM      3  C3  BNZ d   1      -4.175   1.847  -5.760  0.00  0.00     0.000 A 
ATOM      4  C4  BNZ d   1      -5.184   2.742  -5.758  0.00  0.00     0.000 A 
ATOM      5  C5  BNZ d   1      -4.917   4.095  -5.700  0.00  0.00     0.000 A 
ATOM      6  C6  BNZ d   1      -3.615   4.538  -5.651  0.00  0.00     0.000 A 
ENDROOT
TORSDOF 0
ENDMDL
