MODEL 1
REMARK minimizedAffinity -4.67571974
REMARK minimizedRMSD -1
REMARK  0 active torsions:
REMARK  status: ('A' for Active; 'I' for Inactive)
ROOT
ATOM      1  C1  BNZ d   1      -0.222   0.907  -0.139  0.00  0.00     0.000 A 
ATOM      2  C2  BNZ d   1       0.525   1.560  -1.084  0.00  0.00     0.000 A 
ATOM      3  C3  BNZ d   1       1.017   0.894  -2.171  0.00  0.00     0.000 A 
ATOM      4  C4  BNZ d   1       0.798  -0.431  -2.291  0.00  0.00     0.000 A 
ATOM      5  C5  BNZ d   1       0.055  -1.106  -1.343  0.00  0.00     0.000 A 
ATOM      6  C6  BNZ d   1      -0.472  -0.424  -0.270  0.00  0.00     0.000 A 
ENDROOT
TORSDOF 0
ENDMDL
