MODEL 1
REMARK minimizedAffinity -3.88949418
REMARK minimizedRMSD -1
REMARK  0 active torsions:
REMARK  status: ('A' for Active; 'I' for Inactive)
ROOT
ATOM      1  C1  BNZ d   1       0.813  -1.028  -1.774  0.00  0.00     0.000 A 
ATOM      2  C2  BNZ d   1       0.147  -0.845  -0.592  0.00  0.00     0.000 A 
ATOM      3  C3  BNZ d   1       0.214   0.349   0.071  0.00  0.00     0.000 A 
ATOM      4  C4  BNZ d   1       0.979   1.342  -0.426  0.00  0.00     0.000 A 
ATOM      5  C5  BNZ d   1       1.664   1.169  -1.612  0.00  0.00     0.000 A 
ATOM      6  C6  BNZ d   1       1.563  -0.020  -2.297  0.00  0.00     0.000 A 
ENDROOT
TORSDOF 0
ENDMDL
