MODEL 1
REMARK minimizedAffinity -4.31685543
REMARK minimizedRMSD -1
REMARK  0 active torsions:
REMARK  status: ('A' for Active; 'I' for Inactive)
ROOT
ATOM      1  C1  BNZ d   1       1.017  -1.130  -2.015  0.00  0.00     0.000 A 
ATOM      2  C2  BNZ d   1       0.254  -0.679  -0.971  0.00  0.00     0.000 A 
ATOM      3  C3  BNZ d   1       0.552   0.498  -0.344  0.00  0.00     0.000 A 
ATOM      4  C4  BNZ d   1       1.634   1.202  -0.733  0.00  0.00     0.000 A 
ATOM      5  C5  BNZ d   1       2.419   0.756  -1.777  0.00  0.00     0.000 A 
ATOM      6  C6  BNZ d   1       2.094  -0.410  -2.432  0.00  0.00     0.000 A 
ENDROOT
TORSDOF 0
ENDMDL
