MODEL 1
REMARK minimizedAffinity -2.836725
REMARK minimizedRMSD -1
REMARK  1 active torsions:
REMARK  status: ('A' for Active; 'I' for Inactive)
REMARK    1  A    between atoms: C1_2  and  C2_3 
ROOT
ATOM      1  C2  UNL d   1       0.289  -0.065  -0.216  0.00  0.00    -0.077 A 
ATOM      2  C3  UNL d   1       0.437  -1.273   0.479  0.00  0.00     0.002 A 
ATOM      3  C4  UNL d   1       1.708  -1.799   0.721  0.00  0.00     0.002 A 
ATOM      4  C5  UNL d   1       2.840  -1.121   0.274  0.00  0.00    -0.004 A 
ATOM      5  C6  UNL d   1       2.704   0.080  -0.420  0.00  0.00     0.002 A 
ATOM      6  C7  UNL d   1       1.435   0.607  -0.663  0.00  0.00     0.002 A 
ENDROOT
BRANCH   1   7
ATOM      7  C1  UNL d   1      -1.078   0.528  -0.435  0.00  0.00     0.055 C 
ATOM      8  C   UNL d   1      -1.053   1.591  -1.524  0.00  0.00     0.019 C 
ENDBRANCH   1   7
TORSDOF 1
ENDMDL
