MODEL 1
REMARK minimizedAffinity -3.05052829
REMARK minimizedRMSD -1
REMARK  1 active torsions:
REMARK  status: ('A' for Active; 'I' for Inactive)
REMARK    1  A    between atoms: C1_2  and  C2_3 
ROOT
ATOM      1  C2  UNL d   1       0.122   0.583   0.034  0.00  0.00    -0.077 A 
ATOM      2  C3  UNL d   1      -0.155  -0.548   0.814  0.00  0.00     0.002 A 
ATOM      3  C4  UNL d   1       0.872  -1.414   1.195  0.00  0.00     0.002 A 
ATOM      4  C5  UNL d   1       2.184  -1.155   0.803  0.00  0.00    -0.004 A 
ATOM      5  C6  UNL d   1       2.470  -0.034   0.025  0.00  0.00     0.002 A 
ATOM      6  C7  UNL d   1       1.444   0.831  -0.357  0.00  0.00     0.002 A 
ENDROOT
BRANCH   1   7
ATOM      7  C1  UNL d   1      -0.977   1.544  -0.337  0.00  0.00     0.055 C 
ATOM      8  C   UNL d   1      -0.698   2.216  -1.673  0.00  0.00     0.019 C 
ENDBRANCH   1   7
TORSDOF 1
ENDMDL
