MODEL 1
REMARK minimizedAffinity -3.88690281
REMARK minimizedRMSD -1
REMARK  1 active torsions:
REMARK  status: ('A' for Active; 'I' for Inactive)
REMARK    1  A    between atoms: C1_2  and  C2_3 
ROOT
ATOM      1  C2  UNL d   1       1.120  -1.237   1.864  0.00  0.00    -0.077 A 
ATOM      2  C3  UNL d   1       0.400  -0.396   1.004  0.00  0.00     0.002 A 
ATOM      3  C4  UNL d   1       0.860  -0.151  -0.292  0.00  0.00     0.002 A 
ATOM      4  C5  UNL d   1       2.037  -0.746  -0.739  0.00  0.00    -0.004 A 
ATOM      5  C6  UNL d   1       2.762  -1.582   0.110  0.00  0.00     0.002 A 
ATOM      6  C7  UNL d   1       2.305  -1.827   1.406  0.00  0.00     0.002 A 
ENDROOT
BRANCH   1   7
ATOM      7  C1  UNL d   1       0.601  -1.542   3.245  0.00  0.00     0.055 C 
ATOM      8  C   UNL d   1      -0.791  -0.962   3.453  0.00  0.00     0.019 C 
ENDBRANCH   1   7
TORSDOF 1
ENDMDL
