MODEL 1
REMARK minimizedAffinity -2.53126597
REMARK minimizedRMSD -1
REMARK  1 active torsions:
REMARK  status: ('A' for Active; 'I' for Inactive)
REMARK    1  A    between atoms: C1_2  and  C2_3 
ROOT
ATOM      1  C2  UNL d   1       0.615   0.079   0.190  0.00  0.00    -0.077 A 
ATOM      2  C3  UNL d   1       1.281  -0.949   0.872  0.00  0.00     0.002 A 
ATOM      3  C4  UNL d   1       2.661  -1.111   0.732  0.00  0.00     0.002 A 
ATOM      4  C5  UNL d   1       3.386  -0.246  -0.085  0.00  0.00    -0.004 A 
ATOM      5  C6  UNL d   1       2.733   0.778  -0.769  0.00  0.00     0.002 A 
ATOM      6  C7  UNL d   1       1.354   0.941  -0.631  0.00  0.00     0.002 A 
ENDROOT
BRANCH   1   7
ATOM      7  C1  UNL d   1      -0.865   0.286   0.378  0.00  0.00     0.055 C 
ATOM      8  C   UNL d   1      -1.294  -0.044   1.800  0.00  0.00     0.019 C 
ENDBRANCH   1   7
TORSDOF 1
ENDMDL
