MODEL 1
REMARK minimizedAffinity -4.25173664
REMARK minimizedRMSD -1
REMARK  1 active torsions:
REMARK  status: ('A' for Active; 'I' for Inactive)
REMARK    1  A    between atoms: C1_2  and  C2_3 
ROOT
ATOM      1  C2  UNL d   1      -1.059   0.567  -0.654  0.00  0.00    -0.077 A 
ATOM      2  C3  UNL d   1      -2.224   0.237  -1.361  0.00  0.00     0.002 A 
ATOM      3  C4  UNL d   1      -2.783   1.143  -2.264  0.00  0.00     0.002 A 
ATOM      4  C5  UNL d   1      -2.183   2.383  -2.471  0.00  0.00    -0.004 A 
ATOM      5  C6  UNL d   1      -1.025   2.722  -1.772  0.00  0.00     0.002 A 
ATOM      6  C7  UNL d   1      -0.465   1.818  -0.868  0.00  0.00     0.002 A 
ENDROOT
BRANCH   1   7
ATOM      7  C1  UNL d   1      -0.427  -0.428   0.283  0.00  0.00     0.055 C 
ATOM      8  C   UNL d   1       1.030  -0.681  -0.078  0.00  0.00     0.019 C 
ENDBRANCH   1   7
TORSDOF 1
ENDMDL
