MODEL 1
REMARK minimizedAffinity -4.83743954
REMARK minimizedRMSD -1
REMARK  1 active torsions:
REMARK  status: ('A' for Active; 'I' for Inactive)
REMARK    1  A    between atoms: C1_2  and  C2_3 
ROOT
ATOM      1  C2  UNL d   1      -0.713   0.794  -0.863  0.00  0.00    -0.077 A 
ATOM      2  C3  UNL d   1      -1.454   0.094  -1.825  0.00  0.00     0.002 A 
ATOM      3  C4  UNL d   1      -2.286   0.779  -2.712  0.00  0.00     0.002 A 
ATOM      4  C5  UNL d   1      -2.383   2.167  -2.648  0.00  0.00    -0.004 A 
ATOM      5  C6  UNL d   1      -1.652   2.873  -1.693  0.00  0.00     0.002 A 
ATOM      6  C7  UNL d   1      -0.820   2.190  -0.805  0.00  0.00     0.002 A 
ENDROOT
BRANCH   1   7
ATOM      7  C1  UNL d   1       0.223   0.061   0.063  0.00  0.00     0.055 C 
ATOM      8  C   UNL d   1       1.352  -0.607  -0.708  0.00  0.00     0.019 C 
ENDBRANCH   1   7
TORSDOF 1
ENDMDL
