MODEL 1
REMARK minimizedAffinity -4.50105762
REMARK minimizedRMSD -1
REMARK  1 active torsions:
REMARK  status: ('A' for Active; 'I' for Inactive)
REMARK    1  A    between atoms: C1_2  and  C2_3 
ROOT
ATOM      1  C2  UNL d   1       2.806   0.253  -0.144  0.00  0.00    -0.077 A 
ATOM      2  C3  UNL d   1       3.108  -0.907   0.583  0.00  0.00     0.002 A 
ATOM      3  C4  UNL d   1       2.085  -1.681   1.135  0.00  0.00     0.002 A 
ATOM      4  C5  UNL d   1       0.754  -1.306   0.961  0.00  0.00    -0.004 A 
ATOM      5  C6  UNL d   1       0.444  -0.153   0.241  0.00  0.00     0.002 A 
ATOM      6  C7  UNL d   1       1.465   0.623  -0.310  0.00  0.00     0.002 A 
ENDROOT
BRANCH   1   7
ATOM      7  C1  UNL d   1       3.905   1.063  -0.781  0.00  0.00     0.055 C 
ATOM      8  C   UNL d   1       4.846   0.180  -1.587  0.00  0.00     0.019 C 
ENDBRANCH   1   7
TORSDOF 1
ENDMDL
