MODEL 1
REMARK minimizedAffinity -1.84820151
REMARK minimizedRMSD -1
REMARK  1 active torsions:
REMARK  status: ('A' for Active; 'I' for Inactive)
REMARK    1  A    between atoms: C1_2  and  C2_3 
ROOT
ATOM      1  C2  UNL d   1       0.508   0.219   0.039  0.00  0.00    -0.077 A 
ATOM      2  C3  UNL d   1       1.862  -0.141   0.009  0.00  0.00     0.002 A 
ATOM      3  C4  UNL d   1       2.376  -1.034   0.951  0.00  0.00     0.002 A 
ATOM      4  C5  UNL d   1       1.542  -1.577   1.927  0.00  0.00    -0.004 A 
ATOM      5  C6  UNL d   1       0.194  -1.223   1.966  0.00  0.00     0.002 A 
ATOM      6  C7  UNL d   1      -0.321  -0.330   1.026  0.00  0.00     0.002 A 
ENDROOT
BRANCH   1   7
ATOM      7  C1  UNL d   1      -0.060   1.144  -1.006  0.00  0.00     0.055 C 
ATOM      8  C   UNL d   1      -1.192   0.480  -1.777  0.00  0.00     0.019 C 
ENDBRANCH   1   7
TORSDOF 1
ENDMDL
