MODEL 1
REMARK minimizedAffinity -2.76404262
REMARK minimizedRMSD -1
REMARK  1 active torsions:
REMARK  status: ('A' for Active; 'I' for Inactive)
REMARK    1  A    between atoms: C1_2  and  C2_3 
ROOT
ATOM      1  C2  UNL d   1      -1.830   1.164  -0.910  0.00  0.00    -0.077 A 
ATOM      2  C3  UNL d   1      -3.026   0.497  -1.209  0.00  0.00     0.002 A 
ATOM      3  C4  UNL d   1      -3.664  -0.277  -0.238  0.00  0.00     0.002 A 
ATOM      4  C5  UNL d   1      -3.115  -0.389   1.038  0.00  0.00    -0.004 A 
ATOM      5  C6  UNL d   1      -1.925   0.269   1.344  0.00  0.00     0.002 A 
ATOM      6  C7  UNL d   1      -1.285   1.043   0.375  0.00  0.00     0.002 A 
ENDROOT
BRANCH   1   7
ATOM      7  C1  UNL d   1      -1.166   2.040  -1.941  0.00  0.00     0.055 C 
ATOM      8  C   UNL d   1      -1.989   2.110  -3.219  0.00  0.00     0.019 C 
ENDBRANCH   1   7
TORSDOF 1
ENDMDL
