MODEL 1
REMARK minimizedAffinity -5.18557358
REMARK minimizedRMSD -1
REMARK  1 active torsions:
REMARK  status: ('A' for Active; 'I' for Inactive)
REMARK    1  A    between atoms: C1_2  and  C2_3 
ROOT
ATOM      1  C2  UNL d   1       0.349   0.028   0.060  0.00  0.00    -0.076 A 
ATOM      2  C3  UNL d   1       1.620  -0.098  -0.525  0.00  0.00     0.004 A 
ATOM      3  C4  UNL d   1       2.550  -1.013  -0.032  0.00  0.00    -0.003 A 
ATOM      4  C5  UNL d   1       2.222  -1.816   1.054  0.00  0.00     0.000 A 
ATOM      5  C6  UNL d   1       0.959  -1.717   1.636  0.00  0.00     0.000 A 
ATOM      6  C7  UNL d   1       0.004  -0.812   1.141  0.00  0.00    -0.073 A 
ATOM      7  C8  UNL d   1      -1.341  -0.742   1.811  0.00  0.00     0.078 C 
ENDROOT
BRANCH   1   8
ATOM      8  C1  UNL d   1      -0.608   1.056  -0.501  0.00  0.00     0.053 C 
ATOM      9  C   UNL d   1      -1.347   0.554  -1.732  0.00  0.00     0.018 C 
ENDBRANCH   1   8
TORSDOF 1
ENDMDL
