MODEL 1
REMARK minimizedAffinity -1.9246558
REMARK minimizedRMSD -1
REMARK  1 active torsions:
REMARK  status: ('A' for Active; 'I' for Inactive)
REMARK    1  A    between atoms: C1_2  and  C2_3 
ROOT
ATOM      1  C2  UNL d   1       1.017  -0.873   1.270  0.00  0.00    -0.076 A 
ATOM      2  C3  UNL d   1       1.660  -0.049   0.330  0.00  0.00     0.004 A 
ATOM      3  C4  UNL d   1       0.932   0.827  -0.474  0.00  0.00    -0.003 A 
ATOM      4  C5  UNL d   1      -0.451   0.893  -0.350  0.00  0.00     0.000 A 
ATOM      5  C6  UNL d   1      -1.104   0.096   0.590  0.00  0.00     0.000 A 
ATOM      6  C7  UNL d   1      -0.384  -0.780   1.419  0.00  0.00    -0.073 A 
ATOM      7  C8  UNL d   1      -1.140  -1.621   2.411  0.00  0.00     0.078 C 
ENDROOT
BRANCH   1   8
ATOM      8  C1  UNL d   1       1.856  -1.822   2.095  0.00  0.00     0.053 C 
ATOM      9  C   UNL d   1       3.077  -1.146   2.699  0.00  0.00     0.018 C 
ENDBRANCH   1   8
TORSDOF 1
ENDMDL
