MODEL 1
REMARK minimizedAffinity -1.8749758
REMARK minimizedRMSD -1
REMARK  1 active torsions:
REMARK  status: ('A' for Active; 'I' for Inactive)
REMARK    1  A    between atoms: C1_2  and  C2_3 
ROOT
ATOM      1  C2  UNL d   1       0.271  -1.376   1.102  0.00  0.00    -0.076 A 
ATOM      2  C3  UNL d   1       1.403  -1.800   1.819  0.00  0.00     0.004 A 
ATOM      3  C4  UNL d   1       2.687  -1.609   1.312  0.00  0.00    -0.003 A 
ATOM      4  C5  UNL d   1       2.860  -0.988   0.080  0.00  0.00     0.000 A 
ATOM      5  C6  UNL d   1       1.749  -0.544  -0.637  0.00  0.00     0.000 A 
ATOM      6  C7  UNL d   1       0.449  -0.715  -0.133  0.00  0.00    -0.073 A 
ATOM      7  C8  UNL d   1      -0.714  -0.223  -0.951  0.00  0.00     0.078 C 
ENDROOT
BRANCH   1   8
ATOM      8  C1  UNL d   1      -1.098  -1.635   1.689  0.00  0.00     0.053 C 
ATOM      9  C   UNL d   1      -1.792  -0.358   2.137  0.00  0.00     0.018 C 
ENDBRANCH   1   8
TORSDOF 1
ENDMDL
