MODEL 1
REMARK minimizedAffinity -5.02245331
REMARK minimizedRMSD -1
REMARK  1 active torsions:
REMARK  status: ('A' for Active; 'I' for Inactive)
REMARK    1  A    between atoms: C1_2  and  C2_3 
ROOT
ATOM      1  C2  UNL d   1       0.279  -0.500  -0.155  0.00  0.00    -0.076 A 
ATOM      2  C3  UNL d   1      -0.351  -1.666   0.315  0.00  0.00     0.004 A 
ATOM      3  C4  UNL d   1       0.384  -2.684   0.919  0.00  0.00    -0.003 A 
ATOM      4  C5  UNL d   1       1.761  -2.553   1.064  0.00  0.00     0.000 A 
ATOM      5  C6  UNL d   1       2.399  -1.396   0.620  0.00  0.00     0.000 A 
ATOM      6  C7  UNL d   1       1.671  -0.353   0.023  0.00  0.00    -0.073 A 
ATOM      7  C8  UNL d   1       2.412   0.870  -0.443  0.00  0.00     0.078 C 
ENDROOT
BRANCH   1   8
ATOM      8  C1  UNL d   1      -0.566   0.559  -0.827  0.00  0.00     0.053 C 
ATOM      9  C   UNL d   1      -1.223   1.500   0.171  0.00  0.00     0.018 C 
ENDBRANCH   1   8
TORSDOF 1
ENDMDL
