MODEL 1
REMARK minimizedAffinity -3.85240054
REMARK minimizedRMSD -1
REMARK  1 active torsions:
REMARK  status: ('A' for Active; 'I' for Inactive)
REMARK    1  A    between atoms: C1_2  and  C2_3 
ROOT
ATOM      1  C2  UNL d   1       0.460   0.055   0.133  0.00  0.00    -0.076 A 
ATOM      2  C3  UNL d   1      -0.262  -1.044   0.630  0.00  0.00     0.004 A 
ATOM      3  C4  UNL d   1       0.385  -2.225   0.988  0.00  0.00    -0.003 A 
ATOM      4  C5  UNL d   1       1.765  -2.327   0.856  0.00  0.00     0.000 A 
ATOM      5  C6  UNL d   1       2.500  -1.241   0.382  0.00  0.00     0.000 A 
ATOM      6  C7  UNL d   1       1.865  -0.037   0.032  0.00  0.00    -0.073 A 
ATOM      7  C8  UNL d   1       2.706   1.100  -0.480  0.00  0.00     0.078 C 
ENDROOT
BRANCH   1   8
ATOM      8  C1  UNL d   1      -0.298   1.301  -0.264  0.00  0.00     0.053 C 
ATOM      9  C   UNL d   1      -1.318   1.037  -1.361  0.00  0.00     0.018 C 
ENDBRANCH   1   8
TORSDOF 1
ENDMDL
