MODEL 1
REMARK minimizedAffinity -3.68190074
REMARK minimizedRMSD -1
REMARK  1 active torsions:
REMARK  status: ('A' for Active; 'I' for Inactive)
REMARK    1  A    between atoms: C1_2  and  C2_3 
ROOT
ATOM      1  C2  UNL d   1      -0.356   0.311  -1.028  0.00  0.00    -0.076 A 
ATOM      2  C3  UNL d   1       0.711   0.011  -1.891  0.00  0.00     0.004 A 
ATOM      3  C4  UNL d   1       1.914  -0.492  -1.397  0.00  0.00    -0.003 A 
ATOM      4  C5  UNL d   1       2.068  -0.703  -0.031  0.00  0.00     0.000 A 
ATOM      5  C6  UNL d   1       1.013  -0.427   0.838  0.00  0.00     0.000 A 
ATOM      6  C7  UNL d   1      -0.212   0.065   0.354  0.00  0.00    -0.073 A 
ATOM      7  C8  UNL d   1      -1.314   0.351   1.337  0.00  0.00     0.078 C 
ENDROOT
BRANCH   1   8
ATOM      8  C1  UNL d   1      -1.627   0.879  -1.618  0.00  0.00     0.053 C 
ATOM      9  C   UNL d   1      -1.461   1.290  -3.073  0.00  0.00     0.018 C 
ENDBRANCH   1   8
TORSDOF 1
ENDMDL
