MODEL 1
REMARK minimizedAffinity -2.76327372
REMARK minimizedRMSD -1
REMARK  1 active torsions:
REMARK  status: ('A' for Active; 'I' for Inactive)
REMARK    1  A    between atoms: C1_2  and  C2_3 
ROOT
ATOM      1  C2  UNL d   1      -0.479   0.959  -0.358  0.00  0.00    -0.076 A 
ATOM      2  C3  UNL d   1       0.573   0.295  -1.013  0.00  0.00     0.004 A 
ATOM      3  C4  UNL d   1       1.234  -0.773  -0.408  0.00  0.00    -0.003 A 
ATOM      4  C5  UNL d   1       0.853  -1.196   0.860  0.00  0.00     0.000 A 
ATOM      5  C6  UNL d   1      -0.201  -0.561   1.517  0.00  0.00     0.000 A 
ATOM      6  C7  UNL d   1      -0.888   0.507   0.915  0.00  0.00    -0.073 A 
ATOM      7  C8  UNL d   1      -2.013   1.160   1.671  0.00  0.00     0.078 C 
ENDROOT
BRANCH   1   8
ATOM      8  C1  UNL d   1      -1.141   2.128  -1.052  0.00  0.00     0.053 C 
ATOM      9  C   UNL d   1      -2.196   1.689  -2.055  0.00  0.00     0.018 C 
ENDBRANCH   1   8
TORSDOF 1
ENDMDL
