MODEL 1
REMARK minimizedAffinity 1.0988822
REMARK minimizedRMSD -1
REMARK  1 active torsions:
REMARK  status: ('A' for Active; 'I' for Inactive)
REMARK    1  A    between atoms: C1_2  and  C2_3 
ROOT
ATOM      1  C2  UNL d   1       0.239  -0.387   0.928  0.00  0.00    -0.076 A 
ATOM      2  C3  UNL d   1      -0.458  -0.052   2.103  0.00  0.00     0.004 A 
ATOM      3  C4  UNL d   1      -1.806   0.298   2.062  0.00  0.00    -0.003 A 
ATOM      4  C5  UNL d   1      -2.481   0.318   0.846  0.00  0.00     0.000 A 
ATOM      5  C6  UNL d   1      -1.810  -0.028  -0.326  0.00  0.00     0.000 A 
ATOM      6  C7  UNL d   1      -0.455  -0.399  -0.301  0.00  0.00    -0.073 A 
ATOM      7  C8  UNL d   1       0.220  -0.758  -1.596  0.00  0.00     0.078 C 
ENDROOT
BRANCH   1   8
ATOM      8  C1  UNL d   1       1.707  -0.732   1.031  0.00  0.00     0.053 C 
ATOM      9  C   UNL d   1       1.955  -1.991   1.846  0.00  0.00     0.018 C 
ENDBRANCH   1   8
TORSDOF 1
ENDMDL
