MODEL 1
REMARK minimizedAffinity -2.31346726
REMARK minimizedRMSD -1
REMARK  1 active torsions:
REMARK  status: ('A' for Active; 'I' for Inactive)
REMARK    1  A    between atoms: C1_2  and  C2_3 
ROOT
ATOM      1  C2  UNL d   1       0.014   0.396  -0.269  0.00  0.00    -0.076 A 
ATOM      2  C3  UNL d   1       1.318   0.905  -0.148  0.00  0.00     0.004 A 
ATOM      3  C4  UNL d   1       2.410   0.053   0.007  0.00  0.00    -0.003 A 
ATOM      4  C5  UNL d   1       2.215  -1.324   0.044  0.00  0.00     0.000 A 
ATOM      5  C6  UNL d   1       0.929  -1.847  -0.092  0.00  0.00     0.000 A 
ATOM      6  C7  UNL d   1      -0.180  -1.002  -0.266  0.00  0.00    -0.073 A 
ATOM      7  C8  UNL d   1      -1.545  -1.620  -0.402  0.00  0.00     0.078 C 
ENDROOT
BRANCH   1   8
ATOM      8  C1  UNL d   1      -1.134   1.370  -0.408  0.00  0.00     0.053 C 
ATOM      9  C   UNL d   1      -1.429   1.720  -1.858  0.00  0.00     0.018 C 
ENDBRANCH   1   8
TORSDOF 1
ENDMDL
