MODEL 1
REMARK minimizedAffinity -2.73639202
REMARK minimizedRMSD -1
REMARK  1 active torsions:
REMARK  status: ('A' for Active; 'I' for Inactive)
REMARK    1  A    between atoms: C1_2  and  C2_3 
ROOT
ATOM      1  C2  UNL d   1      -0.811   0.947  -1.815  0.00  0.00    -0.076 A 
ATOM      2  C3  UNL d   1      -0.086   0.034  -2.599  0.00  0.00     0.004 A 
ATOM      3  C4  UNL d   1       0.721  -0.937  -2.009  0.00  0.00    -0.003 A 
ATOM      4  C5  UNL d   1       0.816  -1.010  -0.623  0.00  0.00     0.000 A 
ATOM      5  C6  UNL d   1       0.090  -0.123   0.171  0.00  0.00     0.000 A 
ATOM      6  C7  UNL d   1      -0.741   0.851  -0.408  0.00  0.00    -0.073 A 
ATOM      7  C8  UNL d   1      -1.497   1.785   0.496  0.00  0.00     0.078 C 
ENDROOT
BRANCH   1   8
ATOM      8  C1  UNL d   1      -1.649   1.995  -2.512  0.00  0.00     0.053 C 
ATOM      9  C   UNL d   1      -3.115   1.601  -2.606  0.00  0.00     0.018 C 
ENDBRANCH   1   8
TORSDOF 1
ENDMDL
