MODEL 1
REMARK minimizedAffinity -2.15922689
REMARK minimizedRMSD -1
REMARK  1 active torsions:
REMARK  status: ('A' for Active; 'I' for Inactive)
REMARK    1  A    between atoms: C1_2  and  C2_3 
ROOT
ATOM      1  C2  UNL d   1      -0.116   0.394  -0.337  0.00  0.00    -0.076 A 
ATOM      2  C3  UNL d   1       1.016   0.392  -1.171  0.00  0.00     0.004 A 
ATOM      3  C4  UNL d   1       1.979  -0.611  -1.071  0.00  0.00    -0.003 A 
ATOM      4  C5  UNL d   1       1.825  -1.629  -0.137  0.00  0.00     0.000 A 
ATOM      5  C6  UNL d   1       0.699  -1.653   0.686  0.00  0.00     0.000 A 
ATOM      6  C7  UNL d   1      -0.289  -0.658   0.587  0.00  0.00    -0.073 A 
ATOM      7  C8  UNL d   1      -1.480  -0.730   1.503  0.00  0.00     0.078 C 
ENDROOT
BRANCH   1   8
ATOM      8  C1  UNL d   1      -1.113   1.522  -0.473  0.00  0.00     0.053 C 
ATOM      9  C   UNL d   1      -1.536   1.757  -1.915  0.00  0.00     0.018 C 
ENDBRANCH   1   8
TORSDOF 1
ENDMDL
