MODEL 1
REMARK minimizedAffinity -1.46148622
REMARK minimizedRMSD -1
REMARK  1 active torsions:
REMARK  status: ('A' for Active; 'I' for Inactive)
REMARK    1  A    between atoms: C1_2  and  C2_3 
ROOT
ATOM      1  C2  UNL d   1       2.434  -0.458   0.343  0.00  0.00    -0.076 A 
ATOM      2  C3  UNL d   1       2.104   0.747  -0.302  0.00  0.00     0.004 A 
ATOM      3  C4  UNL d   1       0.803   0.996  -0.734  0.00  0.00    -0.003 A 
ATOM      4  C5  UNL d   1      -0.190   0.045  -0.528  0.00  0.00     0.000 A 
ATOM      5  C6  UNL d   1       0.115  -1.148   0.125  0.00  0.00     0.000 A 
ATOM      6  C7  UNL d   1       1.418  -1.409   0.582  0.00  0.00    -0.073 A 
ATOM      7  C8  UNL d   1       1.693  -2.715   1.276  0.00  0.00     0.078 C 
ENDROOT
BRANCH   1   8
ATOM      8  C1  UNL d   1       3.868  -0.684   0.766  0.00  0.00     0.053 C 
ATOM      9  C   UNL d   1       4.147  -0.180   2.173  0.00  0.00     0.018 C 
ENDBRANCH   1   8
TORSDOF 1
ENDMDL
