MODEL 1
REMARK minimizedAffinity 3.40679359
REMARK minimizedRMSD -1
REMARK  0 active torsions:
REMARK  status: ('A' for Active; 'I' for Inactive)
ROOT
ATOM      1  C2' OXE d   1       0.975  -5.460   5.993  0.00  0.00     0.078 C 
ATOM      2  C1' OXE d   1      -0.653  -4.718   3.830  0.00  0.00     0.078 C 
ATOM      3  C1  OXE d   1       0.289  -3.681   4.390  0.00  0.00    -0.078 A 
ATOM      4  C2  OXE d   1       1.048  -4.038   5.478  0.00  0.00    -0.078 A 
ATOM      5  C3  OXE d   1       1.973  -3.138   5.999  0.00  0.00     0.003 A 
ATOM      6  C4  OXE d   1       2.027  -1.822   5.523  0.00  0.00    -0.002 A 
ATOM      7  C5  OXE d   1       1.234  -1.426   4.441  0.00  0.00    -0.002 A 
ATOM      8  C6  OXE d   1       0.392  -2.353   3.837  0.00  0.00     0.003 A 
ENDROOT
TORSDOF 0
ENDMDL
