MODEL 1
REMARK minimizedAffinity -1.35786974
REMARK minimizedRMSD -1
REMARK  0 active torsions:
REMARK  status: ('A' for Active; 'I' for Inactive)
ROOT
ATOM      1  C2' OXE d   1       3.226   1.730   6.000  0.00  0.00     0.078 C 
ATOM      2  C1' OXE d   1       5.427   3.421   5.580  0.00  0.00     0.078 C 
ATOM      3  C1  OXE d   1       4.063   4.055   5.684  0.00  0.00    -0.078 A 
ATOM      4  C2  OXE d   1       2.986   3.217   5.843  0.00  0.00    -0.078 A 
ATOM      5  C3  OXE d   1       1.711   3.753   6.000  0.00  0.00     0.003 A 
ATOM      6  C4  OXE d   1       1.497   5.128   5.844  0.00  0.00    -0.002 A 
ATOM      7  C5  OXE d   1       2.575   5.996   5.642  0.00  0.00    -0.002 A 
ATOM      8  C6  OXE d   1       3.866   5.482   5.602  0.00  0.00     0.003 A 
ENDROOT
TORSDOF 0
ENDMDL
