MODEL 1
REMARK minimizedAffinity 4.92254782
REMARK minimizedRMSD -1
REMARK  0 active torsions:
REMARK  status: ('A' for Active; 'I' for Inactive)
ROOT
ATOM      1  C2' OXE d   1      -3.750   2.223   2.879  0.00  0.00     0.078 C 
ATOM      2  C1' OXE d   1      -2.987   4.498   1.421  0.00  0.00     0.078 C 
ATOM      3  C1  OXE d   1      -4.060   3.615   0.836  0.00  0.00    -0.078 A 
ATOM      4  C2  OXE d   1      -4.394   2.479   1.533  0.00  0.00    -0.078 A 
ATOM      5  C3  OXE d   1      -5.416   1.658   1.065  0.00  0.00     0.003 A 
ATOM      6  C4  OXE d   1      -6.000   1.895  -0.185  0.00  0.00    -0.002 A 
ATOM      7  C5  OXE d   1      -5.646   3.025  -0.931  0.00  0.00    -0.002 A 
ATOM      8  C6  OXE d   1      -4.710   3.916  -0.416  0.00  0.00     0.003 A 
ENDROOT
TORSDOF 0
ENDMDL
