MODEL 1
REMARK minimizedAffinity 8.01702976
REMARK minimizedRMSD -1
REMARK  0 active torsions:
REMARK  status: ('A' for Active; 'I' for Inactive)
ROOT
ATOM      1  C2' OXE d   1       5.168   5.376   5.669  0.00  0.00     0.078 C 
ATOM      2  C1' OXE d   1       2.512   4.529   5.999  0.00  0.00     0.078 C 
ATOM      3  C1  OXE d   1       3.563   3.474   5.759  0.00  0.00    -0.078 A 
ATOM      4  C2  OXE d   1       4.852   3.900   5.552  0.00  0.00    -0.078 A 
ATOM      5  C3  OXE d   1       5.869   2.965   5.381  0.00  0.00     0.003 A 
ATOM      6  C4  OXE d   1       5.566   1.603   5.264  0.00  0.00    -0.002 A 
ATOM      7  C5  OXE d   1       4.253   1.150   5.432  0.00  0.00    -0.002 A 
ATOM      8  C6  OXE d   1       3.248   2.067   5.722  0.00  0.00     0.003 A 
ENDROOT
TORSDOF 0
ENDMDL
