MODEL 1
REMARK minimizedAffinity -3.17302918
REMARK minimizedRMSD -1
REMARK  0 active torsions:
REMARK  status: ('A' for Active; 'I' for Inactive)
ROOT
ATOM      1  C2' OXE d   1       4.144   1.574   5.772  0.00  0.00     0.078 C 
ATOM      2  C1' OXE d   1       5.952   3.721   5.735  0.00  0.00     0.078 C 
ATOM      3  C1  OXE d   1       4.482   4.041   5.846  0.00  0.00    -0.078 A 
ATOM      4  C2  OXE d   1       3.602   2.986   5.816  0.00  0.00    -0.078 A 
ATOM      5  C3  OXE d   1       2.238   3.221   5.969  0.00  0.00     0.003 A 
ATOM      6  C4  OXE d   1       1.744   4.531   5.999  0.00  0.00    -0.002 A 
ATOM      7  C5  OXE d   1       2.621   5.621   5.990  0.00  0.00    -0.002 A 
ATOM      8  C6  OXE d   1       3.992   5.392   5.957  0.00  0.00     0.003 A 
ENDROOT
TORSDOF 0
ENDMDL
