MODEL 1
REMARK minimizedAffinity 11.2372265
REMARK minimizedRMSD -1
REMARK  0 active torsions:
REMARK  status: ('A' for Active; 'I' for Inactive)
ROOT
ATOM      1  C2' OXE d   1       5.255   5.962   4.983  0.00  0.00     0.078 C 
ATOM      2  C1' OXE d   1       3.112   4.460   5.999  0.00  0.00     0.078 C 
ATOM      3  C1  OXE d   1       3.963   3.833   4.924  0.00  0.00    -0.078 A 
ATOM      4  C2  OXE d   1       4.981   4.592   4.399  0.00  0.00    -0.078 A 
ATOM      5  C3  OXE d   1       5.830   4.042   3.443  0.00  0.00     0.003 A 
ATOM      6  C4  OXE d   1       5.563   2.779   2.902  0.00  0.00    -0.002 A 
ATOM      7  C5  OXE d   1       4.508   2.004   3.394  0.00  0.00    -0.002 A 
ATOM      8  C6  OXE d   1       3.726   2.498   4.432  0.00  0.00     0.003 A 
ENDROOT
TORSDOF 0
ENDMDL
