MODEL 1
REMARK minimizedAffinity -0.390282899
REMARK minimizedRMSD -1
REMARK  0 active torsions:
REMARK  status: ('A' for Active; 'I' for Inactive)
ROOT
ATOM      1  C2' OXE d   1       5.940   2.168   4.920  0.00  0.00     0.078 C 
ATOM      2  C1' OXE d   1       3.766   0.757   6.000  0.00  0.00     0.078 C 
ATOM      3  C1  OXE d   1       3.588   2.231   5.739  0.00  0.00    -0.078 A 
ATOM      4  C2  OXE d   1       4.672   2.923   5.255  0.00  0.00    -0.078 A 
ATOM      5  C3  OXE d   1       4.545   4.275   4.945  0.00  0.00     0.003 A 
ATOM      6  C4  OXE d   1       3.372   4.968   5.267  0.00  0.00    -0.002 A 
ATOM      7  C5  OXE d   1       2.269   4.290   5.798  0.00  0.00    -0.002 A 
ATOM      8  C6  OXE d   1       2.346   2.917   6.000  0.00  0.00     0.003 A 
ENDROOT
TORSDOF 0
ENDMDL
