MODEL 1
REMARK minimizedAffinity 6.13404512
REMARK minimizedRMSD -1
REMARK  0 active torsions:
REMARK  status: ('A' for Active; 'I' for Inactive)
ROOT
ATOM      1  C2' OXE d   1       2.826   1.511   5.999  0.00  0.00     0.078 C 
ATOM      2  C1' OXE d   1       2.427   4.290   5.999  0.00  0.00     0.078 C 
ATOM      3  C1  OXE d   1       3.479   3.730   5.075  0.00  0.00    -0.078 A 
ATOM      4  C2  OXE d   1       3.700   2.374   5.115  0.00  0.00    -0.078 A 
ATOM      5  C3  OXE d   1       4.621   1.800   4.244  0.00  0.00     0.003 A 
ATOM      6  C4  OXE d   1       5.432   2.606   3.437  0.00  0.00    -0.002 A 
ATOM      7  C5  OXE d   1       5.251   3.993   3.409  0.00  0.00    -0.002 A 
ATOM      8  C6  OXE d   1       4.252   4.565   4.189  0.00  0.00     0.003 A 
ENDROOT
TORSDOF 0
ENDMDL
