MODEL 1
REMARK minimizedAffinity 4.79889345
REMARK minimizedRMSD -1
REMARK  0 active torsions:
REMARK  status: ('A' for Active; 'I' for Inactive)
ROOT
ATOM      1  C2' OXE d   1       1.892   5.246   5.571  0.00  0.00     0.078 C 
ATOM      2  C1' OXE d   1       4.215   5.834   4.110  0.00  0.00     0.078 C 
ATOM      3  C1  OXE d   1       4.094   4.458   4.713  0.00  0.00    -0.078 A 
ATOM      4  C2  OXE d   1       2.974   4.194   5.466  0.00  0.00    -0.078 A 
ATOM      5  C3  OXE d   1       2.787   2.922   6.000  0.00  0.00     0.003 A 
ATOM      6  C4  OXE d   1       3.797   1.958   5.907  0.00  0.00    -0.002 A 
ATOM      7  C5  OXE d   1       4.963   2.219   5.178  0.00  0.00    -0.002 A 
ATOM      8  C6  OXE d   1       5.107   3.447   4.541  0.00  0.00     0.003 A 
ENDROOT
TORSDOF 0
ENDMDL
