MODEL 1
REMARK minimizedAffinity 10.5341644
REMARK minimizedRMSD -1
REMARK  0 active torsions:
REMARK  status: ('A' for Active; 'I' for Inactive)
ROOT
ATOM      1  N1  IND d   1       3.790  -3.194   0.282  0.00  0.00    -0.196 N 
ATOM      2  C2  IND d   1       3.967  -4.450  -0.229  0.00  0.00     0.054 A 
ATOM      3  C3  IND d   1       3.401  -4.543  -1.453  0.00  0.00    -0.031 A 
ATOM      4  C4  IND d   1       2.222  -2.732  -2.852  0.00  0.00     0.051 A 
ATOM      5  C5  IND d   1       1.786  -1.438  -2.792  0.00  0.00    -0.031 A 
ATOM      6  C6  IND d   1       2.002  -0.646  -1.682  0.00  0.00     0.015 A 
ATOM      7  C7  IND d   1       2.676  -1.118  -0.591  0.00  0.00    -0.016 A 
ATOM      8  C8  IND d   1       3.114  -2.434  -0.646  0.00  0.00    -0.047 A 
ATOM      9  C9  IND d   1       2.860  -3.255  -1.752  0.00  0.00    -0.096 A 
ATOM     10  HN1 IND d   1       4.056  -2.925   1.054  0.00  0.00     0.298 HD
ENDROOT
TORSDOF 0
ENDMDL
