MODEL 1
REMARK minimizedAffinity -1.38148177
REMARK minimizedRMSD -1
REMARK  0 active torsions:
REMARK  status: ('A' for Active; 'I' for Inactive)
ROOT
ATOM      1  N1  IND d   1      -4.217  -6.000   1.970  0.00  0.00    -0.196 N 
ATOM      2  C2  IND d   1      -4.536  -5.774   0.660  0.00  0.00     0.054 A 
ATOM      3  C3  IND d   1      -5.277  -4.649   0.544  0.00  0.00    -0.031 A 
ATOM      4  C4  IND d   1      -5.999  -2.971   2.358  0.00  0.00     0.051 A 
ATOM      5  C5  IND d   1      -5.977  -2.771   3.710  0.00  0.00    -0.031 A 
ATOM      6  C6  IND d   1      -5.352  -3.653   4.568  0.00  0.00     0.015 A 
ATOM      7  C7  IND d   1      -4.713  -4.767   4.102  0.00  0.00    -0.016 A 
ATOM      8  C8  IND d   1      -4.740  -4.978   2.731  0.00  0.00    -0.047 A 
ATOM      9  C9  IND d   1      -5.409  -4.109   1.860  0.00  0.00    -0.096 A 
ATOM     10  HN1 IND d   1      -3.766  -6.668   2.268  0.00  0.00     0.298 HD
ENDROOT
TORSDOF 0
ENDMDL
