MODEL 1
REMARK minimizedAffinity 15.5446939
REMARK minimizedRMSD -1
REMARK  0 active torsions:
REMARK  status: ('A' for Active; 'I' for Inactive)
ROOT
ATOM      1  N1  IND d   1       2.925  -2.162  -0.287  0.00  0.00    -0.196 N 
ATOM      2  C2  IND d   1       2.258  -3.139  -0.974  0.00  0.00     0.054 A 
ATOM      3  C3  IND d   1       1.594  -2.606  -2.023  0.00  0.00    -0.031 A 
ATOM      4  C4  IND d   1       1.541  -0.172  -2.861  0.00  0.00     0.051 A 
ATOM      5  C5  IND d   1       1.965   1.087  -2.540  0.00  0.00    -0.031 A 
ATOM      6  C6  IND d   1       2.749   1.332  -1.431  0.00  0.00     0.015 A 
ATOM      7  C7  IND d   1       3.149   0.320  -0.604  0.00  0.00    -0.016 A 
ATOM      8  C8  IND d   1       2.714  -0.958  -0.923  0.00  0.00    -0.047 A 
ATOM      9  C9  IND d   1       1.884  -1.207  -2.023  0.00  0.00    -0.096 A 
ATOM     10  HN1 IND d   1       3.396  -2.280   0.422  0.00  0.00     0.298 HD
ENDROOT
TORSDOF 0
ENDMDL
