MODEL 1
REMARK minimizedAffinity 14.4303656
REMARK minimizedRMSD -1
REMARK  0 active torsions:
REMARK  status: ('A' for Active; 'I' for Inactive)
ROOT
ATOM      1  N1  IND d   1       4.355  -3.416   0.210  0.00  0.00    -0.196 N 
ATOM      2  C2  IND d   1       4.641  -4.694  -0.183  0.00  0.00     0.054 A 
ATOM      3  C3  IND d   1       3.828  -5.068  -1.197  0.00  0.00    -0.031 A 
ATOM      4  C4  IND d   1       2.026  -3.708  -2.434  0.00  0.00     0.051 A 
ATOM      5  C5  IND d   1       1.379  -2.505  -2.410  0.00  0.00    -0.031 A 
ATOM      6  C6  IND d   1       1.698  -1.523  -1.494  0.00  0.00     0.015 A 
ATOM      7  C7  IND d   1       2.690  -1.705  -0.572  0.00  0.00    -0.016 A 
ATOM      8  C8  IND d   1       3.345  -2.928  -0.589  0.00  0.00    -0.047 A 
ATOM      9  C9  IND d   1       2.996  -3.944  -1.488  0.00  0.00    -0.096 A 
ATOM     10  HN1 IND d   1       4.741  -2.990   0.849  0.00  0.00     0.298 HD
ENDROOT
TORSDOF 0
ENDMDL
