MODEL 1
REMARK minimizedAffinity 2.31149864
REMARK minimizedRMSD -1
REMARK  0 active torsions:
REMARK  status: ('A' for Active; 'I' for Inactive)
ROOT
ATOM      1  N1  IND d   1       3.142  -2.968  -0.248  0.00  0.00    -0.196 N 
ATOM      2  C2  IND d   1       4.101  -3.655   0.443  0.00  0.00     0.054 A 
ATOM      3  C3  IND d   1       4.772  -4.487  -0.385  0.00  0.00    -0.031 A 
ATOM      4  C4  IND d   1       4.530  -4.810  -2.928  0.00  0.00     0.051 A 
ATOM      5  C5  IND d   1       3.764  -4.431  -3.994  0.00  0.00    -0.031 A 
ATOM      6  C6  IND d   1       2.732  -3.524  -3.864  0.00  0.00     0.015 A 
ATOM      7  C7  IND d   1       2.434  -2.952  -2.659  0.00  0.00    -0.016 A 
ATOM      8  C8  IND d   1       3.206  -3.340  -1.573  0.00  0.00    -0.047 A 
ATOM      9  C9  IND d   1       4.227  -4.292  -1.691  0.00  0.00    -0.096 A 
ATOM     10  HN1 IND d   1       2.591  -2.400   0.088  0.00  0.00     0.298 HD
ENDROOT
TORSDOF 0
ENDMDL
