MODEL 1
REMARK minimizedAffinity 1.54993463
REMARK minimizedRMSD -1
REMARK  0 active torsions:
REMARK  status: ('A' for Active; 'I' for Inactive)
ROOT
ATOM      1  N1  IND d   1       3.006  -3.937   0.111  0.00  0.00    -0.196 N 
ATOM      2  C2  IND d   1       4.197  -4.505   0.469  0.00  0.00     0.054 A 
ATOM      3  C3  IND d   1       4.860  -4.938  -0.627  0.00  0.00    -0.031 A 
ATOM      4  C4  IND d   1       4.225  -4.727  -3.112  0.00  0.00     0.051 A 
ATOM      5  C5  IND d   1       3.214  -4.316  -3.935  0.00  0.00    -0.031 A 
ATOM      6  C6  IND d   1       2.059  -3.743  -3.441  0.00  0.00     0.015 A 
ATOM      7  C7  IND d   1       1.878  -3.549  -2.101  0.00  0.00    -0.016 A 
ATOM      8  C8  IND d   1       2.899  -3.972  -1.262  0.00  0.00    -0.047 A 
ATOM      9  C9  IND d   1       4.055  -4.593  -1.755  0.00  0.00    -0.096 A 
ATOM     10  HN1 IND d   1       2.422  -3.612   0.652  0.00  0.00     0.298 HD
ENDROOT
TORSDOF 0
ENDMDL
