MODEL 1
REMARK minimizedAffinity 9.60136414
REMARK minimizedRMSD -1
REMARK  0 active torsions:
REMARK  status: ('A' for Active; 'I' for Inactive)
ROOT
ATOM      1  N1  IND d   1       1.838   2.106  -1.795  0.00  0.00    -0.196 N 
ATOM      2  C2  IND d   1       2.181   2.442  -0.514  0.00  0.00     0.054 A 
ATOM      3  C3  IND d   1       2.349   1.330   0.235  0.00  0.00    -0.031 A 
ATOM      4  C4  IND d   1       2.212  -1.146  -0.459  0.00  0.00     0.051 A 
ATOM      5  C5  IND d   1       1.894  -1.953  -1.515  0.00  0.00    -0.031 A 
ATOM      6  C6  IND d   1       1.536  -1.437  -2.744  0.00  0.00     0.015 A 
ATOM      7  C7  IND d   1       1.494  -0.090  -2.967  0.00  0.00    -0.016 A 
ATOM      8  C8  IND d   1       1.810   0.732  -1.894  0.00  0.00    -0.047 A 
ATOM      9  C9  IND d   1       2.133   0.216  -0.633  0.00  0.00    -0.096 A 
ATOM     10  HN1 IND d   1       1.669   2.659  -2.430  0.00  0.00     0.298 HD
ENDROOT
TORSDOF 0
ENDMDL
