MODEL 1
REMARK minimizedAffinity 23.9838428
REMARK minimizedRMSD -1
REMARK  0 active torsions:
REMARK  status: ('A' for Active; 'I' for Inactive)
ROOT
ATOM      1  N1  IND d   1      -2.289   0.726   2.003  0.00  0.00    -0.196 N 
ATOM      2  C2  IND d   1      -3.349   1.329   2.620  0.00  0.00     0.054 A 
ATOM      3  C3  IND d   1      -2.929   2.042   3.688  0.00  0.00    -0.031 A 
ATOM      4  C4  IND d   1      -0.536   2.442   4.549  0.00  0.00     0.051 A 
ATOM      5  C5  IND d   1       0.762   2.070   4.336  0.00  0.00    -0.031 A 
ATOM      6  C6  IND d   1       1.116   1.216   3.312  0.00  0.00     0.015 A 
ATOM      7  C7  IND d   1       0.184   0.708   2.452  0.00  0.00    -0.016 A 
ATOM      8  C8  IND d   1      -1.136   1.079   2.670  0.00  0.00    -0.047 A 
ATOM      9  C9  IND d   1      -1.507   1.912   3.733  0.00  0.00    -0.096 A 
ATOM     10  HN1 IND d   1      -2.334   0.213   1.314  0.00  0.00     0.298 HD
ENDROOT
TORSDOF 0
ENDMDL
