MODEL 1
REMARK minimizedAffinity 1.94812214
REMARK minimizedRMSD -1
REMARK  0 active torsions:
REMARK  status: ('A' for Active; 'I' for Inactive)
ROOT
ATOM      1  N1  IND d   1       3.999  -2.500   0.205  0.00  0.00    -0.196 N 
ATOM      2  C2  IND d   1       3.294  -1.352  -0.029  0.00  0.00     0.054 A 
ATOM      3  C3  IND d   1       2.605  -1.452  -1.188  0.00  0.00    -0.031 A 
ATOM      4  C4  IND d   1       2.407  -3.443  -2.807  0.00  0.00     0.051 A 
ATOM      5  C5  IND d   1       2.898  -4.698  -3.036  0.00  0.00    -0.031 A 
ATOM      6  C6  IND d   1       3.796  -5.298  -2.177  0.00  0.00     0.015 A 
ATOM      7  C7  IND d   1       4.231  -4.666  -1.046  0.00  0.00    -0.016 A 
ATOM      8  C8  IND d   1       3.741  -3.389  -0.815  0.00  0.00    -0.047 A 
ATOM      9  C9  IND d   1       2.861  -2.759  -1.705  0.00  0.00    -0.096 A 
ATOM     10  HN1 IND d   1       4.517  -2.642   0.877  0.00  0.00     0.298 HD
ENDROOT
TORSDOF 0
ENDMDL
