MODEL 1
REMARK minimizedAffinity 10.3131046
REMARK minimizedRMSD -1
REMARK  0 active torsions:
REMARK  status: ('A' for Active; 'I' for Inactive)
ROOT
ATOM      1  N1  IND d   1       1.538   0.114  -3.764  0.00  0.00    -0.196 N 
ATOM      2  C2  IND d   1       1.534   1.254  -3.010  0.00  0.00     0.054 A 
ATOM      3  C3  IND d   1       1.892   0.977  -1.736  0.00  0.00    -0.031 A 
ATOM      4  C4  IND d   1       2.624  -1.259  -0.693  0.00  0.00     0.051 A 
ATOM      5  C5  IND d   1       2.751  -2.590  -0.977  0.00  0.00    -0.031 A 
ATOM      6  C6  IND d   1       2.477  -3.097  -2.231  0.00  0.00     0.015 A 
ATOM      7  C7  IND d   1       2.076  -2.287  -3.255  0.00  0.00    -0.016 A 
ATOM      8  C8  IND d   1       1.938  -0.936  -2.968  0.00  0.00    -0.047 A 
ATOM      9  C9  IND d   1       2.174  -0.422  -1.686  0.00  0.00    -0.096 A 
ATOM     10  HN1 IND d   1       1.326   0.062  -4.596  0.00  0.00     0.298 HD
ENDROOT
TORSDOF 0
ENDMDL
