MODEL 1
REMARK minimizedAffinity 14.9056778
REMARK minimizedRMSD -1
REMARK  0 active torsions:
REMARK  status: ('A' for Active; 'I' for Inactive)
ROOT
ATOM      1  N1  IND d   1       4.841  -4.148  -0.349  0.00  0.00    -0.196 N 
ATOM      2  C2  IND d   1       5.985  -4.895  -0.405  0.00  0.00     0.054 A 
ATOM      3  C3  IND d   1       5.945  -5.741  -1.458  0.00  0.00    -0.031 A 
ATOM      4  C4  IND d   1       4.144  -5.998  -3.281  0.00  0.00     0.051 A 
ATOM      5  C5  IND d   1       2.899  -5.559  -3.634  0.00  0.00    -0.031 A 
ATOM      6  C6  IND d   1       2.225  -4.606  -2.898  0.00  0.00     0.015 A 
ATOM      7  C7  IND d   1       2.779  -4.046  -1.781  0.00  0.00    -0.016 A 
ATOM      8  C8  IND d   1       4.040  -4.494  -1.415  0.00  0.00    -0.047 A 
ATOM      9  C9  IND d   1       4.711  -5.492  -2.135  0.00  0.00    -0.096 A 
ATOM     10  HN1 IND d   1       4.654  -3.561   0.250  0.00  0.00     0.298 HD
ENDROOT
TORSDOF 0
ENDMDL
