MODEL 1
REMARK minimizedAffinity 10.6115932
REMARK minimizedRMSD -1
REMARK  0 active torsions:
REMARK  status: ('A' for Active; 'I' for Inactive)
ROOT
ATOM      1  N1  IND d   1       0.233   0.407   3.899  0.00  0.00    -0.196 N 
ATOM      2  C2  IND d   1       0.386   1.289   4.932  0.00  0.00     0.054 A 
ATOM      3  C3  IND d   1      -0.764   1.966   5.146  0.00  0.00    -0.031 A 
ATOM      4  C4  IND d   1      -3.049   1.717   3.987  0.00  0.00     0.051 A 
ATOM      5  C5  IND d   1      -3.670   1.067   2.958  0.00  0.00    -0.031 A 
ATOM      6  C6  IND d   1      -3.008   0.143   2.175  0.00  0.00     0.015 A 
ATOM      7  C7  IND d   1      -1.699  -0.175   2.401  0.00  0.00    -0.016 A 
ATOM      8  C8  IND d   1      -1.064   0.488   3.441  0.00  0.00    -0.047 A 
ATOM      9  C9  IND d   1      -1.718   1.459   4.212  0.00  0.00    -0.096 A 
ATOM     10  HN1 IND d   1       0.844  -0.111   3.587  0.00  0.00     0.298 HD
ENDROOT
TORSDOF 0
ENDMDL
