MODEL 1
REMARK minimizedAffinity 8.8988142
REMARK minimizedRMSD -1
REMARK  0 active torsions:
REMARK  status: ('A' for Active; 'I' for Inactive)
ROOT
ATOM      1  N1  IND d   1      -3.324   1.701   3.418  0.00  0.00    -0.196 N 
ATOM      2  C2  IND d   1      -3.087   2.014   4.727  0.00  0.00     0.054 A 
ATOM      3  C3  IND d   1      -3.261   0.925   5.510  0.00  0.00    -0.031 A 
ATOM      4  C4  IND d   1      -3.833  -1.494   4.842  0.00  0.00     0.051 A 
ATOM      5  C5  IND d   1      -4.177  -2.261   3.764  0.00  0.00    -0.031 A 
ATOM      6  C6  IND d   1      -4.253  -1.737   2.490  0.00  0.00     0.015 A 
ATOM      7  C7  IND d   1      -3.975  -0.422   2.243  0.00  0.00    -0.016 A 
ATOM      8  C8  IND d   1      -3.633   0.361   3.336  0.00  0.00    -0.047 A 
ATOM      9  C9  IND d   1      -3.596  -0.155   4.637  0.00  0.00    -0.096 A 
ATOM     10  HN1 IND d   1      -3.286   2.250   2.756  0.00  0.00     0.298 HD
ENDROOT
TORSDOF 0
ENDMDL
