MODEL 1
REMARK minimizedAffinity 9.18666077
REMARK minimizedRMSD -1
REMARK  0 active torsions:
REMARK  status: ('A' for Active; 'I' for Inactive)
ROOT
ATOM      1  N1  IND d   1       5.472  -4.897  -2.903  0.00  0.00    -0.196 N 
ATOM      2  C2  IND d   1       5.994  -4.621  -4.136  0.00  0.00     0.054 A 
ATOM      3  C3  IND d   1       5.044  -4.099  -4.943  0.00  0.00    -0.031 A 
ATOM      4  C4  IND d   1       2.592  -3.516  -4.419  0.00  0.00     0.051 A 
ATOM      5  C5  IND d   1       1.646  -3.620  -3.438  0.00  0.00    -0.031 A 
ATOM      6  C6  IND d   1       1.934  -4.163  -2.202  0.00  0.00     0.015 A 
ATOM      7  C7  IND d   1       3.187  -4.615  -1.897  0.00  0.00    -0.016 A 
ATOM      8  C8  IND d   1       4.148  -4.517  -2.893  0.00  0.00    -0.047 A 
ATOM      9  C9  IND d   1       3.851  -4.006  -4.163  0.00  0.00    -0.096 A 
ATOM     10  HN1 IND d   1       5.899  -5.249  -2.245  0.00  0.00     0.298 HD
ENDROOT
TORSDOF 0
ENDMDL
