MODEL 1
REMARK minimizedAffinity 15.4758415
REMARK minimizedRMSD -1
REMARK  0 active torsions:
REMARK  status: ('A' for Active; 'I' for Inactive)
ROOT
ATOM      1  N1  IND d   1      -3.280  -1.737   5.345  0.00  0.00    -0.196 N 
ATOM      2  C2  IND d   1      -3.499  -2.540   4.260  0.00  0.00     0.054 A 
ATOM      3  C3  IND d   1      -3.642  -1.793   3.143  0.00  0.00    -0.031 A 
ATOM      4  C4  IND d   1      -3.452   0.757   2.845  0.00  0.00     0.051 A 
ATOM      5  C5  IND d   1      -3.298   1.916   3.553  0.00  0.00    -0.031 A 
ATOM      6  C6  IND d   1      -3.124   1.916   4.922  0.00  0.00     0.015 A 
ATOM      7  C7  IND d   1      -3.086   0.751   5.635  0.00  0.00    -0.016 A 
ATOM      8  C8  IND d   1      -3.249  -0.427   4.920  0.00  0.00    -0.047 A 
ATOM      9  C9  IND d   1      -3.469  -0.431   3.537  0.00  0.00    -0.096 A 
ATOM     10  HN1 IND d   1      -3.179  -2.005   6.155  0.00  0.00     0.298 HD
ENDROOT
TORSDOF 0
ENDMDL
