MODEL 1
REMARK minimizedAffinity 17.9919872
REMARK minimizedRMSD -1
REMARK  0 active torsions:
REMARK  status: ('A' for Active; 'I' for Inactive)
ROOT
ATOM      1  N1  IND d   1       1.197   4.866   0.069  0.00  0.00    -0.196 N 
ATOM      2  C2  IND d   1       0.749   5.740  -0.882  0.00  0.00     0.054 A 
ATOM      3  C3  IND d   1       0.761   5.156  -2.101  0.00  0.00    -0.031 A 
ATOM      4  C4  IND d   1       1.380   2.743  -2.752  0.00  0.00     0.051 A 
ATOM      5  C5  IND d   1       1.882   1.582  -2.233  0.00  0.00    -0.031 A 
ATOM      6  C6  IND d   1       2.185   1.454  -0.893  0.00  0.00     0.015 A 
ATOM      7  C7  IND d   1       1.986   2.482  -0.016  0.00  0.00    -0.016 A 
ATOM      8  C8  IND d   1       1.482   3.664  -0.540  0.00  0.00    -0.047 A 
ATOM      9  C9  IND d   1       1.213   3.814  -1.906  0.00  0.00    -0.096 A 
ATOM     10  HN1 IND d   1       1.285   5.039   0.907  0.00  0.00     0.298 HD
ENDROOT
TORSDOF 0
ENDMDL
