MODEL 1
REMARK minimizedAffinity -2.73841429
REMARK minimizedRMSD -1
REMARK  0 active torsions:
REMARK  status: ('A' for Active; 'I' for Inactive)
ROOT
ATOM      1  N1  IND d   1       5.563  -5.242  -4.824  0.00  0.00    -0.196 N 
ATOM      2  C2  IND d   1       5.467  -4.551  -6.000  0.00  0.00     0.054 A 
ATOM      3  C3  IND d   1       4.372  -3.758  -5.991  0.00  0.00    -0.031 A 
ATOM      4  C4  IND d   1       2.656  -3.359  -4.114  0.00  0.00     0.051 A 
ATOM      5  C5  IND d   1       2.304  -3.792  -2.866  0.00  0.00    -0.031 A 
ATOM      6  C6  IND d   1       3.038  -4.747  -2.192  0.00  0.00     0.015 A 
ATOM      7  C7  IND d   1       4.161  -5.300  -2.739  0.00  0.00    -0.016 A 
ATOM      8  C8  IND d   1       4.517  -4.868  -4.009  0.00  0.00    -0.047 A 
ATOM      9  C9  IND d   1       3.753  -3.930  -4.715  0.00  0.00    -0.096 A 
ATOM     10  HN1 IND d   1       6.174  -5.814  -4.627  0.00  0.00     0.298 HD
ENDROOT
TORSDOF 0
ENDMDL
