MODEL 1
REMARK minimizedAffinity 12.3511467
REMARK minimizedRMSD -1
REMARK  0 active torsions:
REMARK  status: ('A' for Active; 'I' for Inactive)
ROOT
ATOM      1  N1  IND d   1       1.397   1.042   4.653  0.00  0.00    -0.196 N 
ATOM      2  C2  IND d   1       1.122   1.495   5.913  0.00  0.00     0.054 A 
ATOM      3  C3  IND d   1      -0.168   1.889   6.000  0.00  0.00    -0.031 A 
ATOM      4  C4  IND d   1      -2.033   1.783   4.229  0.00  0.00     0.051 A 
ATOM      5  C5  IND d   1      -2.255   1.479   2.915  0.00  0.00    -0.031 A 
ATOM      6  C6  IND d   1      -1.251   1.002   2.097  0.00  0.00     0.015 A 
ATOM      7  C7  IND d   1       0.015   0.799   2.568  0.00  0.00    -0.016 A 
ATOM      8  C8  IND d   1       0.246   1.113   3.900  0.00  0.00    -0.047 A 
ATOM      9  C9  IND d   1      -0.759   1.638   4.724  0.00  0.00    -0.096 A 
ATOM     10  HN1 IND d   1       2.161   0.759   4.377  0.00  0.00     0.298 HD
ENDROOT
TORSDOF 0
ENDMDL
