MODEL 1
REMARK minimizedAffinity 1.13405788
REMARK minimizedRMSD -1
REMARK  0 active torsions:
REMARK  status: ('A' for Active; 'I' for Inactive)
ROOT
ATOM      1  N1  IND d   1       0.407  -1.127   1.607  0.00  0.00    -0.196 N 
ATOM      2  C2  IND d   1       0.656  -0.700   2.881  0.00  0.00     0.054 A 
ATOM      3  C3  IND d   1      -0.363   0.067   3.328  0.00  0.00    -0.031 A 
ATOM      4  C4  IND d   1      -2.584   0.670   2.175  0.00  0.00     0.051 A 
ATOM      5  C5  IND d   1      -3.251   0.543   0.988  0.00  0.00    -0.031 A 
ATOM      6  C6  IND d   1      -2.723  -0.164  -0.073  0.00  0.00     0.015 A 
ATOM      7  C7  IND d   1      -1.508  -0.782   0.017  0.00  0.00    -0.016 A 
ATOM      8  C8  IND d   1      -0.825  -0.649   1.217  0.00  0.00    -0.047 A 
ATOM      9  C9  IND d   1      -1.337   0.102   2.283  0.00  0.00    -0.096 A 
ATOM     10  HN1 IND d   1       0.932  -1.612   1.128  0.00  0.00     0.298 HD
ENDROOT
TORSDOF 0
ENDMDL
