MODEL 1
REMARK minimizedAffinity -0.295862049
REMARK minimizedRMSD -1
REMARK  0 active torsions:
REMARK  status: ('A' for Active; 'I' for Inactive)
ROOT
ATOM      1  N1  IND d   1       1.403   0.254   2.197  0.00  0.00    -0.196 N 
ATOM      2  C2  IND d   1       2.172  -0.681   2.833  0.00  0.00     0.054 A 
ATOM      3  C3  IND d   1       1.399  -1.687   3.299  0.00  0.00    -0.031 A 
ATOM      4  C4  IND d   1      -1.136  -2.056   3.043  0.00  0.00     0.051 A 
ATOM      5  C5  IND d   1      -2.270  -1.455   2.573  0.00  0.00    -0.031 A 
ATOM      6  C6  IND d   1      -2.236  -0.231   1.937  0.00  0.00     0.015 A 
ATOM      7  C7  IND d   1      -1.060   0.436   1.738  0.00  0.00    -0.016 A 
ATOM      8  C8  IND d   1       0.092  -0.167   2.221  0.00  0.00    -0.047 A 
ATOM      9  C9  IND d   1       0.059  -1.390   2.904  0.00  0.00    -0.096 A 
ATOM     10  HN1 IND d   1       1.691   0.982   1.842  0.00  0.00     0.298 HD
ENDROOT
TORSDOF 0
ENDMDL
