MODEL 1
REMARK minimizedAffinity 9.34606457
REMARK minimizedRMSD -1
REMARK  0 active torsions:
REMARK  status: ('A' for Active; 'I' for Inactive)
ROOT
ATOM      1  N1  IND d   1      -0.295  -0.515  -6.000  0.00  0.00    -0.196 N 
ATOM      2  C2  IND d   1      -1.245  -1.263  -5.362  0.00  0.00     0.054 A 
ATOM      3  C3  IND d   1      -0.687  -1.977  -4.359  0.00  0.00    -0.031 A 
ATOM      4  C4  IND d   1       1.747  -1.993  -3.521  0.00  0.00     0.051 A 
ATOM      5  C5  IND d   1       2.988  -1.500  -3.809  0.00  0.00    -0.031 A 
ATOM      6  C6  IND d   1       3.203  -0.634  -4.862  0.00  0.00     0.015 A 
ATOM      7  C7  IND d   1       2.177  -0.218  -5.662  0.00  0.00    -0.016 A 
ATOM      8  C8  IND d   1       0.916  -0.722  -5.377  0.00  0.00    -0.047 A 
ATOM      9  C9  IND d   1       0.699  -1.634  -4.336  0.00  0.00    -0.096 A 
ATOM     10  HN1 IND d   1      -0.431  -0.001  -6.676  0.00  0.00     0.298 HD
ENDROOT
TORSDOF 0
ENDMDL
