MODEL 1
REMARK minimizedAffinity 4.99501276
REMARK minimizedRMSD -1
REMARK  0 active torsions:
REMARK  status: ('A' for Active; 'I' for Inactive)
ROOT
ATOM      1  N1  IND d   1       1.543   0.323  -6.000  0.00  0.00    -0.196 N 
ATOM      2  C2  IND d   1       2.615  -0.117  -5.274  0.00  0.00     0.054 A 
ATOM      3  C3  IND d   1       2.202  -0.903  -4.254  0.00  0.00    -0.031 A 
ATOM      4  C4  IND d   1      -0.176  -1.683  -3.650  0.00  0.00     0.051 A 
ATOM      5  C5  IND d   1      -1.487  -1.513  -3.999  0.00  0.00    -0.031 A 
ATOM      6  C6  IND d   1      -1.862  -0.709  -5.056  0.00  0.00     0.015 A 
ATOM      7  C7  IND d   1      -0.935  -0.050  -5.814  0.00  0.00    -0.016 A 
ATOM      8  C8  IND d   1       0.396  -0.214  -5.458  0.00  0.00    -0.047 A 
ATOM      9  C9  IND d   1       0.780  -0.995  -4.360  0.00  0.00    -0.096 A 
ATOM     10  HN1 IND d   1       1.579   0.847  -6.680  0.00  0.00     0.298 HD
ENDROOT
TORSDOF 0
ENDMDL
