MODEL 1
REMARK minimizedAffinity 5.21153259
REMARK minimizedRMSD -1
REMARK  0 active torsions:
REMARK  status: ('A' for Active; 'I' for Inactive)
ROOT
ATOM      1  N1  IND d   1       1.150  -0.401  -6.000  0.00  0.00    -0.196 N 
ATOM      2  C2  IND d   1       0.247  -0.807  -5.057  0.00  0.00     0.054 A 
ATOM      3  C3  IND d   1       0.882  -1.146  -3.913  0.00  0.00    -0.031 A 
ATOM      4  C4  IND d   1       3.386  -1.015  -3.331  0.00  0.00     0.051 A 
ATOM      5  C5  IND d   1       4.607  -0.739  -3.881  0.00  0.00    -0.031 A 
ATOM      6  C6  IND d   1       4.740  -0.326  -5.191  0.00  0.00     0.015 A 
ATOM      7  C7  IND d   1       3.652  -0.161  -6.000  0.00  0.00    -0.016 A 
ATOM      8  C8  IND d   1       2.411  -0.447  -5.447  0.00  0.00    -0.047 A 
ATOM      9  C9  IND d   1       2.274  -0.907  -4.131  0.00  0.00    -0.096 A 
ATOM     10  HN1 IND d   1       0.963  -0.158  -6.803  0.00  0.00     0.298 HD
ENDROOT
TORSDOF 0
ENDMDL
