MODEL 1
REMARK minimizedAffinity 8.48928928
REMARK minimizedRMSD -1
REMARK  0 active torsions:
REMARK  status: ('A' for Active; 'I' for Inactive)
ROOT
ATOM      1  N1  IND d   1      -0.419  -0.596  -4.084  0.00  0.00    -0.196 N 
ATOM      2  C2  IND d   1      -1.418  -1.208  -3.379  0.00  0.00     0.054 A 
ATOM      3  C3  IND d   1      -0.897  -2.010  -2.424  0.00  0.00    -0.031 A 
ATOM      4  C4  IND d   1       1.565  -2.393  -1.774  0.00  0.00     0.051 A 
ATOM      5  C5  IND d   1       2.840  -2.082  -2.155  0.00  0.00    -0.031 A 
ATOM      6  C6  IND d   1       3.100  -1.241  -3.217  0.00  0.00     0.015 A 
ATOM      7  C7  IND d   1       2.088  -0.668  -3.935  0.00  0.00    -0.016 A 
ATOM      8  C8  IND d   1       0.792  -0.987  -3.556  0.00  0.00    -0.047 A 
ATOM      9  C9  IND d   1       0.523  -1.874  -2.506  0.00  0.00    -0.096 A 
ATOM     10  HN1 IND d   1      -0.529  -0.058  -4.745  0.00  0.00     0.298 HD
ENDROOT
TORSDOF 0
ENDMDL
