MODEL 1
REMARK minimizedAffinity 0.425856382
REMARK minimizedRMSD -1
REMARK  0 active torsions:
REMARK  status: ('A' for Active; 'I' for Inactive)
ROOT
ATOM      1  N1  IND d   1      -0.685  -0.013   2.343  0.00  0.00    -0.196 N 
ATOM      2  C2  IND d   1      -1.796   0.435   3.000  0.00  0.00     0.054 A 
ATOM      3  C3  IND d   1      -2.906   0.198   2.264  0.00  0.00    -0.031 A 
ATOM      4  C4  IND d   1      -3.140  -1.003  -0.001  0.00  0.00     0.051 A 
ATOM      5  C5  IND d   1      -2.401  -1.556  -1.009  0.00  0.00    -0.031 A 
ATOM      6  C6  IND d   1      -1.024  -1.627  -0.948  0.00  0.00     0.015 A 
ATOM      7  C7  IND d   1      -0.333  -1.156   0.132  0.00  0.00    -0.016 A 
ATOM      8  C8  IND d   1      -1.080  -0.587   1.154  0.00  0.00    -0.047 A 
ATOM      9  C9  IND d   1      -2.474  -0.474   1.079  0.00  0.00    -0.096 A 
ATOM     10  HN1 IND d   1       0.125   0.052   2.624  0.00  0.00     0.298 HD
ENDROOT
TORSDOF 0
ENDMDL
