MODEL 1
REMARK minimizedAffinity -4.31038666
REMARK minimizedRMSD -1
REMARK  0 active torsions:
REMARK  status: ('A' for Active; 'I' for Inactive)
ROOT
ATOM      1  O1  BZF d   1       0.246  -0.702  -0.685  0.00  0.00    -0.204 OA
ATOM      2  C2  BZF d   1      -0.957  -0.139  -0.303  0.00  0.00     0.174 A 
ATOM      3  C3  BZF d   1      -1.051  -0.080   1.041  0.00  0.00    -0.012 A 
ATOM      4  C3A BZF d   1       0.207  -0.555   1.528  0.00  0.00    -0.107 A 
ATOM      5  C4  BZF d   1       0.729  -0.718   2.780  0.00  0.00     0.055 A 
ATOM      6  C5  BZF d   1       1.961  -1.275   2.915  0.00  0.00    -0.016 A 
ATOM      7  C6  BZF d   1       2.697  -1.684   1.821  0.00  0.00     0.022 A 
ATOM      8  C7  BZF d   1       2.223  -1.538   0.560  0.00  0.00     0.029 A 
ATOM      9  C7A BZF d   1       0.992  -0.946   0.419  0.00  0.00     0.058 A 
ENDROOT
TORSDOF 0
ENDMDL
