MODEL 1
REMARK minimizedAffinity -5.70443249
REMARK minimizedRMSD -1
REMARK  0 active torsions:
REMARK  status: ('A' for Active; 'I' for Inactive)
ROOT
ATOM      1  O1  BZF d   1       0.532  -0.914  -0.638  0.00  0.00    -0.204 OA
ATOM      2  C2  BZF d   1      -0.730  -0.367  -0.762  0.00  0.00     0.174 A 
ATOM      3  C3  BZF d   1      -1.209   0.007   0.442  0.00  0.00    -0.012 A 
ATOM      4  C3A BZF d   1      -0.144  -0.242   1.365  0.00  0.00    -0.107 A 
ATOM      5  C4  BZF d   1      -0.006  -0.060   2.711  0.00  0.00     0.055 A 
ATOM      6  C5  BZF d   1       1.136  -0.474   3.320  0.00  0.00    -0.016 A 
ATOM      7  C6  BZF d   1       2.156  -1.079   2.616  0.00  0.00     0.022 A 
ATOM      8  C7  BZF d   1       2.067  -1.277   1.278  0.00  0.00     0.029 A 
ATOM      9  C7A BZF d   1       0.928  -0.829   0.654  0.00  0.00     0.058 A 
ENDROOT
TORSDOF 0
ENDMDL
