MODEL 1
REMARK minimizedAffinity -3.67189479
REMARK minimizedRMSD -1
REMARK  0 active torsions:
REMARK  status: ('A' for Active; 'I' for Inactive)
ROOT
ATOM      1  O1  BZF d   1       1.672  -0.654   1.966  0.00  0.00    -0.204 OA
ATOM      2  C2  BZF d   1       0.752  -0.691   2.995  0.00  0.00     0.174 A 
ATOM      3  C3  BZF d   1      -0.497  -0.488   2.528  0.00  0.00    -0.012 A 
ATOM      4  C3A BZF d   1      -0.359  -0.406   1.107  0.00  0.00    -0.107 A 
ATOM      5  C4  BZF d   1      -1.248  -0.228   0.086  0.00  0.00     0.055 A 
ATOM      6  C5  BZF d   1      -0.780  -0.120  -1.186  0.00  0.00    -0.016 A 
ATOM      7  C6  BZF d   1       0.568  -0.181  -1.471  0.00  0.00     0.022 A 
ATOM      8  C7  BZF d   1       1.488  -0.362  -0.492  0.00  0.00     0.029 A 
ATOM      9  C7A BZF d   1       1.016  -0.504   0.790  0.00  0.00     0.058 A 
ENDROOT
TORSDOF 0
ENDMDL
