MODEL 1
REMARK minimizedAffinity -3.82069254
REMARK minimizedRMSD -1
REMARK  0 active torsions:
REMARK  status: ('A' for Active; 'I' for Inactive)
ROOT
ATOM      1  O1  BZF d   1       0.530   0.011  -0.843  0.00  0.00    -0.204 OA
ATOM      2  C2  BZF d   1      -0.840   0.040  -1.019  0.00  0.00     0.174 A 
ATOM      3  C3  BZF d   1      -1.475  -0.353   0.103  0.00  0.00    -0.012 A 
ATOM      4  C3A BZF d   1      -0.440  -0.558   1.070  0.00  0.00    -0.107 A 
ATOM      5  C4  BZF d   1      -0.442  -0.939   2.381  0.00  0.00     0.055 A 
ATOM      6  C5  BZF d   1       0.745  -1.116   3.019  0.00  0.00    -0.016 A 
ATOM      7  C6  BZF d   1       1.950  -0.925   2.376  0.00  0.00     0.022 A 
ATOM      8  C7  BZF d   1       2.003  -0.542   1.077  0.00  0.00     0.029 A 
ATOM      9  C7A BZF d   1       0.805  -0.331   0.439  0.00  0.00     0.058 A 
ENDROOT
TORSDOF 0
ENDMDL
