MODEL 1
REMARK minimizedAffinity -1.98224378
REMARK minimizedRMSD -1
REMARK  0 active torsions:
REMARK  status: ('A' for Active; 'I' for Inactive)
ROOT
ATOM      1  O1  BZF d   1       0.965  -0.953  -1.254  0.00  0.00    -0.204 OA
ATOM      2  C2  BZF d   1       2.324  -1.043  -1.019  0.00  0.00     0.174 A 
ATOM      3  C3  BZF d   1       2.615  -0.690   0.249  0.00  0.00    -0.012 A 
ATOM      4  C3A BZF d   1       1.350  -0.447   0.872  0.00  0.00    -0.107 A 
ATOM      5  C4  BZF d   1       0.980  -0.078   2.134  0.00  0.00     0.055 A 
ATOM      6  C5  BZF d   1      -0.334   0.147   2.397  0.00  0.00    -0.016 A 
ATOM      7  C6  BZF d   1      -1.303   0.018   1.423  0.00  0.00     0.022 A 
ATOM      8  C7  BZF d   1      -0.985  -0.351   0.159  0.00  0.00     0.029 A 
ATOM      9  C7A BZF d   1       0.338  -0.611  -0.103  0.00  0.00     0.058 A 
ENDROOT
TORSDOF 0
ENDMDL
