MODEL 1
REMARK minimizedAffinity -4.62398577
REMARK minimizedRMSD -1
REMARK  0 active torsions:
REMARK  status: ('A' for Active; 'I' for Inactive)
ROOT
ATOM      1  O1  BZF d   1       0.856  -1.418  -1.333  0.00  0.00    -0.204 OA
ATOM      2  C2  BZF d   1      -0.033  -0.364  -1.422  0.00  0.00     0.174 A 
ATOM      3  C3  BZF d   1      -0.111   0.297  -0.248  0.00  0.00    -0.012 A 
ATOM      4  C3A BZF d   1       0.854  -0.331   0.601  0.00  0.00    -0.107 A 
ATOM      5  C4  BZF d   1       1.257  -0.111   1.888  0.00  0.00     0.055 A 
ATOM      6  C5  BZF d   1       2.170  -0.948   2.447  0.00  0.00    -0.016 A 
ATOM      7  C6  BZF d   1       2.696  -2.016   1.751  0.00  0.00     0.022 A 
ATOM      8  C7  BZF d   1       2.332  -2.272   0.471  0.00  0.00     0.029 A 
ATOM      9  C7A BZF d   1       1.434  -1.408  -0.108  0.00  0.00     0.058 A 
ENDROOT
TORSDOF 0
ENDMDL
