MODEL 1
REMARK minimizedAffinity -5.70516348
REMARK minimizedRMSD -1
REMARK  0 active torsions:
REMARK  status: ('A' for Active; 'I' for Inactive)
ROOT
ATOM      1  O1  BZF d   1      -0.579   0.123   1.895  0.00  0.00    -0.204 OA
ATOM      2  C2  BZF d   1       0.430  -0.174   2.792  0.00  0.00     0.174 A 
ATOM      3  C3  BZF d   1       1.460  -0.782   2.168  0.00  0.00    -0.012 A 
ATOM      4  C3A BZF d   1       1.110  -0.787   0.781  0.00  0.00    -0.107 A 
ATOM      5  C4  BZF d   1       1.738  -1.239  -0.344  0.00  0.00     0.055 A 
ATOM      6  C5  BZF d   1       1.094  -1.159  -1.538  0.00  0.00    -0.016 A 
ATOM      7  C6  BZF d   1      -0.179  -0.638  -1.642  0.00  0.00     0.022 A 
ATOM      8  C7  BZF d   1      -0.841  -0.172  -0.555  0.00  0.00     0.029 A 
ATOM      9  C7A BZF d   1      -0.179  -0.221   0.648  0.00  0.00     0.058 A 
ENDROOT
TORSDOF 0
ENDMDL
