MODEL 1
REMARK minimizedAffinity -2.4694345
REMARK minimizedRMSD -1
REMARK  0 active torsions:
REMARK  status: ('A' for Active; 'I' for Inactive)
ROOT
ATOM      1  O1  BZF d   1      -1.303   0.456  -0.399  0.00  0.00    -0.204 OA
ATOM      2  C2  BZF d   1      -0.654   0.503  -1.618  0.00  0.00     0.174 A 
ATOM      3  C3  BZF d   1       0.663   0.253  -1.469  0.00  0.00    -0.012 A 
ATOM      4  C3A BZF d   1       0.833  -0.055  -0.082  0.00  0.00    -0.107 A 
ATOM      5  C4  BZF d   1       1.913  -0.404   0.676  0.00  0.00     0.055 A 
ATOM      6  C5  BZF d   1       1.755  -0.565   2.016  0.00  0.00    -0.016 A 
ATOM      7  C6  BZF d   1       0.534  -0.381   2.631  0.00  0.00     0.022 A 
ATOM      8  C7  BZF d   1      -0.568  -0.040   1.919  0.00  0.00     0.029 A 
ATOM      9  C7A BZF d   1      -0.418   0.092   0.560  0.00  0.00     0.058 A 
ENDROOT
TORSDOF 0
ENDMDL
