MODEL 1
REMARK minimizedAffinity -1.76485968
REMARK minimizedRMSD -1
REMARK  0 active torsions:
REMARK  status: ('A' for Active; 'I' for Inactive)
ROOT
ATOM      1  C   UNL d   1      -3.464   0.995   0.969  0.00  0.00     0.020 A 
ATOM      2  C1  UNL d   1      -2.797   2.079   1.538  0.00  0.00     0.020 A 
ATOM      3  C2  UNL d   1      -1.425   2.241   1.330  0.00  0.00     0.034 A 
ATOM      4  C3  UNL d   1      -0.717   1.319   0.551  0.00  0.00     0.017 A 
ATOM      5  C4  UNL d   1      -1.389   0.231  -0.019  0.00  0.00     0.017 A 
ATOM      6  C5  UNL d   1      -2.762   0.073   0.192  0.00  0.00     0.034 A 
ATOM      7 Cl   UNL d   1      -0.583  -0.949  -0.992  0.00  0.00    -0.070 Cl
ATOM      8 Cl1  UNL d   1       0.977   1.582   0.335  0.00  0.00    -0.070 Cl
ENDROOT
TORSDOF 0
ENDMDL
