MODEL 1
REMARK minimizedAffinity -0.579108894
REMARK minimizedRMSD -1
REMARK  0 active torsions:
REMARK  status: ('A' for Active; 'I' for Inactive)
ROOT
ATOM      1  C   UNL d   1      -1.490   0.102  -0.304  0.00  0.00     0.020 A 
ATOM      2  C1  UNL d   1      -1.336   1.445  -0.647  0.00  0.00     0.020 A 
ATOM      3  C2  UNL d   1      -0.270   2.181  -0.127  0.00  0.00     0.034 A 
ATOM      4  C3  UNL d   1       0.647   1.574   0.740  0.00  0.00     0.017 A 
ATOM      5  C4  UNL d   1       0.492   0.227   1.083  0.00  0.00     0.017 A 
ATOM      6  C5  UNL d   1      -0.577  -0.506   0.559  0.00  0.00     0.034 A 
ATOM      7 Cl   UNL d   1       1.583  -0.591   2.146  0.00  0.00    -0.070 Cl
ATOM      8 Cl1  UNL d   1       1.943   2.544   1.345  0.00  0.00    -0.070 Cl
ENDROOT
TORSDOF 0
ENDMDL
