MODEL 1
REMARK minimizedAffinity -1.87198377
REMARK minimizedRMSD -1
REMARK  0 active torsions:
REMARK  status: ('A' for Active; 'I' for Inactive)
ROOT
ATOM      1  C   UNL d   1      -0.518  -0.310  -0.369  0.00  0.00     0.020 A 
ATOM      2  C1  UNL d   1      -0.643   1.078  -0.350  0.00  0.00     0.020 A 
ATOM      3  C2  UNL d   1       0.379   1.864   0.186  0.00  0.00     0.034 A 
ATOM      4  C3  UNL d   1       1.531   1.262   0.706  0.00  0.00     0.017 A 
ATOM      5  C4  UNL d   1       1.656  -0.131   0.686  0.00  0.00     0.017 A 
ATOM      6  C5  UNL d   1       0.629  -0.914   0.148  0.00  0.00     0.034 A 
ATOM      7 Cl   UNL d   1       3.047  -0.946   1.308  0.00  0.00    -0.070 Cl
ATOM      8 Cl1  UNL d   1       2.755   2.296   1.353  0.00  0.00    -0.070 Cl
ENDROOT
TORSDOF 0
ENDMDL
