MODEL 1
REMARK minimizedAffinity -3.5577352
REMARK minimizedRMSD -1
REMARK  0 active torsions:
REMARK  status: ('A' for Active; 'I' for Inactive)
ROOT
ATOM      1  C   UNL d   1      -0.976  -0.556  -0.952  0.00  0.00     0.020 A 
ATOM      2  C1  UNL d   1      -0.871  -0.070   0.351  0.00  0.00     0.020 A 
ATOM      3  C2  UNL d   1       0.307  -0.263   1.075  0.00  0.00     0.034 A 
ATOM      4  C3  UNL d   1       1.385  -0.944   0.498  0.00  0.00     0.017 A 
ATOM      5  C4  UNL d   1       1.279  -1.431  -0.810  0.00  0.00     0.017 A 
ATOM      6  C5  UNL d   1       0.097  -1.235  -1.531  0.00  0.00     0.034 A 
ATOM      7 Cl   UNL d   1       2.566  -2.281  -1.590  0.00  0.00    -0.070 Cl
ATOM      8 Cl1  UNL d   1       2.812  -1.146   1.451  0.00  0.00    -0.070 Cl
ENDROOT
TORSDOF 0
ENDMDL
