MODEL 1
REMARK minimizedAffinity -3.15472579
REMARK minimizedRMSD -1
REMARK  0 active torsions:
REMARK  status: ('A' for Active; 'I' for Inactive)
ROOT
ATOM      1  C   UNL d   1      -0.402   0.683   0.435  0.00  0.00     0.020 A 
ATOM      2  C1  UNL d   1      -0.736   0.214  -0.835  0.00  0.00     0.020 A 
ATOM      3  C2  UNL d   1       0.006  -0.816  -1.417  0.00  0.00     0.034 A 
ATOM      4  C3  UNL d   1       1.086  -1.380  -0.728  0.00  0.00     0.017 A 
ATOM      5  C4  UNL d   1       1.420  -0.909   0.546  0.00  0.00     0.017 A 
ATOM      6  C5  UNL d   1       0.674   0.122   1.124  0.00  0.00     0.034 A 
ATOM      7 Cl   UNL d   1       2.739  -1.556   1.457  0.00  0.00    -0.070 Cl
ATOM      8 Cl1  UNL d   1       1.960  -2.651  -1.508  0.00  0.00    -0.070 Cl
ENDROOT
TORSDOF 0
ENDMDL
