MODEL 1
REMARK minimizedAffinity -2.13486314
REMARK minimizedRMSD -1
REMARK  0 active torsions:
REMARK  status: ('A' for Active; 'I' for Inactive)
ROOT
ATOM      1  C   UNL d   1      -0.893   1.095  -0.329  0.00  0.00     0.020 A 
ATOM      2  C1  UNL d   1       0.262   1.566   0.294  0.00  0.00     0.020 A 
ATOM      3  C2  UNL d   1       1.394   0.753   0.371  0.00  0.00     0.034 A 
ATOM      4  C3  UNL d   1       1.375  -0.536  -0.175  0.00  0.00     0.017 A 
ATOM      5  C4  UNL d   1       0.215  -1.008  -0.800  0.00  0.00     0.017 A 
ATOM      6  C5  UNL d   1      -0.916  -0.189  -0.875  0.00  0.00     0.034 A 
ATOM      7 Cl   UNL d   1       0.115  -2.586  -1.498  0.00  0.00    -0.070 Cl
ATOM      8 Cl1  UNL d   1       2.812  -1.486  -0.043  0.00  0.00    -0.070 Cl
ENDROOT
TORSDOF 0
ENDMDL
