MODEL 1
REMARK minimizedAffinity -4.61904621
REMARK minimizedRMSD -1
REMARK  0 active torsions:
REMARK  status: ('A' for Active; 'I' for Inactive)
ROOT
ATOM      1  C   UNL d   1      -0.759   0.153  -0.776  0.00  0.00     0.020 A 
ATOM      2  C1  UNL d   1      -0.401  -1.195  -0.789  0.00  0.00     0.020 A 
ATOM      3  C2  UNL d   1       0.763  -1.615  -0.142  0.00  0.00     0.034 A 
ATOM      4  C3  UNL d   1       1.573  -0.686   0.521  0.00  0.00     0.017 A 
ATOM      5  C4  UNL d   1       1.213   0.667   0.534  0.00  0.00     0.017 A 
ATOM      6  C5  UNL d   1       0.047   1.081  -0.116  0.00  0.00     0.034 A 
ATOM      7 Cl   UNL d   1       2.163   1.871   1.331  0.00  0.00    -0.070 Cl
ATOM      8 Cl1  UNL d   1       2.998  -1.275   1.301  0.00  0.00    -0.070 Cl
ENDROOT
TORSDOF 0
ENDMDL
