MODEL 1
REMARK minimizedAffinity -1.15783143
REMARK minimizedRMSD -1
REMARK  0 active torsions:
REMARK  status: ('A' for Active; 'I' for Inactive)
ROOT
ATOM      1  C   UNL d   1       1.062   4.442  -0.757  0.00  0.00     0.172 C 
ATOM      2  N   UNL d   1       1.007   3.014  -0.957  0.00  0.00    -0.070 N 
ATOM      3  C1  UNL d   1       0.485   2.103  -0.078  0.00  0.00    -0.004 A 
ATOM      4  C2  UNL d   1       0.621   0.851  -0.636  0.00  0.00    -0.047 A 
ATOM      5  C3  UNL d   1       1.247   1.014  -1.895  0.00  0.00    -0.047 A 
ATOM      6  C4  UNL d   1       1.475   2.363  -2.068  0.00  0.00    -0.004 A 
ENDROOT
TORSDOF 0
ENDMDL
