MODEL 1
REMARK minimizedAffinity -3.7957685
REMARK minimizedRMSD -1
REMARK  0 active torsions:
REMARK  status: ('A' for Active; 'I' for Inactive)
ROOT
ATOM      1  C   UNL d   1       1.706   3.203  -1.352  0.00  0.00     0.172 C 
ATOM      2  N   UNL d   1       1.406   1.806  -1.143  0.00  0.00    -0.070 N 
ATOM      3  C1  UNL d   1       1.281   1.190   0.074  0.00  0.00    -0.004 A 
ATOM      4  C2  UNL d   1       0.993  -0.139  -0.153  0.00  0.00    -0.047 A 
ATOM      5  C3  UNL d   1       0.944  -0.327  -1.555  0.00  0.00    -0.047 A 
ATOM      6  C4  UNL d   1       1.203   0.892  -2.143  0.00  0.00    -0.004 A 
ENDROOT
TORSDOF 0
ENDMDL
