MODEL 1
REMARK minimizedAffinity -4.02157831
REMARK minimizedRMSD -1
REMARK  0 active torsions:
REMARK  status: ('A' for Active; 'I' for Inactive)
ROOT
ATOM      1  C   UNL d   1       1.382   3.865  -1.371  0.00  0.00     0.172 C 
ATOM      2  N   UNL d   1       1.222   2.452  -1.122  0.00  0.00    -0.070 N 
ATOM      3  C1  UNL d   1       0.689   1.896   0.011  0.00  0.00    -0.004 A 
ATOM      4  C2  UNL d   1       0.712   0.527  -0.140  0.00  0.00    -0.047 A 
ATOM      5  C3  UNL d   1       1.278   0.250  -1.407  0.00  0.00    -0.047 A 
ATOM      6  C4  UNL d   1       1.585   1.459  -1.993  0.00  0.00    -0.004 A 
ENDROOT
TORSDOF 0
ENDMDL
