MODEL 1
REMARK minimizedAffinity -1.60668385
REMARK minimizedRMSD -1
REMARK  0 active torsions:
REMARK  status: ('A' for Active; 'I' for Inactive)
ROOT
ATOM      1  C   UNL d   1       2.256   4.008  -1.239  0.00  0.00     0.172 C 
ATOM      2  N   UNL d   1       1.693   2.716  -0.923  0.00  0.00    -0.070 N 
ATOM      3  C1  UNL d   1       1.524   1.682  -1.804  0.00  0.00    -0.004 A 
ATOM      4  C2  UNL d   1       0.959   0.630  -1.117  0.00  0.00    -0.047 A 
ATOM      5  C3  UNL d   1       0.781   1.046   0.224  0.00  0.00    -0.047 A 
ATOM      6  C4  UNL d   1       1.244   2.342   0.316  0.00  0.00    -0.004 A 
ENDROOT
TORSDOF 0
ENDMDL
