MODEL 1
REMARK minimizedAffinity -0.424876422
REMARK minimizedRMSD -1
REMARK  0 active torsions:
REMARK  status: ('A' for Active; 'I' for Inactive)
ROOT
ATOM      1  C   UNL d   1       1.389   2.316  -2.689  0.00  0.00     0.172 C 
ATOM      2  N   UNL d   1       1.336   1.355  -1.613  0.00  0.00    -0.070 N 
ATOM      3  C1  UNL d   1       1.092   0.015  -1.751  0.00  0.00    -0.004 A 
ATOM      4  C2  UNL d   1       1.125  -0.552  -0.495  0.00  0.00    -0.047 A 
ATOM      5  C3  UNL d   1       1.398   0.484   0.430  0.00  0.00    -0.047 A 
ATOM      6  C4  UNL d   1       1.524   1.654  -0.289  0.00  0.00    -0.004 A 
ENDROOT
TORSDOF 0
ENDMDL
