MODEL 1
REMARK minimizedAffinity -1.63451791
REMARK minimizedRMSD -1
REMARK  0 active torsions:
REMARK  status: ('A' for Active; 'I' for Inactive)
ROOT
ATOM      1  C   UNL d   1       1.640   3.446  -2.176  0.00  0.00     0.172 C 
ATOM      2  N   UNL d   1       1.379   2.195  -1.504  0.00  0.00    -0.070 N 
ATOM      3  C1  UNL d   1       1.443   1.986  -0.153  0.00  0.00    -0.004 A 
ATOM      4  C2  UNL d   1       1.126   0.667   0.086  0.00  0.00    -0.047 A 
ATOM      5  C3  UNL d   1       0.863   0.061  -1.166  0.00  0.00    -0.047 A 
ATOM      6  C4  UNL d   1       1.027   1.030  -2.133  0.00  0.00    -0.004 A 
ENDROOT
TORSDOF 0
ENDMDL
