MODEL 1
REMARK minimizedAffinity -2.80397248
REMARK minimizedRMSD -1
REMARK  0 active torsions:
REMARK  status: ('A' for Active; 'I' for Inactive)
ROOT
ATOM      1  C   UNL d   1       1.606   3.311  -1.944  0.00  0.00     0.172 C 
ATOM      2  N   UNL d   1       1.408   2.156  -1.100  0.00  0.00    -0.070 N 
ATOM      3  C1  UNL d   1       1.234   2.181   0.258  0.00  0.00    -0.004 A 
ATOM      4  C2  UNL d   1       1.077   0.880   0.687  0.00  0.00    -0.047 A 
ATOM      5  C3  UNL d   1       1.160   0.046  -0.453  0.00  0.00    -0.047 A 
ATOM      6  C4  UNL d   1       1.365   0.862  -1.546  0.00  0.00    -0.004 A 
ENDROOT
TORSDOF 0
ENDMDL
