MODEL 1
REMARK minimizedAffinity 1.05609632
REMARK minimizedRMSD -1
REMARK  0 active torsions:
REMARK  status: ('A' for Active; 'I' for Inactive)
ROOT
ATOM      1  C   UNL d   1      -0.165  -1.670   4.808  0.00  0.00     0.172 C 
ATOM      2  N   UNL d   1      -1.148  -2.610   4.323  0.00  0.00    -0.070 N 
ATOM      3  C1  UNL d   1      -2.487  -2.584   4.607  0.00  0.00    -0.004 A 
ATOM      4  C2  UNL d   1      -3.077  -3.645   3.956  0.00  0.00    -0.047 A 
ATOM      5  C3  UNL d   1      -2.058  -4.334   3.258  0.00  0.00    -0.047 A 
ATOM      6  C4  UNL d   1      -0.873  -3.672   3.502  0.00  0.00    -0.004 A 
ENDROOT
TORSDOF 0
ENDMDL
