MODEL 1
REMARK minimizedAffinity -2.00101686
REMARK minimizedRMSD -1
REMARK  0 active torsions:
REMARK  status: ('A' for Active; 'I' for Inactive)
ROOT
ATOM      1  C   UNL d   1       1.088   3.462   0.002  0.00  0.00     0.172 C 
ATOM      2  N   UNL d   1       1.357   2.186  -0.617  0.00  0.00    -0.070 N 
ATOM      3  C1  UNL d   1       0.939   1.798  -1.862  0.00  0.00    -0.004 A 
ATOM      4  C2  UNL d   1       1.399   0.518  -2.083  0.00  0.00    -0.047 A 
ATOM      5  C3  UNL d   1       2.118   0.122  -0.930  0.00  0.00    -0.047 A 
ATOM      6  C4  UNL d   1       2.076   1.174  -0.039  0.00  0.00    -0.004 A 
ENDROOT
TORSDOF 0
ENDMDL
