MODEL 1
REMARK minimizedAffinity -1.83084393
REMARK minimizedRMSD -1
REMARK  0 active torsions:
REMARK  status: ('A' for Active; 'I' for Inactive)
ROOT
ATOM      1  C   UNL d   1       1.166  -2.089  -1.160  0.00  0.00     0.172 C 
ATOM      2  N   UNL d   1       1.181  -0.708  -0.738  0.00  0.00    -0.070 N 
ATOM      3  C1  UNL d   1       0.783   0.362  -1.494  0.00  0.00    -0.004 A 
ATOM      4  C2  UNL d   1       0.951   1.500  -0.735  0.00  0.00    -0.047 A 
ATOM      5  C3  UNL d   1       1.468   1.100   0.520  0.00  0.00    -0.047 A 
ATOM      6  C4  UNL d   1       1.601  -0.272   0.491  0.00  0.00    -0.004 A 
ENDROOT
TORSDOF 0
ENDMDL
