MODEL 1
REMARK minimizedAffinity -2.14122486
REMARK minimizedRMSD -1
REMARK  0 active torsions:
REMARK  status: ('A' for Active; 'I' for Inactive)
ROOT
ATOM      1  C   UNL d   1       0.367   1.657   1.175  0.00  0.00     0.172 C 
ATOM      2  N   UNL d   1       0.798   1.324  -0.162  0.00  0.00    -0.070 N 
ATOM      3  C1  UNL d   1       1.052   0.062  -0.629  0.00  0.00    -0.004 A 
ATOM      4  C2  UNL d   1       1.436   0.169  -1.948  0.00  0.00    -0.047 A 
ATOM      5  C3  UNL d   1       1.414   1.543  -2.286  0.00  0.00    -0.047 A 
ATOM      6  C4  UNL d   1       1.015   2.236  -1.162  0.00  0.00    -0.004 A 
ENDROOT
TORSDOF 0
ENDMDL
