MODEL 1
REMARK minimizedAffinity -0.72555232
REMARK minimizedRMSD -1
REMARK  0 active torsions:
REMARK  status: ('A' for Active; 'I' for Inactive)
ROOT
ATOM      1  C   UNL d   1       1.290   2.246  -1.796  0.00  0.00     0.172 C 
ATOM      2  N   UNL d   1       1.252   0.915  -1.238  0.00  0.00    -0.070 N 
ATOM      3  C1  UNL d   1       0.823  -0.211  -1.888  0.00  0.00    -0.004 A 
ATOM      4  C2  UNL d   1       0.943  -1.273  -1.017  0.00  0.00    -0.047 A 
ATOM      5  C3  UNL d   1       1.461  -0.767   0.199  0.00  0.00    -0.047 A 
ATOM      6  C4  UNL d   1       1.643   0.590   0.034  0.00  0.00    -0.004 A 
ENDROOT
TORSDOF 0
ENDMDL
