MODEL 1
REMARK minimizedAffinity -0.110340588
REMARK minimizedRMSD -1
REMARK  0 active torsions:
REMARK  status: ('A' for Active; 'I' for Inactive)
ROOT
ATOM      1  C   UNL d   1      -0.381  -4.121   0.430  0.00  0.00     0.172 C 
ATOM      2  N   UNL d   1      -0.940  -4.161  -0.901  0.00  0.00    -0.070 N 
ATOM      3  C1  UNL d   1      -1.816  -3.250  -1.426  0.00  0.00    -0.004 A 
ATOM      4  C2  UNL d   1      -2.108  -3.639  -2.715  0.00  0.00    -0.047 A 
ATOM      5  C3  UNL d   1      -1.382  -4.826  -2.974  0.00  0.00    -0.047 A 
ATOM      6  C4  UNL d   1      -0.667  -5.127  -1.833  0.00  0.00    -0.004 A 
ENDROOT
TORSDOF 0
ENDMDL
