MODEL 1
REMARK minimizedAffinity -0.579688787
REMARK minimizedRMSD -1
REMARK  0 active torsions:
REMARK  status: ('A' for Active; 'I' for Inactive)
ROOT
ATOM      1  C   UNL d   1       1.207   1.569  -2.356  0.00  0.00     0.172 C 
ATOM      2  N   UNL d   1       1.234   0.339  -1.601  0.00  0.00    -0.070 N 
ATOM      3  C1  UNL d   1       1.397   0.238  -0.245  0.00  0.00    -0.004 A 
ATOM      4  C2  UNL d   1       1.365  -1.099   0.086  0.00  0.00    -0.047 A 
ATOM      5  C3  UNL d   1       1.176  -1.828  -1.113  0.00  0.00    -0.047 A 
ATOM      6  C4  UNL d   1       1.098  -0.912  -2.142  0.00  0.00    -0.004 A 
ENDROOT
TORSDOF 0
ENDMDL
