MODEL 1
REMARK minimizedAffinity -1.36255312
REMARK minimizedRMSD -1
REMARK  0 active torsions:
REMARK  status: ('A' for Active; 'I' for Inactive)
ROOT
ATOM      1  C   UNL d   1       1.952   5.288  -1.116  0.00  0.00     0.172 C 
ATOM      2  N   UNL d   1       1.647   3.882  -0.990  0.00  0.00    -0.070 N 
ATOM      3  C1  UNL d   1       1.581   2.984  -2.022  0.00  0.00    -0.004 A 
ATOM      4  C2  UNL d   1       1.266   1.752  -1.490  0.00  0.00    -0.047 A 
ATOM      5  C3  UNL d   1       1.137   1.916  -0.090  0.00  0.00    -0.047 A 
ATOM      6  C4  UNL d   1       1.378   3.244   0.192  0.00  0.00    -0.004 A 
ENDROOT
TORSDOF 0
ENDMDL
