MODEL 1
REMARK minimizedAffinity -3.98336196
REMARK minimizedRMSD -1
REMARK  0 active torsions:
REMARK  status: ('A' for Active; 'I' for Inactive)
ROOT
ATOM      1  C   UNL d   1       1.831   4.934  -1.192  0.00  0.00     0.172 C 
ATOM      2  N   UNL d   1       1.427   3.614  -0.768  0.00  0.00    -0.070 N 
ATOM      3  C1  UNL d   1       1.314   2.515  -1.576  0.00  0.00    -0.004 A 
ATOM      4  C2  UNL d   1       0.905   1.456  -0.795  0.00  0.00    -0.047 A 
ATOM      5  C3  UNL d   1       0.767   1.936   0.529  0.00  0.00    -0.047 A 
ATOM      6  C4  UNL d   1       1.096   3.275   0.518  0.00  0.00    -0.004 A 
ENDROOT
TORSDOF 0
ENDMDL
