MODEL 1
REMARK minimizedAffinity -0.447739005
REMARK minimizedRMSD -1
REMARK  2 active torsions:
REMARK  status: ('A' for Active; 'I' for Inactive)
REMARK    1  A    between atoms: C2'_3  and  C1'_4 
REMARK    2  A    between atoms: C1'_4  and  C1_5 
ROOT
ATOM      1  C1  I4B d   1      -1.022   3.551   1.236  0.00  0.00    -0.075 A 
ATOM      2  C2  I4B d   1      -1.227   2.925   2.440  0.00  0.00     0.003 A 
ATOM      3  C3  I4B d   1      -2.230   3.392   3.324  0.00  0.00     0.002 A 
ATOM      4  C4  I4B d   1      -2.965   4.510   2.987  0.00  0.00    -0.004 A 
ATOM      5  C5  I4B d   1      -2.771   5.129   1.756  0.00  0.00     0.002 A 
ATOM      6  C6  I4B d   1      -1.802   4.640   0.869  0.00  0.00     0.003 A 
ENDROOT
BRANCH   1   7
ATOM      7  C1' I4B d   1       0.068   3.052   0.341  0.00  0.00     0.060 C 
BRANCH   7   8
ATOM      8  C2' I4B d   1       0.566   4.221  -0.484  0.00  0.00    -0.013 C 
ATOM      9  C4' I4B d   1       1.989   4.569  -0.134  0.00  0.00     0.013 C 
ATOM     10  C3' I4B d   1       0.440   3.852  -1.933  0.00  0.00     0.013 C 
ENDBRANCH   7   8
ENDBRANCH   1   7
TORSDOF 2
ENDMDL
