MODEL 1
REMARK minimizedAffinity 4.56685448
REMARK minimizedRMSD -1
REMARK  2 active torsions:
REMARK  status: ('A' for Active; 'I' for Inactive)
REMARK    1  A    between atoms: C2'_3  and  C1'_4 
REMARK    2  A    between atoms: C1'_4  and  C1_5 
ROOT
ATOM      1  C1  I4B d   1      -0.047   3.256   1.091  0.00  0.00    -0.075 A 
ATOM      2  C2  I4B d   1      -1.356   3.656   0.992  0.00  0.00     0.003 A 
ATOM      3  C3  I4B d   1      -1.809   4.335  -0.164  0.00  0.00     0.002 A 
ATOM      4  C4  I4B d   1      -0.914   4.637  -1.170  0.00  0.00    -0.004 A 
ATOM      5  C5  I4B d   1       0.408   4.212  -1.078  0.00  0.00     0.002 A 
ATOM      6  C6  I4B d   1       0.842   3.506   0.053  0.00  0.00     0.003 A 
ENDROOT
BRANCH   1   7
ATOM      7  C1' I4B d   1       0.406   2.570   2.340  0.00  0.00     0.060 C 
BRANCH   7   8
ATOM      8  C2' I4B d   1       1.884   2.850   2.518  0.00  0.00    -0.013 C 
ATOM      9  C4' I4B d   1       2.135   3.712   3.726  0.00  0.00     0.013 C 
ATOM     10  C3' I4B d   1       2.594   1.534   2.635  0.00  0.00     0.013 C 
ENDBRANCH   7   8
ENDBRANCH   1   7
TORSDOF 2
ENDMDL
