MODEL 1
REMARK minimizedAffinity 0.144722626
REMARK minimizedRMSD -1
REMARK  2 active torsions:
REMARK  status: ('A' for Active; 'I' for Inactive)
REMARK    1  A    between atoms: C2'_3  and  C1'_4 
REMARK    2  A    between atoms: C1'_4  and  C1_5 
ROOT
ATOM      1  C1  I4B d   1      -4.458   3.603  -3.606  0.00  0.00    -0.075 A 
ATOM      2  C2  I4B d   1      -3.833   3.307  -4.792  0.00  0.00     0.003 A 
ATOM      3  C3  I4B d   1      -4.282   3.895  -6.000  0.00  0.00     0.002 A 
ATOM      4  C4  I4B d   1      -5.382   4.728  -5.983  0.00  0.00    -0.004 A 
ATOM      5  C5  I4B d   1      -5.999   5.045  -4.776  0.00  0.00     0.002 A 
ATOM      6  C6  I4B d   1      -5.527   4.489  -3.579  0.00  0.00     0.003 A 
ENDROOT
BRANCH   1   7
ATOM      7  C1' I4B d   1      -3.979   2.938  -2.355  0.00  0.00     0.060 C 
BRANCH   7   8
ATOM      8  C2' I4B d   1      -5.178   2.313  -1.670  0.00  0.00    -0.013 C 
ATOM      9  C4' I4B d   1      -6.000   1.506  -2.641  0.00  0.00     0.013 C 
ATOM     10  C3' I4B d   1      -4.675   1.459  -0.545  0.00  0.00     0.013 C 
ENDBRANCH   7   8
ENDBRANCH   1   7
TORSDOF 2
ENDMDL
