MODEL 1
REMARK minimizedAffinity 6.09941816
REMARK minimizedRMSD -1
REMARK  2 active torsions:
REMARK  status: ('A' for Active; 'I' for Inactive)
REMARK    1  A    between atoms: C2'_3  and  C1'_4 
REMARK    2  A    between atoms: C1'_4  and  C1_5 
ROOT
ATOM      1  C1  I4B d   1      -0.181   0.079  -0.679  0.00  0.00    -0.075 A 
ATOM      2  C2  I4B d   1      -1.024  -1.004  -0.671  0.00  0.00     0.003 A 
ATOM      3  C3  I4B d   1      -0.543  -2.285  -1.037  0.00  0.00     0.002 A 
ATOM      4  C4  I4B d   1       0.766  -2.427  -1.449  0.00  0.00    -0.004 A 
ATOM      5  C5  I4B d   1       1.625  -1.332  -1.435  0.00  0.00     0.002 A 
ATOM      6  C6  I4B d   1       1.153  -0.074  -1.036  0.00  0.00     0.003 A 
ENDROOT
BRANCH   1   7
ATOM      7  C1' I4B d   1      -0.730   1.423  -0.319  0.00  0.00     0.060 C 
BRANCH   7   8
ATOM      8  C2' I4B d   1       0.414   2.272   0.194  0.00  0.00    -0.013 C 
ATOM      9  C4' I4B d   1       0.385   3.650  -0.412  0.00  0.00     0.013 C 
ATOM     10  C3' I4B d   1       0.309   2.336   1.689  0.00  0.00     0.013 C 
ENDBRANCH   7   8
ENDBRANCH   1   7
TORSDOF 2
ENDMDL
