MODEL 1
REMARK minimizedAffinity -3.37341785
REMARK minimizedRMSD -1
REMARK  2 active torsions:
REMARK  status: ('A' for Active; 'I' for Inactive)
REMARK    1  A    between atoms: C2'_3  and  C1'_4 
REMARK    2  A    between atoms: C1'_4  and  C1_5 
ROOT
ATOM      1  C1  I4B d   1      -4.796   3.182  -1.739  0.00  0.00    -0.075 A 
ATOM      2  C2  I4B d   1      -3.608   2.598  -1.377  0.00  0.00     0.003 A 
ATOM      3  C3  I4B d   1      -3.599   1.486  -0.501  0.00  0.00     0.002 A 
ATOM      4  C4  I4B d   1      -4.788   1.026   0.026  0.00  0.00    -0.004 A 
ATOM      5  C5  I4B d   1      -5.993   1.605  -0.360  0.00  0.00     0.002 A 
ATOM      6  C6  I4B d   1      -5.999   2.682  -1.258  0.00  0.00     0.003 A 
ENDROOT
BRANCH   1   7
ATOM      7  C1' I4B d   1      -4.766   4.375  -2.641  0.00  0.00     0.060 C 
BRANCH   7   8
ATOM      8  C2' I4B d   1      -5.667   4.088  -3.825  0.00  0.00    -0.013 C 
ATOM      9  C4' I4B d   1      -5.995   5.349  -4.580  0.00  0.00     0.013 C 
ATOM     10  C3' I4B d   1      -4.970   3.095  -4.707  0.00  0.00     0.013 C 
ENDBRANCH   7   8
ENDBRANCH   1   7
TORSDOF 2
ENDMDL
