MODEL 1
REMARK minimizedAffinity -2.89475727
REMARK minimizedRMSD -1
REMARK  2 active torsions:
REMARK  status: ('A' for Active; 'I' for Inactive)
REMARK    1  A    between atoms: C2'_3  and  C1'_4 
REMARK    2  A    between atoms: C1'_4  and  C1_5 
ROOT
ATOM      1  C1  I4B d   1      -5.349   3.236  -4.080  0.00  0.00    -0.075 A 
ATOM      2  C2  I4B d   1      -5.994   3.787  -3.000  0.00  0.00     0.003 A 
ATOM      3  C3  I4B d   1      -5.505   3.566  -1.690  0.00  0.00     0.002 A 
ATOM      4  C4  I4B d   1      -4.406   2.752  -1.502  0.00  0.00    -0.004 A 
ATOM      5  C5  I4B d   1      -3.741   2.214  -2.600  0.00  0.00     0.002 A 
ATOM      6  C6  I4B d   1      -4.208   2.467  -3.898  0.00  0.00     0.003 A 
ENDROOT
BRANCH   1   7
ATOM      7  C1' I4B d   1      -5.912   3.463  -5.447  0.00  0.00     0.060 C 
BRANCH   7   8
ATOM      8  C2' I4B d   1      -5.500   4.850  -5.897  0.00  0.00    -0.013 C 
ATOM      9  C4' I4B d   1      -6.000   5.903  -4.945  0.00  0.00     0.013 C 
ATOM     10  C3' I4B d   1      -4.004   4.878  -6.000  0.00  0.00     0.013 C 
ENDBRANCH   7   8
ENDBRANCH   1   7
TORSDOF 2
ENDMDL
