MODEL 1
REMARK minimizedAffinity -4.96349955
REMARK minimizedRMSD -1
REMARK  2 active torsions:
REMARK  status: ('A' for Active; 'I' for Inactive)
REMARK    1  A    between atoms: C2'_3  and  C1'_4 
REMARK    2  A    between atoms: C1'_4  and  C1_5 
ROOT
ATOM      1  C1  I4B d   1      -5.664   2.603  -4.852  0.00  0.00    -0.075 A 
ATOM      2  C2  I4B d   1      -5.851   2.297  -3.527  0.00  0.00     0.003 A 
ATOM      3  C3  I4B d   1      -5.998   3.330  -2.571  0.00  0.00     0.002 A 
ATOM      4  C4  I4B d   1      -5.903   4.647  -2.973  0.00  0.00    -0.004 A 
ATOM      5  C5  I4B d   1      -5.737   4.956  -4.320  0.00  0.00     0.002 A 
ATOM      6  C6  I4B d   1      -5.629   3.928  -5.268  0.00  0.00     0.003 A 
ENDROOT
BRANCH   1   7
ATOM      7  C1' I4B d   1      -5.479   1.487  -5.831  0.00  0.00     0.060 C 
BRANCH   7   8
ATOM      8  C2' I4B d   1      -4.210   0.747  -5.460  0.00  0.00    -0.013 C 
ATOM      9  C4' I4B d   1      -4.221  -0.659  -6.000  0.00  0.00     0.013 C 
ATOM     10  C3' I4B d   1      -3.046   1.524  -5.999  0.00  0.00     0.013 C 
ENDBRANCH   7   8
ENDBRANCH   1   7
TORSDOF 2
ENDMDL
