MODEL 1
REMARK minimizedAffinity 0.0204410739
REMARK minimizedRMSD -1
REMARK  2 active torsions:
REMARK  status: ('A' for Active; 'I' for Inactive)
REMARK    1  A    between atoms: C2'_3  and  C1'_4 
REMARK    2  A    between atoms: C1'_4  and  C1_5 
ROOT
ATOM      1  C1  I4B d   1      -3.880   1.867  -5.428  0.00  0.00    -0.075 A 
ATOM      2  C2  I4B d   1      -5.145   2.028  -4.920  0.00  0.00     0.003 A 
ATOM      3  C3  I4B d   1      -6.000   0.909  -4.769  0.00  0.00     0.002 A 
ATOM      4  C4  I4B d   1      -5.571  -0.335  -5.183  0.00  0.00    -0.004 A 
ATOM      5  C5  I4B d   1      -4.280  -0.500  -5.677  0.00  0.00     0.002 A 
ATOM      6  C6  I4B d   1      -3.424   0.605  -5.789  0.00  0.00     0.003 A 
ENDROOT
BRANCH   1   7
ATOM      7  C1' I4B d   1      -3.015   3.074  -5.605  0.00  0.00     0.060 C 
BRANCH   7   8
ATOM      8  C2' I4B d   1      -3.334   4.044  -4.485  0.00  0.00    -0.013 C 
ATOM      9  C4' I4B d   1      -4.579   4.836  -4.788  0.00  0.00     0.013 C 
ATOM     10  C3' I4B d   1      -3.487   3.256  -3.219  0.00  0.00     0.013 C 
ENDBRANCH   7   8
ENDBRANCH   1   7
TORSDOF 2
ENDMDL
