MODEL 1
REMARK minimizedAffinity -2.65747571
REMARK minimizedRMSD -1
REMARK  2 active torsions:
REMARK  status: ('A' for Active; 'I' for Inactive)
REMARK    1  A    between atoms: C2'_3  and  C1'_4 
REMARK    2  A    between atoms: C1'_4  and  C1_5 
ROOT
ATOM      1  C1  I4B d   1      -5.234   2.920  -5.544  0.00  0.00    -0.075 A 
ATOM      2  C2  I4B d   1      -5.890   1.921  -4.869  0.00  0.00     0.003 A 
ATOM      3  C3  I4B d   1      -5.204   0.739  -4.499  0.00  0.00     0.002 A 
ATOM      4  C4  I4B d   1      -3.884   0.577  -4.867  0.00  0.00    -0.004 A 
ATOM      5  C5  I4B d   1      -3.213   1.600  -5.532  0.00  0.00     0.002 A 
ATOM      6  C6  I4B d   1      -3.888   2.784  -5.862  0.00  0.00     0.003 A 
ENDROOT
BRANCH   1   7
ATOM      7  C1' I4B d   1      -5.998   4.141  -5.947  0.00  0.00     0.060 C 
BRANCH   7   8
ATOM      8  C2' I4B d   1      -5.680   5.240  -4.954  0.00  0.00    -0.013 C 
ATOM      9  C4' I4B d   1      -5.999   4.811  -3.546  0.00  0.00     0.013 C 
ATOM     10  C3' I4B d   1      -4.229   5.588  -5.098  0.00  0.00     0.013 C 
ENDBRANCH   7   8
ENDBRANCH   1   7
TORSDOF 2
ENDMDL
