MODEL 1
REMARK minimizedAffinity 3.37708879
REMARK minimizedRMSD -1
REMARK  1 active torsions:
REMARK  status: ('A' for Active; 'I' for Inactive)
REMARK    1  A    between atoms: N_2  and  C1_3 
ROOT
ATOM      1  C1  UNL d   1       3.006  -5.859  -0.825  0.00  0.00     0.143 A 
ATOM      2  C2  UNL d   1       1.714  -6.000  -0.307  0.00  0.00    -0.057 A 
ATOM      3  C3  UNL d   1       1.475  -5.948   1.072  0.00  0.00     0.033 A 
ATOM      4  C4  UNL d   1       2.531  -5.783   1.962  0.00  0.00    -0.042 A 
ATOM      5  C5  UNL d   1       3.827  -5.667   1.471  0.00  0.00     0.033 A 
ATOM      6  C6  UNL d   1       4.058  -5.712   0.093  0.00  0.00    -0.057 A 
ENDROOT
BRANCH   1   7
ATOM      7  N   UNL d   1       3.321  -6.000  -2.178  0.00  0.00    -0.732 N 
ATOM      8  C   UNL d   1       4.437  -5.280  -2.754  0.00  0.00     0.284 C 
ATOM      9  H3  UNL d   1       3.236  -6.962  -2.499  0.00  0.00     0.395 HD
ENDBRANCH   1   7
TORSDOF 1
ENDMDL
