MODEL 1
REMARK minimizedAffinity 1.84024632
REMARK minimizedRMSD -1
REMARK  1 active torsions:
REMARK  status: ('A' for Active; 'I' for Inactive)
REMARK    1  A    between atoms: N_2  and  C1_3 
ROOT
ATOM      1  C1  UNL d   1       3.740  -3.466  -2.600  0.00  0.00     0.143 A 
ATOM      2  C2  UNL d   1       3.955  -4.611  -3.375  0.00  0.00    -0.057 A 
ATOM      3  C3  UNL d   1       4.116  -5.869  -2.782  0.00  0.00     0.033 A 
ATOM      4  C4  UNL d   1       4.094  -6.000  -1.397  0.00  0.00    -0.042 A 
ATOM      5  C5  UNL d   1       3.906  -4.872  -0.607  0.00  0.00     0.033 A 
ATOM      6  C6  UNL d   1       3.739  -3.619  -1.205  0.00  0.00    -0.057 A 
ENDROOT
BRANCH   1   7
ATOM      7  N   UNL d   1       3.671  -2.173  -3.126  0.00  0.00    -0.732 N 
ATOM      8  C   UNL d   1       2.621  -1.266  -2.715  0.00  0.00     0.284 C 
ATOM      9  H3  UNL d   1       4.587  -1.738  -3.209  0.00  0.00     0.395 HD
ENDBRANCH   1   7
TORSDOF 1
ENDMDL
