MODEL 1
REMARK minimizedAffinity 0.453068882
REMARK minimizedRMSD -1
REMARK  1 active torsions:
REMARK  status: ('A' for Active; 'I' for Inactive)
REMARK    1  A    between atoms: N_2  and  C1_3 
ROOT
ATOM      1  C1  UNL d   1       2.584  -5.923  -3.257  0.00  0.00     0.143 A 
ATOM      2  C2  UNL d   1       2.133  -5.950  -1.933  0.00  0.00    -0.057 A 
ATOM      3  C3  UNL d   1       3.032  -5.973  -0.860  0.00  0.00     0.033 A 
ATOM      4  C4  UNL d   1       4.403  -6.000  -1.095  0.00  0.00    -0.042 A 
ATOM      5  C5  UNL d   1       4.873  -6.000  -2.403  0.00  0.00     0.033 A 
ATOM      6  C6  UNL d   1       3.970  -5.970  -3.470  0.00  0.00    -0.057 A 
ENDROOT
BRANCH   1   7
ATOM      7  N   UNL d   1       1.740  -5.999  -4.368  0.00  0.00    -0.732 N 
ATOM      8  C   UNL d   1       2.284  -5.993  -5.709  0.00  0.00     0.284 C 
ATOM      9  H3  UNL d   1       0.977  -6.659  -4.232  0.00  0.00     0.395 HD
ENDBRANCH   1   7
TORSDOF 1
ENDMDL
