MODEL 1
REMARK minimizedAffinity 9.57722378
REMARK minimizedRMSD -1
REMARK  1 active torsions:
REMARK  status: ('A' for Active; 'I' for Inactive)
REMARK    1  A    between atoms: N_2  and  C1_3 
ROOT
ATOM      1  C1  UNL d   1       3.146  -5.921   0.581  0.00  0.00     0.143 A 
ATOM      2  C2  UNL d   1       4.518  -5.961   0.311  0.00  0.00    -0.057 A 
ATOM      3  C3  UNL d   1       4.999  -5.986  -1.004  0.00  0.00     0.033 A 
ATOM      4  C4  UNL d   1       4.111  -6.000  -2.075  0.00  0.00    -0.042 A 
ATOM      5  C5  UNL d   1       2.743  -5.986  -1.830  0.00  0.00     0.033 A 
ATOM      6  C6  UNL d   1       2.269  -5.954  -0.514  0.00  0.00    -0.057 A 
ENDROOT
BRANCH   1   7
ATOM      7  N   UNL d   1       2.605  -5.995   1.867  0.00  0.00    -0.732 N 
ATOM      8  C   UNL d   1       2.574  -4.828   2.722  0.00  0.00     0.284 C 
ATOM      9  H3  UNL d   1       1.757  -6.557   1.899  0.00  0.00     0.395 HD
ENDBRANCH   1   7
TORSDOF 1
ENDMDL
