MODEL 1
REMARK minimizedAffinity -1.31526148
REMARK minimizedRMSD -1
REMARK  1 active torsions:
REMARK  status: ('A' for Active; 'I' for Inactive)
REMARK    1  A    between atoms: N_2  and  C1_3 
ROOT
ATOM      1  C1  UNL d   1       4.013  -5.946  -3.307  0.00  0.00     0.143 A 
ATOM      2  C2  UNL d   1       2.652  -5.973  -3.629  0.00  0.00    -0.057 A 
ATOM      3  C3  UNL d   1       2.221  -6.000  -4.961  0.00  0.00     0.033 A 
ATOM      4  C4  UNL d   1       3.147  -5.969  -5.998  0.00  0.00    -0.042 A 
ATOM      5  C5  UNL d   1       4.505  -5.916  -5.702  0.00  0.00     0.033 A 
ATOM      6  C6  UNL d   1       4.929  -5.897  -4.369  0.00  0.00    -0.057 A 
ENDROOT
BRANCH   1   7
ATOM      7  N   UNL d   1       4.501  -5.819  -2.004  0.00  0.00    -0.732 N 
ATOM      8  C   UNL d   1       3.622  -5.987  -0.867  0.00  0.00     0.284 C 
ATOM      9  H3  UNL d   1       5.416  -6.250  -1.889  0.00  0.00     0.395 HD
ENDBRANCH   1   7
TORSDOF 1
ENDMDL
