MODEL 1
REMARK minimizedAffinity 6.92871523
REMARK minimizedRMSD -1
REMARK  1 active torsions:
REMARK  status: ('A' for Active; 'I' for Inactive)
REMARK    1  A    between atoms: N_2  and  C1_3 
ROOT
ATOM      1  C1  UNL d   1       1.879  -2.211   2.979  0.00  0.00     0.143 A 
ATOM      2  C2  UNL d   1       1.093  -3.368   3.010  0.00  0.00    -0.057 A 
ATOM      3  C3  UNL d   1       1.506  -4.507   3.711  0.00  0.00     0.033 A 
ATOM      4  C4  UNL d   1       2.730  -4.519   4.372  0.00  0.00    -0.042 A 
ATOM      5  C5  UNL d   1       3.538  -3.389   4.334  0.00  0.00     0.033 A 
ATOM      6  C6  UNL d   1       3.117  -2.252   3.638  0.00  0.00    -0.057 A 
ENDROOT
BRANCH   1   7
ATOM      7  N   UNL d   1       1.569  -1.080   2.218  0.00  0.00    -0.732 N 
ATOM      8  C   UNL d   1       2.603  -0.144   1.836  0.00  0.00     0.284 C 
ATOM      9  H3  UNL d   1       0.896  -1.280   1.482  0.00  0.00     0.395 HD
ENDBRANCH   1   7
TORSDOF 1
ENDMDL
