MODEL 1
REMARK minimizedAffinity 1.35916495
REMARK minimizedRMSD -1
REMARK  1 active torsions:
REMARK  status: ('A' for Active; 'I' for Inactive)
REMARK    1  A    between atoms: N_2  and  C1_3 
ROOT
ATOM      1  C1  UNL d   1       3.239  -5.701  -3.514  0.00  0.00     0.143 A 
ATOM      2  C2  UNL d   1       2.153  -6.000  -2.685  0.00  0.00    -0.057 A 
ATOM      3  C3  UNL d   1       2.207  -5.769  -1.305  0.00  0.00     0.033 A 
ATOM      4  C4  UNL d   1       3.364  -5.260  -0.724  0.00  0.00    -0.042 A 
ATOM      5  C5  UNL d   1       4.465  -4.979  -1.525  0.00  0.00     0.033 A 
ATOM      6  C6  UNL d   1       4.402  -5.206  -2.903  0.00  0.00    -0.057 A 
ENDROOT
BRANCH   1   7
ATOM      7  N   UNL d   1       3.282  -6.000  -4.878  0.00  0.00    -0.732 N 
ATOM      8  C   UNL d   1       2.072  -5.999  -5.671  0.00  0.00     0.284 C 
ATOM      9  H3  UNL d   1       4.084  -5.580  -5.342  0.00  0.00     0.395 HD
ENDBRANCH   1   7
TORSDOF 1
ENDMDL
