MODEL 1
REMARK minimizedAffinity 5.83527851
REMARK minimizedRMSD -1
REMARK  1 active torsions:
REMARK  status: ('A' for Active; 'I' for Inactive)
REMARK    1  A    between atoms: N_2  and  C1_3 
ROOT
ATOM      1  C1  UNL d   1       2.251  -0.038   2.303  0.00  0.00     0.143 A 
ATOM      2  C2  UNL d   1       3.194  -0.909   2.859  0.00  0.00    -0.057 A 
ATOM      3  C3  UNL d   1       2.987  -2.293   2.868  0.00  0.00     0.033 A 
ATOM      4  C4  UNL d   1       1.814  -2.831   2.347  0.00  0.00    -0.042 A 
ATOM      5  C5  UNL d   1       0.851  -1.982   1.812  0.00  0.00     0.033 A 
ATOM      6  C6  UNL d   1       1.068  -0.600   1.800  0.00  0.00    -0.057 A 
ENDROOT
BRANCH   1   7
ATOM      7  N   UNL d   1       2.354   1.355   2.352  0.00  0.00    -0.732 N 
ATOM      8  C   UNL d   1       2.941   2.089   1.252  0.00  0.00     0.284 C 
ATOM      9  H3  UNL d   1       1.526   1.792   2.749  0.00  0.00     0.395 HD
ENDBRANCH   1   7
TORSDOF 1
ENDMDL
