MODEL 1
REMARK minimizedAffinity 7.83930492
REMARK minimizedRMSD -1
REMARK  2 active torsions:
REMARK  status: ('A' for Active; 'I' for Inactive)
REMARK    1  A    between atoms: C2'_3  and  C1'_4 
REMARK    2  A    between atoms: C1'_4  and  C1_5 
ROOT
ATOM      1  C1  I4B d   1      -0.410  -5.938  -2.232  0.00  0.00    -0.075 A 
ATOM      2  C2  I4B d   1      -1.676  -5.997  -2.761  0.00  0.00     0.003 A 
ATOM      3  C3  I4B d   1      -1.862  -5.987  -4.164  0.00  0.00     0.002 A 
ATOM      4  C4  I4B d   1      -0.767  -5.865  -4.995  0.00  0.00    -0.004 A 
ATOM      5  C5  I4B d   1       0.517  -5.828  -4.457  0.00  0.00     0.002 A 
ATOM      6  C6  I4B d   1       0.697  -5.877  -3.067  0.00  0.00     0.003 A 
ENDROOT
BRANCH   1   7
ATOM      7  C1' I4B d   1      -0.252  -5.918  -0.744  0.00  0.00     0.060 C 
BRANCH   7   8
ATOM      8  C2' I4B d   1      -0.226  -4.470  -0.297  0.00  0.00    -0.013 C 
ATOM      9  C4' I4B d   1      -1.442  -4.131   0.524  0.00  0.00     0.013 C 
ATOM     10  C3' I4B d   1       1.034  -4.250   0.486  0.00  0.00     0.013 C 
ENDBRANCH   7   8
ENDBRANCH   1   7
TORSDOF 2
ENDMDL
