MODEL 1
REMARK minimizedAffinity 8.32709408
REMARK minimizedRMSD -1
REMARK  2 active torsions:
REMARK  status: ('A' for Active; 'I' for Inactive)
REMARK    1  A    between atoms: C2'_3  and  C1'_4 
REMARK    2  A    between atoms: C1'_4  and  C1_5 
ROOT
ATOM      1  C1  I4B d   1      -4.506  -5.942  -0.102  0.00  0.00    -0.075 A 
ATOM      2  C2  I4B d   1      -3.249  -5.988  -0.652  0.00  0.00     0.003 A 
ATOM      3  C3  I4B d   1      -3.086  -5.985  -2.058  0.00  0.00     0.002 A 
ATOM      4  C4  I4B d   1      -4.201  -5.985  -2.872  0.00  0.00    -0.004 A 
ATOM      5  C5  I4B d   1      -5.473  -5.915  -2.313  0.00  0.00     0.002 A 
ATOM      6  C6  I4B d   1      -5.627  -5.880  -0.919  0.00  0.00     0.003 A 
ENDROOT
BRANCH   1   7
ATOM      7  C1' I4B d   1      -4.643  -5.980   1.387  0.00  0.00     0.060 C 
BRANCH   7   8
ATOM      8  C2' I4B d   1      -4.938  -4.573   1.865  0.00  0.00    -0.013 C 
ATOM      9  C4' I4B d   1      -4.751  -4.453   3.355  0.00  0.00     0.013 C 
ATOM     10  C3' I4B d   1      -4.029  -3.634   1.129  0.00  0.00     0.013 C 
ENDBRANCH   7   8
ENDBRANCH   1   7
TORSDOF 2
ENDMDL
