MODEL 1
REMARK minimizedAffinity 3.86486697
REMARK minimizedRMSD -1
REMARK  2 active torsions:
REMARK  status: ('A' for Active; 'I' for Inactive)
REMARK    1  A    between atoms: C2'_3  and  C1'_4 
REMARK    2  A    between atoms: C1'_4  and  C1_5 
ROOT
ATOM      1  C1  I4B d   1       3.265   3.958  -0.005  0.00  0.00    -0.075 A 
ATOM      2  C2  I4B d   1       3.897   3.490  -1.130  0.00  0.00     0.003 A 
ATOM      3  C3  I4B d   1       5.181   3.974  -1.479  0.00  0.00     0.002 A 
ATOM      4  C4  I4B d   1       5.770   4.956  -0.709  0.00  0.00    -0.004 A 
ATOM      5  C5  I4B d   1       5.137   5.412   0.444  0.00  0.00     0.002 A 
ATOM      6  C6  I4B d   1       3.882   4.901   0.805  0.00  0.00     0.003 A 
ENDROOT
BRANCH   1   7
ATOM      7  C1' I4B d   1       1.895   3.449   0.315  0.00  0.00     0.060 C 
BRANCH   7   8
ATOM      8  C2' I4B d   1       0.906   4.562   0.034  0.00  0.00    -0.013 C 
ATOM      9  C4' I4B d   1      -0.226   4.078  -0.834  0.00  0.00     0.013 C 
ATOM     10  C3' I4B d   1       0.399   5.075   1.348  0.00  0.00     0.013 C 
ENDBRANCH   7   8
ENDBRANCH   1   7
TORSDOF 2
ENDMDL
