MODEL 1
REMARK minimizedAffinity 3.9587779
REMARK minimizedRMSD -1
REMARK  2 active torsions:
REMARK  status: ('A' for Active; 'I' for Inactive)
REMARK    1  A    between atoms: C2'_3  and  C1'_4 
REMARK    2  A    between atoms: C1'_4  and  C1_5 
ROOT
ATOM      1  C1  I4B d   1      -0.013  -5.904  -2.913  0.00  0.00    -0.075 A 
ATOM      2  C2  I4B d   1       1.209  -5.881  -3.539  0.00  0.00     0.003 A 
ATOM      3  C3  I4B d   1       1.286  -5.904  -4.953  0.00  0.00     0.002 A 
ATOM      4  C4  I4B d   1       0.127  -6.000  -5.695  0.00  0.00    -0.004 A 
ATOM      5  C5  I4B d   1      -1.112  -5.999  -5.060  0.00  0.00     0.002 A 
ATOM      6  C6  I4B d   1      -1.183  -5.938  -3.661  0.00  0.00     0.003 A 
ENDROOT
BRANCH   1   7
ATOM      7  C1' I4B d   1      -0.057  -5.912  -1.418  0.00  0.00     0.060 C 
BRANCH   7   8
ATOM      8  C2' I4B d   1      -0.349  -4.500  -0.952  0.00  0.00    -0.013 C 
ATOM      9  C4' I4B d   1      -1.676  -4.423  -0.244  0.00  0.00     0.013 C 
ATOM     10  C3' I4B d   1       0.770  -4.068  -0.052  0.00  0.00     0.013 C 
ENDBRANCH   7   8
ENDBRANCH   1   7
TORSDOF 2
ENDMDL
