MODEL 1
REMARK minimizedAffinity 10.793745
REMARK minimizedRMSD -1
REMARK  2 active torsions:
REMARK  status: ('A' for Active; 'I' for Inactive)
REMARK    1  A    between atoms: C2'_3  and  C1'_4 
REMARK    2  A    between atoms: C1'_4  and  C1_5 
ROOT
ATOM      1  C1  I4B d   1       1.305  -0.645   0.742  0.00  0.00    -0.075 A 
ATOM      2  C2  I4B d   1       0.127  -0.025   0.405  0.00  0.00     0.003 A 
ATOM      3  C3  I4B d   1      -1.057  -0.784   0.240  0.00  0.00     0.002 A 
ATOM      4  C4  I4B d   1      -1.007  -2.157   0.371  0.00  0.00    -0.004 A 
ATOM      5  C5  I4B d   1       0.182  -2.781   0.735  0.00  0.00     0.002 A 
ATOM      6  C6  I4B d   1       1.343  -2.020   0.934  0.00  0.00     0.003 A 
ENDROOT
BRANCH   1   7
ATOM      7  C1' I4B d   1       2.543   0.183   0.875  0.00  0.00     0.060 C 
BRANCH   7   8
ATOM      8  C2' I4B d   1       3.730  -0.691   0.525  0.00  0.00    -0.013 C 
ATOM      9  C4' I4B d   1       4.320  -0.302  -0.805  0.00  0.00     0.013 C 
ATOM     10  C3' I4B d   1       4.741  -0.563   1.624  0.00  0.00     0.013 C 
ENDBRANCH   7   8
ENDBRANCH   1   7
TORSDOF 2
ENDMDL
