MODEL 1
REMARK minimizedAffinity 9.64855957
REMARK minimizedRMSD -1
REMARK  2 active torsions:
REMARK  status: ('A' for Active; 'I' for Inactive)
REMARK    1  A    between atoms: C2'_3  and  C1'_4 
REMARK    2  A    between atoms: C1'_4  and  C1_5 
ROOT
ATOM      1  C1  I4B d   1      -3.395  -3.978   1.013  0.00  0.00    -0.075 A 
ATOM      2  C2  I4B d   1      -3.939  -4.213   2.251  0.00  0.00     0.003 A 
ATOM      3  C3  I4B d   1      -4.882  -5.254   2.429  0.00  0.00     0.002 A 
ATOM      4  C4  I4B d   1      -5.289  -5.996   1.340  0.00  0.00    -0.004 A 
ATOM      5  C5  I4B d   1      -4.720  -5.771   0.090  0.00  0.00     0.002 A 
ATOM      6  C6  I4B d   1      -3.758  -4.764  -0.073  0.00  0.00     0.003 A 
ENDROOT
BRANCH   1   7
ATOM      7  C1' I4B d   1      -2.426  -2.850   0.854  0.00  0.00     0.060 C 
BRANCH   7   8
ATOM      8  C2' I4B d   1      -1.030  -3.401   1.061  0.00  0.00    -0.013 C 
ATOM      9  C4' I4B d   1      -0.002  -2.564   0.346  0.00  0.00     0.013 C 
ATOM     10  C3' I4B d   1      -0.763  -3.444   2.536  0.00  0.00     0.013 C 
ENDBRANCH   7   8
ENDBRANCH   1   7
TORSDOF 2
ENDMDL
