MODEL 1
REMARK minimizedAffinity 4.01359034
REMARK minimizedRMSD -1
REMARK  2 active torsions:
REMARK  status: ('A' for Active; 'I' for Inactive)
REMARK    1  A    between atoms: C2'_3  and  C1'_4 
REMARK    2  A    between atoms: C1'_4  and  C1_5 
ROOT
ATOM      1  C1  I4B d   1       0.644  -1.228   0.262  0.00  0.00    -0.075 A 
ATOM      2  C2  I4B d   1      -0.050  -1.984  -0.649  0.00  0.00     0.003 A 
ATOM      3  C3  I4B d   1       0.145  -3.385  -0.708  0.00  0.00     0.002 A 
ATOM      4  C4  I4B d   1       1.073  -3.978   0.123  0.00  0.00    -0.004 A 
ATOM      5  C5  I4B d   1       1.759  -3.213   1.062  0.00  0.00     0.002 A 
ATOM      6  C6  I4B d   1       1.535  -1.831   1.141  0.00  0.00     0.003 A 
ENDROOT
BRANCH   1   7
ATOM      7  C1' I4B d   1       0.439   0.254   0.274  0.00  0.00     0.060 C 
BRANCH   7   8
ATOM      8  C2' I4B d   1       1.362   0.862  -0.762  0.00  0.00    -0.013 C 
ATOM      9  C4' I4B d   1       2.783   0.403  -0.563  0.00  0.00     0.013 C 
ATOM     10  C3' I4B d   1       0.854   0.475  -2.119  0.00  0.00     0.013 C 
ENDBRANCH   7   8
ENDBRANCH   1   7
TORSDOF 2
ENDMDL
