MODEL 1
REMARK minimizedAffinity 0.934074998
REMARK minimizedRMSD -1
REMARK  2 active torsions:
REMARK  status: ('A' for Active; 'I' for Inactive)
REMARK    1  A    between atoms: C2'_3  and  C1'_4 
REMARK    2  A    between atoms: C1'_4  and  C1_5 
ROOT
ATOM      1  C1  I4B d   1       0.228   0.010   0.076  0.00  0.00    -0.075 A 
ATOM      2  C2  I4B d   1      -0.794  -0.622   0.740  0.00  0.00     0.003 A 
ATOM      3  C3  I4B d   1      -0.597  -1.912   1.289  0.00  0.00     0.002 A 
ATOM      4  C4  I4B d   1       0.614  -2.550   1.107  0.00  0.00    -0.004 A 
ATOM      5  C5  I4B d   1       1.655  -1.898   0.453  0.00  0.00     0.002 A 
ATOM      6  C6  I4B d   1       1.466  -0.605  -0.055  0.00  0.00     0.003 A 
ENDROOT
BRANCH   1   7
ATOM      7  C1' I4B d   1      -0.026   1.359  -0.520  0.00  0.00     0.060 C 
BRANCH   7   8
ATOM      8  C2' I4B d   1      -0.579   1.156  -1.916  0.00  0.00    -0.013 C 
ATOM      9  C4' I4B d   1      -2.036   0.776  -1.875  0.00  0.00     0.013 C 
ATOM     10  C3' I4B d   1      -0.372   2.427  -2.684  0.00  0.00     0.013 C 
ENDBRANCH   7   8
ENDBRANCH   1   7
TORSDOF 2
ENDMDL
