MODEL 1
REMARK minimizedAffinity -3.80433702
REMARK minimizedRMSD -1
REMARK  2 active torsions:
REMARK  status: ('A' for Active; 'I' for Inactive)
REMARK    1  A    between atoms: C2'_3  and  C1'_4 
REMARK    2  A    between atoms: C1'_4  and  C1_5 
ROOT
ATOM      1  C1  I4B d   1      -0.726  -5.856  -3.601  0.00  0.00    -0.075 A 
ATOM      2  C2  I4B d   1      -1.251  -5.988  -4.862  0.00  0.00     0.003 A 
ATOM      3  C3  I4B d   1      -0.417  -5.863  -5.999  0.00  0.00     0.002 A 
ATOM      4  C4  I4B d   1       0.918  -5.556  -5.832  0.00  0.00    -0.004 A 
ATOM      5  C5  I4B d   1       1.454  -5.445  -4.552  0.00  0.00     0.002 A 
ATOM      6  C6  I4B d   1       0.630  -5.608  -3.429  0.00  0.00     0.003 A 
ENDROOT
BRANCH   1   7
ATOM      7  C1' I4B d   1      -1.642  -5.962  -2.424  0.00  0.00     0.060 C 
BRANCH   7   8
ATOM      8  C2' I4B d   1      -3.066  -5.990  -2.941  0.00  0.00    -0.013 C 
ATOM      9  C4' I4B d   1      -4.058  -5.999  -1.808  0.00  0.00     0.013 C 
ATOM     10  C3' I4B d   1      -3.262  -4.793  -3.823  0.00  0.00     0.013 C 
ENDBRANCH   7   8
ENDBRANCH   1   7
TORSDOF 2
ENDMDL
