MODEL 1
REMARK minimizedAffinity 1.69891322
REMARK minimizedRMSD -1
REMARK  2 active torsions:
REMARK  status: ('A' for Active; 'I' for Inactive)
REMARK    1  A    between atoms: C2'_3  and  C1'_4 
REMARK    2  A    between atoms: C1'_4  and  C1_5 
ROOT
ATOM      1  C1  I4B d   1      -1.903  -5.995  -3.581  0.00  0.00    -0.075 A 
ATOM      2  C2  I4B d   1      -1.161  -5.993  -2.426  0.00  0.00     0.003 A 
ATOM      3  C3  I4B d   1      -1.804  -5.974  -1.165  0.00  0.00     0.002 A 
ATOM      4  C4  I4B d   1      -3.181  -5.905  -1.106  0.00  0.00    -0.004 A 
ATOM      5  C5  I4B d   1      -3.933  -5.930  -2.277  0.00  0.00     0.002 A 
ATOM      6  C6  I4B d   1      -3.291  -5.988  -3.522  0.00  0.00     0.003 A 
ENDROOT
BRANCH   1   7
ATOM      7  C1' I4B d   1      -1.190  -5.982  -4.896  0.00  0.00     0.060 C 
BRANCH   7   8
ATOM      8  C2' I4B d   1       0.278  -5.718  -4.629  0.00  0.00    -0.013 C 
ATOM      9  C4' I4B d   1       1.113  -5.999  -5.850  0.00  0.00     0.013 C 
ATOM     10  C3' I4B d   1       0.420  -4.291  -4.192  0.00  0.00     0.013 C 
ENDBRANCH   7   8
ENDBRANCH   1   7
TORSDOF 2
ENDMDL
