MODEL 1
REMARK minimizedAffinity 7.91098547
REMARK minimizedRMSD -1
REMARK  2 active torsions:
REMARK  status: ('A' for Active; 'I' for Inactive)
REMARK    1  A    between atoms: C2'_3  and  C1'_4 
REMARK    2  A    between atoms: C1'_4  and  C1_5 
ROOT
ATOM      1  C1  I4B d   1       1.478  -0.990   1.370  0.00  0.00    -0.075 A 
ATOM      2  C2  I4B d   1       2.841  -1.131   1.460  0.00  0.00     0.003 A 
ATOM      3  C3  I4B d   1       3.695  -0.272   0.728  0.00  0.00     0.002 A 
ATOM      4  C4  I4B d   1       3.149   0.674  -0.115  0.00  0.00    -0.004 A 
ATOM      5  C5  I4B d   1       1.767   0.831  -0.187  0.00  0.00     0.002 A 
ATOM      6  C6  I4B d   1       0.927   0.001   0.569  0.00  0.00     0.003 A 
ENDROOT
BRANCH   1   7
ATOM      7  C1' I4B d   1       0.604  -1.936   2.132  0.00  0.00     0.060 C 
BRANCH   7   8
ATOM      8  C2' I4B d   1       0.505  -3.222   1.337  0.00  0.00    -0.013 C 
ATOM      9  C4' I4B d   1      -0.023  -2.966  -0.050  0.00  0.00     0.013 C 
ATOM     10  C3' I4B d   1       1.868  -3.845   1.291  0.00  0.00     0.013 C 
ENDBRANCH   7   8
ENDBRANCH   1   7
TORSDOF 2
ENDMDL
