MODEL 1
REMARK minimizedAffinity 9.69677639
REMARK minimizedRMSD -1
REMARK  2 active torsions:
REMARK  status: ('A' for Active; 'I' for Inactive)
REMARK    1  A    between atoms: C2'_3  and  C1'_4 
REMARK    2  A    between atoms: C1'_4  and  C1_5 
ROOT
ATOM      1  C1  I4B d   1       1.409  -1.024   0.658  0.00  0.00    -0.075 A 
ATOM      2  C2  I4B d   1       1.778  -2.335   0.830  0.00  0.00     0.003 A 
ATOM      3  C3  I4B d   1       0.806  -3.362   0.772  0.00  0.00     0.002 A 
ATOM      4  C4  I4B d   1      -0.522  -3.033   0.592  0.00  0.00    -0.004 A 
ATOM      5  C5  I4B d   1      -0.891  -1.705   0.394  0.00  0.00     0.002 A 
ATOM      6  C6  I4B d   1       0.082  -0.695   0.415  0.00  0.00     0.003 A 
ENDROOT
BRANCH   1   7
ATOM      7  C1' I4B d   1       2.457   0.039   0.758  0.00  0.00     0.060 C 
BRANCH   7   8
ATOM      8  C2' I4B d   1       3.807  -0.616   0.553  0.00  0.00    -0.013 C 
ATOM      9  C4' I4B d   1       4.441  -0.165  -0.736  0.00  0.00     0.013 C 
ATOM     10  C3' I4B d   1       4.671  -0.273   1.730  0.00  0.00     0.013 C 
ENDBRANCH   7   8
ENDBRANCH   1   7
TORSDOF 2
ENDMDL
