MODEL 1
REMARK minimizedAffinity 9.49571419
REMARK minimizedRMSD -1
REMARK  0 active torsions:
REMARK  status: ('A' for Active; 'I' for Inactive)
ROOT
ATOM      1  O1  BZF d   1      -0.081   5.688   4.811  0.00  0.00    -0.204 OA
ATOM      2  C2  BZF d   1       0.457   5.013   3.732  0.00  0.00     0.174 A 
ATOM      3  C3  BZF d   1      -0.400   4.076   3.278  0.00  0.00    -0.012 A 
ATOM      4  C3A BZF d   1      -1.583   4.234   4.067  0.00  0.00    -0.107 A 
ATOM      5  C4  BZF d   1      -2.794   3.604   4.080  0.00  0.00     0.055 A 
ATOM      6  C5  BZF d   1      -3.708   3.948   5.025  0.00  0.00    -0.016 A 
ATOM      7  C6  BZF d   1      -3.442   4.913   5.975  0.00  0.00     0.022 A 
ATOM      8  C7  BZF d   1      -2.257   5.569   5.999  0.00  0.00     0.029 A 
ATOM      9  C7A BZF d   1      -1.344   5.247   5.025  0.00  0.00     0.058 A 
ENDROOT
TORSDOF 0
ENDMDL
