MODEL 1
REMARK minimizedAffinity 19.2090302
REMARK minimizedRMSD -1
REMARK  0 active torsions:
REMARK  status: ('A' for Active; 'I' for Inactive)
ROOT
ATOM      1  O1  BZF d   1      -2.661   3.154  -3.379  0.00  0.00    -0.204 OA
ATOM      2  C2  BZF d   1      -2.195   1.891  -3.069  0.00  0.00     0.174 A 
ATOM      3  C3  BZF d   1      -3.045   0.944  -3.517  0.00  0.00    -0.012 A 
ATOM      4  C3A BZF d   1      -4.061   1.657  -4.228  0.00  0.00    -0.107 A 
ATOM      5  C4  BZF d   1      -5.176   1.267  -4.914  0.00  0.00     0.055 A 
ATOM      6  C5  BZF d   1      -5.999   2.217  -5.431  0.00  0.00    -0.016 A 
ATOM      7  C6  BZF d   1      -5.741   3.564  -5.276  0.00  0.00     0.022 A 
ATOM      8  C7  BZF d   1      -4.645   3.998  -4.607  0.00  0.00     0.029 A 
ATOM      9  C7A BZF d   1      -3.794   3.041  -4.112  0.00  0.00     0.058 A 
ENDROOT
TORSDOF 0
ENDMDL
