MODEL 1
REMARK minimizedAffinity 9.39871216
REMARK minimizedRMSD -1
REMARK  0 active torsions:
REMARK  status: ('A' for Active; 'I' for Inactive)
ROOT
ATOM      1  O1  BZF d   1      -1.916   3.603  -2.999  0.00  0.00    -0.204 OA
ATOM      2  C2  BZF d   1      -1.726   2.237  -3.066  0.00  0.00     0.174 A 
ATOM      3  C3  BZF d   1      -2.507   1.691  -4.020  0.00  0.00    -0.012 A 
ATOM      4  C3A BZF d   1      -3.162   2.797  -4.648  0.00  0.00    -0.107 A 
ATOM      5  C4  BZF d   1      -4.053   2.899  -5.678  0.00  0.00     0.055 A 
ATOM      6  C5  BZF d   1      -4.556   4.121  -5.997  0.00  0.00    -0.016 A 
ATOM      7  C6  BZF d   1      -4.196   5.258  -5.305  0.00  0.00     0.022 A 
ATOM      8  C7  BZF d   1      -3.312   5.207  -4.279  0.00  0.00     0.029 A 
ATOM      9  C7A BZF d   1      -2.776   3.980  -3.975  0.00  0.00     0.058 A 
ENDROOT
TORSDOF 0
ENDMDL
