MODEL 1
REMARK minimizedAffinity 5.69670963
REMARK minimizedRMSD -1
REMARK  0 active torsions:
REMARK  status: ('A' for Active; 'I' for Inactive)
ROOT
ATOM      1  O1  BZF d   1       3.588   4.178   4.785  0.00  0.00    -0.204 OA
ATOM      2  C2  BZF d   1       3.952   5.113   5.735  0.00  0.00     0.174 A 
ATOM      3  C3  BZF d   1       2.956   5.998   5.942  0.00  0.00    -0.012 A 
ATOM      4  C3A BZF d   1       1.868   5.536   5.135  0.00  0.00    -0.107 A 
ATOM      5  C4  BZF d   1       0.596   5.986   4.927  0.00  0.00     0.055 A 
ATOM      6  C5  BZF d   1      -0.190   5.348   4.019  0.00  0.00    -0.016 A 
ATOM      7  C6  BZF d   1       0.265   4.263   3.300  0.00  0.00     0.022 A 
ATOM      8  C7  BZF d   1       1.518   3.777   3.475  0.00  0.00     0.029 A 
ATOM      9  C7A BZF d   1       2.304   4.399   4.415  0.00  0.00     0.058 A 
ENDROOT
TORSDOF 0
ENDMDL
