MODEL 1
REMARK minimizedAffinity 10.5680895
REMARK minimizedRMSD -1
REMARK  0 active torsions:
REMARK  status: ('A' for Active; 'I' for Inactive)
ROOT
ATOM      1  O1  BZF d   1       5.298  -3.042  -1.057  0.00  0.00    -0.204 OA
ATOM      2  C2  BZF d   1       5.998  -1.900  -0.717  0.00  0.00     0.174 A 
ATOM      3  C3  BZF d   1       5.214  -1.046  -0.028  0.00  0.00    -0.012 A 
ATOM      4  C3A BZF d   1       3.972  -1.734   0.149  0.00  0.00    -0.107 A 
ATOM      5  C4  BZF d   1       2.799  -1.411   0.769  0.00  0.00     0.055 A 
ATOM      6  C5  BZF d   1       1.753  -2.276   0.697  0.00  0.00    -0.016 A 
ATOM      7  C6  BZF d   1       1.843  -3.469   0.010  0.00  0.00     0.022 A 
ATOM      8  C7  BZF d   1       2.988  -3.835  -0.617  0.00  0.00     0.029 A 
ATOM      9  C7A BZF d   1       4.057  -2.978  -0.518  0.00  0.00     0.058 A 
ENDROOT
TORSDOF 0
ENDMDL
