MODEL 1
REMARK minimizedAffinity 11.7383385
REMARK minimizedRMSD -1
REMARK  0 active torsions:
REMARK  status: ('A' for Active; 'I' for Inactive)
ROOT
ATOM      1  O1  BZF d   1      -2.987   2.812  -3.186  0.00  0.00    -0.204 OA
ATOM      2  C2  BZF d   1      -1.762   3.148  -3.730  0.00  0.00     0.174 A 
ATOM      3  C3  BZF d   1      -0.826   2.234  -3.403  0.00  0.00    -0.012 A 
ATOM      4  C3A BZF d   1      -1.529   1.217  -2.682  0.00  0.00    -0.107 A 
ATOM      5  C4  BZF d   1      -1.146   0.039  -2.108  0.00  0.00     0.055 A 
ATOM      6  C5  BZF d   1      -2.063  -0.687  -1.416  0.00  0.00    -0.016 A 
ATOM      7  C6  BZF d   1      -3.368  -0.262  -1.272  0.00  0.00     0.022 A 
ATOM      8  C7  BZF d   1      -3.795   0.899  -1.828  0.00  0.00     0.029 A 
ATOM      9  C7A BZF d   1      -2.879   1.618  -2.556  0.00  0.00     0.058 A 
ENDROOT
TORSDOF 0
ENDMDL
