MODEL 1
REMARK minimizedAffinity 15.7354383
REMARK minimizedRMSD -1
REMARK  0 active torsions:
REMARK  status: ('A' for Active; 'I' for Inactive)
ROOT
ATOM      1  O1  BZF d   1       0.675  -4.316   0.648  0.00  0.00    -0.204 OA
ATOM      2  C2  BZF d   1       1.788  -4.875   0.051  0.00  0.00     0.174 A 
ATOM      3  C3  BZF d   1       2.784  -3.972  -0.045  0.00  0.00    -0.012 A 
ATOM      4  C3A BZF d   1       2.294  -2.799   0.611  0.00  0.00    -0.107 A 
ATOM      5  C4  BZF d   1       2.829  -1.567   0.858  0.00  0.00     0.055 A 
ATOM      6  C5  BZF d   1       2.061  -0.621   1.458  0.00  0.00    -0.016 A 
ATOM      7  C6  BZF d   1       0.754  -0.870   1.821  0.00  0.00     0.022 A 
ATOM      8  C7  BZF d   1       0.180  -2.078   1.602  0.00  0.00     0.029 A 
ATOM      9  C7A BZF d   1       0.964  -3.047   1.025  0.00  0.00     0.058 A 
ENDROOT
TORSDOF 0
ENDMDL
