MODEL 1
REMARK minimizedAffinity 2.98019814
REMARK minimizedRMSD -1
REMARK  0 active torsions:
REMARK  status: ('A' for Active; 'I' for Inactive)
ROOT
ATOM      1  O1  BZF d   1      -3.985   5.404  -3.886  0.00  0.00    -0.204 OA
ATOM      2  C2  BZF d   1      -4.674   5.882  -4.984  0.00  0.00     0.174 A 
ATOM      3  C3  BZF d   1      -4.628   4.997  -6.000  0.00  0.00    -0.012 A 
ATOM      4  C3A BZF d   1      -3.942   3.856  -5.475  0.00  0.00    -0.107 A 
ATOM      5  C4  BZF d   1      -3.599   2.643  -5.999  0.00  0.00     0.055 A 
ATOM      6  C5  BZF d   1      -2.867   1.781  -5.246  0.00  0.00    -0.016 A 
ATOM      7  C6  BZF d   1      -2.456   2.101  -3.969  0.00  0.00     0.022 A 
ATOM      8  C7  BZF d   1      -2.776   3.291  -3.404  0.00  0.00     0.029 A 
ATOM      9  C7A BZF d   1      -3.544   4.151  -4.150  0.00  0.00     0.058 A 
ENDROOT
TORSDOF 0
ENDMDL
