MODEL 1
REMARK minimizedAffinity 6.55170441
REMARK minimizedRMSD -1
REMARK  0 active torsions:
REMARK  status: ('A' for Active; 'I' for Inactive)
ROOT
ATOM      1  O1  BZF d   1      -0.657   2.345  -2.490  0.00  0.00    -0.204 OA
ATOM      2  C2  BZF d   1       0.508   2.454  -3.225  0.00  0.00     0.174 A 
ATOM      3  C3  BZF d   1       0.260   2.296  -4.541  0.00  0.00    -0.012 A 
ATOM      4  C3A BZF d   1      -1.161   2.167  -4.643  0.00  0.00    -0.107 A 
ATOM      5  C4  BZF d   1      -2.016   2.001  -5.695  0.00  0.00     0.055 A 
ATOM      6  C5  BZF d   1      -3.342   1.835  -5.449  0.00  0.00    -0.016 A 
ATOM      7  C6  BZF d   1      -3.847   1.826  -4.165  0.00  0.00     0.022 A 
ATOM      8  C7  BZF d   1      -3.039   1.992  -3.090  0.00  0.00     0.029 A 
ATOM      9  C7A BZF d   1      -1.703   2.192  -3.337  0.00  0.00     0.058 A 
ENDROOT
TORSDOF 0
ENDMDL
