MODEL 1
REMARK minimizedAffinity -1.48075104
REMARK minimizedRMSD -1
REMARK  1 active torsions:
REMARK  status: ('A' for Active; 'I' for Inactive)
REMARK    1  A    between atoms: C1_2  and  C2_3 
ROOT
ATOM      1  C2  UNL d   1      -0.603   0.278   1.055  0.00  0.00    -0.076 A 
ATOM      2  C3  UNL d   1       0.787   0.406   1.216  0.00  0.00     0.004 A 
ATOM      3  C4  UNL d   1       1.669  -0.074   0.250  0.00  0.00    -0.003 A 
ATOM      4  C5  UNL d   1       1.175  -0.690  -0.894  0.00  0.00     0.000 A 
ATOM      5  C6  UNL d   1      -0.202  -0.811  -1.079  0.00  0.00     0.000 A 
ATOM      6  C7  UNL d   1      -1.105  -0.318  -0.122  0.00  0.00    -0.073 A 
ATOM      7  C8  UNL d   1      -2.580  -0.480  -0.370  0.00  0.00     0.078 C 
ENDROOT
BRANCH   1   8
ATOM      8  C1  UNL d   1      -1.510   0.793   2.150  0.00  0.00     0.053 C 
ATOM      9  C   UNL d   1      -0.749   1.147   3.418  0.00  0.00     0.018 C 
ENDBRANCH   1   8
TORSDOF 1
ENDMDL
