MODEL 1
REMARK minimizedAffinity -3.95493722
REMARK minimizedRMSD -1
REMARK  1 active torsions:
REMARK  status: ('A' for Active; 'I' for Inactive)
REMARK    1  A    between atoms: C1_2  and  C2_3 
ROOT
ATOM      1  C2  UNL d   1      -0.103  -0.049   0.482  0.00  0.00    -0.076 A 
ATOM      2  C3  UNL d   1      -1.494   0.074   0.324  0.00  0.00     0.004 A 
ATOM      3  C4  UNL d   1      -2.255   0.824   1.219  0.00  0.00    -0.003 A 
ATOM      4  C5  UNL d   1      -1.637   1.463   2.288  0.00  0.00     0.000 A 
ATOM      5  C6  UNL d   1      -0.255   1.367   2.450  0.00  0.00     0.000 A 
ATOM      6  C7  UNL d   1       0.529   0.629   1.547  0.00  0.00    -0.073 A 
ATOM      7  C8  UNL d   1       2.014   0.554   1.774  0.00  0.00     0.078 C 
ENDROOT
BRANCH   1   8
ATOM      8  C1  UNL d   1       0.666  -0.897  -0.505  0.00  0.00     0.053 C 
ATOM      9  C   UNL d   1       0.690  -0.291  -1.900  0.00  0.00     0.018 C 
ENDBRANCH   1   8
TORSDOF 1
ENDMDL
