MODEL 1
REMARK minimizedAffinity -1.29250193
REMARK minimizedRMSD -1
REMARK  1 active torsions:
REMARK  status: ('A' for Active; 'I' for Inactive)
REMARK    1  A    between atoms: C1_2  and  C2_3 
ROOT
ATOM      1  C2  UNL d   1       0.697   0.635   0.899  0.00  0.00    -0.076 A 
ATOM      2  C3  UNL d   1      -0.376   0.560  -0.006  0.00  0.00     0.004 A 
ATOM      3  C4  UNL d   1      -0.475  -0.492  -0.916  0.00  0.00    -0.003 A 
ATOM      4  C5  UNL d   1       0.497  -1.486  -0.934  0.00  0.00     0.000 A 
ATOM      5  C6  UNL d   1       1.558  -1.437  -0.031  0.00  0.00     0.000 A 
ATOM      6  C7  UNL d   1       1.665  -0.393   0.903  0.00  0.00    -0.073 A 
ATOM      7  C8  UNL d   1       2.834  -0.387   1.850  0.00  0.00     0.078 C 
ENDROOT
BRANCH   1   8
ATOM      8  C1  UNL d   1       0.767   1.813   1.844  0.00  0.00     0.053 C 
ATOM      9  C   UNL d   1      -0.308   1.762   2.919  0.00  0.00     0.018 C 
ENDBRANCH   1   8
TORSDOF 1
ENDMDL
