MODEL 1
REMARK minimizedAffinity -1.50675023
REMARK minimizedRMSD -1
REMARK  0 active torsions:
REMARK  status: ('A' for Active; 'I' for Inactive)
ROOT
ATOM      1  N1  IND d   1       5.949   0.710   5.997  0.00  0.00    -0.196 N 
ATOM      2  C2  IND d   1       5.900  -0.655   5.923  0.00  0.00     0.054 A 
ATOM      3  C3  IND d   1       5.864  -1.055   4.632  0.00  0.00    -0.031 A 
ATOM      4  C4  IND d   1       5.980   0.353   2.479  0.00  0.00     0.051 A 
ATOM      5  C5  IND d   1       5.995   1.647   2.038  0.00  0.00    -0.031 A 
ATOM      6  C6  IND d   1       5.999   2.715   2.911  0.00  0.00     0.015 A 
ATOM      7  C7  IND d   1       5.999   2.529   4.264  0.00  0.00    -0.016 A 
ATOM      8  C8  IND d   1       5.976   1.217   4.716  0.00  0.00    -0.047 A 
ATOM      9  C9  IND d   1       5.929   0.130   3.835  0.00  0.00    -0.096 A 
ATOM     10  HN1 IND d   1       5.961   1.173   6.721  0.00  0.00     0.298 HD
ENDROOT
TORSDOF 0
ENDMDL
