MODEL 1
REMARK minimizedAffinity -2.44947386
REMARK minimizedRMSD -1
REMARK  0 active torsions:
REMARK  status: ('A' for Active; 'I' for Inactive)
ROOT
ATOM      1  N1  IND d   1       5.951   1.950   5.231  0.00  0.00    -0.196 N 
ATOM      2  C2  IND d   1       5.958   2.539   3.998  0.00  0.00     0.054 A 
ATOM      3  C3  IND d   1       5.996   1.598   3.028  0.00  0.00    -0.031 A 
ATOM      4  C4  IND d   1       5.949  -0.967   3.234  0.00  0.00     0.051 A 
ATOM      5  C5  IND d   1       5.979  -1.974   4.158  0.00  0.00    -0.031 A 
ATOM      6  C6  IND d   1       5.999  -1.720   5.514  0.00  0.00     0.015 A 
ATOM      7  C7  IND d   1       5.978  -0.443   5.999  0.00  0.00    -0.016 A 
ATOM      8  C8  IND d   1       5.955   0.582   5.064  0.00  0.00    -0.047 A 
ATOM      9  C9  IND d   1       5.977   0.331   3.686  0.00  0.00    -0.096 A 
ATOM     10  HN1 IND d   1       5.946   2.364   5.985  0.00  0.00     0.298 HD
ENDROOT
TORSDOF 0
ENDMDL
