MODEL 1
REMARK minimizedAffinity 17.4229622
REMARK minimizedRMSD -1
REMARK  0 active torsions:
REMARK  status: ('A' for Active; 'I' for Inactive)
ROOT
ATOM      1  N1  IND d   1      -1.726   2.788   4.009  0.00  0.00    -0.196 N 
ATOM      2  C2  IND d   1      -2.381   1.589   4.007  0.00  0.00     0.054 A 
ATOM      3  C3  IND d   1      -2.458   1.098   2.750  0.00  0.00    -0.031 A 
ATOM      4  C4  IND d   1      -1.490   2.045   0.561  0.00  0.00     0.051 A 
ATOM      5  C5  IND d   1      -0.842   3.136   0.053  0.00  0.00    -0.031 A 
ATOM      6  C6  IND d   1      -0.445   4.187   0.855  0.00  0.00     0.015 A 
ATOM      7  C7  IND d   1      -0.672   4.180   2.202  0.00  0.00    -0.016 A 
ATOM      8  C8  IND d   1      -1.336   3.078   2.720  0.00  0.00    -0.047 A 
ATOM      9  C9  IND d   1      -1.779   2.028   1.905  0.00  0.00    -0.096 A 
ATOM     10  HN1 IND d   1      -1.581   3.280   4.700  0.00  0.00     0.298 HD
ENDROOT
TORSDOF 0
ENDMDL
