MODEL 1
REMARK minimizedAffinity 2.46197963
REMARK minimizedRMSD -1
REMARK  0 active torsions:
REMARK  status: ('A' for Active; 'I' for Inactive)
ROOT
ATOM      1  N1  IND d   1       5.406   2.055   4.617  0.00  0.00    -0.196 N 
ATOM      2  C2  IND d   1       4.846   2.226   3.382  0.00  0.00     0.054 A 
ATOM      3  C3  IND d   1       4.584   1.028   2.813  0.00  0.00    -0.031 A 
ATOM      4  C4  IND d   1       4.900  -1.340   3.771  0.00  0.00     0.051 A 
ATOM      5  C5  IND d   1       5.412  -2.007   4.849  0.00  0.00    -0.031 A 
ATOM      6  C6  IND d   1       5.956  -1.341   5.927  0.00  0.00     0.015 A 
ATOM      7  C7  IND d   1       5.999   0.024   5.973  0.00  0.00    -0.016 A 
ATOM      8  C8  IND d   1       5.487   0.704   4.878  0.00  0.00    -0.047 A 
ATOM      9  C9  IND d   1       4.972   0.033   3.762  0.00  0.00    -0.096 A 
ATOM     10  HN1 IND d   1       5.665   2.684   5.142  0.00  0.00     0.298 HD
ENDROOT
TORSDOF 0
ENDMDL
