MODEL 1
REMARK minimizedAffinity -2.54870057
REMARK minimizedRMSD -1
REMARK  0 active torsions:
REMARK  status: ('A' for Active; 'I' for Inactive)
ROOT
ATOM      1  N1  IND d   1       5.173  -0.268   6.000  0.00  0.00    -0.196 N 
ATOM      2  C2  IND d   1       5.637  -1.414   5.417  0.00  0.00     0.054 A 
ATOM      3  C3  IND d   1       5.995  -1.178   4.135  0.00  0.00    -0.031 A 
ATOM      4  C4  IND d   1       6.000   1.035   2.819  0.00  0.00     0.051 A 
ATOM      5  C5  IND d   1       5.629   2.346   2.916  0.00  0.00    -0.031 A 
ATOM      6  C6  IND d   1       5.078   2.865   4.071  0.00  0.00     0.015 A 
ATOM      7  C7  IND d   1       4.888   2.090   5.179  0.00  0.00    -0.016 A 
ATOM      8  C8  IND d   1       5.257   0.756   5.082  0.00  0.00    -0.047 A 
ATOM      9  C9  IND d   1       5.776   0.214   3.899  0.00  0.00    -0.096 A 
ATOM     10  HN1 IND d   1       4.877  -0.199   6.804  0.00  0.00     0.298 HD
ENDROOT
TORSDOF 0
ENDMDL
