MODEL 1
REMARK minimizedAffinity 5.52639008
REMARK minimizedRMSD -1
REMARK  0 active torsions:
REMARK  status: ('A' for Active; 'I' for Inactive)
ROOT
ATOM      1  N1  IND d   1       5.998   6.000   2.664  0.00  0.00    -0.196 N 
ATOM      2  C2  IND d   1       5.565   5.299   3.754  0.00  0.00     0.054 A 
ATOM      3  C3  IND d   1       4.570   4.452   3.404  0.00  0.00    -0.031 A 
ATOM      4  C4  IND d   1       3.566   3.980   1.081  0.00  0.00     0.051 A 
ATOM      5  C5  IND d   1       3.612   4.401  -0.218  0.00  0.00    -0.031 A 
ATOM      6  C6  IND d   1       4.475   5.395  -0.632  0.00  0.00     0.015 A 
ATOM      7  C7  IND d   1       5.336   6.000   0.240  0.00  0.00    -0.016 A 
ATOM      8  C8  IND d   1       5.287   5.579   1.561  0.00  0.00    -0.047 A 
ATOM      9  C9  IND d   1       4.384   4.601   1.996  0.00  0.00    -0.096 A 
ATOM     10  HN1 IND d   1       6.612   6.602   2.666  0.00  0.00     0.298 HD
ENDROOT
TORSDOF 0
ENDMDL
