MODEL 1
REMARK minimizedAffinity -1.34162664
REMARK minimizedRMSD -1
REMARK  0 active torsions:
REMARK  status: ('A' for Active; 'I' for Inactive)
ROOT
ATOM      1  N1  IND d   1       5.997  -2.304   3.775  0.00  0.00    -0.196 N 
ATOM      2  C2  IND d   1       5.992  -2.869   5.020  0.00  0.00     0.054 A 
ATOM      3  C3  IND d   1       5.999  -1.909   5.972  0.00  0.00    -0.031 A 
ATOM      4  C4  IND d   1       5.916   0.651   5.715  0.00  0.00     0.051 A 
ATOM      5  C5  IND d   1       5.946   1.640   4.773  0.00  0.00    -0.031 A 
ATOM      6  C6  IND d   1       5.993   1.360   3.422  0.00  0.00     0.015 A 
ATOM      7  C7  IND d   1       6.000   0.074   2.961  0.00  0.00    -0.016 A 
ATOM      8  C8  IND d   1       5.976  -0.933   3.916  0.00  0.00    -0.047 A 
ATOM      9  C9  IND d   1       5.972  -0.655   5.288  0.00  0.00    -0.096 A 
ATOM     10  HN1 IND d   1       6.010  -2.732   3.029  0.00  0.00     0.298 HD
ENDROOT
TORSDOF 0
ENDMDL
