MODEL 1
REMARK minimizedAffinity 4.71876526
REMARK minimizedRMSD -1
REMARK  0 active torsions:
REMARK  status: ('A' for Active; 'I' for Inactive)
ROOT
ATOM      1  N1  IND d   1      -1.135   2.593   4.276  0.00  0.00    -0.196 N 
ATOM      2  C2  IND d   1      -1.831   1.486   3.875  0.00  0.00     0.054 A 
ATOM      3  C3  IND d   1      -1.870   1.418   2.525  0.00  0.00    -0.031 A 
ATOM      4  C4  IND d   1      -0.773   2.958   0.778  0.00  0.00     0.051 A 
ATOM      5  C5  IND d   1      -0.066   4.122   0.660  0.00  0.00    -0.031 A 
ATOM      6  C6  IND d   1       0.331   4.849   1.764  0.00  0.00     0.015 A 
ATOM      7  C7  IND d   1       0.044   4.431   3.033  0.00  0.00    -0.016 A 
ATOM      8  C8  IND d   1      -0.680   3.253   3.156  0.00  0.00    -0.047 A 
ATOM      9  C9  IND d   1      -1.122   2.534   2.038  0.00  0.00    -0.096 A 
ATOM     10  HN1 IND d   1      -1.005   2.836   5.090  0.00  0.00     0.298 HD
ENDROOT
TORSDOF 0
ENDMDL
