MODEL 1
REMARK minimizedAffinity -0.818143487
REMARK minimizedRMSD -1
REMARK  0 active torsions:
REMARK  status: ('A' for Active; 'I' for Inactive)
ROOT
ATOM      1  N1  IND d   1       5.573   3.517   5.619  0.00  0.00    -0.196 N 
ATOM      2  C2  IND d   1       5.860   4.404   4.619  0.00  0.00     0.054 A 
ATOM      3  C3  IND d   1       6.000   3.757   3.441  0.00  0.00    -0.031 A 
ATOM      4  C4  IND d   1       5.700   1.257   2.903  0.00  0.00     0.051 A 
ATOM      5  C5  IND d   1       5.471   0.047   3.496  0.00  0.00    -0.031 A 
ATOM      6  C6  IND d   1       5.259  -0.070   4.855  0.00  0.00     0.015 A 
ATOM      7  C7  IND d   1       5.255   1.025   5.672  0.00  0.00    -0.016 A 
ATOM      8  C8  IND d   1       5.493   2.254   5.074  0.00  0.00    -0.047 A 
ATOM      9  C9  IND d   1       5.752   2.374   3.702  0.00  0.00    -0.096 A 
ATOM     10  HN1 IND d   1       5.462   3.715   6.448  0.00  0.00     0.298 HD
ENDROOT
TORSDOF 0
ENDMDL
