MODEL 1
REMARK minimizedAffinity -4.15107203
REMARK minimizedRMSD -1
REMARK  0 active torsions:
REMARK  status: ('A' for Active; 'I' for Inactive)
ROOT
ATOM      1  N1  IND d   1       5.815   3.938   4.855  0.00  0.00    -0.196 N 
ATOM      2  C2  IND d   1       5.932   4.338   3.554  0.00  0.00     0.054 A 
ATOM      3  C3  IND d   1       5.999   3.264   2.736  0.00  0.00    -0.031 A 
ATOM      4  C4  IND d   1       5.832   0.759   3.308  0.00  0.00     0.051 A 
ATOM      5  C5  IND d   1       5.756  -0.101   4.367  0.00  0.00    -0.031 A 
ATOM      6  C6  IND d   1       5.691   0.350   5.669  0.00  0.00     0.015 A 
ATOM      7  C7  IND d   1       5.689   1.685   5.962  0.00  0.00    -0.016 A 
ATOM      8  C8  IND d   1       5.774   2.561   4.889  0.00  0.00    -0.047 A 
ATOM      9  C9  IND d   1       5.882   2.109   3.568  0.00  0.00    -0.096 A 
ATOM     10  HN1 IND d   1       5.773   4.458   5.539  0.00  0.00     0.298 HD
ENDROOT
TORSDOF 0
ENDMDL
