MODEL 1
REMARK minimizedAffinity -1.82671487
REMARK minimizedRMSD -1
REMARK  0 active torsions:
REMARK  status: ('A' for Active; 'I' for Inactive)
ROOT
ATOM      1  N1  IND d   1       5.292  -1.465   4.024  0.00  0.00    -0.196 N 
ATOM      2  C2  IND d   1       5.737  -1.810   5.270  0.00  0.00     0.054 A 
ATOM      3  C3  IND d   1       5.998  -0.702   6.000  0.00  0.00    -0.031 A 
ATOM      4  C4  IND d   1       5.671   1.776   5.385  0.00  0.00     0.051 A 
ATOM      5  C5  IND d   1       5.324   2.591   4.345  0.00  0.00    -0.031 A 
ATOM      6  C6  IND d   1       4.937   2.086   3.120  0.00  0.00     0.015 A 
ATOM      7  C7  IND d   1       4.873   0.740   2.893  0.00  0.00    -0.016 A 
ATOM      8  C8  IND d   1       5.232  -0.091   3.945  0.00  0.00    -0.047 A 
ATOM      9  C9  IND d   1       5.666   0.417   5.177  0.00  0.00    -0.096 A 
ATOM     10  HN1 IND d   1       5.085  -2.013   3.395  0.00  0.00     0.298 HD
ENDROOT
TORSDOF 0
ENDMDL
