MODEL 1
REMARK minimizedAffinity -3.37157202
REMARK minimizedRMSD -1
REMARK  0 active torsions:
REMARK  status: ('A' for Active; 'I' for Inactive)
ROOT
ATOM      1  N1  IND d   1       5.896   2.296   5.587  0.00  0.00    -0.196 N 
ATOM      2  C2  IND d   1       5.936   3.157   4.527  0.00  0.00     0.054 A 
ATOM      3  C3  IND d   1       5.998   2.469   3.364  0.00  0.00    -0.031 A 
ATOM      4  C4  IND d   1       5.941  -0.073   2.963  0.00  0.00     0.051 A 
ATOM      5  C5  IND d   1       5.945  -1.268   3.626  0.00  0.00    -0.031 A 
ATOM      6  C6  IND d   1       5.930  -1.338   5.004  0.00  0.00     0.015 A 
ATOM      7  C7  IND d   1       5.898  -0.210   5.774  0.00  0.00    -0.016 A 
ATOM      8  C8  IND d   1       5.901   1.006   5.105  0.00  0.00    -0.047 A 
ATOM      9  C9  IND d   1       5.960   1.083   3.707  0.00  0.00    -0.096 A 
ATOM     10  HN1 IND d   1       5.871   2.522   6.417  0.00  0.00     0.298 HD
ENDROOT
TORSDOF 0
ENDMDL
