MODEL 1
REMARK minimizedAffinity -3.34701538
REMARK minimizedRMSD -1
REMARK  0 active torsions:
REMARK  status: ('A' for Active; 'I' for Inactive)
ROOT
ATOM      1  N1  IND d   1       6.000   2.532   5.596  0.00  0.00    -0.196 N 
ATOM      2  C2  IND d   1       5.979   3.342   4.495  0.00  0.00     0.054 A 
ATOM      3  C3  IND d   1       5.964   2.600   3.365  0.00  0.00    -0.031 A 
ATOM      4  C4  IND d   1       5.867   0.042   3.090  0.00  0.00     0.051 A 
ATOM      5  C5  IND d   1       5.904  -1.121   3.807  0.00  0.00    -0.031 A 
ATOM      6  C6  IND d   1       5.974  -1.126   5.185  0.00  0.00     0.015 A 
ATOM      7  C7  IND d   1       5.998   0.038   5.901  0.00  0.00    -0.016 A 
ATOM      8  C8  IND d   1       5.967   1.220   5.176  0.00  0.00    -0.047 A 
ATOM      9  C9  IND d   1       5.939   1.232   3.775  0.00  0.00    -0.096 A 
ATOM     10  HN1 IND d   1       6.028   2.797   6.413  0.00  0.00     0.298 HD
ENDROOT
TORSDOF 0
ENDMDL
