MODEL 1
REMARK minimizedAffinity 6.58318663
REMARK minimizedRMSD -1
REMARK  0 active torsions:
REMARK  status: ('A' for Active; 'I' for Inactive)
ROOT
ATOM      1  N1  IND d   1       5.321  -1.446   3.967  0.00  0.00    -0.196 N 
ATOM      2  C2  IND d   1       5.138  -1.607   2.621  0.00  0.00     0.054 A 
ATOM      3  C3  IND d   1       5.234  -0.416   1.988  0.00  0.00    -0.031 A 
ATOM      4  C4  IND d   1       5.786   1.907   2.949  0.00  0.00     0.051 A 
ATOM      5  C5  IND d   1       5.999   2.562   4.130  0.00  0.00    -0.031 A 
ATOM      6  C6  IND d   1       5.998   1.901   5.341  0.00  0.00     0.015 A 
ATOM      7  C7  IND d   1       5.797   0.551   5.415  0.00  0.00    -0.016 A 
ATOM      8  C8  IND d   1       5.574  -0.116   4.219  0.00  0.00    -0.047 A 
ATOM      9  C9  IND d   1       5.530   0.557   2.991  0.00  0.00    -0.096 A 
ATOM     10  HN1 IND d   1       5.285  -2.071   4.556  0.00  0.00     0.298 HD
ENDROOT
TORSDOF 0
ENDMDL
