MODEL 1
REMARK minimizedAffinity 13.6156979
REMARK minimizedRMSD -1
REMARK  0 active torsions:
REMARK  status: ('A' for Active; 'I' for Inactive)
ROOT
ATOM      1  N1  IND d   1       5.344   3.490  -3.924  0.00  0.00    -0.196 N 
ATOM      2  C2  IND d   1       5.862   2.283  -3.545  0.00  0.00     0.054 A 
ATOM      3  C3  IND d   1       5.077   1.275  -3.985  0.00  0.00    -0.031 A 
ATOM      4  C4  IND d   1       2.950   1.371  -5.433  0.00  0.00     0.051 A 
ATOM      5  C5  IND d   1       2.070   2.251  -5.997  0.00  0.00    -0.031 A 
ATOM      6  C6  IND d   1       2.240   3.617  -5.899  0.00  0.00     0.015 A 
ATOM      7  C7  IND d   1       3.309   4.155  -5.240  0.00  0.00    -0.016 A 
ATOM      8  C8  IND d   1       4.202   3.265  -4.660  0.00  0.00    -0.047 A 
ATOM      9  C9  IND d   1       4.011   1.878  -4.720  0.00  0.00    -0.096 A 
ATOM     10  HN1 IND d   1       5.676   4.260  -3.735  0.00  0.00     0.298 HD
ENDROOT
TORSDOF 0
ENDMDL
