MODEL 1
REMARK minimizedAffinity -0.82969743
REMARK minimizedRMSD -1
REMARK  0 active torsions:
REMARK  status: ('A' for Active; 'I' for Inactive)
ROOT
ATOM      1  N1  IND d   1       5.996   3.703   5.627  0.00  0.00    -0.196 N 
ATOM      2  C2  IND d   1       5.991   4.513   4.525  0.00  0.00     0.054 A 
ATOM      3  C3  IND d   1       5.999   3.769   3.396  0.00  0.00    -0.031 A 
ATOM      4  C4  IND d   1       5.918   1.211   3.121  0.00  0.00     0.051 A 
ATOM      5  C5  IND d   1       5.948   0.049   3.839  0.00  0.00    -0.031 A 
ATOM      6  C6  IND d   1       5.994   0.045   5.218  0.00  0.00     0.015 A 
ATOM      7  C7  IND d   1       6.000   1.209   5.934  0.00  0.00    -0.016 A 
ATOM      8  C8  IND d   1       5.976   2.391   5.207  0.00  0.00    -0.047 A 
ATOM      9  C9  IND d   1       5.973   2.401   3.806  0.00  0.00    -0.096 A 
ATOM     10  HN1 IND d   1       6.009   3.969   6.444  0.00  0.00     0.298 HD
ENDROOT
TORSDOF 0
ENDMDL
