MODEL 1
REMARK minimizedAffinity -0.737168491
REMARK minimizedRMSD -1
REMARK  0 active torsions:
REMARK  status: ('A' for Active; 'I' for Inactive)
ROOT
ATOM      1  N1  IND d   1       5.975   0.338   3.013  0.00  0.00    -0.196 N 
ATOM      2  C2  IND d   1       5.977  -0.576   4.029  0.00  0.00     0.054 A 
ATOM      3  C3  IND d   1       6.000   0.051   5.226  0.00  0.00    -0.031 A 
ATOM      4  C4  IND d   1       5.934   2.570   5.754  0.00  0.00     0.051 A 
ATOM      5  C5  IND d   1       5.963   3.798   5.153  0.00  0.00    -0.031 A 
ATOM      6  C6  IND d   1       5.996   3.937   3.781  0.00  0.00     0.015 A 
ATOM      7  C7  IND d   1       5.989   2.850   2.954  0.00  0.00    -0.016 A 
ATOM      8  C8  IND d   1       5.966   1.602   3.560  0.00  0.00    -0.047 A 
ATOM      9  C9  IND d   1       5.976   1.453   4.953  0.00  0.00    -0.096 A 
ATOM     10  HN1 IND d   1       5.979   0.154   2.173  0.00  0.00     0.298 HD
ENDROOT
TORSDOF 0
ENDMDL
