MODEL 1
REMARK minimizedAffinity -0.937357903
REMARK minimizedRMSD -1
REMARK  0 active torsions:
REMARK  status: ('A' for Active; 'I' for Inactive)
ROOT
ATOM      1  N1  IND d   1       5.988   4.474   5.242  0.00  0.00    -0.196 N 
ATOM      2  C2  IND d   1       5.985   5.200   4.084  0.00  0.00     0.054 A 
ATOM      3  C3  IND d   1       6.000   4.376   3.012  0.00  0.00    -0.031 A 
ATOM      4  C4  IND d   1       5.926   1.805   2.925  0.00  0.00     0.051 A 
ATOM      5  C5  IND d   1       5.956   0.698   3.727  0.00  0.00    -0.031 A 
ATOM      6  C6  IND d   1       5.996   0.796   5.103  0.00  0.00     0.015 A 
ATOM      7  C7  IND d   1       5.996   2.009   5.731  0.00  0.00    -0.016 A 
ATOM      8  C8  IND d   1       5.973   3.135   4.920  0.00  0.00    -0.047 A 
ATOM      9  C9  IND d   1       5.975   3.042   3.522  0.00  0.00    -0.096 A 
ATOM     10  HN1 IND d   1       5.997   4.799   6.038  0.00  0.00     0.298 HD
ENDROOT
TORSDOF 0
ENDMDL
