MODEL 1
REMARK minimizedAffinity 17.3462467
REMARK minimizedRMSD -1
REMARK  0 active torsions:
REMARK  status: ('A' for Active; 'I' for Inactive)
ROOT
ATOM      1  C   UNL d   1       1.826  -3.800   1.640  0.00  0.00     0.124 A 
ATOM      2  C1  UNL d   1       0.653  -4.328   2.162  0.00  0.00     0.062 A 
ATOM      3  C2  UNL d   1      -0.275  -3.494   2.779  0.00  0.00     0.162 A 
ATOM      4  C3  UNL d   1      -0.035  -2.124   2.876  0.00  0.00    -0.034 A 
ATOM      5  C4  UNL d   1       1.147  -1.601   2.350  0.00  0.00     0.162 A 
ATOM      6  C5  UNL d   1       2.072  -2.438   1.734  0.00  0.00     0.062 A 
ATOM      7  F   UNL d   1       3.205  -1.927   1.230  0.00  0.00    -0.097 F 
ATOM      8  F1  UNL d   1       1.410  -0.288   2.426  0.00  0.00    -0.096 F 
ATOM      9  I   UNL d   1      -1.421  -0.874   3.798  0.00  0.00    -0.060 I 
ATOM     10  F2  UNL d   1      -1.400  -4.031   3.275  0.00  0.00    -0.096 F 
ATOM     11  F3  UNL d   1       0.414  -5.644   2.074  0.00  0.00    -0.097 F 
ATOM     12  F4  UNL d   1       2.718  -4.605   1.048  0.00  0.00    -0.092 F 
ENDROOT
TORSDOF 0
ENDMDL
