MODEL 1
REMARK minimizedAffinity 22.2936974
REMARK minimizedRMSD -1
REMARK  0 active torsions:
REMARK  status: ('A' for Active; 'I' for Inactive)
ROOT
ATOM      1  C   UNL d   1       3.643   0.403  -3.142  0.00  0.00     0.124 A 
ATOM      2  C1  UNL d   1       4.592   0.337  -2.131  0.00  0.00     0.062 A 
ATOM      3  C2  UNL d   1       4.246   0.665  -0.824  0.00  0.00     0.162 A 
ATOM      4  C3  UNL d   1       2.944   1.063  -0.519  0.00  0.00    -0.034 A 
ATOM      5  C4  UNL d   1       1.995   1.128  -1.541  0.00  0.00     0.162 A 
ATOM      6  C5  UNL d   1       2.346   0.798  -2.846  0.00  0.00     0.062 A 
ATOM      7  F   UNL d   1       1.428   0.863  -3.822  0.00  0.00    -0.097 F 
ATOM      8  F1  UNL d   1       0.734   1.506  -1.284  0.00  0.00    -0.096 F 
ATOM      9  I   UNL d   1       2.422   1.555   1.435  0.00  0.00    -0.060 I 
ATOM     10  F2  UNL d   1       5.183   0.592   0.133  0.00  0.00    -0.096 F 
ATOM     11  F3  UNL d   1       5.846  -0.044  -2.414  0.00  0.00    -0.097 F 
ATOM     12  F4  UNL d   1       3.979   0.087  -4.399  0.00  0.00    -0.092 F 
ENDROOT
TORSDOF 0
ENDMDL
