MODEL 1
REMARK minimizedAffinity 24.3960686
REMARK minimizedRMSD -1
REMARK  0 active torsions:
REMARK  status: ('A' for Active; 'I' for Inactive)
ROOT
ATOM      1  C   UNL d   1      -3.799  -0.989  -3.339  0.00  0.00     0.124 A 
ATOM      2  C1  UNL d   1      -3.607  -0.202  -2.212  0.00  0.00     0.062 A 
ATOM      3  C2  UNL d   1      -3.685   1.185  -2.306  0.00  0.00     0.162 A 
ATOM      4  C3  UNL d   1      -3.958   1.793  -3.531  0.00  0.00    -0.034 A 
ATOM      5  C4  UNL d   1      -4.149   0.995  -4.660  0.00  0.00     0.162 A 
ATOM      6  C5  UNL d   1      -4.069  -0.391  -4.562  0.00  0.00     0.062 A 
ATOM      7  F   UNL d   1      -4.255  -1.150  -5.651  0.00  0.00    -0.097 F 
ATOM      8  F1  UNL d   1      -4.412   1.547  -5.854  0.00  0.00    -0.096 F 
ATOM      9  I   UNL d   1      -4.076   3.866  -3.675  0.00  0.00    -0.060 I 
ATOM     10  F2  UNL d   1      -3.496   1.921  -1.201  0.00  0.00    -0.096 F 
ATOM     11  F3  UNL d   1      -3.345  -0.778  -1.030  0.00  0.00    -0.097 F 
ATOM     12  F4  UNL d   1      -3.722  -2.323  -3.247  0.00  0.00    -0.092 F 
ENDROOT
TORSDOF 0
ENDMDL
