MODEL 1
REMARK minimizedAffinity 23.1840057
REMARK minimizedRMSD -1
REMARK  0 active torsions:
REMARK  status: ('A' for Active; 'I' for Inactive)
ROOT
ATOM      1  C   UNL d   1       1.711   5.108   5.027  0.00  0.00     0.124 A 
ATOM      2  C1  UNL d   1       2.992   4.610   4.829  0.00  0.00     0.062 A 
ATOM      3  C2  UNL d   1       3.233   3.683   3.819  0.00  0.00     0.162 A 
ATOM      4  C3  UNL d   1       2.192   3.247   3.000  0.00  0.00    -0.034 A 
ATOM      5  C4  UNL d   1       0.906   3.752   3.206  0.00  0.00     0.162 A 
ATOM      6  C5  UNL d   1       0.670   4.679   4.216  0.00  0.00     0.062 A 
ATOM      7  F   UNL d   1      -0.567   5.159   4.407  0.00  0.00    -0.097 F 
ATOM      8  F1  UNL d   1      -0.118   3.355   2.437  0.00  0.00    -0.096 F 
ATOM      9  I   UNL d   1       2.549   1.861   1.489  0.00  0.00    -0.060 I 
ATOM     10  F2  UNL d   1       4.480   3.219   3.650  0.00  0.00    -0.096 F 
ATOM     11  F3  UNL d   1       3.999   5.023   5.611  0.00  0.00    -0.097 F 
ATOM     12  F4  UNL d   1       1.482   6.000   6.000  0.00  0.00    -0.092 F 
ENDROOT
TORSDOF 0
ENDMDL
