MODEL 1
REMARK minimizedAffinity 29.5678787
REMARK minimizedRMSD -1
REMARK  0 active torsions:
REMARK  status: ('A' for Active; 'I' for Inactive)
ROOT
ATOM      1  C   UNL d   1       1.081  -0.761   2.322  0.00  0.00     0.124 A 
ATOM      2  C1  UNL d   1       0.750  -1.578   1.250  0.00  0.00     0.062 A 
ATOM      3  C2  UNL d   1       0.883  -1.111  -0.054  0.00  0.00     0.162 A 
ATOM      4  C3  UNL d   1       1.350   0.181  -0.294  0.00  0.00    -0.034 A 
ATOM      5  C4  UNL d   1       1.680   0.998   0.789  0.00  0.00     0.162 A 
ATOM      6  C5  UNL d   1       1.545   0.526   2.091  0.00  0.00     0.062 A 
ATOM      7  F   UNL d   1       1.865   1.318   3.125  0.00  0.00    -0.097 F 
ATOM      8  F1  UNL d   1       2.132   2.246   0.594  0.00  0.00    -0.096 F 
ATOM      9  I   UNL d   1       1.550   0.884  -2.243  0.00  0.00    -0.060 I 
ATOM     10  F2  UNL d   1       0.556  -1.923  -1.070  0.00  0.00    -0.096 F 
ATOM     11  F3  UNL d   1       0.301  -2.822   1.471  0.00  0.00    -0.097 F 
ATOM     12  F4  UNL d   1       0.951  -1.213   3.576  0.00  0.00    -0.092 F 
ENDROOT
TORSDOF 0
ENDMDL
