MODEL 1
REMARK minimizedAffinity 19.315855
REMARK minimizedRMSD -1
REMARK  0 active torsions:
REMARK  status: ('A' for Active; 'I' for Inactive)
ROOT
ATOM      1  C   UNL d   1      -4.184  -2.194  -2.296  0.00  0.00     0.124 A 
ATOM      2  C1  UNL d   1      -4.488  -2.289  -3.647  0.00  0.00     0.062 A 
ATOM      3  C2  UNL d   1      -4.290  -1.197  -4.487  0.00  0.00     0.162 A 
ATOM      4  C3  UNL d   1      -3.783  -0.001  -3.979  0.00  0.00    -0.034 A 
ATOM      5  C4  UNL d   1      -3.480   0.087  -2.620  0.00  0.00     0.162 A 
ATOM      6  C5  UNL d   1      -3.680  -1.007  -1.784  0.00  0.00     0.062 A 
ATOM      7  F   UNL d   1      -3.386  -0.914  -0.479  0.00  0.00    -0.097 F 
ATOM      8  F1  UNL d   1      -2.992   1.222  -2.098  0.00  0.00    -0.096 F 
ATOM      9  I   UNL d   1      -3.486   1.634  -5.233  0.00  0.00    -0.060 I 
ATOM     10  F2  UNL d   1      -4.593  -1.317  -5.789  0.00  0.00    -0.096 F 
ATOM     11  F3  UNL d   1      -4.976  -3.435  -4.145  0.00  0.00    -0.097 F 
ATOM     12  F4  UNL d   1      -4.376  -3.246  -1.490  0.00  0.00    -0.092 F 
ENDROOT
TORSDOF 0
ENDMDL
