MODEL 1
REMARK minimizedAffinity 22.1573811
REMARK minimizedRMSD -1
REMARK  0 active torsions:
REMARK  status: ('A' for Active; 'I' for Inactive)
ROOT
ATOM      1  C   UNL d   1      -5.984   0.475  -5.251  0.00  0.00    -0.002 A 
ATOM      2  C1  UNL d   1      -6.000  -0.637  -4.421  0.00  0.00     0.010 A 
ATOM      3  C2  UNL d   1      -5.159  -0.705  -3.308  0.00  0.00     0.041 A 
ATOM      4  C3  UNL d   1      -4.295   0.375  -3.040  0.00  0.00    -0.075 A 
ATOM      5  S   UNL d   1      -3.178   0.513  -1.734  0.00  0.00     0.015 SA
ATOM      6  C4  UNL d   1      -2.654   2.052  -2.247  0.00  0.00     0.022 A 
ATOM      7  C5  UNL d   1      -3.305   2.465  -3.385  0.00  0.00     0.026 A 
ATOM      8  C6  UNL d   1      -4.262   1.506  -3.861  0.00  0.00    -0.082 A 
ATOM      9  C7  UNL d   1      -5.125   1.544  -4.982  0.00  0.00     0.045 A 
ENDROOT
TORSDOF 0
ENDMDL
