MODEL 1
REMARK minimizedAffinity 13.3304167
REMARK minimizedRMSD -1
REMARK  0 active torsions:
REMARK  status: ('A' for Active; 'I' for Inactive)
ROOT
ATOM      1  C   UNL d   1      -3.356   5.203   5.982  0.00  0.00    -0.002 A 
ATOM      2  C1  UNL d   1      -3.670   4.206   5.069  0.00  0.00     0.010 A 
ATOM      3  C2  UNL d   1      -2.716   3.753   4.155  0.00  0.00     0.041 A 
ATOM      4  C3  UNL d   1      -1.428   4.323   4.176  0.00  0.00    -0.075 A 
ATOM      5  S   UNL d   1      -0.099   3.926   3.153  0.00  0.00     0.015 SA
ATOM      6  C4  UNL d   1       0.918   5.070   3.904  0.00  0.00     0.022 A 
ATOM      7  C5  UNL d   1       0.275   5.747   4.913  0.00  0.00     0.026 A 
ATOM      8  C6  UNL d   1      -1.088   5.328   5.087  0.00  0.00    -0.082 A 
ATOM      9  C7  UNL d   1      -2.077   5.766   6.000  0.00  0.00     0.045 A 
ENDROOT
TORSDOF 0
ENDMDL
