MODEL 1
REMARK minimizedAffinity 22.6181526
REMARK minimizedRMSD -1
REMARK  0 active torsions:
REMARK  status: ('A' for Active; 'I' for Inactive)
ROOT
ATOM      1  C   UNL d   1      -5.574   3.338  -5.497  0.00  0.00    -0.002 A 
ATOM      2  C1  UNL d   1      -5.993   2.015  -5.515  0.00  0.00     0.010 A 
ATOM      3  C2  UNL d   1      -5.292   1.039  -4.804  0.00  0.00     0.041 A 
ATOM      4  C3  UNL d   1      -4.153   1.418  -4.066  0.00  0.00    -0.075 A 
ATOM      5  S   UNL d   1      -3.140   0.395  -3.119  0.00  0.00     0.015 SA
ATOM      6  C4  UNL d   1      -2.127   1.689  -2.668  0.00  0.00     0.022 A 
ATOM      7  C5  UNL d   1      -2.538   2.881  -3.218  0.00  0.00     0.026 A 
ATOM      8  C6  UNL d   1      -3.713   2.744  -4.032  0.00  0.00    -0.082 A 
ATOM      9  C7  UNL d   1      -4.444   3.711  -4.764  0.00  0.00     0.045 A 
ENDROOT
TORSDOF 0
ENDMDL
