MODEL 1
REMARK minimizedAffinity 9.66577148
REMARK minimizedRMSD -1
REMARK  0 active torsions:
REMARK  status: ('A' for Active; 'I' for Inactive)
ROOT
ATOM      1  C   UNL d   1      -5.935   1.690  -4.995  0.00  0.00    -0.002 A 
ATOM      2  C1  UNL d   1      -5.998   0.610  -4.126  0.00  0.00     0.010 A 
ATOM      3  C2  UNL d   1      -5.005   0.414  -3.164  0.00  0.00     0.041 A 
ATOM      4  C3  UNL d   1      -3.939   1.332  -3.088  0.00  0.00    -0.075 A 
ATOM      5  S   UNL d   1      -2.611   1.294  -1.989  0.00  0.00     0.015 SA
ATOM      6  C4  UNL d   1      -1.930   2.711  -2.647  0.00  0.00     0.022 A 
ATOM      7  C5  UNL d   1      -2.684   3.214  -3.680  0.00  0.00     0.026 A 
ATOM      8  C6  UNL d   1      -3.855   2.428  -3.951  0.00  0.00    -0.082 A 
ATOM      9  C7  UNL d   1      -4.876   2.598  -4.917  0.00  0.00     0.045 A 
ENDROOT
TORSDOF 0
ENDMDL
