MODEL 1
REMARK minimizedAffinity 12.9716539
REMARK minimizedRMSD -1
REMARK  0 active torsions:
REMARK  status: ('A' for Active; 'I' for Inactive)
ROOT
ATOM      1  C   UNL d   1       3.673   3.445   4.005  0.00  0.00    -0.002 A 
ATOM      2  C1  UNL d   1       2.802   2.760   3.169  0.00  0.00     0.010 A 
ATOM      3  C2  UNL d   1       1.454   3.115   3.103  0.00  0.00     0.041 A 
ATOM      4  C3  UNL d   1       0.990   4.183   3.896  0.00  0.00    -0.075 A 
ATOM      5  S   UNL d   1      -0.619   4.796   3.978  0.00  0.00     0.015 SA
ATOM      6  C4  UNL d   1      -0.189   5.982   5.123  0.00  0.00     0.022 A 
ATOM      7  C5  UNL d   1       1.146   5.926   5.447  0.00  0.00     0.026 A 
ATOM      8  C6  UNL d   1       1.848   4.889   4.745  0.00  0.00    -0.082 A 
ATOM      9  C7  UNL d   1       3.209   4.504   4.791  0.00  0.00     0.045 A 
ENDROOT
TORSDOF 0
ENDMDL
