MODEL 1
REMARK minimizedAffinity 17.2247181
REMARK minimizedRMSD -1
REMARK  0 active torsions:
REMARK  status: ('A' for Active; 'I' for Inactive)
ROOT
ATOM      1  C   UNL d   1       3.139  -2.332   0.652  0.00  0.00    -0.002 A 
ATOM      2  C1  UNL d   1       2.206  -3.332   0.412  0.00  0.00     0.010 A 
ATOM      3  C2  UNL d   1       2.528  -4.423  -0.397  0.00  0.00     0.041 A 
ATOM      4  C3  UNL d   1       3.815  -4.495  -0.964  0.00  0.00    -0.075 A 
ATOM      5  S   UNL d   1       4.432  -5.739  -1.987  0.00  0.00     0.015 SA
ATOM      6  C4  UNL d   1       5.948  -4.973  -2.128  0.00  0.00     0.022 A 
ATOM      7  C5  UNL d   1       6.000  -3.797  -1.419  0.00  0.00     0.026 A 
ATOM      8  C6  UNL d   1       4.771  -3.502  -0.736  0.00  0.00    -0.082 A 
ATOM      9  C7  UNL d   1       4.415  -2.407   0.088  0.00  0.00     0.045 A 
ENDROOT
TORSDOF 0
ENDMDL
