MODEL 1
REMARK minimizedAffinity 11.9527283
REMARK minimizedRMSD -1
REMARK  0 active torsions:
REMARK  status: ('A' for Active; 'I' for Inactive)
ROOT
ATOM      1  C   UNL d   1      -4.309   2.096   5.998  0.00  0.00    -0.002 A 
ATOM      2  C1  UNL d   1      -3.106   1.405   6.000  0.00  0.00     0.010 A 
ATOM      3  C2  UNL d   1      -1.891   2.093   5.999  0.00  0.00     0.041 A 
ATOM      4  C3  UNL d   1      -1.906   3.502   5.998  0.00  0.00    -0.075 A 
ATOM      5  S   UNL d   1      -0.542   4.556   5.998  0.00  0.00     0.015 SA
ATOM      6  C4  UNL d   1      -1.524   5.949   5.997  0.00  0.00     0.022 A 
ATOM      7  C5  UNL d   1      -2.862   5.636   5.996  0.00  0.00     0.026 A 
ATOM      8  C6  UNL d   1      -3.105   4.220   5.998  0.00  0.00    -0.082 A 
ATOM      9  C7  UNL d   1      -4.320   3.494   5.998  0.00  0.00     0.045 A 
ENDROOT
TORSDOF 0
ENDMDL
