MODEL 1
REMARK minimizedAffinity 15.9276676
REMARK minimizedRMSD -1
REMARK  0 active torsions:
REMARK  status: ('A' for Active; 'I' for Inactive)
ROOT
ATOM      1  C   UNL d   1       5.085   3.759  -5.611  0.00  0.00    -0.002 A 
ATOM      2  C1  UNL d   1       5.154   5.120  -5.875  0.00  0.00     0.010 A 
ATOM      3  C2  UNL d   1       3.990   5.884  -5.976  0.00  0.00     0.041 A 
ATOM      4  C3  UNL d   1       2.743   5.252  -5.805  0.00  0.00    -0.075 A 
ATOM      5  S   UNL d   1       1.185   5.987  -5.884  0.00  0.00     0.015 SA
ATOM      6  C4  UNL d   1       0.391   4.513  -5.569  0.00  0.00     0.022 A 
ATOM      7  C5  UNL d   1       1.277   3.474  -5.405  0.00  0.00     0.026 A 
ATOM      8  C6  UNL d   1       2.647   3.883  -5.538  0.00  0.00    -0.082 A 
ATOM      9  C7  UNL d   1       3.845   3.136  -5.442  0.00  0.00     0.045 A 
ENDROOT
TORSDOF 0
ENDMDL
