MODEL 1
REMARK minimizedAffinity 5.77741051
REMARK minimizedRMSD -1
REMARK  0 active torsions:
REMARK  status: ('A' for Active; 'I' for Inactive)
ROOT
ATOM      1  C   UNL d   1      -5.531   5.344  -5.643  0.00  0.00    -0.002 A 
ATOM      2  C1  UNL d   1      -4.773   5.999  -4.683  0.00  0.00     0.010 A 
ATOM      3  C2  UNL d   1      -3.704   5.353  -4.059  0.00  0.00     0.041 A 
ATOM      4  C3  UNL d   1      -3.406   4.024  -4.421  0.00  0.00    -0.075 A 
ATOM      5  S   UNL d   1      -2.143   3.034  -3.791  0.00  0.00     0.015 SA
ATOM      6  C4  UNL d   1      -2.580   1.718  -4.782  0.00  0.00     0.022 A 
ATOM      7  C5  UNL d   1      -3.660   2.009  -5.580  0.00  0.00     0.026 A 
ATOM      8  C6  UNL d   1      -4.154   3.344  -5.386  0.00  0.00    -0.082 A 
ATOM      9  C7  UNL d   1      -5.232   4.026  -6.000  0.00  0.00     0.045 A 
ENDROOT
TORSDOF 0
ENDMDL
