MODEL 1
REMARK minimizedAffinity -0.879143059
REMARK minimizedRMSD -1
REMARK  0 active torsions:
REMARK  status: ('A' for Active; 'I' for Inactive)
ROOT
ATOM      1  C   UNL d   1       1.393   2.498  -2.613  0.00  0.00     0.078 C 
ATOM      2  C1  UNL d   1       2.141   1.273  -2.179  0.00  0.00    -0.077 A 
ATOM      3  C2  UNL d   1       1.484   0.048  -2.012  0.00  0.00    -0.001 A 
ATOM      4  C3  UNL d   1       2.191  -1.082  -1.598  0.00  0.00     0.003 A 
ATOM      5  C4  UNL d   1       3.558  -0.998  -1.346  0.00  0.00    -0.005 A 
ATOM      6  C5  UNL d   1       4.221   0.217  -1.506  0.00  0.00     0.003 A 
ATOM      7  C6  UNL d   1       3.516   1.348  -1.920  0.00  0.00    -0.001 A 
ENDROOT
TORSDOF 0
ENDMDL
