MODEL 1
REMARK minimizedAffinity 3.86775517
REMARK minimizedRMSD -1
REMARK  0 active torsions:
REMARK  status: ('A' for Active; 'I' for Inactive)
ROOT
ATOM      1  C   UNL d   1       2.590  -1.956  -1.323  0.00  0.00     0.078 C 
ATOM      2  C1  UNL d   1       2.298  -0.537  -1.708  0.00  0.00    -0.077 A 
ATOM      3  C2  UNL d   1       3.143   0.163  -2.578  0.00  0.00    -0.001 A 
ATOM      4  C3  UNL d   1       2.864   1.487  -2.921  0.00  0.00     0.003 A 
ATOM      5  C4  UNL d   1       1.741   2.124  -2.397  0.00  0.00    -0.005 A 
ATOM      6  C5  UNL d   1       0.895   1.436  -1.529  0.00  0.00     0.003 A 
ATOM      7  C6  UNL d   1       1.172   0.112  -1.185  0.00  0.00    -0.001 A 
ENDROOT
TORSDOF 0
ENDMDL
