MODEL 1
REMARK minimizedAffinity 7.93861294
REMARK minimizedRMSD -1
REMARK  0 active torsions:
REMARK  status: ('A' for Active; 'I' for Inactive)
ROOT
ATOM      1  C   UNL d   1       1.175   1.956  -2.080  0.00  0.00     0.078 C 
ATOM      2  C1  UNL d   1       1.180   0.516  -1.663  0.00  0.00    -0.077 A 
ATOM      3  C2  UNL d   1       2.382  -0.170  -1.452  0.00  0.00    -0.001 A 
ATOM      4  C3  UNL d   1       2.371  -1.514  -1.073  0.00  0.00     0.003 A 
ATOM      5  C4  UNL d   1       1.160  -2.183  -0.905  0.00  0.00    -0.005 A 
ATOM      6  C5  UNL d   1      -0.041  -1.509  -1.115  0.00  0.00     0.003 A 
ATOM      7  C6  UNL d   1      -0.032  -0.166  -1.494  0.00  0.00    -0.001 A 
ENDROOT
TORSDOF 0
ENDMDL
