MODEL 1
REMARK minimizedAffinity 0.918514848
REMARK minimizedRMSD -1
REMARK  0 active torsions:
REMARK  status: ('A' for Active; 'I' for Inactive)
ROOT
ATOM      1  C   UNL d   1       1.207   1.408  -3.569  0.00  0.00     0.078 C 
ATOM      2  C1  UNL d   1       1.063  -0.038  -3.197  0.00  0.00    -0.077 A 
ATOM      3  C2  UNL d   1       1.137  -0.450  -1.861  0.00  0.00    -0.001 A 
ATOM      4  C3  UNL d   1       1.011  -1.800  -1.530  0.00  0.00     0.003 A 
ATOM      5  C4  UNL d   1       0.813  -2.750  -2.531  0.00  0.00    -0.005 A 
ATOM      6  C5  UNL d   1       0.741  -2.350  -3.863  0.00  0.00     0.003 A 
ATOM      7  C6  UNL d   1       0.866  -1.000  -4.196  0.00  0.00    -0.001 A 
ENDROOT
TORSDOF 0
ENDMDL
