MODEL 1
REMARK minimizedAffinity -1.620157
REMARK minimizedRMSD -1
REMARK  0 active torsions:
REMARK  status: ('A' for Active; 'I' for Inactive)
ROOT
ATOM      1  C   UNL d   1      -3.756   2.173   5.658  0.00  0.00     0.078 C 
ATOM      2  C1  UNL d   1      -3.619   0.980   4.759  0.00  0.00    -0.077 A 
ATOM      3  C2  UNL d   1      -4.749   0.301   4.285  0.00  0.00    -0.001 A 
ATOM      4  C3  UNL d   1      -4.606  -0.814   3.458  0.00  0.00     0.003 A 
ATOM      5  C4  UNL d   1      -3.336  -1.261   3.098  0.00  0.00    -0.005 A 
ATOM      6  C5  UNL d   1      -2.207  -0.593   3.567  0.00  0.00     0.003 A 
ATOM      7  C6  UNL d   1      -2.347   0.522   4.394  0.00  0.00    -0.001 A 
ENDROOT
TORSDOF 0
ENDMDL
