MODEL 1
REMARK minimizedAffinity -2.89368558
REMARK minimizedRMSD -1
REMARK  0 active torsions:
REMARK  status: ('A' for Active; 'I' for Inactive)
ROOT
ATOM      1  C   UNL d   1      -0.274   0.155  -0.478  0.00  0.00     0.078 C 
ATOM      2  C1  UNL d   1       1.002   0.208  -1.264  0.00  0.00    -0.077 A 
ATOM      3  C2  UNL d   1       1.327   1.330  -2.036  0.00  0.00    -0.001 A 
ATOM      4  C3  UNL d   1       2.513   1.362  -2.770  0.00  0.00     0.003 A 
ATOM      5  C4  UNL d   1       3.384   0.273  -2.741  0.00  0.00    -0.005 A 
ATOM      6  C5  UNL d   1       3.067  -0.848  -1.978  0.00  0.00     0.003 A 
ATOM      7  C6  UNL d   1       1.881  -0.882  -1.243  0.00  0.00    -0.001 A 
ENDROOT
TORSDOF 0
ENDMDL
