MODEL 1
REMARK minimizedAffinity 2.87316012
REMARK minimizedRMSD -1
REMARK  0 active torsions:
REMARK  status: ('A' for Active; 'I' for Inactive)
ROOT
ATOM      1  C   UNL d   1      -2.233   0.120   0.175  0.00  0.00     0.078 C 
ATOM      2  C1  UNL d   1      -3.547  -0.576   0.366  0.00  0.00    -0.077 A 
ATOM      3  C2  UNL d   1      -4.675  -0.203  -0.376  0.00  0.00    -0.001 A 
ATOM      4  C3  UNL d   1      -5.895  -0.852  -0.181  0.00  0.00     0.003 A 
ATOM      5  C4  UNL d   1      -5.999  -1.879   0.757  0.00  0.00    -0.005 A 
ATOM      6  C5  UNL d   1      -4.883  -2.255   1.501  0.00  0.00     0.003 A 
ATOM      7  C6  UNL d   1      -3.662  -1.607   1.307  0.00  0.00    -0.001 A 
ENDROOT
TORSDOF 0
ENDMDL
