MODEL 1
REMARK minimizedAffinity 0.663572669
REMARK minimizedRMSD -1
REMARK  0 active torsions:
REMARK  status: ('A' for Active; 'I' for Inactive)
ROOT
ATOM      1  C   UNL d   1       2.221   5.449  -3.197  0.00  0.00     0.078 C 
ATOM      2  C1  UNL d   1       1.897   4.061  -3.661  0.00  0.00    -0.077 A 
ATOM      3  C2  UNL d   1       2.084   2.957  -2.820  0.00  0.00    -0.001 A 
ATOM      4  C3  UNL d   1       1.787   1.669  -3.269  0.00  0.00     0.003 A 
ATOM      5  C4  UNL d   1       1.303   1.473  -4.561  0.00  0.00    -0.005 A 
ATOM      6  C5  UNL d   1       1.117   2.565  -5.406  0.00  0.00     0.003 A 
ATOM      7  C6  UNL d   1       1.413   3.854  -4.959  0.00  0.00    -0.001 A 
ENDROOT
TORSDOF 0
ENDMDL
