MODEL 1
REMARK minimizedAffinity -2.68689919
REMARK minimizedRMSD -1
REMARK  0 active torsions:
REMARK  status: ('A' for Active; 'I' for Inactive)
ROOT
ATOM      1  C   UNL d   1       2.666   1.640  -2.539  0.00  0.00     0.078 C 
ATOM      2  C1  UNL d   1       1.746   1.882  -1.380  0.00  0.00    -0.077 A 
ATOM      3  C2  UNL d   1       2.251   2.152  -0.102  0.00  0.00    -0.001 A 
ATOM      4  C3  UNL d   1       1.383   2.367   0.970  0.00  0.00     0.003 A 
ATOM      5  C4  UNL d   1       0.004   2.312   0.775  0.00  0.00    -0.005 A 
ATOM      6  C5  UNL d   1      -0.508   2.042  -0.492  0.00  0.00     0.003 A 
ATOM      7  C6  UNL d   1       0.359   1.827  -1.565  0.00  0.00    -0.001 A 
ENDROOT
TORSDOF 0
ENDMDL
