MODEL 1
REMARK minimizedAffinity 0.826266587
REMARK minimizedRMSD -1
REMARK  0 active torsions:
REMARK  status: ('A' for Active; 'I' for Inactive)
ROOT
ATOM      1  C   UNL d   1       1.987   2.316   1.640  0.00  0.00     0.078 C 
ATOM      2  C1  UNL d   1       1.400   1.924   0.317  0.00  0.00    -0.077 A 
ATOM      3  C2  UNL d   1       0.022   2.011   0.086  0.00  0.00    -0.001 A 
ATOM      4  C3  UNL d   1      -0.512   1.634  -1.148  0.00  0.00     0.003 A 
ATOM      5  C4  UNL d   1       0.325   1.167  -2.159  0.00  0.00    -0.005 A 
ATOM      6  C5  UNL d   1       1.697   1.075  -1.937  0.00  0.00     0.003 A 
ATOM      7  C6  UNL d   1       2.233   1.451  -0.705  0.00  0.00    -0.001 A 
ENDROOT
TORSDOF 0
ENDMDL
