MODEL 1
REMARK minimizedAffinity 4.22212934
REMARK minimizedRMSD -1
REMARK  0 active torsions:
REMARK  status: ('A' for Active; 'I' for Inactive)
ROOT
ATOM      1  C   UNL d   1       2.272   2.019  -2.637  0.00  0.00     0.078 C 
ATOM      2  C1  UNL d   1       1.635   0.784  -2.073  0.00  0.00    -0.077 A 
ATOM      3  C2  UNL d   1       2.382  -0.382  -1.866  0.00  0.00    -0.001 A 
ATOM      4  C3  UNL d   1       1.774  -1.528  -1.350  0.00  0.00     0.003 A 
ATOM      5  C4  UNL d   1       0.416  -1.518  -1.037  0.00  0.00    -0.005 A 
ATOM      6  C5  UNL d   1      -0.336  -0.363  -1.241  0.00  0.00     0.003 A 
ATOM      7  C6  UNL d   1       0.271   0.783  -1.758  0.00  0.00    -0.001 A 
ENDROOT
TORSDOF 0
ENDMDL
