MODEL 1
REMARK minimizedAffinity 4.33312273
REMARK minimizedRMSD -1
REMARK  0 active torsions:
REMARK  status: ('A' for Active; 'I' for Inactive)
ROOT
ATOM      1  C   UNL d   1       1.579   1.337  -3.563  0.00  0.00     0.078 C 
ATOM      2  C1  UNL d   1       1.843   0.152  -2.683  0.00  0.00    -0.077 A 
ATOM      3  C2  UNL d   1       2.930   0.137  -1.801  0.00  0.00    -0.001 A 
ATOM      4  C3  UNL d   1       3.169  -0.976  -0.994  0.00  0.00     0.003 A 
ATOM      5  C4  UNL d   1       2.325  -2.083  -1.061  0.00  0.00    -0.005 A 
ATOM      6  C5  UNL d   1       1.242  -2.078  -1.938  0.00  0.00     0.003 A 
ATOM      7  C6  UNL d   1       1.001  -0.966  -2.745  0.00  0.00    -0.001 A 
ENDROOT
TORSDOF 0
ENDMDL
