MODEL 1
REMARK minimizedAffinity 5.13013268
REMARK minimizedRMSD -1
REMARK  0 active torsions:
REMARK  status: ('A' for Active; 'I' for Inactive)
ROOT
ATOM      1  C   UNL d   1       2.173   1.154  -2.292  0.00  0.00     0.078 C 
ATOM      2  C1  UNL d   1       1.942  -0.145  -1.580  0.00  0.00    -0.077 A 
ATOM      3  C2  UNL d   1       2.842  -0.608  -0.612  0.00  0.00    -0.001 A 
ATOM      4  C3  UNL d   1       2.619  -1.823   0.036  0.00  0.00     0.003 A 
ATOM      5  C4  UNL d   1       1.496  -2.587  -0.277  0.00  0.00    -0.005 A 
ATOM      6  C5  UNL d   1       0.596  -2.136  -1.240  0.00  0.00     0.003 A 
ATOM      7  C6  UNL d   1       0.818  -0.921  -1.889  0.00  0.00    -0.001 A 
ENDROOT
TORSDOF 0
ENDMDL
