MODEL 1
REMARK minimizedAffinity 0.0885665938
REMARK minimizedRMSD -1
REMARK  0 active torsions:
REMARK  status: ('A' for Active; 'I' for Inactive)
ROOT
ATOM      1  C   UNL d   1       2.211  -1.802  -1.226  0.00  0.00     0.078 C 
ATOM      2  C1  UNL d   1       2.180  -0.405  -1.771  0.00  0.00    -0.077 A 
ATOM      3  C2  UNL d   1       1.184   0.499  -1.382  0.00  0.00    -0.001 A 
ATOM      4  C3  UNL d   1       1.161   1.792  -1.906  0.00  0.00     0.003 A 
ATOM      5  C4  UNL d   1       2.132   2.194  -2.821  0.00  0.00    -0.005 A 
ATOM      6  C5  UNL d   1       3.126   1.300  -3.216  0.00  0.00     0.003 A 
ATOM      7  C6  UNL d   1       3.150   0.006  -2.694  0.00  0.00    -0.001 A 
ENDROOT
TORSDOF 0
ENDMDL
