MODEL 1
REMARK minimizedAffinity 1.04464221
REMARK minimizedRMSD -1
REMARK  0 active torsions:
REMARK  status: ('A' for Active; 'I' for Inactive)
ROOT
ATOM      1  C   UNL d   1      -0.217   1.850   0.665  0.00  0.00     0.078 C 
ATOM      2  C1  UNL d   1       0.408   1.782  -0.697  0.00  0.00    -0.077 A 
ATOM      3  C2  UNL d   1       0.164   2.775  -1.653  0.00  0.00    -0.001 A 
ATOM      4  C3  UNL d   1       0.745   2.694  -2.919  0.00  0.00     0.003 A 
ATOM      5  C4  UNL d   1       1.571   1.620  -3.242  0.00  0.00    -0.005 A 
ATOM      6  C5  UNL d   1       1.818   0.625  -2.298  0.00  0.00     0.003 A 
ATOM      7  C6  UNL d   1       1.238   0.705  -1.031  0.00  0.00    -0.001 A 
ENDROOT
TORSDOF 0
ENDMDL
