MODEL 1
REMARK minimizedAffinity -0.489708841
REMARK minimizedRMSD -1
REMARK  0 active torsions:
REMARK  status: ('A' for Active; 'I' for Inactive)
ROOT
ATOM      1  C   UNL d   1       4.650   2.566   4.878  0.00  0.00     0.172 C 
ATOM      2  N   UNL d   1       3.413   1.822   4.914  0.00  0.00    -0.070 N 
ATOM      3  C1  UNL d   1       2.447   1.833   3.944  0.00  0.00    -0.004 A 
ATOM      4  C2  UNL d   1       1.430   0.996   4.352  0.00  0.00    -0.047 A 
ATOM      5  C3  UNL d   1       1.798   0.464   5.611  0.00  0.00    -0.047 A 
ATOM      6  C4  UNL d   1       3.030   0.992   5.935  0.00  0.00    -0.004 A 
ENDROOT
TORSDOF 0
ENDMDL
