MODEL 1
REMARK minimizedAffinity 0.206137151
REMARK minimizedRMSD -1
REMARK  0 active torsions:
REMARK  status: ('A' for Active; 'I' for Inactive)
ROOT
ATOM      1  C   UNL d   1       2.041  -2.586  -0.583  0.00  0.00     0.172 C 
ATOM      2  N   UNL d   1       0.737  -2.108  -0.977  0.00  0.00    -0.070 N 
ATOM      3  C1  UNL d   1      -0.211  -2.834  -1.648  0.00  0.00    -0.004 A 
ATOM      4  C2  UNL d   1      -1.310  -2.024  -1.833  0.00  0.00    -0.047 A 
ATOM      5  C3  UNL d   1      -1.013  -0.767  -1.254  0.00  0.00    -0.047 A 
ATOM      6  C4  UNL d   1       0.261  -0.847  -0.732  0.00  0.00    -0.004 A 
ENDROOT
TORSDOF 0
ENDMDL
