MODEL 1
REMARK minimizedAffinity 0.214142814
REMARK minimizedRMSD -1
REMARK  0 active torsions:
REMARK  status: ('A' for Active; 'I' for Inactive)
ROOT
ATOM      1  C   UNL d   1       0.446   0.572   5.950  0.00  0.00     0.172 C 
ATOM      2  N   UNL d   1       1.477   1.331   5.281  0.00  0.00    -0.070 N 
ATOM      3  C1  UNL d   1       2.629   1.794   5.857  0.00  0.00    -0.004 A 
ATOM      4  C2  UNL d   1       3.344   2.466   4.890  0.00  0.00    -0.047 A 
ATOM      5  C3  UNL d   1       2.595   2.406   3.691  0.00  0.00    -0.047 A 
ATOM      6  C4  UNL d   1       1.444   1.697   3.961  0.00  0.00    -0.004 A 
ENDROOT
TORSDOF 0
ENDMDL
