MODEL 1
REMARK minimizedAffinity -1.2796309
REMARK minimizedRMSD -1
REMARK  0 active torsions:
REMARK  status: ('A' for Active; 'I' for Inactive)
ROOT
ATOM      1  C   UNL d   1      -5.936   5.987   5.383  0.00  0.00     0.172 C 
ATOM      2  N   UNL d   1      -5.949   5.341   4.092  0.00  0.00    -0.070 N 
ATOM      3  C1  UNL d   1      -6.000   3.990   3.875  0.00  0.00    -0.004 A 
ATOM      4  C2  UNL d   1      -5.996   3.781   2.513  0.00  0.00    -0.047 A 
ATOM      5  C3  UNL d   1      -5.939   5.050   1.889  0.00  0.00    -0.047 A 
ATOM      6  C4  UNL d   1      -5.911   5.998   2.890  0.00  0.00    -0.004 A 
ENDROOT
TORSDOF 0
ENDMDL
