MODEL 1
REMARK minimizedAffinity 7.15415287
REMARK minimizedRMSD -1
REMARK  0 active torsions:
REMARK  status: ('A' for Active; 'I' for Inactive)
ROOT
ATOM      1  C   UNL d   1      -3.348   1.540   0.147  0.00  0.00     0.172 C 
ATOM      2  N   UNL d   1      -2.915   0.808  -1.020  0.00  0.00    -0.070 N 
ATOM      3  C1  UNL d   1      -1.941   1.207  -1.896  0.00  0.00    -0.004 A 
ATOM      4  C2  UNL d   1      -1.825   0.238  -2.869  0.00  0.00    -0.047 A 
ATOM      5  C3  UNL d   1      -2.763  -0.778  -2.568  0.00  0.00    -0.047 A 
ATOM      6  C4  UNL d   1      -3.425  -0.399  -1.419  0.00  0.00    -0.004 A 
ENDROOT
TORSDOF 0
ENDMDL
