MODEL 1
REMARK minimizedAffinity 0.754585087
REMARK minimizedRMSD -1
REMARK  0 active torsions:
REMARK  status: ('A' for Active; 'I' for Inactive)
ROOT
ATOM      1  C   UNL d   1       4.565   2.519   1.860  0.00  0.00     0.172 C 
ATOM      2  N   UNL d   1       4.215   1.952   0.578  0.00  0.00    -0.070 N 
ATOM      3  C1  UNL d   1       3.483   0.811   0.383  0.00  0.00    -0.004 A 
ATOM      4  C2  UNL d   1       3.369   0.610  -0.975  0.00  0.00    -0.047 A 
ATOM      5  C3  UNL d   1       4.057   1.666  -1.619  0.00  0.00    -0.047 A 
ATOM      6  C4  UNL d   1       4.571   2.482  -0.634  0.00  0.00    -0.004 A 
ENDROOT
TORSDOF 0
ENDMDL
