MODEL 1
REMARK minimizedAffinity 3.55651903
REMARK minimizedRMSD -1
REMARK  0 active torsions:
REMARK  status: ('A' for Active; 'I' for Inactive)
ROOT
ATOM      1  C   UNL d   1       4.741   3.546  -1.379  0.00  0.00     0.172 C 
ATOM      2  N   UNL d   1       4.145   2.590  -0.476  0.00  0.00    -0.070 N 
ATOM      3  C1  UNL d   1       3.458   1.464  -0.844  0.00  0.00    -0.004 A 
ATOM      4  C2  UNL d   1       3.052   0.822   0.306  0.00  0.00    -0.047 A 
ATOM      5  C3  UNL d   1       3.510   1.590   1.404  0.00  0.00    -0.047 A 
ATOM      6  C4  UNL d   1       4.183   2.678   0.891  0.00  0.00    -0.004 A 
ENDROOT
TORSDOF 0
ENDMDL
