MODEL 1
REMARK minimizedAffinity -4.13584757
REMARK minimizedRMSD -1
REMARK  1 active torsions:
REMARK  status: ('A' for Active; 'I' for Inactive)
REMARK    1  A    between atoms: C1_2  and  C2_3 
ROOT
ATOM      1  C2  UNL d   1      -0.466   0.070   0.129  0.00  0.00    -0.081 A 
ATOM      2  C3  UNL d   1      -0.255  -1.292   0.378  0.00  0.00     0.006 A 
ATOM      3  C4  UNL d   1       1.002  -1.752   0.778  0.00  0.00     0.002 A 
ATOM      4  C5  UNL d   1       2.066  -0.858   0.943  0.00  0.00    -0.080 A 
ATOM      5  C6  UNL d   1       3.412  -1.334   1.401  0.00  0.00     0.076 C 
ATOM      6  C7  UNL d   1       1.859   0.500   0.678  0.00  0.00     0.002 A 
ATOM      7  C8  UNL d   1       0.603   0.961   0.277  0.00  0.00     0.006 A 
ENDROOT
BRANCH   1   8
ATOM      8  C1  UNL d   1      -1.837   0.578  -0.239  0.00  0.00     0.054 C 
ATOM      9  C   UNL d   1      -2.098   0.432  -1.732  0.00  0.00     0.018 C 
ENDBRANCH   1   8
TORSDOF 1
ENDMDL
