MODEL 1
REMARK minimizedAffinity -5.41648293
REMARK minimizedRMSD -1
REMARK  1 active torsions:
REMARK  status: ('A' for Active; 'I' for Inactive)
REMARK    1  A    between atoms: C1_2  and  C2_3 
ROOT
ATOM      1  C2  UNL d   1      -0.859  -0.567   0.506  0.00  0.00    -0.081 A 
ATOM      2  C3  UNL d   1      -0.254   0.689   0.375  0.00  0.00     0.006 A 
ATOM      3  C4  UNL d   1       1.114   0.844   0.613  0.00  0.00     0.002 A 
ATOM      4  C5  UNL d   1       1.900  -0.254   0.977  0.00  0.00    -0.080 A 
ATOM      5  C6  UNL d   1       3.375  -0.107   1.206  0.00  0.00     0.076 C 
ATOM      6  C7  UNL d   1       1.292  -1.505   1.125  0.00  0.00     0.002 A 
ATOM      7  C8  UNL d   1      -0.075  -1.661   0.888  0.00  0.00     0.006 A 
ENDROOT
BRANCH   1   8
ATOM      8  C1  UNL d   1      -2.321  -0.750   0.187  0.00  0.00     0.054 C 
ATOM      9  C   UNL d   1      -2.624  -0.375  -1.257  0.00  0.00     0.018 C 
ENDBRANCH   1   8
TORSDOF 1
ENDMDL
