MODEL 1
REMARK minimizedAffinity -2.67533994
REMARK minimizedRMSD -1
REMARK  1 active torsions:
REMARK  status: ('A' for Active; 'I' for Inactive)
REMARK    1  A    between atoms: C1_2  and  C2_3 
ROOT
ATOM      1  C2  UNL d   1      -0.593  -0.183  -0.738  0.00  0.00    -0.081 A 
ATOM      2  C3  UNL d   1      -0.413  -0.209   0.651  0.00  0.00     0.006 A 
ATOM      3  C4  UNL d   1       0.859  -0.397   1.197  0.00  0.00     0.002 A 
ATOM      4  C5  UNL d   1       1.972  -0.555   0.365  0.00  0.00    -0.080 A 
ATOM      5  C6  UNL d   1       3.348  -0.727   0.939  0.00  0.00     0.076 C 
ATOM      6  C7  UNL d   1       1.791  -0.546  -1.022  0.00  0.00     0.002 A 
ATOM      7  C8  UNL d   1       0.519  -0.359  -1.569  0.00  0.00     0.006 A 
ENDROOT
BRANCH   1   8
ATOM      8  C1  UNL d   1      -1.953   0.084  -1.330  0.00  0.00     0.054 C 
ATOM      9  C   UNL d   1      -1.925  -0.018  -2.848  0.00  0.00     0.018 C 
ENDBRANCH   1   8
TORSDOF 1
ENDMDL
