MODEL 1
REMARK minimizedAffinity -3.2564199
REMARK minimizedRMSD -1
REMARK  1 active torsions:
REMARK  status: ('A' for Active; 'I' for Inactive)
REMARK    1  A    between atoms: C1_2  and  C2_3 
ROOT
ATOM      1  C2  UNL d   1      -1.103   0.279  -0.307  0.00  0.00    -0.081 A 
ATOM      2  C3  UNL d   1      -0.604   1.488   0.194  0.00  0.00     0.006 A 
ATOM      3  C4  UNL d   1       0.713   1.574   0.651  0.00  0.00     0.002 A 
ATOM      4  C5  UNL d   1       1.555   0.458   0.607  0.00  0.00    -0.080 A 
ATOM      5  C6  UNL d   1       2.980   0.545   1.067  0.00  0.00     0.076 C 
ATOM      6  C7  UNL d   1       1.051  -0.754   0.123  0.00  0.00     0.002 A 
ATOM      7  C8  UNL d   1      -0.266  -0.842  -0.333  0.00  0.00     0.006 A 
ENDROOT
BRANCH   1   8
ATOM      8  C1  UNL d   1      -2.503   0.199  -0.860  0.00  0.00     0.054 C 
ATOM      9  C   UNL d   1      -2.506  -0.345  -2.282  0.00  0.00     0.018 C 
ENDBRANCH   1   8
TORSDOF 1
ENDMDL
