MODEL 1
REMARK minimizedAffinity -5.32148886
REMARK minimizedRMSD -1
REMARK  1 active torsions:
REMARK  status: ('A' for Active; 'I' for Inactive)
REMARK    1  A    between atoms: C1_2  and  C2_3 
ROOT
ATOM      1  C2  UNL d   1      -0.124  -0.327   0.377  0.00  0.00    -0.081 A 
ATOM      2  C3  UNL d   1       0.950   0.560   0.233  0.00  0.00     0.006 A 
ATOM      3  C4  UNL d   1       2.222   0.213   0.694  0.00  0.00     0.002 A 
ATOM      4  C5  UNL d   1       2.443  -1.028   1.301  0.00  0.00    -0.080 A 
ATOM      5  C6  UNL d   1       3.810  -1.425   1.773  0.00  0.00     0.076 C 
ATOM      6  C7  UNL d   1       1.366  -1.907   1.461  0.00  0.00     0.002 A 
ATOM      7  C8  UNL d   1       0.094  -1.561   1.000  0.00  0.00     0.006 A 
ENDROOT
BRANCH   1   8
ATOM      8  C1  UNL d   1      -1.483   0.017  -0.177  0.00  0.00     0.054 C 
ATOM      9  C   UNL d   1      -1.862  -0.906  -1.326  0.00  0.00     0.018 C 
ENDBRANCH   1   8
TORSDOF 1
ENDMDL
