MODEL 1
REMARK minimizedAffinity -4.32752085
REMARK minimizedRMSD -1
REMARK  1 active torsions:
REMARK  status: ('A' for Active; 'I' for Inactive)
REMARK    1  A    between atoms: C1_2  and  C2_3 
ROOT
ATOM      1  C2  UNL d   1       1.869  -1.296   1.050  0.00  0.00    -0.081 A 
ATOM      2  C3  UNL d   1       2.772  -0.231   1.149  0.00  0.00     0.006 A 
ATOM      3  C4  UNL d   1       2.399   1.054   0.748  0.00  0.00     0.002 A 
ATOM      4  C5  UNL d   1       1.115   1.296   0.249  0.00  0.00    -0.080 A 
ATOM      5  C6  UNL d   1       0.692   2.677  -0.157  0.00  0.00     0.076 C 
ATOM      6  C7  UNL d   1       0.218   0.229   0.133  0.00  0.00     0.002 A 
ATOM      7  C8  UNL d   1       0.591  -1.056   0.534  0.00  0.00     0.006 A 
ENDROOT
BRANCH   1   8
ATOM      8  C1  UNL d   1       2.246  -2.670   1.543  0.00  0.00     0.054 C 
ATOM      9  C   UNL d   1       1.083  -3.643   1.415  0.00  0.00     0.018 C 
ENDBRANCH   1   8
TORSDOF 1
ENDMDL
