MODEL 1
REMARK minimizedAffinity -4.50670004
REMARK minimizedRMSD -1
REMARK  1 active torsions:
REMARK  status: ('A' for Active; 'I' for Inactive)
REMARK    1  A    between atoms: C1_2  and  C2_3 
ROOT
ATOM      1  C2  UNL d   1      -0.989   0.017  -0.392  0.00  0.00    -0.081 A 
ATOM      2  C3  UNL d   1      -0.288   1.223  -0.274  0.00  0.00     0.006 A 
ATOM      3  C4  UNL d   1       1.037   1.231   0.169  0.00  0.00     0.002 A 
ATOM      4  C5  UNL d   1       1.685   0.035   0.493  0.00  0.00    -0.080 A 
ATOM      5  C6  UNL d   1       3.116   0.027   0.941  0.00  0.00     0.076 C 
ATOM      6  C7  UNL d   1       0.978  -1.169   0.393  0.00  0.00     0.002 A 
ATOM      7  C8  UNL d   1      -0.346  -1.178  -0.049  0.00  0.00     0.006 A 
ENDROOT
BRANCH   1   8
ATOM      8  C1  UNL d   1      -2.397  -0.002  -0.931  0.00  0.00     0.054 C 
ATOM      9  C   UNL d   1      -2.409  -0.213  -2.438  0.00  0.00     0.018 C 
ENDBRANCH   1   8
TORSDOF 1
ENDMDL
