MODEL 1
REMARK minimizedAffinity -2.83913016
REMARK minimizedRMSD -1
REMARK  1 active torsions:
REMARK  status: ('A' for Active; 'I' for Inactive)
REMARK    1  A    between atoms: C1_2  and  C2_3 
ROOT
ATOM      1  C2  UNL d   1      -1.775  -0.080  -1.015  0.00  0.00    -0.081 A 
ATOM      2  C3  UNL d   1      -2.065  -1.315  -1.607  0.00  0.00     0.006 A 
ATOM      3  C4  UNL d   1      -2.793  -1.376  -2.798  0.00  0.00     0.002 A 
ATOM      4  C5  UNL d   1      -3.236  -0.204  -3.419  0.00  0.00    -0.080 A 
ATOM      5  C6  UNL d   1      -3.993  -0.254  -4.714  0.00  0.00     0.076 C 
ATOM      6  C7  UNL d   1      -2.961   1.029  -2.819  0.00  0.00     0.002 A 
ATOM      7  C8  UNL d   1      -2.234   1.091  -1.628  0.00  0.00     0.006 A 
ENDROOT
BRANCH   1   8
ATOM      8  C1  UNL d   1      -0.934  -0.007   0.234  0.00  0.00     0.054 C 
ATOM      9  C   UNL d   1       0.079   1.126   0.154  0.00  0.00     0.018 C 
ENDBRANCH   1   8
TORSDOF 1
ENDMDL
