MODEL 1
REMARK minimizedAffinity -5.51165676
REMARK minimizedRMSD -1
REMARK  1 active torsions:
REMARK  status: ('A' for Active; 'I' for Inactive)
REMARK    1  A    between atoms: C1_2  and  C2_3 
ROOT
ATOM      1  C2  UNL d   1      -1.163   0.111  -0.581  0.00  0.00    -0.081 A 
ATOM      2  C3  UNL d   1      -0.509   1.343  -0.454  0.00  0.00     0.006 A 
ATOM      3  C4  UNL d   1       0.678   1.443   0.274  0.00  0.00     0.002 A 
ATOM      4  C5  UNL d   1       1.235   0.313   0.882  0.00  0.00    -0.080 A 
ATOM      5  C6  UNL d   1       2.526   0.401   1.642  0.00  0.00     0.076 C 
ATOM      6  C7  UNL d   1       0.573  -0.914   0.770  0.00  0.00     0.002 A 
ATOM      7  C8  UNL d   1      -0.614  -1.015   0.042  0.00  0.00     0.006 A 
ENDROOT
BRANCH   1   8
ATOM      8  C1  UNL d   1      -2.409  -0.013  -1.420  0.00  0.00     0.054 C 
ATOM      9  C   UNL d   1      -2.275  -1.126  -2.449  0.00  0.00     0.018 C 
ENDBRANCH   1   8
TORSDOF 1
ENDMDL
