MODEL 1
REMARK minimizedAffinity 0.584684134
REMARK minimizedRMSD -1
REMARK  1 active torsions:
REMARK  status: ('A' for Active; 'I' for Inactive)
REMARK    1  A    between atoms: C1_2  and  C2_3 
ROOT
ATOM      1  C2  UNL d   1       0.658   0.080   1.624  0.00  0.00    -0.081 A 
ATOM      2  C3  UNL d   1       0.932  -0.718   0.507  0.00  0.00     0.006 A 
ATOM      3  C4  UNL d   1       0.532  -0.313  -0.769  0.00  0.00     0.002 A 
ATOM      4  C5  UNL d   1      -0.141   0.900  -0.949  0.00  0.00    -0.080 A 
ATOM      5  C6  UNL d   1      -0.549   1.361  -2.317  0.00  0.00     0.076 C 
ATOM      6  C7  UNL d   1      -0.431   1.689   0.169  0.00  0.00     0.002 A 
ATOM      7  C8  UNL d   1      -0.032   1.284   1.444  0.00  0.00     0.006 A 
ENDROOT
BRANCH   1   8
ATOM      8  C1  UNL d   1       1.145  -0.323   2.992  0.00  0.00     0.054 C 
ATOM      9  C   UNL d   1       2.547  -0.912   2.929  0.00  0.00     0.018 C 
ENDBRANCH   1   8
TORSDOF 1
ENDMDL
