MODEL 1
REMARK minimizedAffinity -3.33644605
REMARK minimizedRMSD -1
REMARK  1 active torsions:
REMARK  status: ('A' for Active; 'I' for Inactive)
REMARK    1  A    between atoms: C1_2  and  C2_3 
ROOT
ATOM      1  C2  UNL d   1      -0.329   0.883  -0.645  0.00  0.00    -0.081 A 
ATOM      2  C3  UNL d   1      -0.535   2.113  -1.281  0.00  0.00     0.006 A 
ATOM      3  C4  UNL d   1      -0.965   3.224  -0.552  0.00  0.00     0.002 A 
ATOM      4  C5  UNL d   1      -1.187   3.126   0.826  0.00  0.00    -0.080 A 
ATOM      5  C6  UNL d   1      -1.619   4.318   1.627  0.00  0.00     0.076 C 
ATOM      6  C7  UNL d   1      -0.997   1.892   1.459  0.00  0.00     0.002 A 
ATOM      7  C8  UNL d   1      -0.568   0.781   0.729  0.00  0.00     0.006 A 
ENDROOT
BRANCH   1   8
ATOM      8  C1  UNL d   1       0.197  -0.300  -1.418  0.00  0.00     0.054 C 
ATOM      9  C   UNL d   1       1.223  -1.079  -0.607  0.00  0.00     0.018 C 
ENDBRANCH   1   8
TORSDOF 1
ENDMDL
