MODEL 1
REMARK minimizedAffinity -2.75625491
REMARK minimizedRMSD -1
REMARK  1 active torsions:
REMARK  status: ('A' for Active; 'I' for Inactive)
REMARK    1  A    between atoms: C1_2  and  C2_3 
ROOT
ATOM      1  C2  UNL d   1       0.199  -0.282  -0.502  0.00  0.00    -0.081 A 
ATOM      2  C3  UNL d   1       0.624  -0.176   0.829  0.00  0.00     0.006 A 
ATOM      3  C4  UNL d   1       0.095   0.811   1.664  0.00  0.00     0.002 A 
ATOM      4  C5  UNL d   1      -0.871   1.703   1.186  0.00  0.00    -0.080 A 
ATOM      5  C6  UNL d   1      -1.468   2.747   2.081  0.00  0.00     0.076 C 
ATOM      6  C7  UNL d   1      -1.282   1.608  -0.148  0.00  0.00     0.002 A 
ATOM      7  C8  UNL d   1      -0.754   0.622  -0.984  0.00  0.00     0.006 A 
ENDROOT
BRANCH   1   8
ATOM      8  C1  UNL d   1       0.719  -1.386  -1.386  0.00  0.00     0.054 C 
ATOM      9  C   UNL d   1      -0.185  -2.609  -1.335  0.00  0.00     0.018 C 
ENDBRANCH   1   8
TORSDOF 1
ENDMDL
