MODEL 1
REMARK minimizedAffinity -4.91860151
REMARK minimizedRMSD -1
REMARK  1 active torsions:
REMARK  status: ('A' for Active; 'I' for Inactive)
REMARK    1  A    between atoms: C1_2  and  C2_3 
ROOT
ATOM      1  C2  UNL d   1       0.273  -0.800  -0.507  0.00  0.00    -0.081 A 
ATOM      2  C3  UNL d   1       0.356  -0.885   0.888  0.00  0.00     0.006 A 
ATOM      3  C4  UNL d   1       0.018   0.210   1.686  0.00  0.00     0.002 A 
ATOM      4  C5  UNL d   1      -0.416   1.406   1.103  0.00  0.00    -0.080 A 
ATOM      5  C6  UNL d   1      -0.811   2.580   1.949  0.00  0.00     0.076 C 
ATOM      6  C7  UNL d   1      -0.481   1.497  -0.291  0.00  0.00     0.002 A 
ATOM      7  C8  UNL d   1      -0.143   0.402  -1.089  0.00  0.00     0.006 A 
ENDROOT
BRANCH   1   8
ATOM      8  C1  UNL d   1       0.575  -2.000  -1.367  0.00  0.00     0.054 C 
ATOM      9  C   UNL d   1      -0.690  -2.783  -1.689  0.00  0.00     0.018 C 
ENDBRANCH   1   8
TORSDOF 1
ENDMDL
