MODEL 1
REMARK minimizedAffinity 0.0770243928
REMARK minimizedRMSD -1
REMARK  0 active torsions:
REMARK  status: ('A' for Active; 'I' for Inactive)
ROOT
ATOM      1  C   UNL d   1       2.131  -3.343   0.693  0.00  0.00     0.078 C 
ATOM      2  C1  UNL d   1       1.112  -2.311   1.072  0.00  0.00    -0.077 A 
ATOM      3  C2  UNL d   1       0.671  -1.358   0.145  0.00  0.00    -0.001 A 
ATOM      4  C3  UNL d   1      -0.271  -0.397   0.514  0.00  0.00     0.003 A 
ATOM      5  C4  UNL d   1      -0.779  -0.377   1.811  0.00  0.00    -0.005 A 
ATOM      6  C5  UNL d   1      -0.346  -1.319   2.741  0.00  0.00     0.003 A 
ATOM      7  C6  UNL d   1       0.596  -2.282   2.374  0.00  0.00    -0.001 A 
ENDROOT
TORSDOF 0
ENDMDL
