MODEL 1
REMARK minimizedAffinity 2.71073604
REMARK minimizedRMSD -1
REMARK  0 active torsions:
REMARK  status: ('A' for Active; 'I' for Inactive)
ROOT
ATOM      1  C   UNL d   1      -1.813  -1.506  -5.900  0.00  0.00     0.078 C 
ATOM      2  C1  UNL d   1      -3.270  -1.856  -5.942  0.00  0.00    -0.077 A 
ATOM      3  C2  UNL d   1      -4.252  -0.857  -5.940  0.00  0.00    -0.001 A 
ATOM      4  C3  UNL d   1      -5.605  -1.198  -5.970  0.00  0.00     0.003 A 
ATOM      5  C4  UNL d   1      -5.989  -2.537  -6.000  0.00  0.00    -0.005 A 
ATOM      6  C5  UNL d   1      -5.020  -3.538  -5.999  0.00  0.00     0.003 A 
ATOM      7  C6  UNL d   1      -3.666  -3.199  -5.970  0.00  0.00    -0.001 A 
ENDROOT
TORSDOF 0
ENDMDL
