MODEL 1
REMARK minimizedAffinity 2.38750029
REMARK minimizedRMSD -1
REMARK  0 active torsions:
REMARK  status: ('A' for Active; 'I' for Inactive)
ROOT
ATOM      1  C   UNL d   1       0.936   0.165  -0.827  0.00  0.00     0.078 C 
ATOM      2  C1  UNL d   1       2.163   0.990  -0.576  0.00  0.00    -0.077 A 
ATOM      3  C2  UNL d   1       3.321   0.415  -0.039  0.00  0.00    -0.001 A 
ATOM      4  C3  UNL d   1       4.452   1.198   0.199  0.00  0.00     0.003 A 
ATOM      5  C4  UNL d   1       4.436   2.559  -0.097  0.00  0.00    -0.005 A 
ATOM      6  C5  UNL d   1       3.287   3.140  -0.630  0.00  0.00     0.003 A 
ATOM      7  C6  UNL d   1       2.155   2.360  -0.868  0.00  0.00    -0.001 A 
ENDROOT
TORSDOF 0
ENDMDL
