MODEL 1
REMARK minimizedAffinity 1.39254606
REMARK minimizedRMSD -1
REMARK  0 active torsions:
REMARK  status: ('A' for Active; 'I' for Inactive)
ROOT
ATOM      1  C   UNL d   1       2.829  -3.752   0.540  0.00  0.00     0.078 C 
ATOM      2  C1  UNL d   1       1.660  -3.132   1.246  0.00  0.00    -0.077 A 
ATOM      3  C2  UNL d   1       1.201  -1.856   0.897  0.00  0.00    -0.001 A 
ATOM      4  C3  UNL d   1       0.118  -1.288   1.569  0.00  0.00     0.003 A 
ATOM      5  C4  UNL d   1      -0.514  -1.987   2.595  0.00  0.00    -0.005 A 
ATOM      6  C5  UNL d   1      -0.063  -3.256   2.951  0.00  0.00     0.003 A 
ATOM      7  C6  UNL d   1       1.020  -3.826   2.280  0.00  0.00    -0.001 A 
ENDROOT
TORSDOF 0
ENDMDL
