MODEL 1
REMARK minimizedAffinity -0.638607621
REMARK minimizedRMSD -1
REMARK  0 active torsions:
REMARK  status: ('A' for Active; 'I' for Inactive)
ROOT
ATOM      1  C   UNL d   1       2.088  -4.105   1.676  0.00  0.00     0.078 C 
ATOM      2  C1  UNL d   1       0.860  -3.537   2.322  0.00  0.00    -0.077 A 
ATOM      3  C2  UNL d   1      -0.208  -4.363   2.691  0.00  0.00    -0.001 A 
ATOM      4  C3  UNL d   1      -1.350  -3.819   3.282  0.00  0.00     0.003 A 
ATOM      5  C4  UNL d   1      -1.434  -2.447   3.509  0.00  0.00    -0.005 A 
ATOM      6  C5  UNL d   1      -0.377  -1.617   3.143  0.00  0.00     0.003 A 
ATOM      7  C6  UNL d   1       0.765  -2.158   2.551  0.00  0.00    -0.001 A 
ENDROOT
TORSDOF 0
ENDMDL
