MODEL 1
REMARK minimizedAffinity 3.19517326
REMARK minimizedRMSD -1
REMARK  0 active torsions:
REMARK  status: ('A' for Active; 'I' for Inactive)
ROOT
ATOM      1  C   UNL d   1      -5.790  -0.798   1.284  0.00  0.00     0.078 C 
ATOM      2  C1  UNL d   1      -4.344  -0.424   1.418  0.00  0.00    -0.077 A 
ATOM      3  C2  UNL d   1      -3.921   0.478   2.402  0.00  0.00    -0.001 A 
ATOM      4  C3  UNL d   1      -2.573   0.825   2.509  0.00  0.00     0.003 A 
ATOM      5  C4  UNL d   1      -1.638   0.276   1.635  0.00  0.00    -0.005 A 
ATOM      6  C5  UNL d   1      -2.049  -0.621   0.652  0.00  0.00     0.003 A 
ATOM      7  C6  UNL d   1      -3.396  -0.969   0.543  0.00  0.00    -0.001 A 
ENDROOT
TORSDOF 0
ENDMDL
