MODEL 1
REMARK minimizedAffinity -3.07123089
REMARK minimizedRMSD -1
REMARK  0 active torsions:
REMARK  status: ('A' for Active; 'I' for Inactive)
ROOT
ATOM      1  C   UNL d   1       0.706  -1.523   0.377  0.00  0.00     0.172 C 
ATOM      2  N   UNL d   1       0.673  -0.079   0.396  0.00  0.00    -0.070 N 
ATOM      3  C1  UNL d   1      -0.411   0.690   0.727  0.00  0.00    -0.004 A 
ATOM      4  C2  UNL d   1      -0.036   2.012   0.624  0.00  0.00    -0.047 A 
ATOM      5  C3  UNL d   1       1.319   2.039   0.217  0.00  0.00    -0.047 A 
ATOM      6  C4  UNL d   1       1.733   0.730   0.083  0.00  0.00    -0.004 A 
ENDROOT
TORSDOF 0
ENDMDL
