MODEL 1
REMARK minimizedAffinity 2.60583186
REMARK minimizedRMSD -1
REMARK  0 active torsions:
REMARK  status: ('A' for Active; 'I' for Inactive)
ROOT
ATOM      1  C   UNL d   1       1.954   2.253  -4.503  0.00  0.00     0.172 C 
ATOM      2  N   UNL d   1       0.678   2.876  -4.759  0.00  0.00    -0.070 N 
ATOM      3  C1  UNL d   1      -0.155   3.410  -3.812  0.00  0.00    -0.004 A 
ATOM      4  C2  UNL d   1      -1.267   3.906  -4.458  0.00  0.00    -0.047 A 
ATOM      5  C3  UNL d   1      -1.097   3.660  -5.841  0.00  0.00    -0.047 A 
ATOM      6  C4  UNL d   1       0.115   3.022  -6.000  0.00  0.00    -0.004 A 
ENDROOT
TORSDOF 0
ENDMDL
