MODEL 1
REMARK minimizedAffinity -0.264556289
REMARK minimizedRMSD -1
REMARK  0 active torsions:
REMARK  status: ('A' for Active; 'I' for Inactive)
ROOT
ATOM      1  C   UNL d   1      -0.341  -3.697   1.585  0.00  0.00     0.172 C 
ATOM      2  N   UNL d   1      -0.915  -3.930   0.280  0.00  0.00    -0.070 N 
ATOM      3  C1  UNL d   1      -0.220  -4.277  -0.847  0.00  0.00    -0.004 A 
ATOM      4  C2  UNL d   1      -1.125  -4.406  -1.878  0.00  0.00    -0.047 A 
ATOM      5  C3  UNL d   1      -2.409  -4.126  -1.353  0.00  0.00    -0.047 A 
ATOM      6  C4  UNL d   1      -2.250  -3.834  -0.014  0.00  0.00    -0.004 A 
ENDROOT
TORSDOF 0
ENDMDL
