MODEL 1
REMARK minimizedAffinity -1.62270319
REMARK minimizedRMSD -1
REMARK  0 active torsions:
REMARK  status: ('A' for Active; 'I' for Inactive)
ROOT
ATOM      1  C   UNL d   1       1.580   0.715   1.296  0.00  0.00     0.172 C 
ATOM      2  N   UNL d   1       0.378  -0.069   1.132  0.00  0.00    -0.070 N 
ATOM      3  C1  UNL d   1       0.319  -1.350   0.651  0.00  0.00    -0.004 A 
ATOM      4  C2  UNL d   1      -1.002  -1.740   0.651  0.00  0.00    -0.047 A 
ATOM      5  C3  UNL d   1      -1.764  -0.657   1.148  0.00  0.00    -0.047 A 
ATOM      6  C4  UNL d   1      -0.885   0.365   1.438  0.00  0.00    -0.004 A 
ENDROOT
TORSDOF 0
ENDMDL
