MODEL 1
REMARK minimizedAffinity -1.33547068
REMARK minimizedRMSD -1
REMARK  0 active torsions:
REMARK  status: ('A' for Active; 'I' for Inactive)
ROOT
ATOM      1  C   UNL d   1      -2.715   2.187  -3.015  0.00  0.00     0.172 C 
ATOM      2  N   UNL d   1      -1.811   2.565  -4.076  0.00  0.00    -0.070 N 
ATOM      3  C1  UNL d   1      -2.171   3.153  -5.259  0.00  0.00    -0.004 A 
ATOM      4  C2  UNL d   1      -1.025   3.354  -5.997  0.00  0.00    -0.047 A 
ATOM      5  C3  UNL d   1       0.062   2.869  -5.231  0.00  0.00    -0.047 A 
ATOM      6  C4  UNL d   1      -0.454   2.386  -4.047  0.00  0.00    -0.004 A 
ENDROOT
TORSDOF 0
ENDMDL
