MODEL 1
REMARK minimizedAffinity -0.650466859
REMARK minimizedRMSD -1
REMARK  0 active torsions:
REMARK  status: ('A' for Active; 'I' for Inactive)
ROOT
ATOM      1  C   UNL d   1       4.630   5.998   2.408  0.00  0.00     0.172 C 
ATOM      2  N   UNL d   1       4.802   5.880   3.837  0.00  0.00    -0.070 N 
ATOM      3  C1  UNL d   1       3.805   5.637   4.744  0.00  0.00    -0.004 A 
ATOM      4  C2  UNL d   1       4.376   5.596   5.998  0.00  0.00    -0.047 A 
ATOM      5  C3  UNL d   1       5.764   5.823   5.839  0.00  0.00    -0.047 A 
ATOM      6  C4  UNL d   1       6.000   5.996   4.491  0.00  0.00    -0.004 A 
ENDROOT
TORSDOF 0
ENDMDL
