MODEL 1
REMARK minimizedAffinity -0.566140115
REMARK minimizedRMSD -1
REMARK  0 active torsions:
REMARK  status: ('A' for Active; 'I' for Inactive)
ROOT
ATOM      1  C   UNL d   1      -1.118  -3.040   1.763  0.00  0.00     0.172 C 
ATOM      2  N   UNL d   1      -1.947  -3.877   0.929  0.00  0.00    -0.070 N 
ATOM      3  C1  UNL d   1      -2.335  -3.592  -0.353  0.00  0.00    -0.004 A 
ATOM      4  C2  UNL d   1      -3.115  -4.637  -0.800  0.00  0.00    -0.047 A 
ATOM      5  C3  UNL d   1      -3.199  -5.582   0.249  0.00  0.00    -0.047 A 
ATOM      6  C4  UNL d   1      -2.467  -5.086   1.308  0.00  0.00    -0.004 A 
ENDROOT
TORSDOF 0
ENDMDL
