MODEL 1
REMARK minimizedAffinity 2.66765118
REMARK minimizedRMSD -1
REMARK  0 active torsions:
REMARK  status: ('A' for Active; 'I' for Inactive)
ROOT
ATOM      1  C   UNL d   1       1.488   1.536  -5.503  0.00  0.00     0.172 C 
ATOM      2  N   UNL d   1       0.107   1.937  -5.628  0.00  0.00    -0.070 N 
ATOM      3  C1  UNL d   1      -0.333   3.180  -6.000  0.00  0.00    -0.004 A 
ATOM      4  C2  UNL d   1      -1.711   3.158  -5.998  0.00  0.00    -0.047 A 
ATOM      5  C3  UNL d   1      -2.113   1.857  -5.611  0.00  0.00    -0.047 A 
ATOM      6  C4  UNL d   1      -0.968   1.123  -5.387  0.00  0.00    -0.004 A 
ENDROOT
TORSDOF 0
ENDMDL
