MODEL 1
REMARK minimizedAffinity -0.35348168
REMARK minimizedRMSD -1
REMARK  0 active torsions:
REMARK  status: ('A' for Active; 'I' for Inactive)
ROOT
ATOM      1  C   UNL d   1       0.748  -6.000   4.979  0.00  0.00     0.172 C 
ATOM      2  N   UNL d   1       0.358  -5.354   3.748  0.00  0.00    -0.070 N 
ATOM      3  C1  UNL d   1      -0.034  -5.991   2.601  0.00  0.00    -0.004 A 
ATOM      4  C2  UNL d   1      -0.321  -5.027   1.659  0.00  0.00    -0.047 A 
ATOM      5  C3  UNL d   1      -0.092  -3.766   2.260  0.00  0.00    -0.047 A 
ATOM      6  C4  UNL d   1       0.328  -3.998   3.553  0.00  0.00    -0.004 A 
ENDROOT
TORSDOF 0
ENDMDL
