MODEL 1
REMARK minimizedAffinity 1.64333117
REMARK minimizedRMSD -1
REMARK  0 active torsions:
REMARK  status: ('A' for Active; 'I' for Inactive)
ROOT
ATOM      1  C   UNL d   1       5.614   6.000   3.820  0.00  0.00     0.172 C 
ATOM      2  N   UNL d   1       5.745   5.358   2.533  0.00  0.00    -0.070 N 
ATOM      3  C1  UNL d   1       5.918   5.999   1.335  0.00  0.00    -0.004 A 
ATOM      4  C2  UNL d   1       6.000   5.039   0.350  0.00  0.00    -0.047 A 
ATOM      5  C3  UNL d   1       5.870   3.777   0.977  0.00  0.00    -0.047 A 
ATOM      6  C4  UNL d   1       5.714   4.004   2.328  0.00  0.00    -0.004 A 
ENDROOT
TORSDOF 0
ENDMDL
