MODEL 1
REMARK minimizedAffinity 0.152856261
REMARK minimizedRMSD -1
REMARK  0 active torsions:
REMARK  status: ('A' for Active; 'I' for Inactive)
ROOT
ATOM      1  C   UNL d   1      -0.669   4.176  -6.000  0.00  0.00     0.172 C 
ATOM      2  N   UNL d   1      -1.716   3.251  -5.637  0.00  0.00    -0.070 N 
ATOM      3  C1  UNL d   1      -1.555   2.118  -4.886  0.00  0.00    -0.004 A 
ATOM      4  C2  UNL d   1      -2.788   1.513  -4.765  0.00  0.00    -0.047 A 
ATOM      5  C3  UNL d   1      -3.721   2.309  -5.469  0.00  0.00    -0.047 A 
ATOM      6  C4  UNL d   1      -3.031   3.379  -6.000  0.00  0.00    -0.004 A 
ENDROOT
TORSDOF 0
ENDMDL
