MODEL 1
REMARK minimizedAffinity -1.98424304
REMARK minimizedRMSD -1
REMARK  0 active torsions:
REMARK  status: ('A' for Active; 'I' for Inactive)
ROOT
ATOM      1  C   UNL d   1       1.659  -3.133  -0.566  0.00  0.00     0.172 C 
ATOM      2  N   UNL d   1       0.409  -3.093   0.156  0.00  0.00    -0.070 N 
ATOM      3  C1  UNL d   1      -0.808  -3.486  -0.333  0.00  0.00    -0.004 A 
ATOM      4  C2  UNL d   1      -1.744  -3.293   0.659  0.00  0.00    -0.047 A 
ATOM      5  C3  UNL d   1      -1.067  -2.766   1.784  0.00  0.00    -0.047 A 
ATOM      6  C4  UNL d   1       0.265  -2.652   1.445  0.00  0.00    -0.004 A 
ENDROOT
TORSDOF 0
ENDMDL
