MODEL 1
REMARK minimizedAffinity -2.83119941
REMARK minimizedRMSD -1
REMARK  0 active torsions:
REMARK  status: ('A' for Active; 'I' for Inactive)
ROOT
ATOM      1  C   UNL d   1      -0.054   2.446   3.070  0.00  0.00     0.172 C 
ATOM      2  N   UNL d   1       0.778   2.510   1.891  0.00  0.00    -0.070 N 
ATOM      3  C1  UNL d   1       1.580   1.503   1.425  0.00  0.00    -0.004 A 
ATOM      4  C2  UNL d   1       2.205   1.956   0.283  0.00  0.00    -0.047 A 
ATOM      5  C3  UNL d   1       1.764   3.281   0.056  0.00  0.00    -0.047 A 
ATOM      6  C4  UNL d   1       0.881   3.598   1.066  0.00  0.00    -0.004 A 
ENDROOT
TORSDOF 0
ENDMDL
