MODEL 1
REMARK minimizedAffinity -0.321436197
REMARK minimizedRMSD -1
REMARK  0 active torsions:
REMARK  status: ('A' for Active; 'I' for Inactive)
ROOT
ATOM      1  C   UNL d   1       0.652   2.624  -4.501  0.00  0.00     0.172 C 
ATOM      2  N   UNL d   1      -0.721   2.558  -4.942  0.00  0.00    -0.070 N 
ATOM      3  C1  UNL d   1      -1.309   3.396  -5.852  0.00  0.00    -0.004 A 
ATOM      4  C2  UNL d   1      -2.622   3.004  -6.000  0.00  0.00    -0.047 A 
ATOM      5  C3  UNL d   1      -2.831   1.893  -5.148  0.00  0.00    -0.047 A 
ATOM      6  C4  UNL d   1      -1.638   1.639  -4.505  0.00  0.00    -0.004 A 
ENDROOT
TORSDOF 0
ENDMDL
