MODEL 1
REMARK minimizedAffinity 2.7444036
REMARK minimizedRMSD -1
REMARK  0 active torsions:
REMARK  status: ('A' for Active; 'I' for Inactive)
ROOT
ATOM      1  C   UNL d   1       1.639   2.994  -5.138  0.00  0.00     0.172 C 
ATOM      2  N   UNL d   1       0.308   3.521  -5.329  0.00  0.00    -0.070 N 
ATOM      3  C1  UNL d   1      -0.850   2.949  -4.873  0.00  0.00    -0.004 A 
ATOM      4  C2  UNL d   1      -1.899   3.756  -5.258  0.00  0.00    -0.047 A 
ATOM      5  C3  UNL d   1      -1.353   4.849  -5.971  0.00  0.00    -0.047 A 
ATOM      6  C4  UNL d   1       0.015   4.679  -6.000  0.00  0.00    -0.004 A 
ENDROOT
TORSDOF 0
ENDMDL
