MODEL 1
REMARK minimizedAffinity 0.414824307
REMARK minimizedRMSD -1
REMARK  0 active torsions:
REMARK  status: ('A' for Active; 'I' for Inactive)
ROOT
ATOM      1  C   UNL d   1      -3.077   1.533  -3.740  0.00  0.00     0.172 C 
ATOM      2  N   UNL d   1      -1.860   1.914  -4.417  0.00  0.00    -0.070 N 
ATOM      3  C1  UNL d   1      -0.596   1.826  -3.897  0.00  0.00    -0.004 A 
ATOM      4  C2  UNL d   1       0.286   2.286  -4.852  0.00  0.00    -0.047 A 
ATOM      5  C3  UNL d   1      -0.475   2.663  -5.984  0.00  0.00    -0.047 A 
ATOM      6  C4  UNL d   1      -1.800   2.423  -5.687  0.00  0.00    -0.004 A 
ENDROOT
TORSDOF 0
ENDMDL
