MODEL 1
REMARK minimizedAffinity 14.4433737
REMARK minimizedRMSD -1
REMARK  0 active torsions:
REMARK  status: ('A' for Active; 'I' for Inactive)
ROOT
ATOM      1  C   UNL d   1       2.180  -0.367  -2.518  0.00  0.00     0.124 A 
ATOM      2  C1  UNL d   1       1.806  -0.062  -3.819  0.00  0.00     0.062 A 
ATOM      3  C2  UNL d   1       2.765   0.332  -4.748  0.00  0.00     0.162 A 
ATOM      4  C3  UNL d   1       4.107   0.422  -4.380  0.00  0.00    -0.034 A 
ATOM      5  C4  UNL d   1       4.475   0.115  -3.068  0.00  0.00     0.162 A 
ATOM      6  C5  UNL d   1       3.513  -0.279  -2.144  0.00  0.00     0.062 A 
ATOM      7  F   UNL d   1       3.876  -0.573  -0.887  0.00  0.00    -0.097 F 
ATOM      8  F1  UNL d   1       5.756   0.191  -2.680  0.00  0.00    -0.096 F 
ATOM      9  I   UNL d   1       5.544   1.011  -5.766  0.00  0.00    -0.060 I 
ATOM     10  F2  UNL d   1       2.376   0.620  -5.999  0.00  0.00    -0.096 F 
ATOM     11  F3  UNL d   1       0.519  -0.146  -4.183  0.00  0.00    -0.097 F 
ATOM     12  F4  UNL d   1       1.255  -0.745  -1.626  0.00  0.00    -0.092 F 
ENDROOT
TORSDOF 0
ENDMDL
