MODEL 1
REMARK minimizedAffinity 9.6574316
REMARK minimizedRMSD -1
REMARK  0 active torsions:
REMARK  status: ('A' for Active; 'I' for Inactive)
ROOT
ATOM      1  C   UNL d   1       1.068  -1.573  -2.985  0.00  0.00     0.124 A 
ATOM      2  C1  UNL d   1       1.039  -1.547  -1.598  0.00  0.00     0.062 A 
ATOM      3  C2  UNL d   1       0.930  -0.335  -0.922  0.00  0.00     0.162 A 
ATOM      4  C3  UNL d   1       0.849   0.862  -1.634  0.00  0.00    -0.034 A 
ATOM      5  C4  UNL d   1       0.880   0.828  -3.029  0.00  0.00     0.162 A 
ATOM      6  C5  UNL d   1       0.989  -0.386  -3.699  0.00  0.00     0.062 A 
ATOM      7  F   UNL d   1       1.017  -0.409  -5.040  0.00  0.00    -0.097 F 
ATOM      8  F1  UNL d   1       0.804   1.961  -3.744  0.00  0.00    -0.096 F 
ATOM      9  I   UNL d   1       0.686   2.677  -0.628  0.00  0.00    -0.060 I 
ATOM     10  F2  UNL d   1       0.904  -0.340   0.419  0.00  0.00    -0.096 F 
ATOM     11  F3  UNL d   1       1.116  -2.693  -0.906  0.00  0.00    -0.097 F 
ATOM     12  F4  UNL d   1       1.174  -2.741  -3.633  0.00  0.00    -0.092 F 
ENDROOT
TORSDOF 0
ENDMDL
