MODEL 1
REMARK minimizedAffinity 9.80267715
REMARK minimizedRMSD -1
REMARK  0 active torsions:
REMARK  status: ('A' for Active; 'I' for Inactive)
ROOT
ATOM      1  C   UNL d   1      -0.216  -4.732   1.267  0.00  0.00     0.124 A 
ATOM      2  C1  UNL d   1      -1.178  -4.288   0.370  0.00  0.00     0.062 A 
ATOM      3  C2  UNL d   1      -0.897  -3.231  -0.491  0.00  0.00     0.162 A 
ATOM      4  C3  UNL d   1       0.352  -2.611  -0.460  0.00  0.00    -0.034 A 
ATOM      5  C4  UNL d   1       1.313  -3.062   0.446  0.00  0.00     0.162 A 
ATOM      6  C5  UNL d   1       1.028  -4.118   1.305  0.00  0.00     0.062 A 
ATOM      7  F   UNL d   1       1.958  -4.545   2.171  0.00  0.00    -0.097 F 
ATOM      8  F1  UNL d   1       2.524  -2.487   0.503  0.00  0.00    -0.096 F 
ATOM      9  I   UNL d   1       0.775  -1.030  -1.746  0.00  0.00    -0.060 I 
ATOM     10  F2  UNL d   1      -1.845  -2.824  -1.348  0.00  0.00    -0.096 F 
ATOM     11  F3  UNL d   1      -2.381  -4.879   0.333  0.00  0.00    -0.097 F 
ATOM     12  F4  UNL d   1      -0.489  -5.748   2.096  0.00  0.00    -0.092 F 
ENDROOT
TORSDOF 0
ENDMDL
