MODEL 1
REMARK minimizedAffinity 2.45644951
REMARK minimizedRMSD -1
REMARK  0 active torsions:
REMARK  status: ('A' for Active; 'I' for Inactive)
ROOT
ATOM      1  C   UNL d   1       1.370  -0.125  -3.611  0.00  0.00     0.124 A 
ATOM      2  C1  UNL d   1       1.561  -1.414  -3.133  0.00  0.00     0.062 A 
ATOM      3  C2  UNL d   1       1.349  -1.700  -1.788  0.00  0.00     0.162 A 
ATOM      4  C3  UNL d   1       0.943  -0.694  -0.910  0.00  0.00    -0.034 A 
ATOM      5  C4  UNL d   1       0.754   0.600  -1.398  0.00  0.00     0.162 A 
ATOM      6  C5  UNL d   1       0.966   0.880  -2.744  0.00  0.00     0.062 A 
ATOM      7  F   UNL d   1       0.781   2.126  -3.204  0.00  0.00    -0.097 F 
ATOM      8  F1  UNL d   1       0.363   1.590  -0.582  0.00  0.00    -0.096 F 
ATOM      9  I   UNL d   1       0.625  -1.118   1.103  0.00  0.00    -0.060 I 
ATOM     10  F2  UNL d   1       1.541  -2.954  -1.353  0.00  0.00    -0.096 F 
ATOM     11  F3  UNL d   1       1.951  -2.387  -3.969  0.00  0.00    -0.097 F 
ATOM     12  F4  UNL d   1       1.575   0.147  -4.907  0.00  0.00    -0.092 F 
ENDROOT
TORSDOF 0
ENDMDL
