MODEL 1
REMARK minimizedAffinity 11.9531374
REMARK minimizedRMSD -1
REMARK  0 active torsions:
REMARK  status: ('A' for Active; 'I' for Inactive)
ROOT
ATOM      1  C   UNL d   1       0.498  -0.791  -1.487  0.00  0.00     0.124 A 
ATOM      2  C1  UNL d   1       1.094  -1.756  -2.286  0.00  0.00     0.062 A 
ATOM      3  C2  UNL d   1       1.785  -1.385  -3.436  0.00  0.00     0.162 A 
ATOM      4  C3  UNL d   1       1.885  -0.040  -3.793  0.00  0.00    -0.034 A 
ATOM      5  C4  UNL d   1       1.282   0.925  -2.985  0.00  0.00     0.162 A 
ATOM      6  C5  UNL d   1       0.592   0.549  -1.837  0.00  0.00     0.062 A 
ATOM      7  F   UNL d   1       0.016   1.483  -1.067  0.00  0.00    -0.097 F 
ATOM      8  F1  UNL d   1       1.358   2.227  -3.299  0.00  0.00    -0.096 F 
ATOM      9  I   UNL d   1       2.918   0.520  -5.511  0.00  0.00    -0.060 I 
ATOM     10  F2  UNL d   1       2.352  -2.339  -4.189  0.00  0.00    -0.096 F 
ATOM     11  F3  UNL d   1       1.004  -3.051  -1.951  0.00  0.00    -0.097 F 
ATOM     12  F4  UNL d   1      -0.168  -1.151  -0.383  0.00  0.00    -0.092 F 
ENDROOT
TORSDOF 0
ENDMDL
