MODEL 1
REMARK minimizedAffinity 14.172122
REMARK minimizedRMSD -1
REMARK  0 active torsions:
REMARK  status: ('A' for Active; 'I' for Inactive)
ROOT
ATOM      1  C   UNL d   1       2.575   3.436  -4.556  0.00  0.00     0.124 A 
ATOM      2  C1  UNL d   1       3.824   3.896  -4.953  0.00  0.00     0.062 A 
ATOM      3  C2  UNL d   1       4.802   2.996  -5.365  0.00  0.00     0.162 A 
ATOM      4  C3  UNL d   1       4.537   1.627  -5.384  0.00  0.00    -0.034 A 
ATOM      5  C4  UNL d   1       3.279   1.172  -4.983  0.00  0.00     0.162 A 
ATOM      6  C5  UNL d   1       2.305   2.075  -4.572  0.00  0.00     0.062 A 
ATOM      7  F   UNL d   1       1.099   1.629  -4.189  0.00  0.00    -0.097 F 
ATOM      8  F1  UNL d   1       2.991  -0.138  -4.988  0.00  0.00    -0.096 F 
ATOM      9  I   UNL d   1       5.998   0.278  -5.999  0.00  0.00    -0.060 I 
ATOM     10  F2  UNL d   1       6.000   3.469  -5.743  0.00  0.00    -0.096 F 
ATOM     11  F3  UNL d   1       4.088   5.210  -4.938  0.00  0.00    -0.097 F 
ATOM     12  F4  UNL d   1       1.636   4.304  -4.159  0.00  0.00    -0.092 F 
ENDROOT
TORSDOF 0
ENDMDL
