MODEL 1
REMARK minimizedAffinity 10.5798674
REMARK minimizedRMSD -1
REMARK  0 active torsions:
REMARK  status: ('A' for Active; 'I' for Inactive)
ROOT
ATOM      1  C   UNL d   1       1.457  -2.754  -2.736  0.00  0.00     0.124 A 
ATOM      2  C1  UNL d   1       1.401  -2.352  -1.409  0.00  0.00     0.062 A 
ATOM      3  C2  UNL d   1       1.110  -1.029  -1.090  0.00  0.00     0.162 A 
ATOM      4  C3  UNL d   1       0.871  -0.098  -2.100  0.00  0.00    -0.034 A 
ATOM      5  C4  UNL d   1       0.930  -0.509  -3.433  0.00  0.00     0.162 A 
ATOM      6  C5  UNL d   1       1.221  -1.833  -3.747  0.00  0.00     0.062 A 
ATOM      7  F   UNL d   1       1.275  -2.219  -5.030  0.00  0.00    -0.097 F 
ATOM      8  F1  UNL d   1       0.705   0.360  -4.429  0.00  0.00    -0.096 F 
ATOM      9  I   UNL d   1       0.435   1.882  -1.627  0.00  0.00    -0.060 I 
ATOM     10  F2  UNL d   1       1.062  -0.669   0.201  0.00  0.00    -0.096 F 
ATOM     11  F3  UNL d   1       1.629  -3.241  -0.431  0.00  0.00    -0.097 F 
ATOM     12  F4  UNL d   1       1.738  -4.028  -3.041  0.00  0.00    -0.092 F 
ENDROOT
TORSDOF 0
ENDMDL
