MODEL 1
REMARK minimizedAffinity 8.58747959
REMARK minimizedRMSD -1
REMARK  0 active torsions:
REMARK  status: ('A' for Active; 'I' for Inactive)
ROOT
ATOM      1  C   UNL d   1       1.585  -0.623  -3.975  0.00  0.00     0.124 A 
ATOM      2  C1  UNL d   1       1.204   0.297  -3.008  0.00  0.00     0.062 A 
ATOM      3  C2  UNL d   1       0.760  -0.139  -1.763  0.00  0.00     0.162 A 
ATOM      4  C3  UNL d   1       0.696  -1.503  -1.477  0.00  0.00    -0.034 A 
ATOM      5  C4  UNL d   1       1.081  -2.422  -2.454  0.00  0.00     0.162 A 
ATOM      6  C5  UNL d   1       1.523  -1.981  -3.697  0.00  0.00     0.062 A 
ATOM      7  F   UNL d   1       1.892  -2.871  -4.630  0.00  0.00    -0.097 F 
ATOM      8  F1  UNL d   1       1.032  -3.740  -2.213  0.00  0.00    -0.096 F 
ATOM      9  I   UNL d   1       0.033  -2.159   0.384  0.00  0.00    -0.060 I 
ATOM     10  F2  UNL d   1       0.397   0.772  -0.848  0.00  0.00    -0.096 F 
ATOM     11  F3  UNL d   1       1.262   1.610  -3.274  0.00  0.00    -0.097 F 
ATOM     12  F4  UNL d   1       2.011  -0.200  -5.172  0.00  0.00    -0.092 F 
ENDROOT
TORSDOF 0
ENDMDL
