MODEL 1
REMARK minimizedAffinity 9.03652191
REMARK minimizedRMSD -1
REMARK  0 active torsions:
REMARK  status: ('A' for Active; 'I' for Inactive)
ROOT
ATOM      1  C   UNL d   1       1.212  -1.614  -2.785  0.00  0.00     0.124 A 
ATOM      2  C1  UNL d   1       1.082  -0.489  -3.588  0.00  0.00     0.062 A 
ATOM      3  C2  UNL d   1       0.913   0.766  -3.011  0.00  0.00     0.162 A 
ATOM      4  C3  UNL d   1       0.873   0.904  -1.623  0.00  0.00    -0.034 A 
ATOM      5  C4  UNL d   1       1.003  -0.233  -0.823  0.00  0.00     0.162 A 
ATOM      6  C5  UNL d   1       1.173  -1.485  -1.404  0.00  0.00     0.062 A 
ATOM      7  F   UNL d   1       1.298  -2.571  -0.627  0.00  0.00    -0.097 F 
ATOM      8  F1  UNL d   1       0.969  -0.136   0.514  0.00  0.00    -0.096 F 
ATOM      9  I   UNL d   1       0.619   2.779  -0.757  0.00  0.00    -0.060 I 
ATOM     10  F2  UNL d   1       0.790   1.836  -3.811  0.00  0.00    -0.096 F 
ATOM     11  F3  UNL d   1       1.120  -0.611  -4.922  0.00  0.00    -0.097 F 
ATOM     12  F4  UNL d   1       1.375  -2.821  -3.343  0.00  0.00    -0.092 F 
ENDROOT
TORSDOF 0
ENDMDL
