MODEL 1
REMARK minimizedAffinity 19.6116982
REMARK minimizedRMSD -1
REMARK  0 active torsions:
REMARK  status: ('A' for Active; 'I' for Inactive)
ROOT
ATOM      1  C   UNL d   1       3.438  -0.084   3.950  0.00  0.00     0.124 A 
ATOM      2  C1  UNL d   1       4.366   0.126   4.960  0.00  0.00     0.062 A 
ATOM      3  C2  UNL d   1       5.096   1.310   5.006  0.00  0.00     0.162 A 
ATOM      4  C3  UNL d   1       4.901   2.295   4.038  0.00  0.00    -0.034 A 
ATOM      5  C4  UNL d   1       3.966   2.076   3.024  0.00  0.00     0.162 A 
ATOM      6  C5  UNL d   1       3.238   0.891   2.983  0.00  0.00     0.062 A 
ATOM      7  F   UNL d   1       2.342   0.691   2.006  0.00  0.00    -0.097 F 
ATOM      8  F1  UNL d   1       3.752   3.003   2.077  0.00  0.00    -0.096 F 
ATOM      9  I   UNL d   1       5.991   4.066   4.102  0.00  0.00    -0.060 I 
ATOM     10  F2  UNL d   1       5.987   1.485   5.993  0.00  0.00    -0.096 F 
ATOM     11  F3  UNL d   1       4.561  -0.816   5.895  0.00  0.00    -0.097 F 
ATOM     12  F4  UNL d   1       2.737  -1.224   3.908  0.00  0.00    -0.092 F 
ENDROOT
TORSDOF 0
ENDMDL
