MODEL 1
REMARK minimizedAffinity 10.7684813
REMARK minimizedRMSD -1
REMARK  0 active torsions:
REMARK  status: ('A' for Active; 'I' for Inactive)
ROOT
ATOM      1  C   UNL d   1       0.880  -1.228  -2.187  0.00  0.00     0.124 A 
ATOM      2  C1  UNL d   1       1.190  -1.147  -0.836  0.00  0.00     0.062 A 
ATOM      3  C2  UNL d   1       1.441   0.090  -0.249  0.00  0.00     0.162 A 
ATOM      4  C3  UNL d   1       1.383   1.256  -1.012  0.00  0.00    -0.034 A 
ATOM      5  C4  UNL d   1       1.072   1.166  -2.370  0.00  0.00     0.162 A 
ATOM      6  C5  UNL d   1       0.822  -0.072  -2.952  0.00  0.00     0.062 A 
ATOM      7  F   UNL d   1       0.523  -0.149  -4.257  0.00  0.00    -0.097 F 
ATOM      8  F1  UNL d   1       1.008   2.268  -3.133  0.00  0.00    -0.096 F 
ATOM      9  I   UNL d   1       1.758   3.107  -0.138  0.00  0.00    -0.060 I 
ATOM     10  F2  UNL d   1       1.738   0.139   1.058  0.00  0.00    -0.096 F 
ATOM     11  F3  UNL d   1       1.248  -2.262  -0.095  0.00  0.00    -0.097 F 
ATOM     12  F4  UNL d   1       0.640  -2.419  -2.749  0.00  0.00    -0.092 F 
ENDROOT
TORSDOF 0
ENDMDL
