MODEL 1
REMARK minimizedAffinity 2.43764806
REMARK minimizedRMSD -1
REMARK  0 active torsions:
REMARK  status: ('A' for Active; 'I' for Inactive)
ROOT
ATOM      1  C   UNL d   1       0.824  -0.005  -0.728  0.00  0.00     0.124 A 
ATOM      2  C1  UNL d   1       0.865   1.111  -1.552  0.00  0.00     0.062 A 
ATOM      3  C2  UNL d   1       1.182   0.973  -2.901  0.00  0.00     0.162 A 
ATOM      4  C3  UNL d   1       1.460  -0.285  -3.434  0.00  0.00    -0.034 A 
ATOM      5  C4  UNL d   1       1.418  -1.403  -2.598  0.00  0.00     0.162 A 
ATOM      6  C5  UNL d   1       1.100  -1.260  -1.251  0.00  0.00     0.062 A 
ATOM      7  F   UNL d   1       1.061  -2.339  -0.456  0.00  0.00    -0.097 F 
ATOM      8  F1  UNL d   1       1.680  -2.628  -3.077  0.00  0.00    -0.096 F 
ATOM      9  I   UNL d   1       1.935  -0.495  -5.449  0.00  0.00    -0.060 I 
ATOM     10  F2  UNL d   1       1.214   2.069  -3.674  0.00  0.00    -0.096 F 
ATOM     11  F3  UNL d   1       0.599   2.325  -1.049  0.00  0.00    -0.097 F 
ATOM     12  F4  UNL d   1       0.519   0.130   0.569  0.00  0.00    -0.092 F 
ENDROOT
TORSDOF 0
ENDMDL
