MODEL 1
REMARK minimizedAffinity 11.8934536
REMARK minimizedRMSD -1
REMARK  0 active torsions:
REMARK  status: ('A' for Active; 'I' for Inactive)
ROOT
ATOM      1  C   UNL d   1       1.133  -1.197  -3.633  0.00  0.00     0.124 A 
ATOM      2  C1  UNL d   1       0.685  -1.430  -2.340  0.00  0.00     0.062 A 
ATOM      3  C2  UNL d   1       0.533  -0.370  -1.451  0.00  0.00     0.162 A 
ATOM      4  C3  UNL d   1       0.828   0.933  -1.851  0.00  0.00    -0.034 A 
ATOM      5  C4  UNL d   1       1.279   1.159  -3.153  0.00  0.00     0.162 A 
ATOM      6  C5  UNL d   1       1.430   0.097  -4.038  0.00  0.00     0.062 A 
ATOM      7  F   UNL d   1       1.863   0.324  -5.287  0.00  0.00    -0.097 F 
ATOM      8  F1  UNL d   1       1.572   2.400  -3.570  0.00  0.00    -0.096 F 
ATOM      9  I   UNL d   1       0.601   2.520  -0.524  0.00  0.00    -0.060 I 
ATOM     10  F2  UNL d   1       0.098  -0.625  -0.208  0.00  0.00    -0.096 F 
ATOM     11  F3  UNL d   1       0.399  -2.679  -1.947  0.00  0.00    -0.097 F 
ATOM     12  F4  UNL d   1       1.280  -2.218  -4.487  0.00  0.00    -0.092 F 
ENDROOT
TORSDOF 0
ENDMDL
