MODEL 1
REMARK minimizedAffinity 7.38079214
REMARK minimizedRMSD -1
REMARK  0 active torsions:
REMARK  status: ('A' for Active; 'I' for Inactive)
ROOT
ATOM      1  C   UNL d   1       1.235   1.740  -1.743  0.00  0.00     0.124 A 
ATOM      2  C1  UNL d   1       1.602   1.400  -3.038  0.00  0.00     0.062 A 
ATOM      3  C2  UNL d   1       1.551   0.072  -3.454  0.00  0.00     0.162 A 
ATOM      4  C3  UNL d   1       1.131  -0.925  -2.574  0.00  0.00    -0.034 A 
ATOM      5  C4  UNL d   1       0.765  -0.576  -1.273  0.00  0.00     0.162 A 
ATOM      6  C5  UNL d   1       0.817   0.752  -0.862  0.00  0.00     0.062 A 
ATOM      7  F   UNL d   1       0.463   1.079   0.389  0.00  0.00    -0.097 F 
ATOM      8  F1  UNL d   1       0.356  -1.510  -0.402  0.00  0.00    -0.096 F 
ATOM      9  I   UNL d   1       1.054  -2.911  -3.192  0.00  0.00    -0.060 I 
ATOM     10  F2  UNL d   1       1.911  -0.227  -4.711  0.00  0.00    -0.096 F 
ATOM     11  F3  UNL d   1       2.007   2.352  -3.890  0.00  0.00    -0.097 F 
ATOM     12  F4  UNL d   1       1.286   3.018  -1.345  0.00  0.00    -0.092 F 
ENDROOT
TORSDOF 0
ENDMDL
