MODEL 1
REMARK minimizedAffinity 15.5706873
REMARK minimizedRMSD -1
REMARK  0 active torsions:
REMARK  status: ('A' for Active; 'I' for Inactive)
ROOT
ATOM      1  C   UNL d   1       0.419  -0.244  -1.534  0.00  0.00     0.124 A 
ATOM      2  C1  UNL d   1       1.166  -1.327  -1.975  0.00  0.00     0.062 A 
ATOM      3  C2  UNL d   1       2.121  -1.158  -2.973  0.00  0.00     0.162 A 
ATOM      4  C3  UNL d   1       2.336   0.100  -3.536  0.00  0.00    -0.034 A 
ATOM      5  C4  UNL d   1       1.580   1.184  -3.088  0.00  0.00     0.162 A 
ATOM      6  C5  UNL d   1       0.626   1.010  -2.091  0.00  0.00     0.062 A 
ATOM      7  F   UNL d   1      -0.095   2.058  -1.666  0.00  0.00    -0.097 F 
ATOM      8  F1  UNL d   1       1.760   2.407  -3.608  0.00  0.00    -0.096 F 
ATOM      9  I   UNL d   1       3.764   0.356  -5.029  0.00  0.00    -0.060 I 
ATOM     10  F2  UNL d   1       2.829  -2.223  -3.380  0.00  0.00    -0.096 F 
ATOM     11  F3  UNL d   1       0.967  -2.540  -1.439  0.00  0.00    -0.097 F 
ATOM     12  F4  UNL d   1      -0.501  -0.409  -0.574  0.00  0.00    -0.092 F 
ENDROOT
TORSDOF 0
ENDMDL
