MODEL 1
REMARK minimizedAffinity 14.1534157
REMARK minimizedRMSD -1
REMARK  1 active torsions:
REMARK  status: ('A' for Active; 'I' for Inactive)
REMARK    1  A    between atoms: C1_2  and  C2_3 
ROOT
ATOM      1  C2  UNL d   1      -1.873  -2.297   3.614  0.00  0.00    -0.076 A 
ATOM      2  C3  UNL d   1      -2.343  -2.435   4.932  0.00  0.00     0.004 A 
ATOM      3  C4  UNL d   1      -1.674  -1.836   5.998  0.00  0.00    -0.003 A 
ATOM      4  C5  UNL d   1      -0.524  -1.089   5.763  0.00  0.00     0.000 A 
ATOM      5  C6  UNL d   1      -0.055  -0.927   4.460  0.00  0.00     0.000 A 
ATOM      6  C7  UNL d   1      -0.727  -1.511   3.372  0.00  0.00    -0.073 A 
ATOM      7  C8  UNL d   1      -0.172  -1.309   1.989  0.00  0.00     0.078 C 
ENDROOT
BRANCH   1   8
ATOM      8  C1  UNL d   1      -2.625  -2.992   2.501  0.00  0.00     0.053 C 
ATOM      9  C   UNL d   1      -4.094  -2.602   2.459  0.00  0.00     0.018 C 
ENDBRANCH   1   8
TORSDOF 1
ENDMDL
