MODEL 1
REMARK minimizedAffinity 15.1467228
REMARK minimizedRMSD -1
REMARK  1 active torsions:
REMARK  status: ('A' for Active; 'I' for Inactive)
REMARK    1  A    between atoms: C1_2  and  C2_3 
ROOT
ATOM      1  C2  UNL d   1       1.826  -0.585   3.075  0.00  0.00    -0.076 A 
ATOM      2  C3  UNL d   1       2.958   0.227   2.885  0.00  0.00     0.004 A 
ATOM      3  C4  UNL d   1       3.908  -0.084   1.914  0.00  0.00    -0.003 A 
ATOM      4  C5  UNL d   1       3.741  -1.210   1.116  0.00  0.00     0.000 A 
ATOM      5  C6  UNL d   1       2.616  -2.017   1.278  0.00  0.00     0.000 A 
ATOM      6  C7  UNL d   1       1.640  -1.709   2.242  0.00  0.00    -0.073 A 
ATOM      7  C8  UNL d   1       0.449  -2.617   2.379  0.00  0.00     0.078 C 
ENDROOT
BRANCH   1   8
ATOM      8  C1  UNL d   1       0.843  -0.214   4.162  0.00  0.00     0.053 C 
ATOM      9  C   UNL d   1       1.450  -0.308   5.554  0.00  0.00     0.018 C 
ENDBRANCH   1   8
TORSDOF 1
ENDMDL
