MODEL 1
REMARK minimizedAffinity 8.12555885
REMARK minimizedRMSD -1
REMARK  1 active torsions:
REMARK  status: ('A' for Active; 'I' for Inactive)
REMARK    1  A    between atoms: C1_2  and  C2_3 
ROOT
ATOM      1  C2  UNL d   1      -4.244  -4.189   0.343  0.00  0.00    -0.076 A 
ATOM      2  C3  UNL d   1      -3.007  -4.661  -0.130  0.00  0.00     0.004 A 
ATOM      3  C4  UNL d   1      -1.808  -4.183   0.395  0.00  0.00    -0.003 A 
ATOM      4  C5  UNL d   1      -1.825  -3.226   1.403  0.00  0.00     0.000 A 
ATOM      5  C6  UNL d   1      -3.043  -2.759   1.898  0.00  0.00     0.000 A 
ATOM      6  C7  UNL d   1      -4.261  -3.242   1.390  0.00  0.00    -0.073 A 
ATOM      7  C8  UNL d   1      -5.545  -2.699   1.956  0.00  0.00     0.078 C 
ENDROOT
BRANCH   1   8
ATOM      8  C1  UNL d   1      -5.512  -4.723  -0.283  0.00  0.00     0.053 C 
ATOM      9  C   UNL d   1      -5.999  -6.000   0.385  0.00  0.00     0.018 C 
ENDBRANCH   1   8
TORSDOF 1
ENDMDL
