MODEL 1
REMARK minimizedAffinity 8.67647457
REMARK minimizedRMSD -1
REMARK  1 active torsions:
REMARK  status: ('A' for Active; 'I' for Inactive)
REMARK    1  A    between atoms: C1_2  and  C2_3 
ROOT
ATOM      1  C2  UNL d   1       1.742  -4.111  -3.858  0.00  0.00    -0.076 A 
ATOM      2  C3  UNL d   1       0.899  -5.045  -3.231  0.00  0.00     0.004 A 
ATOM      3  C4  UNL d   1       0.185  -5.981  -3.978  0.00  0.00    -0.003 A 
ATOM      4  C5  UNL d   1       0.304  -5.999  -5.363  0.00  0.00     0.000 A 
ATOM      5  C6  UNL d   1       1.149  -5.091  -6.000  0.00  0.00     0.000 A 
ATOM      6  C7  UNL d   1       1.888  -4.151  -5.261  0.00  0.00    -0.073 A 
ATOM      7  C8  UNL d   1       2.780  -3.192  -6.000  0.00  0.00     0.078 C 
ENDROOT
BRANCH   1   8
ATOM      8  C1  UNL d   1       2.470  -3.101  -2.999  0.00  0.00     0.053 C 
ATOM      9  C   UNL d   1       3.355  -2.172  -3.814  0.00  0.00     0.018 C 
ENDBRANCH   1   8
TORSDOF 1
ENDMDL
