MODEL 1
REMARK minimizedAffinity 15.6150646
REMARK minimizedRMSD -1
REMARK  1 active torsions:
REMARK  status: ('A' for Active; 'I' for Inactive)
REMARK    1  A    between atoms: C1_2  and  C2_3 
ROOT
ATOM      1  C2  UNL d   1      -4.297   2.534  -3.802  0.00  0.00    -0.076 A 
ATOM      2  C3  UNL d   1      -3.108   2.652  -3.061  0.00  0.00     0.004 A 
ATOM      3  C4  UNL d   1      -1.945   3.148  -3.646  0.00  0.00    -0.003 A 
ATOM      4  C5  UNL d   1      -1.951   3.536  -4.981  0.00  0.00     0.000 A 
ATOM      5  C6  UNL d   1      -3.126   3.443  -5.726  0.00  0.00     0.000 A 
ATOM      6  C7  UNL d   1      -4.312   2.960  -5.148  0.00  0.00    -0.073 A 
ATOM      7  C8  UNL d   1      -5.548   2.875  -6.000  0.00  0.00     0.078 C 
ENDROOT
BRANCH   1   8
ATOM      8  C1  UNL d   1      -5.521   1.963  -3.122  0.00  0.00     0.053 C 
ATOM      9  C   UNL d   1      -5.999   0.673  -3.771  0.00  0.00     0.018 C 
ENDBRANCH   1   8
TORSDOF 1
ENDMDL
