MODEL 1
REMARK minimizedAffinity 20.6258812
REMARK minimizedRMSD -1
REMARK  1 active torsions:
REMARK  status: ('A' for Active; 'I' for Inactive)
REMARK    1  A    between atoms: C1_2  and  C2_3 
ROOT
ATOM      1  C2  UNL d   1      -1.141  -2.424   2.154  0.00  0.00    -0.076 A 
ATOM      2  C3  UNL d   1      -0.138  -3.146   1.484  0.00  0.00     0.004 A 
ATOM      3  C4  UNL d   1       1.108  -2.575   1.228  0.00  0.00    -0.003 A 
ATOM      4  C5  UNL d   1       1.371  -1.273   1.639  0.00  0.00     0.000 A 
ATOM      5  C6  UNL d   1       0.394  -0.548   2.321  0.00  0.00     0.000 A 
ATOM      6  C7  UNL d   1      -0.861  -1.115   2.601  0.00  0.00    -0.073 A 
ATOM      7  C8  UNL d   1      -1.880  -0.286   3.334  0.00  0.00     0.078 C 
ENDROOT
BRANCH   1   8
ATOM      8  C1  UNL d   1      -2.481  -3.085   2.379  0.00  0.00     0.053 C 
ATOM      9  C   UNL d   1      -3.292  -3.210   1.098  0.00  0.00     0.018 C 
ENDBRANCH   1   8
TORSDOF 1
ENDMDL
