MODEL 1
REMARK minimizedAffinity 12.3158875
REMARK minimizedRMSD -1
REMARK  1 active torsions:
REMARK  status: ('A' for Active; 'I' for Inactive)
REMARK    1  A    between atoms: C1_2  and  C2_3 
ROOT
ATOM      1  C2  UNL d   1      -0.861  -2.222   2.341  0.00  0.00    -0.076 A 
ATOM      2  C3  UNL d   1      -0.046  -2.762   1.330  0.00  0.00     0.004 A 
ATOM      3  C4  UNL d   1       1.013  -2.031   0.795  0.00  0.00    -0.003 A 
ATOM      4  C5  UNL d   1       1.276  -0.748   1.263  0.00  0.00     0.000 A 
ATOM      5  C6  UNL d   1       0.489  -0.204   2.278  0.00  0.00     0.000 A 
ATOM      6  C7  UNL d   1      -0.572  -0.934   2.839  0.00  0.00    -0.073 A 
ATOM      7  C8  UNL d   1      -1.392  -0.295   3.927  0.00  0.00     0.078 C 
ENDROOT
BRANCH   1   8
ATOM      8  C1  UNL d   1      -2.012  -3.052   2.864  0.00  0.00     0.053 C 
ATOM      9  C   UNL d   1      -3.293  -2.833   2.075  0.00  0.00     0.018 C 
ENDBRANCH   1   8
TORSDOF 1
ENDMDL
