MODEL 1
REMARK minimizedAffinity 18.9684925
REMARK minimizedRMSD -1
REMARK  1 active torsions:
REMARK  status: ('A' for Active; 'I' for Inactive)
REMARK    1  A    between atoms: C1_2  and  C2_3 
ROOT
ATOM      1  C2  UNL d   1      -0.415  -0.725   3.594  0.00  0.00    -0.076 A 
ATOM      2  C3  UNL d   1      -1.782  -1.052   3.606  0.00  0.00     0.004 A 
ATOM      3  C4  UNL d   1      -2.507  -1.065   4.796  0.00  0.00    -0.003 A 
ATOM      4  C5  UNL d   1      -1.876  -0.750   5.995  0.00  0.00     0.000 A 
ATOM      5  C6  UNL d   1      -0.525  -0.406   6.000  0.00  0.00     0.000 A 
ATOM      6  C7  UNL d   1       0.216  -0.372   4.806  0.00  0.00    -0.073 A 
ATOM      7  C8  UNL d   1       1.672  -0.000   4.871  0.00  0.00     0.078 C 
ENDROOT
BRANCH   1   8
ATOM      8  C1  UNL d   1       0.325  -0.753   2.276  0.00  0.00     0.053 C 
ATOM      9  C   UNL d   1       0.000  -1.990   1.452  0.00  0.00     0.018 C 
ENDBRANCH   1   8
TORSDOF 1
ENDMDL
