MODEL 1
REMARK minimizedAffinity 18.8948002
REMARK minimizedRMSD -1
REMARK  1 active torsions:
REMARK  status: ('A' for Active; 'I' for Inactive)
REMARK    1  A    between atoms: C1_2  and  C2_3 
ROOT
ATOM      1  C2  UNL d   1       2.109  -0.590   1.896  0.00  0.00    -0.076 A 
ATOM      2  C3  UNL d   1       0.836  -0.288   2.410  0.00  0.00     0.004 A 
ATOM      3  C4  UNL d   1      -0.261  -1.101   2.131  0.00  0.00    -0.003 A 
ATOM      4  C5  UNL d   1      -0.103  -2.230   1.335  0.00  0.00     0.000 A 
ATOM      5  C6  UNL d   1       1.156  -2.555   0.832  0.00  0.00     0.000 A 
ATOM      6  C7  UNL d   1       2.276  -1.755   1.116  0.00  0.00    -0.073 A 
ATOM      7  C8  UNL d   1       3.609  -2.148   0.542  0.00  0.00     0.078 C 
ENDROOT
BRANCH   1   8
ATOM      8  C1  UNL d   1       3.256   0.343   2.210  0.00  0.00     0.053 C 
ATOM      9  C   UNL d   1       3.495   1.364   1.108  0.00  0.00     0.018 C 
ENDBRANCH   1   8
TORSDOF 1
ENDMDL
