MODEL 1
REMARK minimizedAffinity 9.11942101
REMARK minimizedRMSD -1
REMARK  1 active torsions:
REMARK  status: ('A' for Active; 'I' for Inactive)
REMARK    1  A    between atoms: C1_2  and  C2_3 
ROOT
ATOM      1  C2  UNL d   1       1.174  -1.899   2.527  0.00  0.00    -0.076 A 
ATOM      2  C3  UNL d   1       1.081  -1.312   3.801  0.00  0.00     0.004 A 
ATOM      3  C4  UNL d   1       2.038  -0.400   4.242  0.00  0.00    -0.003 A 
ATOM      4  C5  UNL d   1       3.103  -0.060   3.417  0.00  0.00     0.000 A 
ATOM      5  C6  UNL d   1       3.202  -0.618   2.143  0.00  0.00     0.000 A 
ATOM      6  C7  UNL d   1       2.236  -1.527   1.676  0.00  0.00    -0.073 A 
ATOM      7  C8  UNL d   1       2.395  -2.104   0.296  0.00  0.00     0.078 C 
ENDROOT
BRANCH   1   8
ATOM      8  C1  UNL d   1       0.121  -2.902   2.113  0.00  0.00     0.053 C 
ATOM      9  C   UNL d   1       0.619  -4.337   2.196  0.00  0.00     0.018 C 
ENDBRANCH   1   8
TORSDOF 1
ENDMDL
