MODEL 1
REMARK minimizedAffinity 12.0996428
REMARK minimizedRMSD -1
REMARK  1 active torsions:
REMARK  status: ('A' for Active; 'I' for Inactive)
REMARK    1  A    between atoms: C1_2  and  C2_3 
ROOT
ATOM      1  C2  UNL d   1       1.990  -0.146   1.242  0.00  0.00    -0.076 A 
ATOM      2  C3  UNL d   1       2.998  -0.866   1.907  0.00  0.00     0.004 A 
ATOM      3  C4  UNL d   1       4.286  -0.348   2.034  0.00  0.00    -0.003 A 
ATOM      4  C5  UNL d   1       4.586   0.900   1.498  0.00  0.00     0.000 A 
ATOM      5  C6  UNL d   1       3.595   1.635   0.850  0.00  0.00     0.000 A 
ATOM      6  C7  UNL d   1       2.287   1.134   0.728  0.00  0.00    -0.073 A 
ATOM      7  C8  UNL d   1       1.258   1.968   0.014  0.00  0.00     0.078 C 
ENDROOT
BRANCH   1   8
ATOM      8  C1  UNL d   1       0.620  -0.771   1.111  0.00  0.00     0.053 C 
ATOM      9  C   UNL d   1       0.605  -2.234   1.526  0.00  0.00     0.018 C 
ENDBRANCH   1   8
TORSDOF 1
ENDMDL
