MODEL 1
REMARK minimizedAffinity 8.49158001
REMARK minimizedRMSD -1
REMARK  1 active torsions:
REMARK  status: ('A' for Active; 'I' for Inactive)
REMARK    1  A    between atoms: C1_2  and  C2_3 
ROOT
ATOM      1  C2  UNL d   1      -4.495  -4.375   1.395  0.00  0.00    -0.076 A 
ATOM      2  C3  UNL d   1      -5.656  -5.112   1.686  0.00  0.00     0.004 A 
ATOM      3  C4  UNL d   1      -5.996  -5.424   3.002  0.00  0.00    -0.003 A 
ATOM      4  C5  UNL d   1      -5.181  -5.003   4.047  0.00  0.00     0.000 A 
ATOM      5  C6  UNL d   1      -4.035  -4.256   3.777  0.00  0.00     0.000 A 
ATOM      6  C7  UNL d   1      -3.686  -3.919   2.458  0.00  0.00    -0.073 A 
ATOM      7  C8  UNL d   1      -2.436  -3.117   2.224  0.00  0.00     0.078 C 
ENDROOT
BRANCH   1   8
ATOM      8  C1  UNL d   1      -4.162  -4.090  -0.052  0.00  0.00     0.053 C 
ATOM      9  C   UNL d   1      -3.875  -5.356  -0.844  0.00  0.00     0.018 C 
ENDBRANCH   1   8
TORSDOF 1
ENDMDL
