MODEL 1
REMARK minimizedAffinity 0.804479957
REMARK minimizedRMSD -1
REMARK  1 active torsions:
REMARK  status: ('A' for Active; 'I' for Inactive)
REMARK    1  A    between atoms: C1_2  and  C2_3 
ROOT
ATOM      1  C2  UNL d   1      -4.420  -4.149   3.850  0.00  0.00    -0.076 A 
ATOM      2  C3  UNL d   1      -5.217  -5.125   3.226  0.00  0.00     0.004 A 
ATOM      3  C4  UNL d   1      -6.000  -6.000   3.978  0.00  0.00    -0.003 A 
ATOM      4  C5  UNL d   1      -5.999  -5.912   5.365  0.00  0.00     0.000 A 
ATOM      5  C6  UNL d   1      -5.229  -4.938   6.000  0.00  0.00     0.000 A 
ATOM      6  C7  UNL d   1      -4.447  -4.038   5.256  0.00  0.00    -0.073 A 
ATOM      7  C8  UNL d   1      -3.630  -3.012   5.993  0.00  0.00     0.078 C 
ENDROOT
BRANCH   1   8
ATOM      8  C1  UNL d   1      -3.571  -3.246   2.984  0.00  0.00     0.053 C 
ATOM      9  C   UNL d   1      -3.938  -3.337   1.511  0.00  0.00     0.018 C 
ENDBRANCH   1   8
TORSDOF 1
ENDMDL
