MODEL 1
REMARK minimizedAffinity 18.3250847
REMARK minimizedRMSD -1
REMARK  1 active torsions:
REMARK  status: ('A' for Active; 'I' for Inactive)
REMARK    1  A    between atoms: C1_2  and  C2_3 
ROOT
ATOM      1  C2  UNL d   1      -0.225   3.422  -1.859  0.00  0.00    -0.076 A 
ATOM      2  C3  UNL d   1      -0.326   2.220  -1.137  0.00  0.00     0.004 A 
ATOM      3  C4  UNL d   1       0.540   1.943  -0.080  0.00  0.00    -0.003 A 
ATOM      4  C5  UNL d   1       1.520   2.864   0.273  0.00  0.00     0.000 A 
ATOM      5  C6  UNL d   1       1.623   4.070  -0.421  0.00  0.00     0.000 A 
ATOM      6  C7  UNL d   1       0.748   4.371  -1.479  0.00  0.00    -0.073 A 
ATOM      7  C8  UNL d   1       0.908   5.684  -2.196  0.00  0.00     0.078 C 
ENDROOT
BRANCH   1   8
ATOM      8  C1  UNL d   1      -1.173   3.656  -3.013  0.00  0.00     0.053 C 
ATOM      9  C   UNL d   1      -2.380   2.731  -2.971  0.00  0.00     0.018 C 
ENDBRANCH   1   8
TORSDOF 1
ENDMDL
