MODEL 1
REMARK minimizedAffinity 11.4722071
REMARK minimizedRMSD -1
REMARK  1 active torsions:
REMARK  status: ('A' for Active; 'I' for Inactive)
REMARK    1  A    between atoms: C1_2  and  C2_3 
ROOT
ATOM      1  C2  UNL d   1       2.311  -3.855  -4.751  0.00  0.00    -0.076 A 
ATOM      2  C3  UNL d   1       1.604  -3.242  -3.702  0.00  0.00     0.004 A 
ATOM      3  C4  UNL d   1       0.820  -3.995  -2.830  0.00  0.00    -0.003 A 
ATOM      4  C5  UNL d   1       0.731  -5.373  -2.992  0.00  0.00     0.000 A 
ATOM      5  C6  UNL d   1       1.440  -6.000  -4.017  0.00  0.00     0.000 A 
ATOM      6  C7  UNL d   1       2.248  -5.257  -4.895  0.00  0.00    -0.073 A 
ATOM      7  C8  UNL d   1       2.986  -5.984  -5.985  0.00  0.00     0.078 C 
ENDROOT
BRANCH   1   8
ATOM      8  C1  UNL d   1       3.124  -2.984  -5.682  0.00  0.00     0.053 C 
ATOM      9  C   UNL d   1       4.526  -3.527  -5.913  0.00  0.00     0.018 C 
ENDBRANCH   1   8
TORSDOF 1
ENDMDL
