MODEL 1
REMARK minimizedAffinity 20.4136581
REMARK minimizedRMSD -1
REMARK  1 active torsions:
REMARK  status: ('A' for Active; 'I' for Inactive)
REMARK    1  A    between atoms: C1_2  and  C2_3 
ROOT
ATOM      1  C2  UNL d   1      -2.878   3.563  -2.277  0.00  0.00    -0.076 A 
ATOM      2  C3  UNL d   1      -3.954   2.890  -1.673  0.00  0.00     0.004 A 
ATOM      3  C4  UNL d   1      -4.973   3.594  -1.033  0.00  0.00    -0.003 A 
ATOM      4  C5  UNL d   1      -4.932   4.983  -0.988  0.00  0.00     0.000 A 
ATOM      5  C6  UNL d   1      -3.882   5.668  -1.597  0.00  0.00     0.000 A 
ATOM      6  C7  UNL d   1      -2.855   4.974  -2.260  0.00  0.00    -0.073 A 
ATOM      7  C8  UNL d   1      -1.743   5.763  -2.895  0.00  0.00     0.078 C 
ENDROOT
BRANCH   1   8
ATOM      8  C1  UNL d   1      -1.788   2.745  -2.932  0.00  0.00     0.053 C 
ATOM      9  C   UNL d   1      -0.671   2.381  -1.965  0.00  0.00     0.018 C 
ENDBRANCH   1   8
TORSDOF 1
ENDMDL
