MODEL 1
REMARK minimizedAffinity -2.53394246
REMARK minimizedRMSD -1
REMARK  1 active torsions:
REMARK  status: ('A' for Active; 'I' for Inactive)
REMARK    1  A    between atoms: N_2  and  C1_3 
ROOT
ATOM      1  C1  UNL d   1      -2.217  -0.056  -2.427  0.00  0.00     0.143 A 
ATOM      2  C2  UNL d   1      -2.677   1.203  -2.026  0.00  0.00    -0.057 A 
ATOM      3  C3  UNL d   1      -3.024   2.182  -2.965  0.00  0.00     0.033 A 
ATOM      4  C4  UNL d   1      -2.889   1.929  -4.326  0.00  0.00    -0.042 A 
ATOM      5  C5  UNL d   1      -2.410   0.693  -4.747  0.00  0.00     0.033 A 
ATOM      6  C6  UNL d   1      -2.071  -0.283  -3.805  0.00  0.00    -0.057 A 
ENDROOT
BRANCH   1   7
ATOM      7  N   UNL d   1      -1.763  -1.036  -1.542  0.00  0.00    -0.732 N 
ATOM      8  C   UNL d   1      -0.774  -2.007  -1.961  0.00  0.00     0.284 C 
ATOM      9  H3  UNL d   1      -1.617  -0.674  -0.602  0.00  0.00     0.395 HD
ENDBRANCH   1   7
TORSDOF 1
ENDMDL
