MODEL 1
REMARK minimizedAffinity -2.84504008
REMARK minimizedRMSD -1
REMARK  1 active torsions:
REMARK  status: ('A' for Active; 'I' for Inactive)
REMARK    1  A    between atoms: N_2  and  C1_3 
ROOT
ATOM      1  C1  UNL d   1      -5.124   1.800  -4.543  0.00  0.00     0.143 A 
ATOM      2  C2  UNL d   1      -3.734   1.962  -4.535  0.00  0.00    -0.057 A 
ATOM      3  C3  UNL d   1      -2.900   1.108  -5.267  0.00  0.00     0.033 A 
ATOM      4  C4  UNL d   1      -3.441   0.056  -5.998  0.00  0.00    -0.042 A 
ATOM      5  C5  UNL d   1      -4.817  -0.140  -6.000  0.00  0.00     0.033 A 
ATOM      6  C6  UNL d   1      -5.646   0.720  -5.273  0.00  0.00    -0.057 A 
ENDROOT
BRANCH   1   7
ATOM      7  N   UNL d   1      -5.999   2.555  -3.758  0.00  0.00    -0.732 N 
ATOM      8  C   UNL d   1      -5.993   2.427  -2.316  0.00  0.00     0.284 C 
ATOM      9  H3  UNL d   1      -6.091   3.512  -4.090  0.00  0.00     0.395 HD
ENDBRANCH   1   7
TORSDOF 1
ENDMDL
