MODEL 1
REMARK minimizedAffinity -3.71187782
REMARK minimizedRMSD -1
REMARK  2 active torsions:
REMARK  status: ('A' for Active; 'I' for Inactive)
REMARK    1  A    between atoms: C2'_3  and  C1'_4 
REMARK    2  A    between atoms: C1'_4  and  C1_5 
ROOT
ATOM      1  C1  I4B d   1       0.649   0.242  -0.751  0.00  0.00    -0.075 A 
ATOM      2  C2  I4B d   1       0.049   1.320  -0.148  0.00  0.00     0.003 A 
ATOM      3  C3  I4B d   1      -1.195   1.167   0.511  0.00  0.00     0.002 A 
ATOM      4  C4  I4B d   1      -1.823  -0.062   0.500  0.00  0.00    -0.004 A 
ATOM      5  C5  I4B d   1      -1.203  -1.158  -0.092  0.00  0.00     0.002 A 
ATOM      6  C6  I4B d   1       0.046  -1.009  -0.711  0.00  0.00     0.003 A 
ENDROOT
BRANCH   1   7
ATOM      7  C1' I4B d   1       1.946   0.447  -1.467  0.00  0.00     0.060 C 
BRANCH   7   8
ATOM      8  C2' I4B d   1       1.725   1.486  -2.547  0.00  0.00    -0.013 C 
ATOM      9  C4' I4B d   1       3.011   2.184  -2.904  0.00  0.00     0.013 C 
ATOM     10  C3' I4B d   1       1.134   0.796  -3.740  0.00  0.00     0.013 C 
ENDBRANCH   7   8
ENDBRANCH   1   7
TORSDOF 2
ENDMDL
