MODEL 1
REMARK minimizedAffinity -1.66163313
REMARK minimizedRMSD -1
REMARK  2 active torsions:
REMARK  status: ('A' for Active; 'I' for Inactive)
REMARK    1  A    between atoms: C2'_3  and  C1'_4 
REMARK    2  A    between atoms: C1'_4  and  C1_5 
ROOT
ATOM      1  C1  I4B d   1       0.146   1.112   1.531  0.00  0.00    -0.075 A 
ATOM      2  C2  I4B d   1      -0.577   0.923   2.682  0.00  0.00     0.003 A 
ATOM      3  C3  I4B d   1      -0.148  -0.021   3.647  0.00  0.00     0.002 A 
ATOM      4  C4  I4B d   1       0.975  -0.783   3.399  0.00  0.00    -0.004 A 
ATOM      5  C5  I4B d   1       1.721  -0.573   2.242  0.00  0.00     0.002 A 
ATOM      6  C6  I4B d   1       1.311   0.389   1.308  0.00  0.00     0.003 A 
ENDROOT
BRANCH   1   7
ATOM      7  C1' I4B d   1      -0.354   2.093   0.518  0.00  0.00     0.060 C 
BRANCH   7   8
ATOM      8  C2' I4B d   1      -0.983   1.311  -0.617  0.00  0.00    -0.013 C 
ATOM      9  C4' I4B d   1       0.051   0.889  -1.627  0.00  0.00     0.013 C 
ATOM     10  C3' I4B d   1      -1.683   0.123  -0.029  0.00  0.00     0.013 C 
ENDBRANCH   7   8
ENDBRANCH   1   7
TORSDOF 2
ENDMDL
