MODEL 1
REMARK minimizedAffinity -0.777534068
REMARK minimizedRMSD -1
REMARK  2 active torsions:
REMARK  status: ('A' for Active; 'I' for Inactive)
REMARK    1  A    between atoms: C2'_3  and  C1'_4 
REMARK    2  A    between atoms: C1'_4  and  C1_5 
ROOT
ATOM      1  C1  I4B d   1       0.626  -0.662  -1.667  0.00  0.00    -0.075 A 
ATOM      2  C2  I4B d   1      -0.670  -0.302  -1.393  0.00  0.00     0.003 A 
ATOM      3  C3  I4B d   1      -1.045   0.065  -0.078  0.00  0.00     0.002 A 
ATOM      4  C4  I4B d   1      -0.111   0.010   0.936  0.00  0.00    -0.004 A 
ATOM      5  C5  I4B d   1       1.208  -0.333   0.652  0.00  0.00     0.002 A 
ATOM      6  C6  I4B d   1       1.582  -0.659  -0.659  0.00  0.00     0.003 A 
ENDROOT
BRANCH   1   7
ATOM      7  C1' I4B d   1       0.980  -1.075  -3.060  0.00  0.00     0.060 C 
BRANCH   7   8
ATOM      8  C2' I4B d   1       0.604   0.057  -3.993  0.00  0.00    -0.013 C 
ATOM      9  C4' I4B d   1       1.809   0.579  -4.731  0.00  0.00     0.013 C 
ATOM     10  C3' I4B d   1      -0.435  -0.453  -4.946  0.00  0.00     0.013 C 
ENDBRANCH   7   8
ENDBRANCH   1   7
TORSDOF 2
ENDMDL
