MODEL 1
REMARK minimizedAffinity -3.62247252
REMARK minimizedRMSD -1
REMARK  2 active torsions:
REMARK  status: ('A' for Active; 'I' for Inactive)
REMARK    1  A    between atoms: C2'_3  and  C1'_4 
REMARK    2  A    between atoms: C1'_4  and  C1_5 
ROOT
ATOM      1  C1  I4B d   1       0.221  -0.517  -1.112  0.00  0.00    -0.075 A 
ATOM      2  C2  I4B d   1       1.075  -0.233  -0.075  0.00  0.00     0.003 A 
ATOM      3  C3  I4B d   1       0.570   0.284   1.142  0.00  0.00     0.002 A 
ATOM      4  C4  I4B d   1      -0.779   0.549   1.261  0.00  0.00    -0.004 A 
ATOM      5  C5  I4B d   1      -1.646   0.240   0.217  0.00  0.00     0.002 A 
ATOM      6  C6  I4B d   1      -1.145  -0.308  -0.973  0.00  0.00     0.003 A 
ENDROOT
BRANCH   1   7
ATOM      7  C1' I4B d   1       0.791  -1.032  -2.395  0.00  0.00     0.060 C 
BRANCH   7   8
ATOM      8  C2' I4B d   1       0.379  -0.084  -3.503  0.00  0.00    -0.013 C 
ATOM      9  C4' I4B d   1       1.514   0.827  -3.892  0.00  0.00     0.013 C 
ATOM     10  C3' I4B d   1      -0.080  -0.907  -4.670  0.00  0.00     0.013 C 
ENDBRANCH   7   8
ENDBRANCH   1   7
TORSDOF 2
ENDMDL
