MODEL 1
REMARK minimizedAffinity 2.01766729
REMARK minimizedRMSD -1
REMARK  3 active torsions:
REMARK  status: ('A' for Active; 'I' for Inactive)
REMARK    1  A    between atoms: C3'_2  and  C2'_3 
REMARK    2  A    between atoms: C2'_3  and  C1'_4 
REMARK    3  A    between atoms: C1'_4  and  C1_5 
ROOT
ATOM      1  C1  N4B d   1       0.017  -1.951  -2.359  0.00  0.00    -0.075 A 
ATOM      2  C2  N4B d   1      -0.416  -2.919  -1.426  0.00  0.00     0.002 A 
ATOM      3  C3  N4B d   1      -1.300  -3.897  -1.811  0.00  0.00     0.002 A 
ATOM      4  C4  N4B d   1      -1.777  -3.916  -3.113  0.00  0.00    -0.004 A 
ATOM      5  C5  N4B d   1      -1.334  -2.994  -4.015  0.00  0.00     0.002 A 
ATOM      6  C6  N4B d   1      -0.443  -2.007  -3.643  0.00  0.00     0.002 A 
ENDROOT
BRANCH   1   7
ATOM      7  C1' N4B d   1       0.915  -0.812  -1.963  0.00  0.00     0.057 C 
BRANCH   7   8
ATOM      8  C2' N4B d   1       0.258   0.506  -2.360  0.00  0.00     0.009 C 
BRANCH   8   9
ATOM      9  C3' N4B d   1      -0.304   1.246  -1.158  0.00  0.00     0.004 C 
ATOM     10  C4' N4B d   1      -1.612   1.918  -1.449  0.00  0.00     0.003 C 
ENDBRANCH   8   9
ENDBRANCH   7   8
ENDBRANCH   1   7
TORSDOF 3
ENDMDL
