MODEL 1
REMARK minimizedAffinity -0.687596619
REMARK minimizedRMSD -1
REMARK  1 active torsions:
REMARK  status: ('A' for Active; 'I' for Inactive)
REMARK    1  A    between atoms: C1_2  and  C2_3 
ROOT
ATOM      1  C2  UNL d   1      -5.554   4.378   3.588  0.00  0.00    -0.076 A 
ATOM      2  C3  UNL d   1      -5.640   4.913   4.885  0.00  0.00     0.004 A 
ATOM      3  C4  UNL d   1      -5.266   4.160   5.997  0.00  0.00    -0.003 A 
ATOM      4  C5  UNL d   1      -4.798   2.861   5.830  0.00  0.00     0.000 A 
ATOM      5  C6  UNL d   1      -4.689   2.322   4.549  0.00  0.00     0.000 A 
ATOM      6  C7  UNL d   1      -5.047   3.073   3.416  0.00  0.00    -0.073 A 
ATOM      7  C8  UNL d   1      -4.915   2.439   2.058  0.00  0.00     0.078 C 
ENDROOT
BRANCH   1   8
ATOM      8  C1  UNL d   1      -6.000   5.232   2.422  0.00  0.00     0.053 C 
ATOM      9  C   UNL d   1      -4.831   5.758   1.604  0.00  0.00     0.018 C 
ENDBRANCH   1   8
TORSDOF 1
ENDMDL
