MODEL 1
REMARK minimizedAffinity -3.32068968
REMARK minimizedRMSD -1
REMARK  1 active torsions:
REMARK  status: ('A' for Active; 'I' for Inactive)
REMARK    1  A    between atoms: C1_2  and  C2_3 
ROOT
ATOM      1  C2  UNL d   1      -5.595   3.763   4.445  0.00  0.00    -0.076 A 
ATOM      2  C3  UNL d   1      -5.375   3.256   3.153  0.00  0.00     0.004 A 
ATOM      3  C4  UNL d   1      -5.362   4.100   2.043  0.00  0.00    -0.003 A 
ATOM      4  C5  UNL d   1      -5.570   5.465   2.209  0.00  0.00     0.000 A 
ATOM      5  C6  UNL d   1      -5.772   5.988   3.486  0.00  0.00     0.000 A 
ATOM      6  C7  UNL d   1      -5.771   5.153   4.616  0.00  0.00    -0.073 A 
ATOM      7  C8  UNL d   1      -6.000   5.770   5.969  0.00  0.00     0.078 C 
ENDROOT
BRANCH   1   8
ATOM      8  C1  UNL d   1      -5.624   2.796   5.607  0.00  0.00     0.053 C 
ATOM      9  C   UNL d   1      -4.236   2.309   5.994  0.00  0.00     0.018 C 
ENDBRANCH   1   8
TORSDOF 1
ENDMDL
