MODEL 1
REMARK minimizedAffinity 6.27131033
REMARK minimizedRMSD -1
REMARK  1 active torsions:
REMARK  status: ('A' for Active; 'I' for Inactive)
REMARK    1  A    between atoms: C1_2  and  C2_3 
ROOT
ATOM      1  C2  UNL d   1      -5.627   4.869   2.498  0.00  0.00    -0.076 A 
ATOM      2  C3  UNL d   1      -6.000   5.970   3.289  0.00  0.00     0.004 A 
ATOM      3  C4  UNL d   1      -5.722   5.999   4.654  0.00  0.00    -0.003 A 
ATOM      4  C5  UNL d   1      -5.067   4.928   5.251  0.00  0.00     0.000 A 
ATOM      5  C6  UNL d   1      -4.674   3.835   4.479  0.00  0.00     0.000 A 
ATOM      6  C7  UNL d   1      -4.932   3.797   3.098  0.00  0.00    -0.073 A 
ATOM      7  C8  UNL d   1      -4.491   2.592   2.314  0.00  0.00     0.078 C 
ENDROOT
BRANCH   1   8
ATOM      8  C1  UNL d   1      -5.978   4.882   1.027  0.00  0.00     0.053 C 
ATOM      9  C   UNL d   1      -4.871   5.474   0.169  0.00  0.00     0.018 C 
ENDBRANCH   1   8
TORSDOF 1
ENDMDL
