MODEL 1
REMARK minimizedAffinity -2.78667426
REMARK minimizedRMSD -1
REMARK  1 active torsions:
REMARK  status: ('A' for Active; 'I' for Inactive)
REMARK    1  A    between atoms: C1_2  and  C2_3 
ROOT
ATOM      1  C2  UNL d   1      -5.973   3.541   4.422  0.00  0.00    -0.076 A 
ATOM      2  C3  UNL d   1      -5.953   3.028   3.114  0.00  0.00     0.004 A 
ATOM      3  C4  UNL d   1      -5.966   3.879   2.010  0.00  0.00    -0.003 A 
ATOM      4  C5  UNL d   1      -5.997   5.257   2.197  0.00  0.00     0.000 A 
ATOM      5  C6  UNL d   1      -6.000   5.783   3.488  0.00  0.00     0.000 A 
ATOM      6  C7  UNL d   1      -5.971   4.939   4.612  0.00  0.00    -0.073 A 
ATOM      7  C8  UNL d   1      -5.981   5.561   5.982  0.00  0.00     0.078 C 
ENDROOT
BRANCH   1   8
ATOM      8  C1  UNL d   1      -5.986   2.569   5.581  0.00  0.00     0.053 C 
ATOM      9  C   UNL d   1      -4.588   2.128   5.987  0.00  0.00     0.018 C 
ENDBRANCH   1   8
TORSDOF 1
ENDMDL
