MODEL 1
REMARK minimizedAffinity 0.155434251
REMARK minimizedRMSD -1
REMARK  1 active torsions:
REMARK  status: ('A' for Active; 'I' for Inactive)
REMARK    1  A    between atoms: C1_2  and  C2_3 
ROOT
ATOM      1  C2  UNL d   1      -3.832   3.387   3.872  0.00  0.00    -0.076 A 
ATOM      2  C3  UNL d   1      -5.179   2.998   3.965  0.00  0.00     0.004 A 
ATOM      3  C4  UNL d   1      -5.626   2.204   5.020  0.00  0.00    -0.003 A 
ATOM      4  C5  UNL d   1      -4.733   1.787   6.000  0.00  0.00     0.000 A 
ATOM      5  C6  UNL d   1      -3.396   2.178   5.933  0.00  0.00     0.000 A 
ATOM      6  C7  UNL d   1      -2.932   2.991   4.885  0.00  0.00    -0.073 A 
ATOM      7  C8  UNL d   1      -1.479   3.378   4.859  0.00  0.00     0.078 C 
ENDROOT
BRANCH   1   8
ATOM      8  C1  UNL d   1      -3.399   4.225   2.690  0.00  0.00     0.053 C 
ATOM      9  C   UNL d   1      -4.575   4.688   1.843  0.00  0.00     0.018 C 
ENDBRANCH   1   8
TORSDOF 1
ENDMDL
