MODEL 1
REMARK minimizedAffinity -4.23453665
REMARK minimizedRMSD -1
REMARK  1 active torsions:
REMARK  status: ('A' for Active; 'I' for Inactive)
REMARK    1  A    between atoms: C1_2  and  C2_3 
ROOT
ATOM      1  C2  UNL d   1      -5.539   3.636   4.647  0.00  0.00    -0.076 A 
ATOM      2  C3  UNL d   1      -5.625   3.000   3.396  0.00  0.00     0.004 A 
ATOM      3  C4  UNL d   1      -5.570   3.735   2.213  0.00  0.00    -0.003 A 
ATOM      4  C5  UNL d   1      -5.428   5.117   2.261  0.00  0.00     0.000 A 
ATOM      5  C6  UNL d   1      -5.324   5.762   3.493  0.00  0.00     0.000 A 
ATOM      6  C7  UNL d   1      -5.360   5.035   4.695  0.00  0.00    -0.073 A 
ATOM      7  C8  UNL d   1      -5.249   5.782   5.995  0.00  0.00     0.078 C 
ENDROOT
BRANCH   1   8
ATOM      8  C1  UNL d   1      -5.631   2.790   5.897  0.00  0.00     0.053 C 
ATOM      9  C   UNL d   1      -4.501   1.777   6.000  0.00  0.00     0.018 C 
ENDBRANCH   1   8
TORSDOF 1
ENDMDL
