MODEL 1
REMARK minimizedAffinity -2.64168572
REMARK minimizedRMSD -1
REMARK  1 active torsions:
REMARK  status: ('A' for Active; 'I' for Inactive)
REMARK    1  A    between atoms: C1_2  and  C2_3 
ROOT
ATOM      1  C2  UNL d   1      -5.360   3.879   4.341  0.00  0.00    -0.076 A 
ATOM      2  C3  UNL d   1      -5.267   3.265   3.080  0.00  0.00     0.004 A 
ATOM      3  C4  UNL d   1      -5.421   4.005   1.909  0.00  0.00    -0.003 A 
ATOM      4  C5  UNL d   1      -5.668   5.371   1.980  0.00  0.00     0.000 A 
ATOM      5  C6  UNL d   1      -5.745   6.000   3.222  0.00  0.00     0.000 A 
ATOM      6  C7  UNL d   1      -5.577   5.271   4.412  0.00  0.00    -0.073 A 
ATOM      7  C8  UNL d   1      -5.676   6.000   5.724  0.00  0.00     0.078 C 
ENDROOT
BRANCH   1   8
ATOM      8  C1  UNL d   1      -5.212   3.020   5.577  0.00  0.00     0.053 C 
ATOM      9  C   UNL d   1      -3.760   2.853   6.000  0.00  0.00     0.018 C 
ENDBRANCH   1   8
TORSDOF 1
ENDMDL
