MODEL 1
REMARK minimizedAffinity -3.18165827
REMARK minimizedRMSD -1
REMARK  1 active torsions:
REMARK  status: ('A' for Active; 'I' for Inactive)
REMARK    1  A    between atoms: C1_2  and  C2_3 
ROOT
ATOM      1  C2  UNL d   1      -5.634   3.762   4.311  0.00  0.00    -0.076 A 
ATOM      2  C3  UNL d   1      -5.374   3.249   3.029  0.00  0.00     0.004 A 
ATOM      3  C4  UNL d   1      -5.244   4.097   1.930  0.00  0.00    -0.003 A 
ATOM      4  C5  UNL d   1      -5.372   5.471   2.096  0.00  0.00     0.000 A 
ATOM      5  C6  UNL d   1      -5.613   5.999   3.364  0.00  0.00     0.000 A 
ATOM      6  C7  UNL d   1      -5.730   5.160   4.485  0.00  0.00    -0.073 A 
ATOM      7  C8  UNL d   1      -5.996   5.782   5.828  0.00  0.00     0.078 C 
ENDROOT
BRANCH   1   8
ATOM      8  C1  UNL d   1      -5.792   2.793   5.461  0.00  0.00     0.053 C 
ATOM      9  C   UNL d   1      -4.456   2.305   5.999  0.00  0.00     0.018 C 
ENDBRANCH   1   8
TORSDOF 1
ENDMDL
