MODEL 1
REMARK minimizedAffinity -2.47959161
REMARK minimizedRMSD -1
REMARK  1 active torsions:
REMARK  status: ('A' for Active; 'I' for Inactive)
REMARK    1  A    between atoms: C1_2  and  C2_3 
ROOT
ATOM      1  C2  UNL d   1      -5.207   3.826   4.566  0.00  0.00    -0.076 A 
ATOM      2  C3  UNL d   1      -5.330   3.227   3.301  0.00  0.00     0.004 A 
ATOM      3  C4  UNL d   1      -5.504   4.002   2.155  0.00  0.00    -0.003 A 
ATOM      4  C5  UNL d   1      -5.558   5.387   2.256  0.00  0.00     0.000 A 
ATOM      5  C6  UNL d   1      -5.419   5.999   3.502  0.00  0.00     0.000 A 
ATOM      6  C7  UNL d   1      -5.226   5.234   4.665  0.00  0.00    -0.073 A 
ATOM      7  C8  UNL d   1      -5.089   5.946   5.982  0.00  0.00     0.078 C 
ENDROOT
BRANCH   1   8
ATOM      8  C1  UNL d   1      -5.047   2.934   5.777  0.00  0.00     0.053 C 
ATOM      9  C   UNL d   1      -3.606   2.498   5.993  0.00  0.00     0.018 C 
ENDBRANCH   1   8
TORSDOF 1
ENDMDL
