MODEL 1
REMARK minimizedAffinity -1.62896538
REMARK minimizedRMSD -1
REMARK  1 active torsions:
REMARK  status: ('A' for Active; 'I' for Inactive)
REMARK    1  A    between atoms: C1_2  and  C2_3 
ROOT
ATOM      1  C2  UNL d   1      -5.722   5.000   3.474  0.00  0.00    -0.076 A 
ATOM      2  C3  UNL d   1      -5.961   5.630   4.708  0.00  0.00     0.004 A 
ATOM      3  C4  UNL d   1      -5.749   4.956   5.909  0.00  0.00    -0.003 A 
ATOM      4  C5  UNL d   1      -5.293   3.643   5.897  0.00  0.00     0.000 A 
ATOM      5  C6  UNL d   1      -5.033   3.009   4.682  0.00  0.00     0.000 A 
ATOM      6  C7  UNL d   1      -5.226   3.679   3.462  0.00  0.00    -0.073 A 
ATOM      7  C8  UNL d   1      -4.936   2.945   2.181  0.00  0.00     0.078 C 
ENDROOT
BRANCH   1   8
ATOM      8  C1  UNL d   1      -5.996   5.772   2.202  0.00  0.00     0.053 C 
ATOM      9  C   UNL d   1      -4.739   6.000   1.377  0.00  0.00     0.018 C 
ENDBRANCH   1   8
TORSDOF 1
ENDMDL
