MODEL 1
REMARK minimizedAffinity 2.51917124
REMARK minimizedRMSD -1
REMARK  1 active torsions:
REMARK  status: ('A' for Active; 'I' for Inactive)
REMARK    1  A    between atoms: C1_2  and  C2_3 
ROOT
ATOM      1  C2  UNL d   1      -0.417  -0.416  -0.172  0.00  0.00    -0.076 A 
ATOM      2  C3  UNL d   1      -0.235  -0.021   1.165  0.00  0.00     0.004 A 
ATOM      3  C4  UNL d   1      -1.291  -0.058   2.074  0.00  0.00    -0.003 A 
ATOM      4  C5  UNL d   1      -2.546  -0.492   1.661  0.00  0.00     0.000 A 
ATOM      5  C6  UNL d   1      -2.740  -0.905   0.344  0.00  0.00     0.000 A 
ATOM      6  C7  UNL d   1      -1.682  -0.889  -0.582  0.00  0.00    -0.073 A 
ATOM      7  C8  UNL d   1      -1.949  -1.339  -1.992  0.00  0.00     0.078 C 
ENDROOT
BRANCH   1   8
ATOM      8  C1  UNL d   1       0.758  -0.328  -1.119  0.00  0.00     0.053 C 
ATOM      9  C   UNL d   1       0.553   0.714  -2.208  0.00  0.00     0.018 C 
ENDBRANCH   1   8
TORSDOF 1
ENDMDL
