MODEL 1
REMARK minimizedAffinity -2.00565553
REMARK minimizedRMSD -1
REMARK  1 active torsions:
REMARK  status: ('A' for Active; 'I' for Inactive)
REMARK    1  A    between atoms: C1_2  and  C2_3 
ROOT
ATOM      1  C2  UNL d   1      -5.077   5.265   3.923  0.00  0.00    -0.076 A 
ATOM      2  C3  UNL d   1      -5.221   6.000   2.733  0.00  0.00     0.004 A 
ATOM      3  C4  UNL d   1      -5.135   5.376   1.490  0.00  0.00    -0.003 A 
ATOM      4  C5  UNL d   1      -4.904   4.007   1.415  0.00  0.00     0.000 A 
ATOM      5  C6  UNL d   1      -4.777   3.259   2.586  0.00  0.00     0.000 A 
ATOM      6  C7  UNL d   1      -4.877   3.870   3.847  0.00  0.00    -0.073 A 
ATOM      7  C8  UNL d   1      -4.726   3.016   5.077  0.00  0.00     0.078 C 
ENDROOT
BRANCH   1   8
ATOM      8  C1  UNL d   1      -5.153   6.000   5.242  0.00  0.00     0.053 C 
ATOM      9  C   UNL d   1      -3.832   5.984   5.995  0.00  0.00     0.018 C 
ENDBRANCH   1   8
TORSDOF 1
ENDMDL
