MODEL 1
REMARK minimizedAffinity -2.13175774
REMARK minimizedRMSD -1
REMARK  1 active torsions:
REMARK  status: ('A' for Active; 'I' for Inactive)
REMARK    1  A    between atoms: C1_2  and  C2_3 
ROOT
ATOM      1  C2  UNL d   1      -5.217   3.995   4.574  0.00  0.00    -0.076 A 
ATOM      2  C3  UNL d   1      -4.965   3.420   3.317  0.00  0.00     0.004 A 
ATOM      3  C4  UNL d   1      -5.231   4.120   2.141  0.00  0.00    -0.003 A 
ATOM      4  C5  UNL d   1      -5.754   5.407   2.204  0.00  0.00     0.000 A 
ATOM      5  C6  UNL d   1      -5.994   6.000   3.443  0.00  0.00     0.000 A 
ATOM      6  C7  UNL d   1      -5.716   5.314   4.638  0.00  0.00    -0.073 A 
ATOM      7  C8  UNL d   1      -6.000   5.999   5.947  0.00  0.00     0.078 C 
ENDROOT
BRANCH   1   8
ATOM      8  C1  UNL d   1      -4.934   3.178   5.815  0.00  0.00     0.053 C 
ATOM      9  C   UNL d   1      -3.453   2.879   5.990  0.00  0.00     0.018 C 
ENDBRANCH   1   8
TORSDOF 1
ENDMDL
