MODEL 1
REMARK minimizedAffinity -2.84304023
REMARK minimizedRMSD -1
REMARK  1 active torsions:
REMARK  status: ('A' for Active; 'I' for Inactive)
REMARK    1  A    between atoms: C1_2  and  C2_3 
ROOT
ATOM      1  C2  UNL d   1      -4.667   4.226   4.544  0.00  0.00    -0.076 A 
ATOM      2  C3  UNL d   1      -4.188   3.725   3.322  0.00  0.00     0.004 A 
ATOM      3  C4  UNL d   1      -4.510   4.345   2.116  0.00  0.00    -0.003 A 
ATOM      4  C5  UNL d   1      -5.317   5.477   2.113  0.00  0.00     0.000 A 
ATOM      5  C6  UNL d   1      -5.787   5.999   3.318  0.00  0.00     0.000 A 
ATOM      6  C7  UNL d   1      -5.458   5.395   4.544  0.00  0.00    -0.073 A 
ATOM      7  C8  UNL d   1      -5.998   5.997   5.812  0.00  0.00     0.078 C 
ENDROOT
BRANCH   1   8
ATOM      8  C1  UNL d   1      -4.307   3.496   5.818  0.00  0.00     0.053 C 
ATOM      9  C   UNL d   1      -5.102   2.213   5.999  0.00  0.00     0.018 C 
ENDBRANCH   1   8
TORSDOF 1
ENDMDL
