MODEL 1
REMARK minimizedAffinity 8.12239742
REMARK minimizedRMSD -1
REMARK  0 active torsions:
REMARK  status: ('A' for Active; 'I' for Inactive)
ROOT
ATOM      1  O1  BZF d   1       4.704   3.291   3.794  0.00  0.00    -0.204 OA
ATOM      2  C2  BZF d   1       5.989   3.605   4.191  0.00  0.00     0.174 A 
ATOM      3  C3  BZF d   1       5.986   4.658   5.034  0.00  0.00    -0.012 A 
ATOM      4  C3A BZF d   1       4.605   4.966   5.245  0.00  0.00    -0.107 A 
ATOM      5  C4  BZF d   1       3.956   5.904   5.997  0.00  0.00     0.055 A 
ATOM      6  C5  BZF d   1       2.601   5.986   5.926  0.00  0.00    -0.016 A 
ATOM      7  C6  BZF d   1       1.865   5.152   5.110  0.00  0.00     0.022 A 
ATOM      8  C7  BZF d   1       2.464   4.203   4.349  0.00  0.00     0.029 A 
ATOM      9  C7A BZF d   1       3.830   4.096   4.444  0.00  0.00     0.058 A 
ENDROOT
TORSDOF 0
ENDMDL
