MODEL 1
REMARK minimizedAffinity 7.8043685
REMARK minimizedRMSD -1
REMARK  0 active torsions:
REMARK  status: ('A' for Active; 'I' for Inactive)
ROOT
ATOM      1  O1  BZF d   1       1.965  -1.159   1.783  0.00  0.00    -0.204 OA
ATOM      2  C2  BZF d   1       0.998  -0.936   0.822  0.00  0.00     0.174 A 
ATOM      3  C3  BZF d   1      -0.205  -0.724   1.393  0.00  0.00    -0.012 A 
ATOM      4  C3A BZF d   1       0.042  -0.728   2.803  0.00  0.00    -0.107 A 
ATOM      5  C4  BZF d   1      -0.757  -0.554   3.896  0.00  0.00     0.055 A 
ATOM      6  C5  BZF d   1      -0.219  -0.692   5.136  0.00  0.00    -0.016 A 
ATOM      7  C6  BZF d   1       1.111  -1.008   5.319  0.00  0.00     0.022 A 
ATOM      8  C7  BZF d   1       1.944  -1.185   4.265  0.00  0.00     0.029 A 
ATOM      9  C7A BZF d   1       1.411  -1.014   3.011  0.00  0.00     0.058 A 
ENDROOT
TORSDOF 0
ENDMDL
