MODEL 1
REMARK minimizedAffinity 10.3447056
REMARK minimizedRMSD -1
REMARK  0 active torsions:
REMARK  status: ('A' for Active; 'I' for Inactive)
ROOT
ATOM      1  O1  BZF d   1       2.331   4.957   4.739  0.00  0.00    -0.204 OA
ATOM      2  C2  BZF d   1       2.603   5.996   5.608  0.00  0.00     0.174 A 
ATOM      3  C3  BZF d   1       3.899   5.981   5.981  0.00  0.00    -0.012 A 
ATOM      4  C3A BZF d   1       4.494   4.918   5.230  0.00  0.00    -0.107 A 
ATOM      5  C4  BZF d   1       5.763   4.419   5.152  0.00  0.00     0.055 A 
ATOM      6  C5  BZF d   1       5.997   3.327   4.378  0.00  0.00    -0.016 A 
ATOM      7  C6  BZF d   1       4.986   2.707   3.673  0.00  0.00     0.022 A 
ATOM      8  C7  BZF d   1       3.713   3.169   3.714  0.00  0.00     0.029 A 
ATOM      9  C7A BZF d   1       3.479   4.292   4.470  0.00  0.00     0.058 A 
ENDROOT
TORSDOF 0
ENDMDL
