MODEL 1
REMARK minimizedAffinity 8.85127068
REMARK minimizedRMSD -1
REMARK  0 active torsions:
REMARK  status: ('A' for Active; 'I' for Inactive)
ROOT
ATOM      1  O1  BZF d   1       5.081   3.921   4.077  0.00  0.00    -0.204 OA
ATOM      2  C2  BZF d   1       5.993   4.343   5.026  0.00  0.00     0.174 A 
ATOM      3  C3  BZF d   1       5.423   5.217   5.880  0.00  0.00    -0.012 A 
ATOM      4  C3A BZF d   1       4.047   5.279   5.494  0.00  0.00    -0.107 A 
ATOM      5  C4  BZF d   1       2.967   5.963   5.974  0.00  0.00     0.055 A 
ATOM      6  C5  BZF d   1       1.778   5.859   5.325  0.00  0.00    -0.016 A 
ATOM      7  C6  BZF d   1       1.634   5.086   4.192  0.00  0.00     0.022 A 
ATOM      8  C7  BZF d   1       2.676   4.385   3.681  0.00  0.00     0.029 A 
ATOM      9  C7A BZF d   1       3.871   4.462   4.354  0.00  0.00     0.058 A 
ENDROOT
TORSDOF 0
ENDMDL
