MODEL 1
REMARK minimizedAffinity 9.75721073
REMARK minimizedRMSD -1
REMARK  0 active torsions:
REMARK  status: ('A' for Active; 'I' for Inactive)
ROOT
ATOM      1  O1  BZF d   1       5.983   4.269   4.046  0.00  0.00    -0.204 OA
ATOM      2  C2  BZF d   1       5.903   2.909   3.819  0.00  0.00     0.174 A 
ATOM      3  C3  BZF d   1       4.782   2.397   4.367  0.00  0.00    -0.012 A 
ATOM      4  C3A BZF d   1       4.075   3.523   4.897  0.00  0.00    -0.107 A 
ATOM      5  C4  BZF d   1       2.883   3.660   5.549  0.00  0.00     0.055 A 
ATOM      6  C5  BZF d   1       2.513   4.889   5.998  0.00  0.00    -0.016 A 
ATOM      7  C6  BZF d   1       3.312   5.999   5.816  0.00  0.00     0.022 A 
ATOM      8  C7  BZF d   1       4.501   5.913   5.170  0.00  0.00     0.029 A 
ATOM      9  C7A BZF d   1       4.862   4.679   4.686  0.00  0.00     0.058 A 
ENDROOT
TORSDOF 0
ENDMDL
