MODEL 1
REMARK minimizedAffinity 13.974535
REMARK minimizedRMSD -1
REMARK  0 active torsions:
REMARK  status: ('A' for Active; 'I' for Inactive)
ROOT
ATOM      1  O1  BZF d   1       4.917   3.335  -0.733  0.00  0.00    -0.204 OA
ATOM      2  C2  BZF d   1       3.754   3.187  -0.002  0.00  0.00     0.174 A 
ATOM      3  C3  BZF d   1       3.076   2.091  -0.399  0.00  0.00    -0.012 A 
ATOM      4  C3A BZF d   1       3.909   1.468  -1.381  0.00  0.00    -0.107 A 
ATOM      5  C4  BZF d   1       3.788   0.334  -2.132  0.00  0.00     0.055 A 
ATOM      6  C5  BZF d   1       4.746   0.045  -3.052  0.00  0.00    -0.016 A 
ATOM      7  C6  BZF d   1       5.834   0.870  -3.250  0.00  0.00     0.022 A 
ATOM      8  C7  BZF d   1       6.000   2.003  -2.526  0.00  0.00     0.029 A 
ATOM      9  C7A BZF d   1       5.051   2.280  -1.573  0.00  0.00     0.058 A 
ENDROOT
TORSDOF 0
ENDMDL
