MODEL 1
REMARK minimizedAffinity -0.940007925
REMARK minimizedRMSD -1
REMARK  0 active torsions:
REMARK  status: ('A' for Active; 'I' for Inactive)
ROOT
ATOM      1  O1  BZF d   1       2.527   5.988   4.381  0.00  0.00    -0.204 OA
ATOM      2  C2  BZF d   1       1.603   5.466   5.265  0.00  0.00     0.174 A 
ATOM      3  C3  BZF d   1       2.149   4.473   5.997  0.00  0.00    -0.012 A 
ATOM      4  C3A BZF d   1       3.524   4.430   5.606  0.00  0.00    -0.107 A 
ATOM      5  C4  BZF d   1       4.586   3.663   5.991  0.00  0.00     0.055 A 
ATOM      6  C5  BZF d   1       5.780   3.823   5.361  0.00  0.00    -0.016 A 
ATOM      7  C6  BZF d   1       5.946   4.737   4.341  0.00  0.00     0.022 A 
ATOM      8  C7  BZF d   1       4.923   5.524   3.928  0.00  0.00     0.029 A 
ATOM      9  C7A BZF d   1       3.724   5.387   4.584  0.00  0.00     0.058 A 
ENDROOT
TORSDOF 0
ENDMDL
