MODEL 1
REMARK minimizedAffinity 6.58821964
REMARK minimizedRMSD -1
REMARK  0 active torsions:
REMARK  status: ('A' for Active; 'I' for Inactive)
ROOT
ATOM      1  O1  BZF d   1      -0.424   1.164  -3.217  0.00  0.00    -0.204 OA
ATOM      2  C2  BZF d   1      -1.301   2.196  -3.486  0.00  0.00     0.174 A 
ATOM      3  C3  BZF d   1      -2.507   1.956  -2.932  0.00  0.00    -0.012 A 
ATOM      4  C3A BZF d   1      -2.348   0.738  -2.198  0.00  0.00    -0.107 A 
ATOM      5  C4  BZF d   1      -3.189  -0.006  -1.421  0.00  0.00     0.055 A 
ATOM      6  C5  BZF d   1      -2.744  -1.182  -0.906  0.00  0.00    -0.016 A 
ATOM      7  C6  BZF d   1      -1.469  -1.646  -1.151  0.00  0.00     0.022 A 
ATOM      8  C7  BZF d   1      -0.597  -0.941  -1.912  0.00  0.00     0.029 A 
ATOM      9  C7A BZF d   1      -1.032   0.264  -2.407  0.00  0.00     0.058 A 
ENDROOT
TORSDOF 0
ENDMDL
