MODEL 1
REMARK minimizedAffinity -2.40226436
REMARK minimizedRMSD -1
REMARK  0 active torsions:
REMARK  status: ('A' for Active; 'I' for Inactive)
ROOT
ATOM      1  O1  BZF d   1       0.132  -1.613   1.261  0.00  0.00    -0.204 OA
ATOM      2  C2  BZF d   1       1.434  -1.155   1.193  0.00  0.00     0.174 A 
ATOM      3  C3  BZF d   1       1.618  -0.400   0.091  0.00  0.00    -0.012 A 
ATOM      4  C3A BZF d   1       0.329  -0.308  -0.523  0.00  0.00    -0.107 A 
ATOM      5  C4  BZF d   1      -0.135   0.323  -1.641  0.00  0.00     0.055 A 
ATOM      6  C5  BZF d   1      -1.434   0.154  -2.004  0.00  0.00    -0.016 A 
ATOM      7  C6  BZF d   1      -2.293  -0.642  -1.275  0.00  0.00     0.022 A 
ATOM      8  C7  BZF d   1      -1.880  -1.284  -0.155  0.00  0.00     0.029 A 
ATOM      9  C7A BZF d   1      -0.577  -1.089   0.232  0.00  0.00     0.058 A 
ENDROOT
TORSDOF 0
ENDMDL
