MODEL 1
REMARK minimizedAffinity -3.18152022
REMARK minimizedRMSD -1
REMARK  0 active torsions:
REMARK  status: ('A' for Active; 'I' for Inactive)
ROOT
ATOM      1  O1  BZF d   1      -2.250  -2.009   1.517  0.00  0.00    -0.204 OA
ATOM      2  C2  BZF d   1      -3.353  -2.797   1.253  0.00  0.00     0.174 A 
ATOM      3  C3  BZF d   1      -3.751  -2.650  -0.028  0.00  0.00    -0.012 A 
ATOM      4  C3A BZF d   1      -2.783  -1.782  -0.625  0.00  0.00    -0.107 A 
ATOM      5  C4  BZF d   1      -2.625  -1.276  -1.883  0.00  0.00     0.055 A 
ATOM      6  C5  BZF d   1      -1.616  -0.398  -2.120  0.00  0.00    -0.016 A 
ATOM      7  C6  BZF d   1      -0.750   0.000  -1.123  0.00  0.00     0.022 A 
ATOM      8  C7  BZF d   1      -0.864  -0.478   0.140  0.00  0.00     0.029 A 
ATOM      9  C7A BZF d   1      -1.862  -1.392   0.375  0.00  0.00     0.058 A 
ENDROOT
TORSDOF 0
ENDMDL
