MODEL 1
REMARK minimizedAffinity 2.31208944
REMARK minimizedRMSD -1
REMARK  0 active torsions:
REMARK  status: ('A' for Active; 'I' for Inactive)
ROOT
ATOM      1  O1  BZF d   1      -2.207  -0.054  -2.026  0.00  0.00    -0.204 OA
ATOM      2  C2  BZF d   1      -1.355   0.946  -2.452  0.00  0.00     0.174 A 
ATOM      3  C3  BZF d   1      -0.308   1.074  -1.610  0.00  0.00    -0.012 A 
ATOM      4  C3A BZF d   1      -0.472   0.030  -0.645  0.00  0.00    -0.107 A 
ATOM      5  C4  BZF d   1       0.256  -0.369   0.439  0.00  0.00     0.055 A 
ATOM      6  C5  BZF d   1      -0.217  -1.378   1.217  0.00  0.00    -0.016 A 
ATOM      7  C6  BZF d   1      -1.415  -2.006   0.944  0.00  0.00     0.022 A 
ATOM      8  C7  BZF d   1      -2.170  -1.647  -0.123  0.00  0.00     0.029 A 
ATOM      9  C7A BZF d   1      -1.679  -0.650  -0.930  0.00  0.00     0.058 A 
ENDROOT
TORSDOF 0
ENDMDL
