MODEL 1
REMARK minimizedAffinity -2.83026862
REMARK minimizedRMSD -1
REMARK  0 active torsions:
REMARK  status: ('A' for Active; 'I' for Inactive)
ROOT
ATOM      1  O1  BZF d   1      -3.358  -0.394  -0.796  0.00  0.00    -0.204 OA
ATOM      2  C2  BZF d   1      -3.546  -0.303   0.570  0.00  0.00     0.174 A 
ATOM      3  C3  BZF d   1      -2.379  -0.052   1.198  0.00  0.00    -0.012 A 
ATOM      4  C3A BZF d   1      -1.416   0.109   0.152  0.00  0.00    -0.107 A 
ATOM      5  C4  BZF d   1      -0.080   0.390   0.142  0.00  0.00     0.055 A 
ATOM      6  C5  BZF d   1       0.583   0.406  -1.044  0.00  0.00    -0.016 A 
ATOM      7  C6  BZF d   1      -0.058   0.142  -2.237  0.00  0.00     0.022 A 
ATOM      8  C7  BZF d   1      -1.383  -0.137  -2.278  0.00  0.00     0.029 A 
ATOM      9  C7A BZF d   1      -2.062  -0.122  -1.084  0.00  0.00     0.058 A 
ENDROOT
TORSDOF 0
ENDMDL
