MODEL 1
REMARK minimizedAffinity -0.433631778
REMARK minimizedRMSD -1
REMARK  0 active torsions:
REMARK  status: ('A' for Active; 'I' for Inactive)
ROOT
ATOM      1  O1  BZF d   1       1.410  -0.123  -1.024  0.00  0.00    -0.204 OA
ATOM      2  C2  BZF d   1       0.765   0.250  -2.187  0.00  0.00     0.174 A 
ATOM      3  C3  BZF d   1      -0.573   0.163  -2.040  0.00  0.00    -0.012 A 
ATOM      4  C3A BZF d   1      -0.779  -0.205  -0.672  0.00  0.00    -0.107 A 
ATOM      5  C4  BZF d   1      -1.895  -0.429   0.082  0.00  0.00     0.055 A 
ATOM      6  C5  BZF d   1      -1.750  -0.845   1.368  0.00  0.00    -0.016 A 
ATOM      7  C6  BZF d   1      -0.507  -1.051   1.929  0.00  0.00     0.022 A 
ATOM      8  C7  BZF d   1       0.629  -0.838   1.221  0.00  0.00     0.029 A 
ATOM      9  C7A BZF d   1       0.487  -0.386  -0.068  0.00  0.00     0.058 A 
ENDROOT
TORSDOF 0
ENDMDL
