MODEL 1
REMARK minimizedAffinity -4.25274324
REMARK minimizedRMSD -1
REMARK  0 active torsions:
REMARK  status: ('A' for Active; 'I' for Inactive)
ROOT
ATOM      1  O1  BZF d   1      -2.512  -1.157  -0.857  0.00  0.00    -0.204 OA
ATOM      2  C2  BZF d   1      -2.670  -1.925   0.281  0.00  0.00     0.174 A 
ATOM      3  C3  BZF d   1      -1.559  -1.883   1.044  0.00  0.00    -0.012 A 
ATOM      4  C3A BZF d   1      -0.684  -0.962   0.385  0.00  0.00    -0.107 A 
ATOM      5  C4  BZF d   1       0.565  -0.488   0.667  0.00  0.00     0.055 A 
ATOM      6  C5  BZF d   1       1.170   0.346  -0.219  0.00  0.00    -0.016 A 
ATOM      7  C6  BZF d   1       0.558   0.723  -1.396  0.00  0.00     0.022 A 
ATOM      8  C7  BZF d   1      -0.683   0.283  -1.717  0.00  0.00     0.029 A 
ATOM      9  C7A BZF d   1      -1.311  -0.534  -0.808  0.00  0.00     0.058 A 
ENDROOT
TORSDOF 0
ENDMDL
