MODEL 1
REMARK minimizedAffinity -1.69967699
REMARK minimizedRMSD -1
REMARK  0 active torsions:
REMARK  status: ('A' for Active; 'I' for Inactive)
ROOT
ATOM      1  O1  BZF d   1      -0.559  -0.182  -2.217  0.00  0.00    -0.204 OA
ATOM      2  C2  BZF d   1       0.543   0.488  -1.720  0.00  0.00     0.174 A 
ATOM      3  C3  BZF d   1       0.541   0.477  -0.372  0.00  0.00    -0.012 A 
ATOM      4  C3A BZF d   1      -0.586  -0.324  -0.003  0.00  0.00    -0.107 A 
ATOM      5  C4  BZF d   1      -1.105  -0.719   1.196  0.00  0.00     0.055 A 
ATOM      6  C5  BZF d   1      -2.258  -1.438   1.212  0.00  0.00    -0.016 A 
ATOM      7  C6  BZF d   1      -2.920  -1.775   0.050  0.00  0.00     0.022 A 
ATOM      8  C7  BZF d   1      -2.441  -1.410  -1.164  0.00  0.00     0.029 A 
ATOM      9  C7A BZF d   1      -1.258  -0.712  -1.185  0.00  0.00     0.058 A 
ENDROOT
TORSDOF 0
ENDMDL
