MODEL 1
REMARK minimizedAffinity -3.86579919
REMARK minimizedRMSD -1
REMARK  0 active torsions:
REMARK  status: ('A' for Active; 'I' for Inactive)
ROOT
ATOM      1  O1  BZF d   1       1.001  -0.538   0.956  0.00  0.00    -0.204 OA
ATOM      2  C2  BZF d   1       1.238   0.389  -0.040  0.00  0.00     0.174 A 
ATOM      3  C3  BZF d   1       0.172   0.496  -0.859  0.00  0.00    -0.012 A 
ATOM      4  C3A BZF d   1      -0.827  -0.355  -0.289  0.00  0.00    -0.107 A 
ATOM      5  C4  BZF d   1      -2.111  -0.660  -0.639  0.00  0.00     0.055 A 
ATOM      6  C5  BZF d   1      -2.792  -1.584   0.089  0.00  0.00    -0.016 A 
ATOM      7  C6  BZF d   1      -2.218  -2.226   1.167  0.00  0.00     0.022 A 
ATOM      8  C7  BZF d   1      -0.949  -1.953   1.555  0.00  0.00     0.029 A 
ATOM      9  C7A BZF d   1      -0.270  -0.995   0.842  0.00  0.00     0.058 A 
ENDROOT
TORSDOF 0
ENDMDL
