MODEL 1
REMARK minimizedAffinity 2.43837523
REMARK minimizedRMSD -1
REMARK  2 active torsions:
REMARK  status: ('A' for Active; 'I' for Inactive)
REMARK    1  A    between atoms: C1_2  and  C2_3 
REMARK    2  A    between atoms: C2_3  and  C3_4 
ROOT
ATOM      1  C3  UNL d   1      -4.048   0.555  -4.895  0.00  0.00    -0.075 A 
ATOM      2  C4  UNL d   1      -3.671   0.654  -3.548  0.00  0.00     0.002 A 
ATOM      3  C5  UNL d   1      -3.768   1.871  -2.873  0.00  0.00     0.002 A 
ATOM      4  C6  UNL d   1      -4.233   3.004  -3.536  0.00  0.00    -0.004 A 
ATOM      5  C7  UNL d   1      -4.595   2.921  -4.879  0.00  0.00     0.002 A 
ATOM      6  C8  UNL d   1      -4.502   1.704  -5.556  0.00  0.00     0.002 A 
ENDROOT
BRANCH   1   7
ATOM      7  C2  UNL d   1      -3.972  -0.765  -5.624  0.00  0.00     0.056 C 
BRANCH   7   8
ATOM      8  C1  UNL d   1      -5.338  -1.349  -6.000  0.00  0.00     0.007 C 
ATOM      9  C   UNL d   1      -5.361  -2.872  -6.000  0.00  0.00     0.009 C 
ENDBRANCH   7   8
ENDBRANCH   1   7
TORSDOF 2
ENDMDL
