MODEL 1
REMARK minimizedAffinity 6.68479538
REMARK minimizedRMSD -1
REMARK  2 active torsions:
REMARK  status: ('A' for Active; 'I' for Inactive)
REMARK    1  A    between atoms: C1_2  and  C2_3 
REMARK    2  A    between atoms: C2_3  and  C3_4 
ROOT
ATOM      1  C3  UNL d   1      -5.165  -3.360  -4.185  0.00  0.00    -0.075 A 
ATOM      2  C4  UNL d   1      -5.940  -3.513  -5.344  0.00  0.00     0.002 A 
ATOM      3  C5  UNL d   1      -6.000  -4.743  -5.999  0.00  0.00     0.002 A 
ATOM      4  C6  UNL d   1      -5.279  -5.831  -5.512  0.00  0.00    -0.004 A 
ATOM      5  C7  UNL d   1      -4.493  -5.686  -4.371  0.00  0.00     0.002 A 
ATOM      6  C8  UNL d   1      -4.435  -4.457  -3.711  0.00  0.00     0.002 A 
ENDROOT
BRANCH   1   7
ATOM      7  C2  UNL d   1      -5.120  -2.039  -3.455  0.00  0.00     0.056 C 
BRANCH   7   8
ATOM      8  C1  UNL d   1      -4.098  -1.048  -4.021  0.00  0.00     0.007 C 
ATOM      9  C   UNL d   1      -4.049   0.268  -3.255  0.00  0.00     0.009 C 
ENDBRANCH   7   8
ENDBRANCH   1   7
TORSDOF 2
ENDMDL
