MODEL 1
REMARK minimizedAffinity 0.214909658
REMARK minimizedRMSD -1
REMARK  2 active torsions:
REMARK  status: ('A' for Active; 'I' for Inactive)
REMARK    1  A    between atoms: C1_2  and  C2_3 
REMARK    2  A    between atoms: C2_3  and  C3_4 
ROOT
ATOM      1  C3  UNL d   1       3.453  -5.824  -3.536  0.00  0.00    -0.075 A 
ATOM      2  C4  UNL d   1       4.824  -5.717  -3.261  0.00  0.00     0.002 A 
ATOM      3  C5  UNL d   1       5.758  -5.732  -4.297  0.00  0.00     0.002 A 
ATOM      4  C6  UNL d   1       5.335  -5.864  -5.618  0.00  0.00    -0.004 A 
ATOM      5  C7  UNL d   1       3.977  -5.987  -5.902  0.00  0.00     0.002 A 
ATOM      6  C8  UNL d   1       3.040  -5.968  -4.867  0.00  0.00     0.002 A 
ENDROOT
BRANCH   1   7
ATOM      7  C2  UNL d   1       2.435  -5.779  -2.422  0.00  0.00     0.056 C 
BRANCH   7   8
ATOM      8  C1  UNL d   1       3.030  -5.988  -1.025  0.00  0.00     0.007 C 
ATOM      9  C   UNL d   1       1.985  -5.966   0.082  0.00  0.00     0.009 C 
ENDBRANCH   7   8
ENDBRANCH   1   7
TORSDOF 2
ENDMDL
