MODEL 1
REMARK minimizedAffinity 9.69691277
REMARK minimizedRMSD -1
REMARK  2 active torsions:
REMARK  status: ('A' for Active; 'I' for Inactive)
REMARK    1  A    between atoms: C1_2  and  C2_3 
REMARK    2  A    between atoms: C2_3  and  C3_4 
ROOT
ATOM      1  C3  UNL d   1       2.251  -3.876   3.210  0.00  0.00    -0.075 A 
ATOM      2  C4  UNL d   1       1.762  -3.701   4.513  0.00  0.00     0.002 A 
ATOM      3  C5  UNL d   1       1.108  -2.522   4.871  0.00  0.00     0.002 A 
ATOM      4  C6  UNL d   1       0.943  -1.502   3.937  0.00  0.00    -0.004 A 
ATOM      5  C7  UNL d   1       1.440  -1.658   2.645  0.00  0.00     0.002 A 
ATOM      6  C8  UNL d   1       2.091  -2.838   2.282  0.00  0.00     0.002 A 
ENDROOT
BRANCH   1   7
ATOM      7  C2  UNL d   1       2.934  -5.161   2.808  0.00  0.00     0.056 C 
BRANCH   7   8
ATOM      8  C1  UNL d   1       2.261  -5.886   1.637  0.00  0.00     0.007 C 
ATOM      9  C   UNL d   1       3.134  -5.952   0.391  0.00  0.00     0.009 C 
ENDBRANCH   7   8
ENDBRANCH   1   7
TORSDOF 2
ENDMDL
