MODEL 1
REMARK minimizedAffinity 0.609000206
REMARK minimizedRMSD -1
REMARK  2 active torsions:
REMARK  status: ('A' for Active; 'I' for Inactive)
REMARK    1  A    between atoms: C1_2  and  C2_3 
REMARK    2  A    between atoms: C2_3  and  C3_4 
ROOT
ATOM      1  C3  UNL d   1       3.424  -3.159   4.181  0.00  0.00    -0.075 A 
ATOM      2  C4  UNL d   1       3.632  -3.739   5.441  0.00  0.00     0.002 A 
ATOM      3  C5  UNL d   1       4.913  -4.111   5.847  0.00  0.00     0.002 A 
ATOM      4  C6  UNL d   1       6.000  -3.919   4.997  0.00  0.00    -0.004 A 
ATOM      5  C7  UNL d   1       5.803  -3.359   3.736  0.00  0.00     0.002 A 
ATOM      6  C8  UNL d   1       4.522  -2.982   3.329  0.00  0.00     0.002 A 
ENDROOT
BRANCH   1   7
ATOM      7  C2  UNL d   1       2.043  -2.727   3.748  0.00  0.00     0.056 C 
BRANCH   7   8
ATOM      8  C1  UNL d   1       2.025  -1.441   2.915  0.00  0.00     0.007 C 
ATOM      9  C   UNL d   1       1.130  -1.534   1.686  0.00  0.00     0.009 C 
ENDBRANCH   7   8
ENDBRANCH   1   7
TORSDOF 2
ENDMDL
