MODEL 1
REMARK minimizedAffinity 5.7446866
REMARK minimizedRMSD -1
REMARK  2 active torsions:
REMARK  status: ('A' for Active; 'I' for Inactive)
REMARK    1  A    between atoms: C1_2  and  C2_3 
REMARK    2  A    between atoms: C2_3  and  C3_4 
ROOT
ATOM      1  C3  UNL d   1       3.757  -3.390   4.124  0.00  0.00    -0.075 A 
ATOM      2  C4  UNL d   1       3.079  -2.286   3.586  0.00  0.00     0.002 A 
ATOM      3  C5  UNL d   1       1.686  -2.282   3.505  0.00  0.00     0.002 A 
ATOM      4  C6  UNL d   1       0.956  -3.381   3.950  0.00  0.00    -0.004 A 
ATOM      5  C7  UNL d   1       1.620  -4.490   4.471  0.00  0.00     0.002 A 
ATOM      6  C8  UNL d   1       3.013  -4.495   4.558  0.00  0.00     0.002 A 
ENDROOT
BRANCH   1   7
ATOM      7  C2  UNL d   1       5.263  -3.389   4.242  0.00  0.00     0.056 C 
BRANCH   7   8
ATOM      8  C1  UNL d   1       5.994  -3.430   2.896  0.00  0.00     0.007 C 
ATOM      9  C   UNL d   1       5.999  -4.813   2.258  0.00  0.00     0.009 C 
ENDBRANCH   7   8
ENDBRANCH   1   7
TORSDOF 2
ENDMDL
