MODEL 1
REMARK minimizedAffinity 5.77078009
REMARK minimizedRMSD -1
REMARK  2 active torsions:
REMARK  status: ('A' for Active; 'I' for Inactive)
REMARK    1  A    between atoms: C1_2  and  C2_3 
REMARK    2  A    between atoms: C2_3  and  C3_4 
ROOT
ATOM      1  C3  UNL d   1      -4.140   2.179  -2.101  0.00  0.00    -0.075 A 
ATOM      2  C4  UNL d   1      -3.788   1.819  -3.410  0.00  0.00     0.002 A 
ATOM      3  C5  UNL d   1      -4.528   2.287  -4.497  0.00  0.00     0.002 A 
ATOM      4  C6  UNL d   1      -5.631   3.111  -4.288  0.00  0.00    -0.004 A 
ATOM      5  C7  UNL d   1      -6.000   3.462  -2.991  0.00  0.00     0.002 A 
ATOM      6  C8  UNL d   1      -5.259   2.998  -1.903  0.00  0.00     0.002 A 
ENDROOT
BRANCH   1   7
ATOM      7  C2  UNL d   1      -3.326   1.699  -0.923  0.00  0.00     0.056 C 
BRANCH   7   8
ATOM      8  C1  UNL d   1      -2.934   2.809   0.058  0.00  0.00     0.007 C 
ATOM      9  C   UNL d   1      -3.704   2.750   1.370  0.00  0.00     0.009 C 
ENDBRANCH   7   8
ENDBRANCH   1   7
TORSDOF 2
ENDMDL
