MODEL 1
REMARK minimizedAffinity -4.94279814
REMARK minimizedRMSD -1
REMARK  2 active torsions:
REMARK  status: ('A' for Active; 'I' for Inactive)
REMARK    1  A    between atoms: C2'_3  and  C1'_4 
REMARK    2  A    between atoms: C1'_4  and  C1_5 
ROOT
ATOM      1  C1  I4B d   1      -0.006   0.059   0.180  0.00  0.00    -0.075 A 
ATOM      2  C2  I4B d   1      -0.310   0.188  -1.152  0.00  0.00     0.003 A 
ATOM      3  C3  I4B d   1      -1.627  -0.060  -1.610  0.00  0.00     0.002 A 
ATOM      4  C4  I4B d   1      -2.590  -0.480  -0.715  0.00  0.00    -0.004 A 
ATOM      5  C5  I4B d   1      -2.286  -0.588   0.639  0.00  0.00     0.002 A 
ATOM      6  C6  I4B d   1      -0.989  -0.304   1.092  0.00  0.00     0.003 A 
ENDROOT
BRANCH   1   7
ATOM      7  C1' I4B d   1       1.402   0.297   0.624  0.00  0.00     0.060 C 
BRANCH   7   8
ATOM      8  C2' I4B d   1       1.510   1.736   1.086  0.00  0.00    -0.013 C 
ATOM      9  C4' I4B d   1       1.742   1.816   2.572  0.00  0.00     0.013 C 
ATOM     10  C3' I4B d   1       2.630   2.383   0.327  0.00  0.00     0.013 C 
ENDBRANCH   7   8
ENDBRANCH   1   7
TORSDOF 2
ENDMDL
