MODEL 1
REMARK minimizedAffinity -2.79043698
REMARK minimizedRMSD -1
REMARK  2 active torsions:
REMARK  status: ('A' for Active; 'I' for Inactive)
REMARK    1  A    between atoms: C2'_3  and  C1'_4 
REMARK    2  A    between atoms: C1'_4  and  C1_5 
ROOT
ATOM      1  C1  I4B d   1       0.097   0.278   0.003  0.00  0.00    -0.075 A 
ATOM      2  C2  I4B d   1      -0.562  -0.258   1.081  0.00  0.00     0.003 A 
ATOM      3  C3  I4B d   1      -1.885  -0.743   0.938  0.00  0.00     0.002 A 
ATOM      4  C4  I4B d   1      -2.523  -0.627  -0.280  0.00  0.00    -0.004 A 
ATOM      5  C5  I4B d   1      -1.845  -0.105  -1.378  0.00  0.00     0.002 A 
ATOM      6  C6  I4B d   1      -0.522   0.339  -1.239  0.00  0.00     0.003 A 
ENDROOT
BRANCH   1   7
ATOM      7  C1' I4B d   1       1.482   0.811   0.197  0.00  0.00     0.060 C 
BRANCH   7   8
ATOM      8  C2' I4B d   1       1.368   2.263   0.612  0.00  0.00    -0.013 C 
ATOM      9  C4' I4B d   1       1.521   2.418   2.103  0.00  0.00     0.013 C 
ATOM     10  C3' I4B d   1       2.421   3.039  -0.123  0.00  0.00     0.013 C 
ENDBRANCH   7   8
ENDBRANCH   1   7
TORSDOF 2
ENDMDL
