MODEL 1
REMARK minimizedAffinity -4.44501877
REMARK minimizedRMSD -1
REMARK  2 active torsions:
REMARK  status: ('A' for Active; 'I' for Inactive)
REMARK    1  A    between atoms: C2'_3  and  C1'_4 
REMARK    2  A    between atoms: C1'_4  and  C1_5 
ROOT
ATOM      1  C1  I4B d   1       0.463   0.095  -0.122  0.00  0.00    -0.075 A 
ATOM      2  C2  I4B d   1       0.169   0.453  -1.413  0.00  0.00     0.003 A 
ATOM      3  C3  I4B d   1      -1.134   0.251  -1.930  0.00  0.00     0.002 A 
ATOM      4  C4  I4B d   1      -2.091  -0.355  -1.142  0.00  0.00    -0.004 A 
ATOM      5  C5  I4B d   1      -1.797  -0.697   0.175  0.00  0.00     0.002 A 
ATOM      6  C6  I4B d   1      -0.516  -0.460   0.693  0.00  0.00     0.003 A 
ENDROOT
BRANCH   1   7
ATOM      7  C1' I4B d   1       1.858   0.292   0.381  0.00  0.00     0.060 C 
BRANCH   7   8
ATOM      8  C2' I4B d   1       2.036   1.762   0.701  0.00  0.00    -0.013 C 
ATOM      9  C4' I4B d   1       2.317   1.971   2.165  0.00  0.00     0.013 C 
ATOM     10  C3' I4B d   1       3.156   2.288  -0.146  0.00  0.00     0.013 C 
ENDBRANCH   7   8
ENDBRANCH   1   7
TORSDOF 2
ENDMDL
