MODEL 1
REMARK minimizedAffinity -6.01116943
REMARK minimizedRMSD -1
REMARK  2 active torsions:
REMARK  status: ('A' for Active; 'I' for Inactive)
REMARK    1  A    between atoms: C2'_3  and  C1'_4 
REMARK    2  A    between atoms: C1'_4  and  C1_5 
ROOT
ATOM      1  C1  I4B d   1       0.058   0.098  -0.177  0.00  0.00    -0.075 A 
ATOM      2  C2  I4B d   1      -0.153   0.528  -1.464  0.00  0.00     0.003 A 
ATOM      3  C3  I4B d   1      -1.442   0.441  -2.043  0.00  0.00     0.002 A 
ATOM      4  C4  I4B d   1      -2.474  -0.125  -1.322  0.00  0.00    -0.004 A 
ATOM      5  C5  I4B d   1      -2.264  -0.539  -0.009  0.00  0.00     0.002 A 
ATOM      6  C6  I4B d   1      -0.993  -0.415   0.571  0.00  0.00     0.003 A 
ENDROOT
BRANCH   1   7
ATOM      7  C1' I4B d   1       1.439   0.175   0.391  0.00  0.00     0.060 C 
BRANCH   7   8
ATOM      8  C2' I4B d   1       1.863   1.629   0.393  0.00  0.00    -0.013 C 
ATOM      9  C4' I4B d   1       1.708   2.240   1.761  0.00  0.00     0.013 C 
ATOM     10  C3' I4B d   1       3.288   1.697  -0.071  0.00  0.00     0.013 C 
ENDBRANCH   7   8
ENDBRANCH   1   7
TORSDOF 2
ENDMDL
