MODEL 1
REMARK minimizedAffinity 0.733485043
REMARK minimizedRMSD -1
REMARK  2 active torsions:
REMARK  status: ('A' for Active; 'I' for Inactive)
REMARK    1  A    between atoms: C2'_3  and  C1'_4 
REMARK    2  A    between atoms: C1'_4  and  C1_5 
ROOT
ATOM      1  C1  I4B d   1       1.643   0.453   0.560  0.00  0.00    -0.075 A 
ATOM      2  C2  I4B d   1       0.616   0.284  -0.335  0.00  0.00     0.003 A 
ATOM      3  C3  I4B d   1      -0.480  -0.552  -0.011  0.00  0.00     0.002 A 
ATOM      4  C4  I4B d   1      -0.484  -1.234   1.189  0.00  0.00    -0.004 A 
ATOM      5  C5  I4B d   1       0.547  -1.042   2.104  0.00  0.00     0.002 A 
ATOM      6  C6  I4B d   1       1.612  -0.184   1.793  0.00  0.00     0.003 A 
ENDROOT
BRANCH   1   7
ATOM      7  C1' I4B d   1       2.802   1.317   0.172  0.00  0.00     0.060 C 
BRANCH   7   8
ATOM      8  C2' I4B d   1       2.577   2.693   0.766  0.00  0.00    -0.013 C 
ATOM      9  C4' I4B d   1       2.975   2.732   2.217  0.00  0.00     0.013 C 
ATOM     10  C3' I4B d   1       3.369   3.680  -0.040  0.00  0.00     0.013 C 
ENDBRANCH   7   8
ENDBRANCH   1   7
TORSDOF 2
ENDMDL
