MODEL 1
REMARK minimizedAffinity -5.66080713
REMARK minimizedRMSD -1
REMARK  2 active torsions:
REMARK  status: ('A' for Active; 'I' for Inactive)
REMARK    1  A    between atoms: C2'_3  and  C1'_4 
REMARK    2  A    between atoms: C1'_4  and  C1_5 
ROOT
ATOM      1  C1  I4B d   1      -0.699   0.044  -0.700  0.00  0.00    -0.075 A 
ATOM      2  C2  I4B d   1      -1.185  -0.418  -1.898  0.00  0.00     0.003 A 
ATOM      3  C3  I4B d   1      -2.456  -1.039  -1.960  0.00  0.00     0.002 A 
ATOM      4  C4  I4B d   1      -3.181  -1.220  -0.800  0.00  0.00    -0.004 A 
ATOM      5  C5  I4B d   1      -2.697  -0.731   0.410  0.00  0.00     0.002 A 
ATOM      6  C6  I4B d   1      -1.454  -0.083   0.459  0.00  0.00     0.003 A 
ENDROOT
BRANCH   1   7
ATOM      7  C1' I4B d   1       0.661   0.665  -0.666  0.00  0.00     0.060 C 
BRANCH   7   8
ATOM      8  C2' I4B d   1       1.209   0.510   0.739  0.00  0.00    -0.013 C 
ATOM      9  C4' I4B d   1       1.797  -0.861   0.946  0.00  0.00     0.013 C 
ATOM     10  C3' I4B d   1       2.238   1.579   0.954  0.00  0.00     0.013 C 
ENDBRANCH   7   8
ENDBRANCH   1   7
TORSDOF 2
ENDMDL
