MODEL 1
REMARK minimizedAffinity -1.12933278
REMARK minimizedRMSD -1
REMARK  2 active torsions:
REMARK  status: ('A' for Active; 'I' for Inactive)
REMARK    1  A    between atoms: C2'_3  and  C1'_4 
REMARK    2  A    between atoms: C1'_4  and  C1_5 
ROOT
ATOM      1  C1  I4B d   1       1.325   0.302   0.539  0.00  0.00    -0.075 A 
ATOM      2  C2  I4B d   1       1.331  -0.798   1.359  0.00  0.00     0.003 A 
ATOM      3  C3  I4B d   1       0.127  -1.492   1.630  0.00  0.00     0.002 A 
ATOM      4  C4  I4B d   1      -1.060  -1.025   1.103  0.00  0.00    -0.004 A 
ATOM      5  C5  I4B d   1      -1.061   0.077   0.252  0.00  0.00     0.002 A 
ATOM      6  C6  I4B d   1       0.141   0.738  -0.042  0.00  0.00     0.003 A 
ENDROOT
BRANCH   1   7
ATOM      7  C1' I4B d   1       2.609   1.031   0.301  0.00  0.00     0.060 C 
BRANCH   7   8
ATOM      8  C2' I4B d   1       2.463   2.431   0.863  0.00  0.00    -0.013 C 
ATOM      9  C4' I4B d   1       2.616   2.435   2.361  0.00  0.00     0.013 C 
ATOM     10  C3' I4B d   1       3.494   3.302   0.211  0.00  0.00     0.013 C 
ENDBRANCH   7   8
ENDBRANCH   1   7
TORSDOF 2
ENDMDL
