MODEL 1
REMARK minimizedAffinity -5.85069132
REMARK minimizedRMSD -1
REMARK  2 active torsions:
REMARK  status: ('A' for Active; 'I' for Inactive)
REMARK    1  A    between atoms: C2'_3  and  C1'_4 
REMARK    2  A    between atoms: C1'_4  and  C1_5 
ROOT
ATOM      1  C1  I4B d   1       0.743  -0.055   0.346  0.00  0.00    -0.075 A 
ATOM      2  C2  I4B d   1       0.167  -0.846   1.308  0.00  0.00     0.003 A 
ATOM      3  C3  I4B d   1      -1.213  -1.154   1.246  0.00  0.00     0.002 A 
ATOM      4  C4  I4B d   1      -1.986  -0.611   0.240  0.00  0.00    -0.004 A 
ATOM      5  C5  I4B d   1      -1.396   0.172  -0.748  0.00  0.00     0.002 A 
ATOM      6  C6  I4B d   1      -0.021   0.443  -0.702  0.00  0.00     0.003 A 
ENDROOT
BRANCH   1   7
ATOM      7  C1' I4B d   1       2.197   0.277   0.461  0.00  0.00     0.060 C 
BRANCH   7   8
ATOM      8  C2' I4B d   1       2.314   1.743   0.825  0.00  0.00    -0.013 C 
ATOM      9  C4' I4B d   1       2.723   1.916   2.264  0.00  0.00     0.013 C 
ATOM     10  C3' I4B d   1       3.311   2.372  -0.101  0.00  0.00     0.013 C 
ENDBRANCH   7   8
ENDBRANCH   1   7
TORSDOF 2
ENDMDL
