MODEL 1
REMARK minimizedAffinity -3.19275284
REMARK minimizedRMSD -1
REMARK  2 active torsions:
REMARK  status: ('A' for Active; 'I' for Inactive)
REMARK    1  A    between atoms: C2'_3  and  C1'_4 
REMARK    2  A    between atoms: C1'_4  and  C1_5 
ROOT
ATOM      1  C1  I4B d   1      -1.084  -0.742   0.428  0.00  0.00    -0.075 A 
ATOM      2  C2  I4B d   1      -0.959  -1.703   1.401  0.00  0.00     0.003 A 
ATOM      3  C3  I4B d   1       0.305  -1.973   1.979  0.00  0.00     0.002 A 
ATOM      4  C4  I4B d   1       1.419  -1.299   1.522  0.00  0.00    -0.004 A 
ATOM      5  C5  I4B d   1       1.287  -0.309   0.553  0.00  0.00     0.002 A 
ATOM      6  C6  I4B d   1       0.027  -0.020   0.011  0.00  0.00     0.003 A 
ENDROOT
BRANCH   1   7
ATOM      7  C1' I4B d   1      -2.428  -0.506  -0.184  0.00  0.00     0.060 C 
BRANCH   7   8
ATOM      8  C2' I4B d   1      -2.299  -0.698  -1.681  0.00  0.00    -0.013 C 
ATOM      9  C4' I4B d   1      -1.026  -0.085  -2.202  0.00  0.00     0.013 C 
ATOM     10  C3' I4B d   1      -2.346  -2.170  -1.964  0.00  0.00     0.013 C 
ENDBRANCH   7   8
ENDBRANCH   1   7
TORSDOF 2
ENDMDL
