MODEL 1
REMARK minimizedAffinity -4.60546541
REMARK minimizedRMSD -1
REMARK  2 active torsions:
REMARK  status: ('A' for Active; 'I' for Inactive)
REMARK    1  A    between atoms: C2'_3  and  C1'_4 
REMARK    2  A    between atoms: C1'_4  and  C1_5 
ROOT
ATOM      1  C1  I4B d   1      -0.868   0.367  -0.076  0.00  0.00    -0.075 A 
ATOM      2  C2  I4B d   1      -0.449   0.376  -1.383  0.00  0.00     0.003 A 
ATOM      3  C3  I4B d   1      -1.265  -0.182  -2.397  0.00  0.00     0.002 A 
ATOM      4  C4  I4B d   1      -2.460  -0.780  -2.054  0.00  0.00    -0.004 A 
ATOM      5  C5  I4B d   1      -2.894  -0.768  -0.732  0.00  0.00     0.002 A 
ATOM      6  C6  I4B d   1      -2.099  -0.180   0.262  0.00  0.00     0.003 A 
ENDROOT
BRANCH   1   7
ATOM      7  C1' I4B d   1       0.034   0.936   0.974  0.00  0.00     0.060 C 
BRANCH   7   8
ATOM      8  C2' I4B d   1       1.434   1.006   0.399  0.00  0.00    -0.013 C 
ATOM      9  C4' I4B d   1       2.241   2.092   1.059  0.00  0.00     0.013 C 
ATOM     10  C3' I4B d   1       2.077  -0.336   0.584  0.00  0.00     0.013 C 
ENDBRANCH   7   8
ENDBRANCH   1   7
TORSDOF 2
ENDMDL
