MODEL 1
REMARK minimizedAffinity -3.99946284
REMARK minimizedRMSD -1
REMARK  2 active torsions:
REMARK  status: ('A' for Active; 'I' for Inactive)
REMARK    1  A    between atoms: C2'_3  and  C1'_4 
REMARK    2  A    between atoms: C1'_4  and  C1_5 
ROOT
ATOM      1  C1  I4B d   1       0.758   0.774   0.385  0.00  0.00    -0.075 A 
ATOM      2  C2  I4B d   1       0.616   1.258   1.661  0.00  0.00     0.003 A 
ATOM      3  C3  I4B d   1       1.489   2.264   2.143  0.00  0.00     0.002 A 
ATOM      4  C4  I4B d   1       2.514   2.718   1.338  0.00  0.00    -0.004 A 
ATOM      5  C5  I4B d   1       2.642   2.242   0.036  0.00  0.00     0.002 A 
ATOM      6  C6  I4B d   1       1.751   1.273  -0.449  0.00  0.00     0.003 A 
ENDROOT
BRANCH   1   7
ATOM      7  C1' I4B d   1      -0.160  -0.312  -0.081  0.00  0.00     0.060 C 
BRANCH   7   8
ATOM      8  C2' I4B d   1      -0.886   0.188  -1.313  0.00  0.00    -0.013 C 
ATOM      9  C4' I4B d   1      -0.333  -0.442  -2.564  0.00  0.00     0.013 C 
ATOM     10  C3' I4B d   1      -2.344  -0.124  -1.149  0.00  0.00     0.013 C 
ENDBRANCH   7   8
ENDBRANCH   1   7
TORSDOF 2
ENDMDL
