MODEL 1
REMARK minimizedAffinity -1.35207212
REMARK minimizedRMSD -1
REMARK  0 active torsions:
REMARK  status: ('A' for Active; 'I' for Inactive)
ROOT
ATOM      1  C1  DEN d   1       2.125   0.107  -0.092  0.00  0.00     0.130 A 
ATOM      2  C2  DEN d   1       3.097   0.320  -1.161  0.00  0.00    -0.031 A 
ATOM      3  C3  DEN d   1       3.875  -0.925  -1.325  0.00  0.00     0.027 A 
ATOM      4  C4  DEN d   1       3.666  -3.150  -0.037  0.00  0.00     0.027 A 
ATOM      5  C5  DEN d   1       2.992  -3.805   0.969  0.00  0.00    -0.003 A 
ATOM      6  C6  DEN d   1       2.013  -3.197   1.709  0.00  0.00     0.001 A 
ATOM      7  C7  DEN d   1       1.649  -1.908   1.423  0.00  0.00     0.017 A 
ATOM      8  C8  DEN d   1       2.329  -1.238   0.415  0.00  0.00    -0.094 A 
ATOM      9  C9  DEN d   1       3.308  -1.874  -0.330  0.00  0.00    -0.072 A 
ENDROOT
TORSDOF 0
ENDMDL
