MODEL 1
REMARK minimizedAffinity 4.21420622
REMARK minimizedRMSD -1
REMARK  0 active torsions:
REMARK  status: ('A' for Active; 'I' for Inactive)
ROOT
ATOM      1  C1  DEN d   1      -3.392  -1.095  -2.475  0.00  0.00     0.130 A 
ATOM      2  C2  DEN d   1      -3.002  -0.114  -1.466  0.00  0.00    -0.031 A 
ATOM      3  C3  DEN d   1      -2.994   1.218  -2.103  0.00  0.00     0.027 A 
ATOM      4  C4  DEN d   1      -3.550   1.855  -4.540  0.00  0.00     0.027 A 
ATOM      5  C5  DEN d   1      -3.923   1.363  -5.771  0.00  0.00    -0.003 A 
ATOM      6  C6  DEN d   1      -4.110   0.026  -5.997  0.00  0.00     0.001 A 
ATOM      7  C7  DEN d   1      -3.969  -0.864  -4.965  0.00  0.00     0.017 A 
ATOM      8  C8  DEN d   1      -3.586  -0.376  -3.722  0.00  0.00    -0.094 A 
ATOM      9  C9  DEN d   1      -3.413   0.981  -3.511  0.00  0.00    -0.072 A 
ENDROOT
TORSDOF 0
ENDMDL
