MODEL 1
REMARK minimizedAffinity 8.37159252
REMARK minimizedRMSD -1
REMARK  0 active torsions:
REMARK  status: ('A' for Active; 'I' for Inactive)
ROOT
ATOM      1  C1  DEN d   1       4.305  -6.000  -0.612  0.00  0.00     0.130 A 
ATOM      2  C2  DEN d   1       5.729  -5.999  -0.289  0.00  0.00    -0.031 A 
ATOM      3  C3  DEN d   1       5.961  -4.979   0.753  0.00  0.00     0.027 A 
ATOM      4  C4  DEN d   1       4.261  -3.412   1.895  0.00  0.00     0.027 A 
ATOM      5  C5  DEN d   1       2.936  -3.036   1.944  0.00  0.00    -0.003 A 
ATOM      6  C6  DEN d   1       1.989  -3.594   1.126  0.00  0.00     0.001 A 
ATOM      7  C7  DEN d   1       2.345  -4.590   0.256  0.00  0.00     0.017 A 
ATOM      8  C8  DEN d   1       3.680  -4.969   0.196  0.00  0.00    -0.094 A 
ATOM      9  C9  DEN d   1       4.620  -4.402   1.040  0.00  0.00    -0.072 A 
ENDROOT
TORSDOF 0
ENDMDL
