MODEL 1
REMARK minimizedAffinity -4.86608171
REMARK minimizedRMSD -1
REMARK  0 active torsions:
REMARK  status: ('A' for Active; 'I' for Inactive)
ROOT
ATOM      1  C   UNL d   1      -1.013   1.954   0.941  0.00  0.00     0.020 A 
ATOM      2  C1  UNL d   1      -1.263   1.688  -0.405  0.00  0.00     0.020 A 
ATOM      3  C2  UNL d   1      -0.685   0.573  -1.015  0.00  0.00     0.034 A 
ATOM      4  C3  UNL d   1       0.146  -0.280  -0.280  0.00  0.00     0.017 A 
ATOM      5  C4  UNL d   1       0.397  -0.012   1.070  0.00  0.00     0.017 A 
ATOM      6  C5  UNL d   1      -0.184   1.106   1.676  0.00  0.00     0.034 A 
ATOM      7 Cl   UNL d   1       1.412  -1.019   2.042  0.00  0.00    -0.070 Cl
ATOM      8 Cl1  UNL d   1       0.827  -1.641  -1.099  0.00  0.00    -0.070 Cl
ENDROOT
TORSDOF 0
ENDMDL
