MODEL 1
REMARK minimizedAffinity -3.01612425
REMARK minimizedRMSD -1
REMARK  0 active torsions:
REMARK  status: ('A' for Active; 'I' for Inactive)
ROOT
ATOM      1  C   UNL d   1      -0.250   0.854   2.492  0.00  0.00     0.020 A 
ATOM      2  C1  UNL d   1      -0.797   2.078   2.107  0.00  0.00     0.020 A 
ATOM      3  C2  UNL d   1      -1.006   2.355   0.755  0.00  0.00     0.034 A 
ATOM      4  C3  UNL d   1      -0.668   1.407  -0.218  0.00  0.00     0.017 A 
ATOM      5  C4  UNL d   1      -0.119   0.179   0.169  0.00  0.00     0.017 A 
ATOM      6  C5  UNL d   1       0.088  -0.093   1.525  0.00  0.00     0.034 A 
ATOM      7 Cl   UNL d   1       0.323  -1.040  -0.974  0.00  0.00    -0.070 Cl
ATOM      8 Cl1  UNL d   1      -0.954   1.816  -1.872  0.00  0.00    -0.070 Cl
ENDROOT
TORSDOF 0
ENDMDL
