MODEL 1
REMARK minimizedAffinity -2.61835051
REMARK minimizedRMSD -1
REMARK  0 active torsions:
REMARK  status: ('A' for Active; 'I' for Inactive)
ROOT
ATOM      1  C   UNL d   1       0.484  -1.072  -0.791  0.00  0.00     0.020 A 
ATOM      2  C1  UNL d   1       0.473  -1.105   0.603  0.00  0.00     0.020 A 
ATOM      3  C2  UNL d   1      -0.058  -0.033   1.323  0.00  0.00     0.034 A 
ATOM      4  C3  UNL d   1      -0.580   1.078   0.649  0.00  0.00     0.017 A 
ATOM      5  C4  UNL d   1      -0.568   1.110  -0.750  0.00  0.00     0.017 A 
ATOM      6  C5  UNL d   1      -0.035   0.033  -1.466  0.00  0.00     0.034 A 
ATOM      7 Cl   UNL d   1      -1.194   2.445  -1.652  0.00  0.00    -0.070 Cl
ATOM      8 Cl1  UNL d   1      -1.220   2.368   1.603  0.00  0.00    -0.070 Cl
ENDROOT
TORSDOF 0
ENDMDL
