MODEL 1
REMARK minimizedAffinity -5.56734896
REMARK minimizedRMSD -1
REMARK  0 active torsions:
REMARK  status: ('A' for Active; 'I' for Inactive)
ROOT
ATOM      1  C   UNL d   1      -1.156   3.361  -0.083  0.00  0.00     0.020 A 
ATOM      2  C1  UNL d   1      -1.201   3.148   1.294  0.00  0.00     0.020 A 
ATOM      3  C2  UNL d   1      -0.670   1.975   1.837  0.00  0.00     0.034 A 
ATOM      4  C3  UNL d   1      -0.093   1.012   1.002  0.00  0.00     0.017 A 
ATOM      5  C4  UNL d   1      -0.049   1.227  -0.380  0.00  0.00     0.017 A 
ATOM      6  C5  UNL d   1      -0.582   2.403  -0.918  0.00  0.00     0.034 A 
ATOM      7 Cl   UNL d   1       0.647   0.084  -1.474  0.00  0.00    -0.070 Cl
ATOM      8 Cl1  UNL d   1       0.543  -0.414   1.741  0.00  0.00    -0.070 Cl
ENDROOT
TORSDOF 0
ENDMDL
