MODEL 1
REMARK minimizedAffinity -2.46660948
REMARK minimizedRMSD -1
REMARK  0 active torsions:
REMARK  status: ('A' for Active; 'I' for Inactive)
ROOT
ATOM      1  C   UNL d   1      -1.084   2.315   1.770  0.00  0.00     0.020 A 
ATOM      2  C1  UNL d   1      -1.710   2.055   0.552  0.00  0.00     0.020 A 
ATOM      3  C2  UNL d   1      -1.350   0.930  -0.192  0.00  0.00     0.034 A 
ATOM      4  C3  UNL d   1      -0.361   0.060   0.281  0.00  0.00     0.017 A 
ATOM      5  C4  UNL d   1       0.267   0.322   1.505  0.00  0.00     0.017 A 
ATOM      6  C5  UNL d   1      -0.098   1.450   2.246  0.00  0.00     0.034 A 
ATOM      7 Cl   UNL d   1       1.496  -0.705   2.155  0.00  0.00    -0.070 Cl
ATOM      8 Cl1  UNL d   1       0.035  -1.313  -0.691  0.00  0.00    -0.070 Cl
ENDROOT
TORSDOF 0
ENDMDL
