MODEL 1
REMARK minimizedAffinity 0.642047644
REMARK minimizedRMSD -1
REMARK  0 active torsions:
REMARK  status: ('A' for Active; 'I' for Inactive)
ROOT
ATOM      1  C   UNL d   1       0.849  -0.477  -0.016  0.00  0.00     0.020 A 
ATOM      2  C1  UNL d   1       1.031  -0.104   1.315  0.00  0.00     0.020 A 
ATOM      3  C2  UNL d   1       0.104   0.734   1.938  0.00  0.00     0.034 A 
ATOM      4  C3  UNL d   1      -1.009   1.201   1.231  0.00  0.00     0.017 A 
ATOM      5  C4  UNL d   1      -1.191   0.826  -0.105  0.00  0.00     0.017 A 
ATOM      6  C5  UNL d   1      -0.260  -0.013  -0.725  0.00  0.00     0.034 A 
ATOM      7 Cl   UNL d   1      -2.541   1.362  -1.043  0.00  0.00    -0.070 Cl
ATOM      8 Cl1  UNL d   1      -2.116   2.233   2.065  0.00  0.00    -0.070 Cl
ENDROOT
TORSDOF 0
ENDMDL
