MODEL 1
REMARK minimizedAffinity -4.07475758
REMARK minimizedRMSD -1
REMARK  0 active torsions:
REMARK  status: ('A' for Active; 'I' for Inactive)
ROOT
ATOM      1  C   UNL d   1       1.122  -0.404  -0.945  0.00  0.00     0.020 A 
ATOM      2  C1  UNL d   1       0.925  -0.525   0.430  0.00  0.00     0.020 A 
ATOM      3  C2  UNL d   1       0.099   0.381   1.100  0.00  0.00     0.034 A 
ATOM      4  C3  UNL d   1      -0.533   1.411   0.394  0.00  0.00     0.017 A 
ATOM      5  C4  UNL d   1      -0.335   1.531  -0.986  0.00  0.00     0.017 A 
ATOM      6  C5  UNL d   1       0.493   0.622  -1.651  0.00  0.00     0.034 A 
ATOM      7 Cl   UNL d   1      -1.082   2.776  -1.925  0.00  0.00    -0.070 Cl
ATOM      8 Cl1  UNL d   1      -1.542   2.494   1.286  0.00  0.00    -0.070 Cl
ENDROOT
TORSDOF 0
ENDMDL
