MODEL 1
REMARK minimizedAffinity -3.02262998
REMARK minimizedRMSD -1
REMARK  0 active torsions:
REMARK  status: ('A' for Active; 'I' for Inactive)
ROOT
ATOM      1  C   UNL d   1       1.473   0.421   0.170  0.00  0.00     0.078 C 
ATOM      2  C1  UNL d   1       0.160  -0.181  -0.237  0.00  0.00    -0.077 A 
ATOM      3  C2  UNL d   1      -0.378   0.055  -1.508  0.00  0.00    -0.001 A 
ATOM      4  C3  UNL d   1      -1.605  -0.504  -1.869  0.00  0.00     0.003 A 
ATOM      5  C4  UNL d   1      -2.305  -1.300  -0.965  0.00  0.00    -0.005 A 
ATOM      6  C5  UNL d   1      -1.778  -1.538   0.303  0.00  0.00     0.003 A 
ATOM      7  C6  UNL d   1      -0.551  -0.980   0.666  0.00  0.00    -0.001 A 
ENDROOT
TORSDOF 0
ENDMDL
