MODEL 1
REMARK minimizedAffinity -1.51065111
REMARK minimizedRMSD -1
REMARK  0 active torsions:
REMARK  status: ('A' for Active; 'I' for Inactive)
ROOT
ATOM      1  C   UNL d   1       2.393   1.736   0.670  0.00  0.00     0.078 C 
ATOM      2  C1  UNL d   1       1.175   1.084   0.087  0.00  0.00    -0.077 A 
ATOM      3  C2  UNL d   1       0.768  -0.189   0.504  0.00  0.00    -0.001 A 
ATOM      4  C3  UNL d   1      -0.362  -0.787  -0.055  0.00  0.00     0.003 A 
ATOM      5  C4  UNL d   1      -1.095  -0.120  -1.035  0.00  0.00    -0.005 A 
ATOM      6  C5  UNL d   1      -0.696   1.146  -1.458  0.00  0.00     0.003 A 
ATOM      7  C6  UNL d   1       0.434   1.746  -0.900  0.00  0.00    -0.001 A 
ENDROOT
TORSDOF 0
ENDMDL
