MODEL 1
REMARK minimizedAffinity -4.11914444
REMARK minimizedRMSD -1
REMARK  0 active torsions:
REMARK  status: ('A' for Active; 'I' for Inactive)
ROOT
ATOM      1  C   UNL d   1       2.330   2.319   1.620  0.00  0.00     0.078 C 
ATOM      2  C1  UNL d   1       1.339   1.605   0.751  0.00  0.00    -0.077 A 
ATOM      3  C2  UNL d   1       1.672   0.403   0.114  0.00  0.00    -0.001 A 
ATOM      4  C3  UNL d   1       0.743  -0.245  -0.701  0.00  0.00     0.003 A 
ATOM      5  C4  UNL d   1      -0.526   0.300  -0.887  0.00  0.00    -0.005 A 
ATOM      6  C5  UNL d   1      -0.866   1.497  -0.259  0.00  0.00     0.003 A 
ATOM      7  C6  UNL d   1       0.062   2.147   0.556  0.00  0.00    -0.001 A 
ENDROOT
TORSDOF 0
ENDMDL
