MODEL 1
REMARK minimizedAffinity -4.49930239
REMARK minimizedRMSD -1
REMARK  0 active torsions:
REMARK  status: ('A' for Active; 'I' for Inactive)
ROOT
ATOM      1  C   UNL d   1      -1.787  -3.362   0.435  0.00  0.00     0.078 C 
ATOM      2  C1  UNL d   1      -1.216  -2.059  -0.040  0.00  0.00    -0.077 A 
ATOM      3  C2  UNL d   1      -1.882  -1.287  -1.000  0.00  0.00    -0.001 A 
ATOM      4  C3  UNL d   1      -1.334  -0.081  -1.441  0.00  0.00     0.003 A 
ATOM      5  C4  UNL d   1      -0.117   0.363  -0.928  0.00  0.00    -0.005 A 
ATOM      6  C5  UNL d   1       0.554  -0.400   0.026  0.00  0.00     0.003 A 
ATOM      7  C6  UNL d   1       0.008  -1.606   0.467  0.00  0.00    -0.001 A 
ENDROOT
TORSDOF 0
ENDMDL
