MODEL 1
REMARK minimizedAffinity -2.9910953
REMARK minimizedRMSD -1
REMARK  0 active torsions:
REMARK  status: ('A' for Active; 'I' for Inactive)
ROOT
ATOM      1  C   UNL d   1      -1.883  -2.919   0.870  0.00  0.00     0.078 C 
ATOM      2  C1  UNL d   1      -1.592  -1.649   0.127  0.00  0.00    -0.077 A 
ATOM      3  C2  UNL d   1      -0.411  -0.934   0.358  0.00  0.00    -0.001 A 
ATOM      4  C3  UNL d   1      -0.157   0.252  -0.334  0.00  0.00     0.003 A 
ATOM      5  C4  UNL d   1      -1.081   0.733  -1.260  0.00  0.00    -0.005 A 
ATOM      6  C5  UNL d   1      -2.260   0.029  -1.494  0.00  0.00     0.003 A 
ATOM      7  C6  UNL d   1      -2.515  -1.157  -0.803  0.00  0.00    -0.001 A 
ENDROOT
TORSDOF 0
ENDMDL
