MODEL 1
REMARK minimizedAffinity -2.54612637
REMARK minimizedRMSD -1
REMARK  0 active torsions:
REMARK  status: ('A' for Active; 'I' for Inactive)
ROOT
ATOM      1  C   UNL d   1      -0.619  -0.001  -0.656  0.00  0.00     0.078 C 
ATOM      2  C1  UNL d   1       0.537   0.625   0.065  0.00  0.00    -0.077 A 
ATOM      3  C2  UNL d   1       0.339   1.669   0.976  0.00  0.00    -0.001 A 
ATOM      4  C3  UNL d   1       1.425   2.248   1.634  0.00  0.00     0.003 A 
ATOM      5  C4  UNL d   1       2.718   1.791   1.385  0.00  0.00    -0.005 A 
ATOM      6  C5  UNL d   1       2.926   0.754   0.478  0.00  0.00     0.003 A 
ATOM      7  C6  UNL d   1       1.840   0.173  -0.180  0.00  0.00    -0.001 A 
ENDROOT
TORSDOF 0
ENDMDL
