MODEL 1
REMARK minimizedAffinity -3.78817439
REMARK minimizedRMSD -1
REMARK  0 active torsions:
REMARK  status: ('A' for Active; 'I' for Inactive)
ROOT
ATOM      1  C   UNL d   1      -1.464  -0.115  -1.433  0.00  0.00     0.078 C 
ATOM      2  C1  UNL d   1      -0.313   0.262  -0.549  0.00  0.00    -0.077 A 
ATOM      3  C2  UNL d   1      -0.330   1.450   0.191  0.00  0.00    -0.001 A 
ATOM      4  C3  UNL d   1       0.752   1.792   1.003  0.00  0.00     0.003 A 
ATOM      5  C4  UNL d   1       1.862   0.952   1.080  0.00  0.00    -0.005 A 
ATOM      6  C5  UNL d   1       1.889  -0.231   0.345  0.00  0.00     0.003 A 
ATOM      7  C6  UNL d   1       0.807  -0.575  -0.467  0.00  0.00    -0.001 A 
ENDROOT
TORSDOF 0
ENDMDL
