MODEL 1
REMARK minimizedAffinity -2.76023793
REMARK minimizedRMSD -1
REMARK  0 active torsions:
REMARK  status: ('A' for Active; 'I' for Inactive)
ROOT
ATOM      1  C   UNL d   1      -1.882  -0.227  -1.606  0.00  0.00     0.078 C 
ATOM      2  C1  UNL d   1      -0.686   0.156  -0.786  0.00  0.00    -0.077 A 
ATOM      3  C2  UNL d   1       0.543  -0.492  -0.958  0.00  0.00    -0.001 A 
ATOM      4  C3  UNL d   1       1.645  -0.131  -0.182  0.00  0.00     0.003 A 
ATOM      5  C4  UNL d   1       1.529   0.876   0.773  0.00  0.00    -0.005 A 
ATOM      6  C5  UNL d   1       0.309   1.525   0.953  0.00  0.00     0.003 A 
ATOM      7  C6  UNL d   1      -0.794   1.166   0.178  0.00  0.00    -0.001 A 
ENDROOT
TORSDOF 0
ENDMDL
