MODEL 1
REMARK minimizedAffinity -1.92728281
REMARK minimizedRMSD -1
REMARK  0 active torsions:
REMARK  status: ('A' for Active; 'I' for Inactive)
ROOT
ATOM      1  C   UNL d   1       1.613   0.858   0.141  0.00  0.00     0.078 C 
ATOM      2  C1  UNL d   1       0.251   0.413  -0.303  0.00  0.00    -0.077 A 
ATOM      3  C2  UNL d   1      -0.569   1.254  -1.065  0.00  0.00    -0.001 A 
ATOM      4  C3  UNL d   1      -1.838   0.831  -1.463  0.00  0.00     0.003 A 
ATOM      5  C4  UNL d   1      -2.299  -0.434  -1.103  0.00  0.00    -0.005 A 
ATOM      6  C5  UNL d   1      -1.490  -1.277  -0.343  0.00  0.00     0.003 A 
ATOM      7  C6  UNL d   1      -0.221  -0.855   0.056  0.00  0.00    -0.001 A 
ENDROOT
TORSDOF 0
ENDMDL
