MODEL 1
REMARK minimizedAffinity -1.50125885
REMARK minimizedRMSD -1
REMARK  0 active torsions:
REMARK  status: ('A' for Active; 'I' for Inactive)
ROOT
ATOM      1  C   UNL d   1      -1.896  -3.203   0.799  0.00  0.00     0.078 C 
ATOM      2  C1  UNL d   1      -1.541  -1.877   0.195  0.00  0.00    -0.077 A 
ATOM      3  C2  UNL d   1      -2.234  -1.382  -0.917  0.00  0.00    -0.001 A 
ATOM      4  C3  UNL d   1      -1.886  -0.151  -1.475  0.00  0.00     0.003 A 
ATOM      5  C4  UNL d   1      -0.843   0.595  -0.930  0.00  0.00    -0.005 A 
ATOM      6  C5  UNL d   1      -0.146   0.110   0.175  0.00  0.00     0.003 A 
ATOM      7  C6  UNL d   1      -0.492  -1.121   0.735  0.00  0.00    -0.001 A 
ENDROOT
TORSDOF 0
ENDMDL
