MODEL 1
REMARK minimizedAffinity -3.84805655
REMARK minimizedRMSD -1
REMARK  0 active torsions:
REMARK  status: ('A' for Active; 'I' for Inactive)
ROOT
ATOM      1  C   UNL d   1       2.232   2.004   1.207  0.00  0.00     0.078 C 
ATOM      2  C1  UNL d   1       1.224   1.312   0.339  0.00  0.00    -0.077 A 
ATOM      3  C2  UNL d   1       1.607   0.288  -0.535  0.00  0.00    -0.001 A 
ATOM      4  C3  UNL d   1       0.660  -0.341  -1.345  0.00  0.00     0.003 A 
ATOM      5  C4  UNL d   1      -0.677   0.049  -1.290  0.00  0.00    -0.005 A 
ATOM      6  C5  UNL d   1      -1.067   1.069  -0.424  0.00  0.00     0.003 A 
ATOM      7  C6  UNL d   1      -0.121   1.699   0.386  0.00  0.00    -0.001 A 
ENDROOT
TORSDOF 0
ENDMDL
