MODEL 1
REMARK minimizedAffinity -4.61124086
REMARK minimizedRMSD -1
REMARK  0 active torsions:
REMARK  status: ('A' for Active; 'I' for Inactive)
ROOT
ATOM      1  C   UNL d   1       2.335   1.897   1.378  0.00  0.00     0.078 C 
ATOM      2  C1  UNL d   1       1.153   1.461   0.565  0.00  0.00    -0.077 A 
ATOM      3  C2  UNL d   1       1.043   0.145   0.100  0.00  0.00    -0.001 A 
ATOM      4  C3  UNL d   1      -0.058  -0.245  -0.664  0.00  0.00     0.003 A 
ATOM      5  C4  UNL d   1      -1.058   0.676  -0.971  0.00  0.00    -0.005 A 
ATOM      6  C5  UNL d   1      -0.957   1.989  -0.514  0.00  0.00     0.003 A 
ATOM      7  C6  UNL d   1       0.144   2.380   0.250  0.00  0.00    -0.001 A 
ENDROOT
TORSDOF 0
ENDMDL
