MODEL 1
REMARK minimizedAffinity -1.23790634
REMARK minimizedRMSD -1
REMARK  0 active torsions:
REMARK  status: ('A' for Active; 'I' for Inactive)
ROOT
ATOM      1  C   UNL d   1      -0.238   0.721  -0.800  0.00  0.00     0.078 C 
ATOM      2  C1  UNL d   1      -0.975  -0.541  -0.463  0.00  0.00    -0.077 A 
ATOM      3  C2  UNL d   1      -2.018  -1.005  -1.273  0.00  0.00    -0.001 A 
ATOM      4  C3  UNL d   1      -2.702  -2.177  -0.941  0.00  0.00     0.003 A 
ATOM      5  C4  UNL d   1      -2.350  -2.892   0.201  0.00  0.00    -0.005 A 
ATOM      6  C5  UNL d   1      -1.314  -2.437   1.015  0.00  0.00     0.003 A 
ATOM      7  C6  UNL d   1      -0.629  -1.266   0.685  0.00  0.00    -0.001 A 
ENDROOT
TORSDOF 0
ENDMDL
