MODEL 1
REMARK minimizedAffinity 25.2449036
REMARK minimizedRMSD -1
REMARK  0 active torsions:
REMARK  status: ('A' for Active; 'I' for Inactive)
ROOT
ATOM      1  O1  BZF d   1       2.583   1.810  -1.817  0.00  0.00    -0.204 OA
ATOM      2  C2  BZF d   1       2.936   0.931  -0.812  0.00  0.00     0.174 A 
ATOM      3  C3  BZF d   1       2.638   1.444   0.399  0.00  0.00    -0.012 A 
ATOM      4  C3A BZF d   1       1.978   2.684   0.130  0.00  0.00    -0.107 A 
ATOM      5  C4  BZF d   1       1.430   3.648   0.927  0.00  0.00     0.055 A 
ATOM      6  C5  BZF d   1       0.928   4.773   0.353  0.00  0.00    -0.016 A 
ATOM      7  C6  BZF d   1       0.963   4.969  -1.012  0.00  0.00     0.022 A 
ATOM      8  C7  BZF d   1       1.493   4.039  -1.843  0.00  0.00     0.029 A 
ATOM      9  C7A BZF d   1       1.970   2.887  -1.269  0.00  0.00     0.058 A 
ENDROOT
TORSDOF 0
ENDMDL
