MODEL 1
REMARK minimizedAffinity 15.0286198
REMARK minimizedRMSD -1
REMARK  0 active torsions:
REMARK  status: ('A' for Active; 'I' for Inactive)
ROOT
ATOM      1  O1  BZF d   1       0.221  -3.578  -0.480  0.00  0.00    -0.204 OA
ATOM      2  C2  BZF d   1      -0.649  -3.951  -1.486  0.00  0.00     0.174 A 
ATOM      3  C3  BZF d   1      -0.655  -3.036  -2.477  0.00  0.00    -0.012 A 
ATOM      4  C3A BZF d   1       0.338  -2.074  -2.107  0.00  0.00    -0.107 A 
ATOM      5  C4  BZF d   1       0.807  -0.935  -2.696  0.00  0.00     0.055 A 
ATOM      6  C5  BZF d   1       1.728  -0.183  -2.039  0.00  0.00    -0.016 A 
ATOM      7  C6  BZF d   1       2.198  -0.536  -0.791  0.00  0.00     0.022 A 
ATOM      8  C7  BZF d   1       1.766  -1.660  -0.169  0.00  0.00     0.029 A 
ATOM      9  C7A BZF d   1       0.859  -2.440  -0.844  0.00  0.00     0.058 A 
ENDROOT
TORSDOF 0
ENDMDL
