MODEL 1
REMARK minimizedAffinity 19.5453911
REMARK minimizedRMSD -1
REMARK  0 active torsions:
REMARK  status: ('A' for Active; 'I' for Inactive)
ROOT
ATOM      1  O1  BZF d   1      -4.750   5.665  -5.987  0.00  0.00    -0.204 OA
ATOM      2  C2  BZF d   1      -5.988   5.052  -5.996  0.00  0.00     0.174 A 
ATOM      3  C3  BZF d   1      -5.856   3.709  -5.997  0.00  0.00    -0.012 A 
ATOM      4  C3A BZF d   1      -4.449   3.469  -5.895  0.00  0.00    -0.107 A 
ATOM      5  C4  BZF d   1      -3.692   2.334  -5.833  0.00  0.00     0.055 A 
ATOM      6  C5  BZF d   1      -2.338   2.443  -5.812  0.00  0.00    -0.016 A 
ATOM      7  C6  BZF d   1      -1.708   3.670  -5.856  0.00  0.00     0.022 A 
ATOM      8  C7  BZF d   1      -2.416   4.824  -5.913  0.00  0.00     0.029 A 
ATOM      9  C7A BZF d   1      -3.786   4.718  -5.901  0.00  0.00     0.058 A 
ENDROOT
TORSDOF 0
ENDMDL
