MODEL 1
REMARK minimizedAffinity 17.5352058
REMARK minimizedRMSD -1
REMARK  0 active torsions:
REMARK  status: ('A' for Active; 'I' for Inactive)
ROOT
ATOM      1  O1  BZF d   1      -3.739   1.500   2.616  0.00  0.00    -0.204 OA
ATOM      2  C2  BZF d   1      -2.722   0.674   3.055  0.00  0.00     0.174 A 
ATOM      3  C3  BZF d   1      -2.419   0.932   4.343  0.00  0.00    -0.012 A 
ATOM      4  C3A BZF d   1      -3.363   1.922   4.761  0.00  0.00    -0.107 A 
ATOM      5  C4  BZF d   1      -3.582   2.571   5.943  0.00  0.00     0.055 A 
ATOM      6  C5  BZF d   1      -4.538   3.535   5.999  0.00  0.00    -0.016 A 
ATOM      7  C6  BZF d   1      -5.289   3.879   4.894  0.00  0.00     0.022 A 
ATOM      8  C7  BZF d   1      -5.112   3.260   3.702  0.00  0.00     0.029 A 
ATOM      9  C7A BZF d   1      -4.169   2.262   3.650  0.00  0.00     0.058 A 
ENDROOT
TORSDOF 0
ENDMDL
