MODEL 1
REMARK minimizedAffinity 15.4994345
REMARK minimizedRMSD -1
REMARK  0 active torsions:
REMARK  status: ('A' for Active; 'I' for Inactive)
ROOT
ATOM      1  O1  BZF d   1       4.301   0.159  -0.429  0.00  0.00    -0.204 OA
ATOM      2  C2  BZF d   1       3.964   1.414  -0.897  0.00  0.00     0.174 A 
ATOM      3  C3  BZF d   1       2.804   1.372  -1.584  0.00  0.00    -0.012 A 
ATOM      4  C3A BZF d   1       2.344   0.023  -1.464  0.00  0.00    -0.107 A 
ATOM      5  C4  BZF d   1       1.238  -0.636  -1.919  0.00  0.00     0.055 A 
ATOM      6  C5  BZF d   1       1.123  -1.971  -1.690  0.00  0.00    -0.016 A 
ATOM      7  C6  BZF d   1       2.097  -2.678  -1.016  0.00  0.00     0.022 A 
ATOM      8  C7  BZF d   1       3.210  -2.067  -0.541  0.00  0.00     0.029 A 
ATOM      9  C7A BZF d   1       3.312  -0.712  -0.742  0.00  0.00     0.058 A 
ENDROOT
TORSDOF 0
ENDMDL
