MODEL 1
REMARK minimizedAffinity 19.7221603
REMARK minimizedRMSD -1
REMARK  0 active torsions:
REMARK  status: ('A' for Active; 'I' for Inactive)
ROOT
ATOM      1  O1  BZF d   1       0.688  -2.848  -0.721  0.00  0.00    -0.204 OA
ATOM      2  C2  BZF d   1       1.305  -1.645  -1.002  0.00  0.00     0.174 A 
ATOM      3  C3  BZF d   1       0.531  -0.887  -1.806  0.00  0.00    -0.012 A 
ATOM      4  C3A BZF d   1      -0.683  -1.628  -1.967  0.00  0.00    -0.107 A 
ATOM      5  C4  BZF d   1      -1.845  -1.390  -2.643  0.00  0.00     0.055 A 
ATOM      6  C5  BZF d   1      -2.808  -2.348  -2.658  0.00  0.00    -0.016 A 
ATOM      7  C6  BZF d   1      -2.641  -3.557  -2.014  0.00  0.00     0.022 A 
ATOM      8  C7  BZF d   1      -1.507  -3.836  -1.326  0.00  0.00     0.029 A 
ATOM      9  C7A BZF d   1      -0.545  -2.857  -1.281  0.00  0.00     0.058 A 
ENDROOT
TORSDOF 0
ENDMDL
