MODEL 1
REMARK minimizedAffinity 14.4183884
REMARK minimizedRMSD -1
REMARK  0 active torsions:
REMARK  status: ('A' for Active; 'I' for Inactive)
ROOT
ATOM      1  O1  BZF d   1       4.045  -2.657  -0.661  0.00  0.00    -0.204 OA
ATOM      2  C2  BZF d   1       3.327  -3.638  -1.318  0.00  0.00     0.174 A 
ATOM      3  C3  BZF d   1       2.240  -3.113  -1.920  0.00  0.00    -0.012 A 
ATOM      4  C3A BZF d   1       2.332  -1.703  -1.699  0.00  0.00    -0.107 A 
ATOM      5  C4  BZF d   1       1.554  -0.642  -2.067  0.00  0.00     0.055 A 
ATOM      6  C5  BZF d   1       1.881   0.601  -1.627  0.00  0.00    -0.016 A 
ATOM      7  C6  BZF d   1       2.975   0.820  -0.816  0.00  0.00     0.022 A 
ATOM      8  C7  BZF d   1       3.780  -0.200  -0.428  0.00  0.00     0.029 A 
ATOM      9  C7A BZF d   1       3.470  -1.453  -0.898  0.00  0.00     0.058 A 
ENDROOT
TORSDOF 0
ENDMDL
