MODEL 1
REMARK minimizedAffinity 5.13116217
REMARK minimizedRMSD -1
REMARK  0 active torsions:
REMARK  status: ('A' for Active; 'I' for Inactive)
ROOT
ATOM      1  O1  BZF d   1      -5.970   1.390   5.874  0.00  0.00    -0.204 OA
ATOM      2  C2  BZF d   1      -5.335   2.617   5.907  0.00  0.00     0.174 A 
ATOM      3  C3  BZF d   1      -4.323   2.655   5.016  0.00  0.00    -0.012 A 
ATOM      4  C3A BZF d   1      -4.385   1.406   4.322  0.00  0.00    -0.107 A 
ATOM      5  C4  BZF d   1      -3.652   0.857   3.308  0.00  0.00     0.055 A 
ATOM      6  C5  BZF d   1      -3.923  -0.413   2.909  0.00  0.00    -0.016 A 
ATOM      7  C6  BZF d   1      -4.916  -1.164   3.504  0.00  0.00     0.022 A 
ATOM      8  C7  BZF d   1      -5.673  -0.662   4.510  0.00  0.00     0.029 A 
ATOM      9  C7A BZF d   1      -5.423   0.633   4.893  0.00  0.00     0.058 A 
ENDROOT
TORSDOF 0
ENDMDL
