MODEL 1
REMARK minimizedAffinity 17.5833931
REMARK minimizedRMSD -1
REMARK  0 active torsions:
REMARK  status: ('A' for Active; 'I' for Inactive)
ROOT
ATOM      1  O1  BZF d   1      -5.746   0.942   5.029  0.00  0.00    -0.204 OA
ATOM      2  C2  BZF d   1      -5.395   2.136   5.630  0.00  0.00     0.174 A 
ATOM      3  C3  BZF d   1      -4.248   2.615   5.108  0.00  0.00    -0.012 A 
ATOM      4  C3A BZF d   1      -3.906   1.709   4.055  0.00  0.00    -0.107 A 
ATOM      5  C4  BZF d   1      -2.880   1.659   3.155  0.00  0.00     0.055 A 
ATOM      6  C5  BZF d   1      -2.797   0.601   2.306  0.00  0.00    -0.016 A 
ATOM      7  C6  BZF d   1      -3.718  -0.425   2.332  0.00  0.00     0.022 A 
ATOM      8  C7  BZF d   1      -4.756  -0.417   3.204  0.00  0.00     0.029 A 
ATOM      9  C7A BZF d   1      -4.862   0.667   4.041  0.00  0.00     0.058 A 
ENDROOT
TORSDOF 0
ENDMDL
