MODEL 1
REMARK minimizedAffinity 13.6529207
REMARK minimizedRMSD -1
REMARK  0 active torsions:
REMARK  status: ('A' for Active; 'I' for Inactive)
ROOT
ATOM      1  O1  BZF d   1       1.590   4.065  -1.870  0.00  0.00    -0.204 OA
ATOM      2  C2  BZF d   1       0.877   5.142  -1.377  0.00  0.00     0.174 A 
ATOM      3  C3  BZF d   1       0.569   4.956  -0.077  0.00  0.00    -0.012 A 
ATOM      4  C3A BZF d   1       1.202   3.726   0.288  0.00  0.00    -0.107 A 
ATOM      5  C4  BZF d   1       1.275   3.018   1.453  0.00  0.00     0.055 A 
ATOM      6  C5  BZF d   1       1.911   1.817   1.457  0.00  0.00    -0.016 A 
ATOM      7  C6  BZF d   1       2.481   1.293   0.315  0.00  0.00     0.022 A 
ATOM      8  C7  BZF d   1       2.438   1.962  -0.863  0.00  0.00     0.029 A 
ATOM      9  C7A BZF d   1       1.825   3.190  -0.863  0.00  0.00     0.058 A 
ENDROOT
TORSDOF 0
ENDMDL
