MODEL 1
REMARK minimizedAffinity 11.1456575
REMARK minimizedRMSD -1
REMARK  0 active torsions:
REMARK  status: ('A' for Active; 'I' for Inactive)
ROOT
ATOM      1  O1  BZF d   1      -2.489   0.747   1.913  0.00  0.00    -0.204 OA
ATOM      2  C2  BZF d   1      -3.502   1.295   2.676  0.00  0.00     0.174 A 
ATOM      3  C3  BZF d   1      -3.071   1.557   3.926  0.00  0.00    -0.012 A 
ATOM      4  C3A BZF d   1      -1.677   1.233   3.920  0.00  0.00    -0.107 A 
ATOM      5  C4  BZF d   1      -0.694   1.294   4.866  0.00  0.00     0.055 A 
ATOM      6  C5  BZF d   1       0.547   0.834   4.560  0.00  0.00    -0.016 A 
ATOM      7  C6  BZF d   1       0.839   0.301   3.321  0.00  0.00     0.022 A 
ATOM      8  C7  BZF d   1      -0.102   0.223   2.349  0.00  0.00     0.029 A 
ATOM      9  C7A BZF d   1      -1.349   0.718   2.644  0.00  0.00     0.058 A 
ENDROOT
TORSDOF 0
ENDMDL
