MODEL 1
REMARK minimizedAffinity -0.00438425876
REMARK minimizedRMSD -1
REMARK  0 active torsions:
REMARK  status: ('A' for Active; 'I' for Inactive)
ROOT
ATOM      1  O1  BZF d   1       3.450  -2.537  -0.636  0.00  0.00    -0.204 OA
ATOM      2  C2  BZF d   1       2.476  -1.654  -1.059  0.00  0.00     0.174 A 
ATOM      3  C3  BZF d   1       1.629  -2.252  -1.921  0.00  0.00    -0.012 A 
ATOM      4  C3A BZF d   1       2.049  -3.619  -1.973  0.00  0.00    -0.107 A 
ATOM      5  C4  BZF d   1       1.590  -4.717  -2.643  0.00  0.00     0.055 A 
ATOM      6  C5  BZF d   1       2.269  -5.890  -2.532  0.00  0.00    -0.016 A 
ATOM      7  C6  BZF d   1       3.410  -5.998  -1.766  0.00  0.00     0.022 A 
ATOM      8  C7  BZF d   1       3.901  -4.938  -1.079  0.00  0.00     0.029 A 
ATOM      9  C7A BZF d   1       3.199  -3.760  -1.162  0.00  0.00     0.058 A 
ENDROOT
TORSDOF 0
ENDMDL
