MODEL 1
REMARK minimizedAffinity 6.98826408
REMARK minimizedRMSD -1
REMARK  0 active torsions:
REMARK  status: ('A' for Active; 'I' for Inactive)
ROOT
ATOM      1  O1  BZF d   1      -4.047  -5.997  -3.275  0.00  0.00    -0.204 OA
ATOM      2  C2  BZF d   1      -2.987  -5.341  -2.678  0.00  0.00     0.174 A 
ATOM      3  C3  BZF d   1      -2.766  -4.151  -3.273  0.00  0.00    -0.012 A 
ATOM      4  C3A BZF d   1      -3.807  -4.016  -4.245  0.00  0.00    -0.107 A 
ATOM      5  C4  BZF d   1      -4.133  -3.040  -5.142  0.00  0.00     0.055 A 
ATOM      6  C5  BZF d   1      -5.166  -3.249  -5.999  0.00  0.00    -0.016 A 
ATOM      7  C6  BZF d   1      -5.891  -4.422  -5.990  0.00  0.00     0.022 A 
ATOM      8  C7  BZF d   1      -5.608  -5.418  -5.115  0.00  0.00     0.029 A 
ATOM      9  C7A BZF d   1      -4.585  -5.196  -4.226  0.00  0.00     0.058 A 
ENDROOT
TORSDOF 0
ENDMDL
