MODEL 1
REMARK minimizedAffinity 24.5444107
REMARK minimizedRMSD -1
REMARK  0 active torsions:
REMARK  status: ('A' for Active; 'I' for Inactive)
ROOT
ATOM      1  O1  BZF d   1      -3.003   1.299   2.223  0.00  0.00    -0.204 OA
ATOM      2  C2  BZF d   1      -3.680   1.487   3.413  0.00  0.00     0.174 A 
ATOM      3  C3  BZF d   1      -2.864   1.275   4.466  0.00  0.00    -0.012 A 
ATOM      4  C3A BZF d   1      -1.575   1.023   3.899  0.00  0.00    -0.107 A 
ATOM      5  C4  BZF d   1      -0.348   0.758   4.437  0.00  0.00     0.055 A 
ATOM      6  C5  BZF d   1       0.692   0.487   3.606  0.00  0.00    -0.016 A 
ATOM      7  C6  BZF d   1       0.541   0.467   2.235  0.00  0.00     0.022 A 
ATOM      8  C7  BZF d   1      -0.655   0.729   1.655  0.00  0.00     0.029 A 
ATOM      9  C7A BZF d   1      -1.701   1.036   2.490  0.00  0.00     0.058 A 
ENDROOT
TORSDOF 0
ENDMDL
