MODEL 1
REMARK minimizedAffinity 11.7248144
REMARK minimizedRMSD -1
REMARK  0 active torsions:
REMARK  status: ('A' for Active; 'I' for Inactive)
ROOT
ATOM      1  O1  BZF d   1      -2.897  -1.299  -4.213  0.00  0.00    -0.204 OA
ATOM      2  C2  BZF d   1      -1.974  -0.336  -3.853  0.00  0.00     0.174 A 
ATOM      3  C3  BZF d   1      -1.060  -0.845  -3.002  0.00  0.00    -0.012 A 
ATOM      4  C3A BZF d   1      -1.381  -2.234  -2.891  0.00  0.00    -0.107 A 
ATOM      5  C4  BZF d   1      -0.825  -3.274  -2.202  0.00  0.00     0.055 A 
ATOM      6  C5  BZF d   1      -1.424  -4.493  -2.250  0.00  0.00    -0.016 A 
ATOM      7  C6  BZF d   1      -2.580  -4.707  -2.972  0.00  0.00     0.022 A 
ATOM      8  C7  BZF d   1      -3.165  -3.707  -3.675  0.00  0.00     0.029 A 
ATOM      9  C7A BZF d   1      -2.545  -2.482  -3.655  0.00  0.00     0.058 A 
ENDROOT
TORSDOF 0
ENDMDL
