MODEL 1
REMARK minimizedAffinity 11.5099163
REMARK minimizedRMSD -1
REMARK  0 active torsions:
REMARK  status: ('A' for Active; 'I' for Inactive)
ROOT
ATOM      1  O1  BZF d   1      -0.686   1.320   2.998  0.00  0.00    -0.204 OA
ATOM      2  C2  BZF d   1       0.120   0.243   2.679  0.00  0.00     0.174 A 
ATOM      3  C3  BZF d   1      -0.613  -0.883   2.559  0.00  0.00    -0.012 A 
ATOM      4  C3A BZF d   1      -1.971  -0.468   2.728  0.00  0.00    -0.107 A 
ATOM      5  C4  BZF d   1      -3.165  -1.130   2.701  0.00  0.00     0.055 A 
ATOM      6  C5  BZF d   1      -4.307  -0.446   2.977  0.00  0.00    -0.016 A 
ATOM      7  C6  BZF d   1      -4.290   0.898   3.288  0.00  0.00     0.022 A 
ATOM      8  C7  BZF d   1      -3.130   1.599   3.322  0.00  0.00     0.029 A 
ATOM      9  C7A BZF d   1      -1.979   0.917   3.012  0.00  0.00     0.058 A 
ENDROOT
TORSDOF 0
ENDMDL
