MODEL 1
REMARK minimizedAffinity 8.01043415
REMARK minimizedRMSD -1
REMARK  0 active torsions:
REMARK  status: ('A' for Active; 'I' for Inactive)
ROOT
ATOM      1  O1  BZF d   1      -3.203   0.952   2.104  0.00  0.00    -0.204 OA
ATOM      2  C2  BZF d   1      -4.137  -0.005   2.453  0.00  0.00     0.174 A 
ATOM      3  C3  BZF d   1      -4.220  -0.125   3.794  0.00  0.00    -0.012 A 
ATOM      4  C3A BZF d   1      -3.346   0.880   4.317  0.00  0.00    -0.107 A 
ATOM      5  C4  BZF d   1      -3.012   1.267   5.583  0.00  0.00     0.055 A 
ATOM      6  C5  BZF d   1      -2.072   2.233   5.752  0.00  0.00    -0.016 A 
ATOM      7  C6  BZF d   1      -1.442   2.829   4.679  0.00  0.00     0.022 A 
ATOM      8  C7  BZF d   1      -1.744   2.482   3.404  0.00  0.00     0.029 A 
ATOM      9  C7A BZF d   1      -2.717   1.529   3.229  0.00  0.00     0.058 A 
ENDROOT
TORSDOF 0
ENDMDL
