MODEL 1
REMARK minimizedAffinity 11.775877
REMARK minimizedRMSD -1
REMARK  0 active torsions:
REMARK  status: ('A' for Active; 'I' for Inactive)
ROOT
ATOM      1  O1  BZF d   1       3.103  -1.621  -4.772  0.00  0.00    -0.204 OA
ATOM      2  C2  BZF d   1       3.832  -2.679  -5.281  0.00  0.00     0.174 A 
ATOM      3  C3  BZF d   1       4.153  -3.552  -4.305  0.00  0.00    -0.012 A 
ATOM      4  C3A BZF d   1       3.511  -3.054  -3.128  0.00  0.00    -0.107 A 
ATOM      5  C4  BZF d   1       3.443  -3.494  -1.837  0.00  0.00     0.055 A 
ATOM      6  C5  BZF d   1       2.795  -2.737  -0.914  0.00  0.00    -0.016 A 
ATOM      7  C6  BZF d   1       2.207  -1.534  -1.245  0.00  0.00     0.022 A 
ATOM      8  C7  BZF d   1       2.243  -1.058  -2.513  0.00  0.00     0.029 A 
ATOM      9  C7A BZF d   1       2.870  -1.836  -3.455  0.00  0.00     0.058 A 
ENDROOT
TORSDOF 0
ENDMDL
