MODEL 1
REMARK minimizedAffinity 18.3409805
REMARK minimizedRMSD -1
REMARK  0 active torsions:
REMARK  status: ('A' for Active; 'I' for Inactive)
ROOT
ATOM      1  O1  BZF d   1       2.747   2.298  -1.485  0.00  0.00    -0.204 OA
ATOM      2  C2  BZF d   1       3.367   2.095  -0.267  0.00  0.00     0.174 A 
ATOM      3  C3  BZF d   1       3.295   0.799   0.097  0.00  0.00    -0.012 A 
ATOM      4  C3A BZF d   1       2.666   0.134  -1.003  0.00  0.00    -0.107 A 
ATOM      5  C4  BZF d   1       2.331  -1.168  -1.246  0.00  0.00     0.055 A 
ATOM      6  C5  BZF d   1       1.660  -1.475  -2.387  0.00  0.00    -0.016 A 
ATOM      7  C6  BZF d   1       1.305  -0.507  -3.304  0.00  0.00     0.022 A 
ATOM      8  C7  BZF d   1       1.621   0.796  -3.109  0.00  0.00     0.029 A 
ATOM      9  C7A BZF d   1       2.327   1.106  -1.972  0.00  0.00     0.058 A 
ENDROOT
TORSDOF 0
ENDMDL
