MODEL 1
REMARK minimizedAffinity -2.85074806
REMARK minimizedRMSD -1
REMARK  0 active torsions:
REMARK  status: ('A' for Active; 'I' for Inactive)
ROOT
ATOM      1  O1  BZF d   1       0.138  -0.989   0.883  0.00  0.00    -0.204 OA
ATOM      2  C2  BZF d   1      -0.121  -2.229   0.333  0.00  0.00     0.174 A 
ATOM      3  C3  BZF d   1       0.041  -2.202  -1.006  0.00  0.00    -0.012 A 
ATOM      4  C3A BZF d   1       0.515  -0.885  -1.301  0.00  0.00    -0.107 A 
ATOM      5  C4  BZF d   1       0.874  -0.254  -2.457  0.00  0.00     0.055 A 
ATOM      6  C5  BZF d   1       1.223   1.059  -2.412  0.00  0.00    -0.016 A 
ATOM      7  C6  BZF d   1       1.220   1.771  -1.231  0.00  0.00     0.022 A 
ATOM      8  C7  BZF d   1       0.876   1.186  -0.057  0.00  0.00     0.029 A 
ATOM      9  C7A BZF d   1       0.554  -0.149  -0.095  0.00  0.00     0.058 A 
ENDROOT
TORSDOF 0
ENDMDL
