MODEL 1
REMARK minimizedAffinity 14.7422857
REMARK minimizedRMSD -1
REMARK  0 active torsions:
REMARK  status: ('A' for Active; 'I' for Inactive)
ROOT
ATOM      1  C   UNL d   1       4.140   3.290   0.537  0.00  0.00     0.020 A 
ATOM      2  C1  UNL d   1       5.102   2.407   0.047  0.00  0.00     0.020 A 
ATOM      3  C2  UNL d   1       5.664   1.447   0.892  0.00  0.00     0.034 A 
ATOM      4  C3  UNL d   1       5.264   1.368   2.231  0.00  0.00     0.017 A 
ATOM      5  C4  UNL d   1       4.298   2.254   2.722  0.00  0.00     0.017 A 
ATOM      6  C5  UNL d   1       3.739   3.213   1.872  0.00  0.00     0.034 A 
ATOM      7 Cl   UNL d   1       3.755   2.217   4.362  0.00  0.00    -0.070 Cl
ATOM      8 Cl1  UNL d   1       6.000   0.156   3.219  0.00  0.00    -0.070 Cl
ENDROOT
TORSDOF 0
ENDMDL
