MODEL 1
REMARK minimizedAffinity 19.6376324
REMARK minimizedRMSD -1
REMARK  0 active torsions:
REMARK  status: ('A' for Active; 'I' for Inactive)
ROOT
ATOM      1  C   UNL d   1      -1.369  -1.862  -3.081  0.00  0.00     0.020 A 
ATOM      2  C1  UNL d   1      -0.572  -3.006  -3.053  0.00  0.00     0.020 A 
ATOM      3  C2  UNL d   1      -0.204  -3.570  -1.830  0.00  0.00     0.034 A 
ATOM      4  C3  UNL d   1      -0.631  -2.989  -0.630  0.00  0.00     0.017 A 
ATOM      5  C4  UNL d   1      -1.430  -1.841  -0.659  0.00  0.00     0.017 A 
ATOM      6  C5  UNL d   1      -1.797  -1.281  -1.887  0.00  0.00     0.034 A 
ATOM      7 Cl   UNL d   1      -1.996  -1.068   0.779  0.00  0.00    -0.070 Cl
ATOM      8 Cl1  UNL d   1      -0.137  -3.740   0.846  0.00  0.00    -0.070 Cl
ENDROOT
TORSDOF 0
ENDMDL
