MODEL 1
REMARK minimizedAffinity 9.72710419
REMARK minimizedRMSD -1
REMARK  0 active torsions:
REMARK  status: ('A' for Active; 'I' for Inactive)
ROOT
ATOM      1  C   UNL d   1       4.074   2.566   0.894  0.00  0.00     0.020 A 
ATOM      2  C1  UNL d   1       5.451   2.597   0.681  0.00  0.00     0.020 A 
ATOM      3  C2  UNL d   1       5.964   2.405  -0.604  0.00  0.00     0.034 A 
ATOM      4  C3  UNL d   1       5.098   2.180  -1.680  0.00  0.00     0.017 A 
ATOM      5  C4  UNL d   1       3.715   2.149  -1.466  0.00  0.00     0.017 A 
ATOM      6  C5  UNL d   1       3.208   2.342  -0.177  0.00  0.00     0.034 A 
ATOM      7 Cl   UNL d   1       2.585   1.877  -2.744  0.00  0.00    -0.070 Cl
ATOM      8 Cl1  UNL d   1       5.801   1.950  -3.242  0.00  0.00    -0.070 Cl
ENDROOT
TORSDOF 0
ENDMDL
