MODEL 1
REMARK minimizedAffinity 4.83170986
REMARK minimizedRMSD -1
REMARK  0 active torsions:
REMARK  status: ('A' for Active; 'I' for Inactive)
ROOT
ATOM      1  C   UNL d   1       4.462   1.842   0.209  0.00  0.00     0.020 A 
ATOM      2  C1  UNL d   1       3.456   2.614   0.789  0.00  0.00     0.020 A 
ATOM      3  C2  UNL d   1       3.222   2.538   2.163  0.00  0.00     0.034 A 
ATOM      4  C3  UNL d   1       3.994   1.687   2.963  0.00  0.00     0.017 A 
ATOM      5  C4  UNL d   1       5.004   0.913   2.380  0.00  0.00     0.017 A 
ATOM      6  C5  UNL d   1       5.234   0.993   1.003  0.00  0.00     0.034 A 
ATOM      7 Cl   UNL d   1       5.998  -0.159   3.302  0.00  0.00    -0.070 Cl
ATOM      8 Cl1  UNL d   1       3.650   1.644   4.655  0.00  0.00    -0.070 Cl
ENDROOT
TORSDOF 0
ENDMDL
