MODEL 1
REMARK minimizedAffinity 16.7426472
REMARK minimizedRMSD -1
REMARK  0 active torsions:
REMARK  status: ('A' for Active; 'I' for Inactive)
ROOT
ATOM      1  C   UNL d   1      -0.024   2.514  -4.805  0.00  0.00     0.020 A 
ATOM      2  C1  UNL d   1      -0.458   3.431  -5.761  0.00  0.00     0.020 A 
ATOM      3  C2  UNL d   1      -1.824   3.597  -6.000  0.00  0.00     0.034 A 
ATOM      4  C3  UNL d   1      -2.760   2.845  -5.281  0.00  0.00     0.017 A 
ATOM      5  C4  UNL d   1      -2.323   1.925  -4.321  0.00  0.00     0.017 A 
ATOM      6  C5  UNL d   1      -0.954   1.763  -4.086  0.00  0.00     0.034 A 
ATOM      7 Cl   UNL d   1      -3.419   0.961  -3.394  0.00  0.00    -0.070 Cl
ATOM      8 Cl1  UNL d   1      -4.434   3.102  -5.627  0.00  0.00    -0.070 Cl
ENDROOT
TORSDOF 0
ENDMDL
