MODEL 1
REMARK minimizedAffinity 13.8962965
REMARK minimizedRMSD -1
REMARK  0 active torsions:
REMARK  status: ('A' for Active; 'I' for Inactive)
ROOT
ATOM      1  C   UNL d   1       5.674   1.903   0.045  0.00  0.00     0.020 A 
ATOM      2  C1  UNL d   1       5.231   2.042   1.360  0.00  0.00     0.020 A 
ATOM      3  C2  UNL d   1       5.019   3.315   1.894  0.00  0.00     0.034 A 
ATOM      4  C3  UNL d   1       5.249   4.454   1.113  0.00  0.00     0.017 A 
ATOM      5  C4  UNL d   1       5.694   4.313  -0.206  0.00  0.00     0.017 A 
ATOM      6  C5  UNL d   1       5.905   3.036  -0.736  0.00  0.00     0.034 A 
ATOM      7 Cl   UNL d   1       6.000   5.671  -1.231  0.00  0.00    -0.070 Cl
ATOM      8 Cl1  UNL d   1       4.965   5.996   1.839  0.00  0.00    -0.070 Cl
ENDROOT
TORSDOF 0
ENDMDL
