MODEL 1
REMARK minimizedAffinity 12.0774841
REMARK minimizedRMSD -1
REMARK  0 active torsions:
REMARK  status: ('A' for Active; 'I' for Inactive)
ROOT
ATOM      1  C   UNL d   1       4.500   3.078   0.383  0.00  0.00     0.020 A 
ATOM      2  C1  UNL d   1       5.546   2.218   0.050  0.00  0.00     0.020 A 
ATOM      3  C2  UNL d   1       5.994   1.272   0.975  0.00  0.00     0.034 A 
ATOM      4  C3  UNL d   1       5.396   1.184   2.237  0.00  0.00     0.017 A 
ATOM      5  C4  UNL d   1       4.346   2.048   2.570  0.00  0.00     0.017 A 
ATOM      6  C5  UNL d   1       3.901   2.993   1.640  0.00  0.00     0.034 A 
ATOM      7 Cl   UNL d   1       3.558   1.999   4.108  0.00  0.00    -0.070 Cl
ATOM      8 Cl1  UNL d   1       6.000  -0.009   3.331  0.00  0.00    -0.070 Cl
ENDROOT
TORSDOF 0
ENDMDL
