MODEL 1
REMARK minimizedAffinity 13.1602249
REMARK minimizedRMSD -1
REMARK  0 active torsions:
REMARK  status: ('A' for Active; 'I' for Inactive)
ROOT
ATOM      1  C   UNL d   1       5.551   2.110   0.391  0.00  0.00     0.020 A 
ATOM      2  C1  UNL d   1       4.530   3.005   0.707  0.00  0.00     0.020 A 
ATOM      3  C2  UNL d   1       3.945   2.978   1.975  0.00  0.00     0.034 A 
ATOM      4  C3  UNL d   1       4.381   2.054   2.931  0.00  0.00     0.017 A 
ATOM      5  C4  UNL d   1       5.406   1.156   2.613  0.00  0.00     0.017 A 
ATOM      6  C5  UNL d   1       5.988   1.187   1.342  0.00  0.00     0.034 A 
ATOM      7 Cl   UNL d   1       5.997  -0.014   3.740  0.00  0.00    -0.070 Cl
ATOM      8 Cl1  UNL d   1       3.613   2.077   4.479  0.00  0.00    -0.070 Cl
ENDROOT
TORSDOF 0
ENDMDL
