MODEL 1
REMARK minimizedAffinity 8.20535374
REMARK minimizedRMSD -1
REMARK  0 active torsions:
REMARK  status: ('A' for Active; 'I' for Inactive)
ROOT
ATOM      1  C   UNL d   1       5.666   2.249   0.020  0.00  0.00     0.020 A 
ATOM      2  C1  UNL d   1       4.873   3.329   0.406  0.00  0.00     0.020 A 
ATOM      3  C2  UNL d   1       4.413   3.423   1.721  0.00  0.00     0.034 A 
ATOM      4  C3  UNL d   1       4.746   2.436   2.655  0.00  0.00     0.017 A 
ATOM      5  C4  UNL d   1       5.543   1.352   2.267  0.00  0.00     0.017 A 
ATOM      6  C5  UNL d   1       6.000   1.263   0.949  0.00  0.00     0.034 A 
ATOM      7 Cl   UNL d   1       5.995   0.095   3.363  0.00  0.00    -0.070 Cl
ATOM      8 Cl1  UNL d   1       4.144   2.616   4.265  0.00  0.00    -0.070 Cl
ENDROOT
TORSDOF 0
ENDMDL
