MODEL 1
REMARK minimizedAffinity 5.92168713
REMARK minimizedRMSD -1
REMARK  0 active torsions:
REMARK  status: ('A' for Active; 'I' for Inactive)
ROOT
ATOM      1  C   UNL d   1      -0.519  -4.953   0.879  0.00  0.00     0.020 A 
ATOM      2  C1  UNL d   1      -0.696  -5.003   2.261  0.00  0.00     0.020 A 
ATOM      3  C2  UNL d   1      -1.341  -3.955   2.921  0.00  0.00     0.034 A 
ATOM      4  C3  UNL d   1      -1.811  -2.852   2.199  0.00  0.00     0.017 A 
ATOM      5  C4  UNL d   1      -1.632  -2.802   0.812  0.00  0.00     0.017 A 
ATOM      6  C5  UNL d   1      -0.986  -3.855   0.156  0.00  0.00     0.034 A 
ATOM      7 Cl   UNL d   1      -2.184  -1.474  -0.147  0.00  0.00    -0.070 Cl
ATOM      8 Cl1  UNL d   1      -2.599  -1.591   3.079  0.00  0.00    -0.070 Cl
ENDROOT
TORSDOF 0
ENDMDL
