MODEL 1
REMARK minimizedAffinity 16.614954
REMARK minimizedRMSD -1
REMARK  0 active torsions:
REMARK  status: ('A' for Active; 'I' for Inactive)
ROOT
ATOM      1  C   UNL d   1       2.515   0.941  -1.863  0.00  0.00     0.020 A 
ATOM      2  C1  UNL d   1       2.611  -0.438  -1.682  0.00  0.00     0.020 A 
ATOM      3  C2  UNL d   1       3.694  -1.139  -2.216  0.00  0.00     0.034 A 
ATOM      4  C3  UNL d   1       4.686  -0.461  -2.934  0.00  0.00     0.017 A 
ATOM      5  C4  UNL d   1       4.589   0.923  -3.116  0.00  0.00     0.017 A 
ATOM      6  C5  UNL d   1       3.502   1.620  -2.579  0.00  0.00     0.034 A 
ATOM      7 Cl   UNL d   1       5.773   1.829  -3.990  0.00  0.00    -0.070 Cl
ATOM      8 Cl1  UNL d   1       5.997  -1.391  -3.567  0.00  0.00    -0.070 Cl
ENDROOT
TORSDOF 0
ENDMDL
