MODEL 1
REMARK minimizedAffinity 8.29520702
REMARK minimizedRMSD -1
REMARK  0 active torsions:
REMARK  status: ('A' for Active; 'I' for Inactive)
ROOT
ATOM      1  C   UNL d   1      -5.471   5.730  -0.056  0.00  0.00     0.020 A 
ATOM      2  C1  UNL d   1      -4.161   5.275   0.086  0.00  0.00     0.020 A 
ATOM      3  C2  UNL d   1      -3.378   5.036  -1.045  0.00  0.00     0.034 A 
ATOM      4  C3  UNL d   1      -3.905   5.252  -2.324  0.00  0.00     0.017 A 
ATOM      5  C4  UNL d   1      -5.220   5.708  -2.466  0.00  0.00     0.017 A 
ATOM      6  C5  UNL d   1      -6.000   5.946  -1.329  0.00  0.00     0.034 A 
ATOM      7 Cl   UNL d   1      -5.940   5.997  -4.010  0.00  0.00    -0.070 Cl
ATOM      8 Cl1  UNL d   1      -2.880   4.936  -3.679  0.00  0.00    -0.070 Cl
ENDROOT
TORSDOF 0
ENDMDL
