MODEL 1
REMARK minimizedAffinity 16.9786758
REMARK minimizedRMSD -1
REMARK  0 active torsions:
REMARK  status: ('A' for Active; 'I' for Inactive)
ROOT
ATOM      1  C   UNL d   1       5.788   2.508  -0.274  0.00  0.00     0.020 A 
ATOM      2  C1  UNL d   1       4.897   3.545  -0.003  0.00  0.00     0.020 A 
ATOM      3  C2  UNL d   1       4.215   3.580   1.215  0.00  0.00     0.034 A 
ATOM      4  C3  UNL d   1       4.424   2.576   2.168  0.00  0.00     0.017 A 
ATOM      5  C4  UNL d   1       5.320   1.535   1.895  0.00  0.00     0.017 A 
ATOM      6  C5  UNL d   1       5.999   1.505   0.674  0.00  0.00     0.034 A 
ATOM      7 Cl   UNL d   1       5.630   0.261   3.021  0.00  0.00    -0.070 Cl
ATOM      8 Cl1  UNL d   1       3.548   2.682   3.653  0.00  0.00    -0.070 Cl
ENDROOT
TORSDOF 0
ENDMDL
