MODEL 1
REMARK minimizedAffinity 3.80232692
REMARK minimizedRMSD -1
REMARK  0 active torsions:
REMARK  status: ('A' for Active; 'I' for Inactive)
ROOT
ATOM      1  C   UNL d   1      -1.173  -4.189   2.036  0.00  0.00     0.020 A 
ATOM      2  C1  UNL d   1      -2.293  -3.616   2.637  0.00  0.00     0.020 A 
ATOM      3  C2  UNL d   1      -2.973  -2.576   2.000  0.00  0.00     0.034 A 
ATOM      4  C3  UNL d   1      -2.533  -2.105   0.757  0.00  0.00     0.017 A 
ATOM      5  C4  UNL d   1      -1.409  -2.681   0.154  0.00  0.00     0.017 A 
ATOM      6  C5  UNL d   1      -0.732  -3.722   0.797  0.00  0.00     0.034 A 
ATOM      7 Cl   UNL d   1      -0.807  -2.153  -1.377  0.00  0.00    -0.070 Cl
ATOM      8 Cl1  UNL d   1      -3.422  -0.816   0.026  0.00  0.00    -0.070 Cl
ENDROOT
TORSDOF 0
ENDMDL
