MODEL 1
REMARK minimizedAffinity 10.9959345
REMARK minimizedRMSD -1
REMARK  0 active torsions:
REMARK  status: ('A' for Active; 'I' for Inactive)
ROOT
ATOM      1  C   UNL d   1      -2.449  -2.703   3.514  0.00  0.00     0.020 A 
ATOM      2  C1  UNL d   1      -1.273  -3.382   3.198  0.00  0.00     0.020 A 
ATOM      3  C2  UNL d   1      -0.867  -3.493   1.867  0.00  0.00     0.034 A 
ATOM      4  C3  UNL d   1      -1.638  -2.925   0.846  0.00  0.00     0.017 A 
ATOM      5  C4  UNL d   1      -2.818  -2.244   1.164  0.00  0.00     0.017 A 
ATOM      6  C5  UNL d   1      -3.220  -2.135   2.499  0.00  0.00     0.034 A 
ATOM      7 Cl   UNL d   1      -3.822  -1.517  -0.041  0.00  0.00    -0.070 Cl
ATOM      8 Cl1  UNL d   1      -1.076  -3.102  -0.778  0.00  0.00    -0.070 Cl
ENDROOT
TORSDOF 0
ENDMDL
