MODEL 1
REMARK minimizedAffinity 8.55263805
REMARK minimizedRMSD -1
REMARK  0 active torsions:
REMARK  status: ('A' for Active; 'I' for Inactive)
ROOT
ATOM      1  C   UNL d   1      -1.753  -2.075   2.205  0.00  0.00     0.020 A 
ATOM      2  C1  UNL d   1      -1.215  -3.361   2.242  0.00  0.00     0.020 A 
ATOM      3  C2  UNL d   1      -1.127  -4.115   1.070  0.00  0.00     0.034 A 
ATOM      4  C3  UNL d   1      -1.577  -3.583  -0.144  0.00  0.00     0.017 A 
ATOM      5  C4  UNL d   1      -2.117  -2.292  -0.180  0.00  0.00     0.017 A 
ATOM      6  C5  UNL d   1      -2.203  -1.542   0.997  0.00  0.00     0.034 A 
ATOM      7 Cl   UNL d   1      -2.692  -1.569  -1.640  0.00  0.00    -0.070 Cl
ATOM      8 Cl1  UNL d   1      -1.437  -4.571  -1.555  0.00  0.00    -0.070 Cl
ENDROOT
TORSDOF 0
ENDMDL
