MODEL 1
REMARK minimizedAffinity 16.521162
REMARK minimizedRMSD -1
REMARK  0 active torsions:
REMARK  status: ('A' for Active; 'I' for Inactive)
ROOT
ATOM      1  C   UNL d   1      -2.071  -1.281  -1.666  0.00  0.00     0.020 A 
ATOM      2  C1  UNL d   1      -1.322  -0.898  -0.554  0.00  0.00     0.020 A 
ATOM      3  C2  UNL d   1      -0.024  -0.410  -0.721  0.00  0.00     0.034 A 
ATOM      4  C3  UNL d   1       0.528  -0.303  -2.003  0.00  0.00     0.017 A 
ATOM      5  C4  UNL d   1      -0.225  -0.688  -3.118  0.00  0.00     0.017 A 
ATOM      6  C5  UNL d   1      -1.524  -1.176  -2.945  0.00  0.00     0.034 A 
ATOM      7 Cl   UNL d   1       0.389  -0.585  -4.730  0.00  0.00    -0.070 Cl
ATOM      8 Cl1  UNL d   1       2.138   0.309  -2.135  0.00  0.00    -0.070 Cl
ENDROOT
TORSDOF 0
ENDMDL
