MODEL 1
REMARK minimizedAffinity 8.97773838
REMARK minimizedRMSD -1
REMARK  0 active torsions:
REMARK  status: ('A' for Active; 'I' for Inactive)
ROOT
ATOM      1  C   UNL d   1      -0.528  -2.911  -1.135  0.00  0.00     0.020 A 
ATOM      2  C1  UNL d   1      -0.325  -3.653   0.028  0.00  0.00     0.020 A 
ATOM      3  C2  UNL d   1      -1.119  -3.419   1.153  0.00  0.00     0.034 A 
ATOM      4  C3  UNL d   1      -2.120  -2.441   1.116  0.00  0.00     0.017 A 
ATOM      5  C4  UNL d   1      -2.323  -1.698  -0.052  0.00  0.00     0.017 A 
ATOM      6  C5  UNL d   1      -1.525  -1.936  -1.175  0.00  0.00     0.034 A 
ATOM      7 Cl   UNL d   1      -3.539  -0.475  -0.173  0.00  0.00    -0.070 Cl
ATOM      8 Cl1  UNL d   1      -3.066  -2.206   2.543  0.00  0.00    -0.070 Cl
ENDROOT
TORSDOF 0
ENDMDL
