MODEL 1
REMARK minimizedAffinity 10.0415392
REMARK minimizedRMSD -1
REMARK  1 active torsions:
REMARK  status: ('A' for Active; 'I' for Inactive)
REMARK    1  A    between atoms: N_2  and  C1_3 
ROOT
ATOM      1  C1  UNL d   1       2.275   2.659   1.495  0.00  0.00     0.143 A 
ATOM      2  C2  UNL d   1       3.001   3.032   0.359  0.00  0.00    -0.057 A 
ATOM      3  C3  UNL d   1       3.402   2.084  -0.591  0.00  0.00     0.033 A 
ATOM      4  C4  UNL d   1       3.109   0.738  -0.405  0.00  0.00    -0.042 A 
ATOM      5  C5  UNL d   1       2.410   0.340   0.730  0.00  0.00     0.033 A 
ATOM      6  C6  UNL d   1       2.006   1.292   1.670  0.00  0.00    -0.057 A 
ENDROOT
BRANCH   1   7
ATOM      7  N   UNL d   1       1.933   3.540   2.523  0.00  0.00    -0.732 N 
ATOM      8  C   UNL d   1       1.401   3.042   3.774  0.00  0.00     0.284 C 
ATOM      9  H3  UNL d   1       2.608   4.294   2.630  0.00  0.00     0.395 HD
ENDBRANCH   1   7
TORSDOF 1
ENDMDL
