MODEL 1
REMARK minimizedAffinity 5.61468506
REMARK minimizedRMSD -1
REMARK  1 active torsions:
REMARK  status: ('A' for Active; 'I' for Inactive)
REMARK    1  A    between atoms: N_2  and  C1_3 
ROOT
ATOM      1  C1  UNL d   1       0.723  -3.532   4.521  0.00  0.00     0.143 A 
ATOM      2  C2  UNL d   1       1.287  -4.242   5.586  0.00  0.00    -0.057 A 
ATOM      3  C3  UNL d   1       0.759  -5.471   6.000  0.00  0.00     0.033 A 
ATOM      4  C4  UNL d   1      -0.364  -5.999   5.372  0.00  0.00    -0.042 A 
ATOM      5  C5  UNL d   1      -0.956  -5.299   4.327  0.00  0.00     0.033 A 
ATOM      6  C6  UNL d   1      -0.420  -4.075   3.914  0.00  0.00    -0.057 A 
ENDROOT
BRANCH   1   7
ATOM      7  N   UNL d   1       1.141  -2.259   4.127  0.00  0.00    -0.732 N 
ATOM      8  C   UNL d   1       0.190  -1.297   3.612  0.00  0.00     0.284 C 
ATOM      9  H3  UNL d   1       1.831  -1.863   4.761  0.00  0.00     0.395 HD
ENDBRANCH   1   7
TORSDOF 1
ENDMDL
