MODEL 1
REMARK minimizedAffinity -1.76944172
REMARK minimizedRMSD -1
REMARK  1 active torsions:
REMARK  status: ('A' for Active; 'I' for Inactive)
REMARK    1  A    between atoms: N_2  and  C1_3 
ROOT
ATOM      1  C1  UNL d   1      -4.707   6.000   3.904  0.00  0.00     0.143 A 
ATOM      2  C2  UNL d   1      -3.500   5.982   3.198  0.00  0.00    -0.057 A 
ATOM      3  C3  UNL d   1      -3.477   5.994   1.798  0.00  0.00     0.033 A 
ATOM      4  C4  UNL d   1      -4.667   5.994   1.077  0.00  0.00    -0.042 A 
ATOM      5  C5  UNL d   1      -5.879   5.986   1.758  0.00  0.00     0.033 A 
ATOM      6  C6  UNL d   1      -5.895   5.981   3.156  0.00  0.00    -0.057 A 
ENDROOT
BRANCH   1   7
ATOM      7  N   UNL d   1      -4.797   5.890   5.294  0.00  0.00    -0.732 N 
ATOM      8  C   UNL d   1      -5.995   5.368   5.916  0.00  0.00     0.284 C 
ATOM      9  H3  UNL d   1      -3.932   5.558   5.714  0.00  0.00     0.395 HD
ENDBRANCH   1   7
TORSDOF 1
ENDMDL
