MODEL 1
REMARK minimizedAffinity 9.00963116
REMARK minimizedRMSD -1
REMARK  1 active torsions:
REMARK  status: ('A' for Active; 'I' for Inactive)
REMARK    1  A    between atoms: N_2  and  C1_3 
ROOT
ATOM      1  C1  UNL d   1       3.939   2.589  -0.102  0.00  0.00     0.143 A 
ATOM      2  C2  UNL d   1       4.209   1.328  -0.646  0.00  0.00    -0.057 A 
ATOM      3  C3  UNL d   1       3.290   0.277  -0.534  0.00  0.00     0.033 A 
ATOM      4  C4  UNL d   1       2.094   0.461   0.151  0.00  0.00    -0.042 A 
ATOM      5  C5  UNL d   1       1.816   1.698   0.722  0.00  0.00     0.033 A 
ATOM      6  C6  UNL d   1       2.734   2.746   0.601  0.00  0.00    -0.057 A 
ENDROOT
BRANCH   1   7
ATOM      7  N   UNL d   1       4.854   3.644  -0.094  0.00  0.00    -0.732 N 
ATOM      8  C   UNL d   1       4.430   4.989  -0.421  0.00  0.00     0.284 C 
ATOM      9  H3  UNL d   1       5.502   3.592   0.689  0.00  0.00     0.395 HD
ENDBRANCH   1   7
TORSDOF 1
ENDMDL
