MODEL 1
REMARK minimizedAffinity 1.62564135
REMARK minimizedRMSD -1
REMARK  1 active torsions:
REMARK  status: ('A' for Active; 'I' for Inactive)
REMARK    1  A    between atoms: N_2  and  C1_3 
ROOT
ATOM      1  C1  UNL d   1      -1.516  -5.015   3.351  0.00  0.00     0.143 A 
ATOM      2  C2  UNL d   1      -1.873  -5.999   4.280  0.00  0.00    -0.057 A 
ATOM      3  C3  UNL d   1      -1.393  -5.965   5.594  0.00  0.00     0.033 A 
ATOM      4  C4  UNL d   1      -0.522  -4.959   5.997  0.00  0.00    -0.042 A 
ATOM      5  C5  UNL d   1      -0.134  -3.984   5.085  0.00  0.00     0.033 A 
ATOM      6  C6  UNL d   1      -0.622  -4.020   3.775  0.00  0.00    -0.057 A 
ENDROOT
BRANCH   1   7
ATOM      7  N   UNL d   1      -1.881  -5.048   2.003  0.00  0.00    -0.732 N 
ATOM      8  C   UNL d   1      -0.879  -5.214   0.972  0.00  0.00     0.284 C 
ATOM      9  H3  UNL d   1      -2.733  -5.582   1.845  0.00  0.00     0.395 HD
ENDBRANCH   1   7
TORSDOF 1
ENDMDL
