MODEL 1
REMARK minimizedAffinity 19.7125778
REMARK minimizedRMSD -1
REMARK  1 active torsions:
REMARK  status: ('A' for Active; 'I' for Inactive)
REMARK    1  A    between atoms: C1_2  and  C2_3 
ROOT
ATOM      1  C2  UNL d   1      -5.426   0.944  -3.000  0.00  0.00    -0.076 A 
ATOM      2  C3  UNL d   1      -5.318  -0.175  -3.845  0.00  0.00     0.004 A 
ATOM      3  C4  UNL d   1      -5.517  -0.058  -5.219  0.00  0.00    -0.003 A 
ATOM      4  C5  UNL d   1      -5.826   1.180  -5.772  0.00  0.00     0.000 A 
ATOM      5  C6  UNL d   1      -5.920   2.304  -4.951  0.00  0.00     0.000 A 
ATOM      6  C7  UNL d   1      -5.706   2.206  -3.566  0.00  0.00    -0.073 A 
ATOM      7  C8  UNL d   1      -5.826   3.449  -2.727  0.00  0.00     0.078 C 
ENDROOT
BRANCH   1   8
ATOM      8  C1  UNL d   1      -5.227   0.751  -1.514  0.00  0.00     0.053 C 
ATOM      9  C   UNL d   1      -3.758   0.679  -1.127  0.00  0.00     0.018 C 
ENDBRANCH   1   8
TORSDOF 1
ENDMDL
