MODEL 1
REMARK minimizedAffinity 10.7439041
REMARK minimizedRMSD -1
REMARK  1 active torsions:
REMARK  status: ('A' for Active; 'I' for Inactive)
REMARK    1  A    between atoms: C1_2  and  C2_3 
ROOT
ATOM      1  C2  UNL d   1       2.721   0.016  -1.242  0.00  0.00    -0.076 A 
ATOM      2  C3  UNL d   1       2.044  -0.116  -0.018  0.00  0.00     0.004 A 
ATOM      3  C4  UNL d   1       2.386   0.671   1.081  0.00  0.00    -0.003 A 
ATOM      4  C5  UNL d   1       3.412   1.603   0.972  0.00  0.00     0.000 A 
ATOM      5  C6  UNL d   1       4.083   1.760  -0.241  0.00  0.00     0.000 A 
ATOM      6  C7  UNL d   1       3.739   0.986  -1.362  0.00  0.00    -0.073 A 
ATOM      7  C8  UNL d   1       4.500   1.193  -2.643  0.00  0.00     0.078 C 
ENDROOT
BRANCH   1   8
ATOM      8  C1  UNL d   1       2.324  -0.884  -2.390  0.00  0.00     0.053 C 
ATOM      9  C   UNL d   1       2.153  -2.333  -1.963  0.00  0.00     0.018 C 
ENDBRANCH   1   8
TORSDOF 1
ENDMDL
