MODEL 1
REMARK minimizedAffinity 6.80005026
REMARK minimizedRMSD -1
REMARK  1 active torsions:
REMARK  status: ('A' for Active; 'I' for Inactive)
REMARK    1  A    between atoms: C1_2  and  C2_3 
ROOT
ATOM      1  C2  UNL d   1       2.102   3.188   0.556  0.00  0.00    -0.076 A 
ATOM      2  C3  UNL d   1       1.418   2.611  -0.529  0.00  0.00     0.004 A 
ATOM      3  C4  UNL d   1       1.652   1.289  -0.903  0.00  0.00    -0.003 A 
ATOM      4  C5  UNL d   1       2.572   0.521  -0.199  0.00  0.00     0.000 A 
ATOM      5  C6  UNL d   1       3.247   1.072   0.891  0.00  0.00     0.000 A 
ATOM      6  C7  UNL d   1       3.011   2.398   1.292  0.00  0.00    -0.073 A 
ATOM      7  C8  UNL d   1       3.770   2.942   2.471  0.00  0.00     0.078 C 
ENDROOT
BRANCH   1   8
ATOM      8  C1  UNL d   1       1.827   4.634   0.899  0.00  0.00     0.053 C 
ATOM      9  C   UNL d   1       0.351   4.986   0.804  0.00  0.00     0.018 C 
ENDBRANCH   1   8
TORSDOF 1
ENDMDL
