MODEL 1
REMARK minimizedAffinity 7.96228075
REMARK minimizedRMSD -1
REMARK  1 active torsions:
REMARK  status: ('A' for Active; 'I' for Inactive)
REMARK    1  A    between atoms: C1_2  and  C2_3 
ROOT
ATOM      1  C2  UNL d   1       3.191   0.681   0.278  0.00  0.00    -0.076 A 
ATOM      2  C3  UNL d   1       2.441   1.239  -0.771  0.00  0.00     0.004 A 
ATOM      3  C4  UNL d   1       1.504   0.478  -1.468  0.00  0.00    -0.003 A 
ATOM      4  C5  UNL d   1       1.302  -0.855  -1.126  0.00  0.00     0.000 A 
ATOM      5  C6  UNL d   1       2.025  -1.421  -0.077  0.00  0.00     0.000 A 
ATOM      6  C7  UNL d   1       2.962  -0.662   0.647  0.00  0.00    -0.073 A 
ATOM      7  C8  UNL d   1       3.718  -1.325   1.765  0.00  0.00     0.078 C 
ENDROOT
BRANCH   1   8
ATOM      8  C1  UNL d   1       4.212   1.547   0.980  0.00  0.00     0.053 C 
ATOM      9  C   UNL d   1       5.374   1.928   0.075  0.00  0.00     0.018 C 
ENDBRANCH   1   8
TORSDOF 1
ENDMDL
