MODEL 1
REMARK minimizedAffinity 10.196085
REMARK minimizedRMSD -1
REMARK  1 active torsions:
REMARK  status: ('A' for Active; 'I' for Inactive)
REMARK    1  A    between atoms: C1_2  and  C2_3 
ROOT
ATOM      1  C2  UNL d   1      -4.059  -0.145  -3.462  0.00  0.00    -0.076 A 
ATOM      2  C3  UNL d   1      -5.351   0.051  -3.982  0.00  0.00     0.004 A 
ATOM      3  C4  UNL d   1      -5.541   0.669  -5.216  0.00  0.00    -0.003 A 
ATOM      4  C5  UNL d   1      -4.443   1.102  -5.951  0.00  0.00     0.000 A 
ATOM      5  C6  UNL d   1      -3.154   0.900  -5.459  0.00  0.00     0.000 A 
ATOM      6  C7  UNL d   1      -2.944   0.263  -4.224  0.00  0.00    -0.073 A 
ATOM      7  C8  UNL d   1      -1.532   0.077  -3.739  0.00  0.00     0.078 C 
ENDROOT
BRANCH   1   8
ATOM      8  C1  UNL d   1      -3.915  -0.797  -2.105  0.00  0.00     0.053 C 
ATOM      9  C   UNL d   1      -4.642  -0.032  -1.011  0.00  0.00     0.018 C 
ENDBRANCH   1   8
TORSDOF 1
ENDMDL
