MODEL 1
REMARK minimizedAffinity 10.5055246
REMARK minimizedRMSD -1
REMARK  1 active torsions:
REMARK  status: ('A' for Active; 'I' for Inactive)
REMARK    1  A    between atoms: C1_2  and  C2_3 
ROOT
ATOM      1  C2  UNL d   1      -4.614   5.382   3.693  0.00  0.00    -0.076 A 
ATOM      2  C3  UNL d   1      -3.359   5.308   3.063  0.00  0.00     0.004 A 
ATOM      3  C4  UNL d   1      -2.184   5.539   3.776  0.00  0.00    -0.003 A 
ATOM      4  C5  UNL d   1      -2.245   5.847   5.131  0.00  0.00     0.000 A 
ATOM      5  C6  UNL d   1      -3.480   5.907   5.776  0.00  0.00     0.000 A 
ATOM      6  C7  UNL d   1      -4.673   5.661   5.075  0.00  0.00    -0.073 A 
ATOM      7  C8  UNL d   1      -5.978   5.745   5.819  0.00  0.00     0.078 C 
ENDROOT
BRANCH   1   8
ATOM      8  C1  UNL d   1      -5.856   5.149   2.862  0.00  0.00     0.053 C 
ATOM      9  C   UNL d   1      -5.629   4.143   1.744  0.00  0.00     0.018 C 
ENDBRANCH   1   8
TORSDOF 1
ENDMDL
