MODEL 1
REMARK minimizedAffinity 3.28910971
REMARK minimizedRMSD -1
REMARK  0 active torsions:
REMARK  status: ('A' for Active; 'I' for Inactive)
ROOT
ATOM      1  C   UNL d   1       3.845   5.985  -1.842  0.00  0.00     0.023 A 
ATOM      2  C1  UNL d   1       5.237   5.917  -1.915  0.00  0.00     0.003 A 
ATOM      3  C2  UNL d   1       5.857   5.538  -3.108  0.00  0.00     0.048 A 
ATOM      4  C3  UNL d   1       5.079   5.229  -4.224  0.00  0.00     0.023 A 
ATOM      5  C4  UNL d   1       3.687   5.297  -4.155  0.00  0.00     0.048 A 
ATOM      6  C5  UNL d   1       3.071   5.675  -2.961  0.00  0.00     0.003 A 
ATOM      7  I   UNL d   1       6.000   4.666  -6.000  0.00  0.00    -0.146 I 
ENDROOT
TORSDOF 0
ENDMDL
