MODEL 1
REMARK minimizedAffinity 2.78558445
REMARK minimizedRMSD -1
REMARK  0 active torsions:
REMARK  status: ('A' for Active; 'I' for Inactive)
ROOT
ATOM      1  C   UNL d   1       4.088   3.701  -4.868  0.00  0.00     0.023 A 
ATOM      2  C1  UNL d   1       3.305   4.583  -4.123  0.00  0.00     0.003 A 
ATOM      3  C2  UNL d   1       3.852   5.243  -3.020  0.00  0.00     0.048 A 
ATOM      4  C3  UNL d   1       5.183   5.017  -2.669  0.00  0.00     0.023 A 
ATOM      5  C4  UNL d   1       5.970   4.136  -3.413  0.00  0.00     0.048 A 
ATOM      6  C5  UNL d   1       5.418   3.478  -4.514  0.00  0.00     0.003 A 
ATOM      7  I   UNL d   1       5.999   5.999  -1.029  0.00  0.00    -0.146 I 
ENDROOT
TORSDOF 0
ENDMDL
