MODEL 1
REMARK minimizedAffinity 9.61651897
REMARK minimizedRMSD -1
REMARK  0 active torsions:
REMARK  status: ('A' for Active; 'I' for Inactive)
ROOT
ATOM      1  C   UNL d   1      -1.137  -2.012  -1.838  0.00  0.00     0.023 A 
ATOM      2  C1  UNL d   1      -0.926  -1.672  -3.175  0.00  0.00     0.003 A 
ATOM      3  C2  UNL d   1       0.353  -1.763  -3.727  0.00  0.00     0.048 A 
ATOM      4  C3  UNL d   1       1.418  -2.195  -2.937  0.00  0.00     0.023 A 
ATOM      5  C4  UNL d   1       1.212  -2.538  -1.599  0.00  0.00     0.048 A 
ATOM      6  C5  UNL d   1      -0.069  -2.445  -1.052  0.00  0.00     0.003 A 
ATOM      7  I   UNL d   1       3.323  -2.331  -3.756  0.00  0.00    -0.146 I 
ENDROOT
TORSDOF 0
ENDMDL
