MODEL 1
REMARK minimizedAffinity 4.79289246
REMARK minimizedRMSD -1
REMARK  0 active torsions:
REMARK  status: ('A' for Active; 'I' for Inactive)
ROOT
ATOM      1  C   UNL d   1       4.098   5.625  -1.608  0.00  0.00     0.023 A 
ATOM      2  C1  UNL d   1       3.290   5.131  -2.632  0.00  0.00     0.003 A 
ATOM      3  C2  UNL d   1       3.834   4.880  -3.893  0.00  0.00     0.048 A 
ATOM      4  C3  UNL d   1       5.187   5.126  -4.123  0.00  0.00     0.023 A 
ATOM      5  C4  UNL d   1       6.000   5.620  -3.102  0.00  0.00     0.048 A 
ATOM      6  C5  UNL d   1       5.451   5.870  -1.842  0.00  0.00     0.003 A 
ATOM      7  I   UNL d   1       6.000   4.753  -6.000  0.00  0.00    -0.146 I 
ENDROOT
TORSDOF 0
ENDMDL
