MODEL 1
REMARK minimizedAffinity -2.53845453
REMARK minimizedRMSD -1
REMARK  0 active torsions:
REMARK  status: ('A' for Active; 'I' for Inactive)
ROOT
ATOM      1  C   UNL d   1       4.884   4.491  -5.484  0.00  0.00     0.023 A 
ATOM      2  C1  UNL d   1       4.418   3.734  -4.409  0.00  0.00     0.003 A 
ATOM      3  C2  UNL d   1       4.737   4.106  -3.101  0.00  0.00     0.048 A 
ATOM      4  C3  UNL d   1       5.522   5.236  -2.876  0.00  0.00     0.023 A 
ATOM      5  C4  UNL d   1       5.991   5.996  -3.949  0.00  0.00     0.048 A 
ATOM      6  C5  UNL d   1       5.669   5.620  -5.254  0.00  0.00     0.003 A 
ATOM      7  I   UNL d   1       5.999   5.792  -0.931  0.00  0.00    -0.146 I 
ENDROOT
TORSDOF 0
ENDMDL
