MODEL 1
REMARK minimizedAffinity 3.02854824
REMARK minimizedRMSD -1
REMARK  0 active torsions:
REMARK  status: ('A' for Active; 'I' for Inactive)
ROOT
ATOM      1  C   UNL d   1       4.252   4.282  -5.139  0.00  0.00     0.023 A 
ATOM      2  C1  UNL d   1       5.496   3.856  -4.675  0.00  0.00     0.003 A 
ATOM      3  C2  UNL d   1       5.999   4.348  -3.469  0.00  0.00     0.048 A 
ATOM      4  C3  UNL d   1       5.252   5.265  -2.731  0.00  0.00     0.023 A 
ATOM      5  C4  UNL d   1       4.006   5.694  -3.191  0.00  0.00     0.048 A 
ATOM      6  C5  UNL d   1       3.508   5.200  -4.398  0.00  0.00     0.003 A 
ATOM      7  I   UNL d   1       5.999   5.999  -0.936  0.00  0.00    -0.146 I 
ENDROOT
TORSDOF 0
ENDMDL
