MODEL 1
REMARK minimizedAffinity 6.83288717
REMARK minimizedRMSD -1
REMARK  0 active torsions:
REMARK  status: ('A' for Active; 'I' for Inactive)
ROOT
ATOM      1  C   UNL d   1       3.942   3.368  -4.297  0.00  0.00     0.023 A 
ATOM      2  C1  UNL d   1       5.320   3.304  -4.093  0.00  0.00     0.003 A 
ATOM      3  C2  UNL d   1       5.913   4.059  -3.078  0.00  0.00     0.048 A 
ATOM      4  C3  UNL d   1       5.121   4.875  -2.271  0.00  0.00     0.023 A 
ATOM      5  C4  UNL d   1       3.741   4.942  -2.472  0.00  0.00     0.048 A 
ATOM      6  C5  UNL d   1       3.153   4.186  -3.488  0.00  0.00     0.003 A 
ATOM      7  I   UNL d   1       6.000   6.000  -0.761  0.00  0.00    -0.146 I 
ENDROOT
TORSDOF 0
ENDMDL
