MODEL 1
REMARK minimizedAffinity 1.26666975
REMARK minimizedRMSD -1
REMARK  0 active torsions:
REMARK  status: ('A' for Active; 'I' for Inactive)
ROOT
ATOM      1  C   UNL d   1       3.943   3.401  -3.853  0.00  0.00     0.023 A 
ATOM      2  C1  UNL d   1       3.147   4.162  -2.997  0.00  0.00     0.003 A 
ATOM      3  C2  UNL d   1       3.736   4.908  -1.974  0.00  0.00     0.048 A 
ATOM      4  C3  UNL d   1       5.121   4.889  -1.813  0.00  0.00     0.023 A 
ATOM      5  C4  UNL d   1       5.921   4.129  -2.668  0.00  0.00     0.048 A 
ATOM      6  C5  UNL d   1       5.328   3.384  -3.689  0.00  0.00     0.003 A 
ATOM      7  I   UNL d   1       6.000   5.998  -0.291  0.00  0.00    -0.146 I 
ENDROOT
TORSDOF 0
ENDMDL
