MODEL 1
REMARK minimizedAffinity 0.58712244
REMARK minimizedRMSD -1
REMARK  0 active torsions:
REMARK  status: ('A' for Active; 'I' for Inactive)
ROOT
ATOM      1  C   UNL d   1       3.678   3.373  -4.510  0.00  0.00     0.023 A 
ATOM      2  C1  UNL d   1       5.071   3.338  -4.437  0.00  0.00     0.003 A 
ATOM      3  C2  UNL d   1       5.738   4.068  -3.452  0.00  0.00     0.048 A 
ATOM      4  C3  UNL d   1       5.007   4.831  -2.542  0.00  0.00     0.023 A 
ATOM      5  C4  UNL d   1       3.614   4.869  -2.611  0.00  0.00     0.048 A 
ATOM      6  C5  UNL d   1       2.951   4.138  -3.598  0.00  0.00     0.003 A 
ATOM      7  I   UNL d   1       5.999   5.918  -1.075  0.00  0.00    -0.146 I 
ENDROOT
TORSDOF 0
ENDMDL
