MODEL 1
REMARK minimizedAffinity -4.60290861
REMARK minimizedRMSD -1
REMARK  0 active torsions:
REMARK  status: ('A' for Active; 'I' for Inactive)
ROOT
ATOM      1  C   UNL d   1       4.062   2.856  -5.574  0.00  0.00     0.023 A 
ATOM      2  C1  UNL d   1       3.239   3.732  -4.866  0.00  0.00     0.003 A 
ATOM      3  C2  UNL d   1       3.793   4.622  -3.945  0.00  0.00     0.048 A 
ATOM      4  C3  UNL d   1       5.172   4.632  -3.736  0.00  0.00     0.023 A 
ATOM      5  C4  UNL d   1       6.000   3.758  -4.442  0.00  0.00     0.048 A 
ATOM      6  C5  UNL d   1       5.441   2.869  -5.362  0.00  0.00     0.003 A 
ATOM      7  I   UNL d   1       6.000   5.957  -2.365  0.00  0.00    -0.146 I 
ENDROOT
TORSDOF 0
ENDMDL
