MODEL 1
REMARK minimizedAffinity -3.08555746
REMARK minimizedRMSD -1
REMARK  0 active torsions:
REMARK  status: ('A' for Active; 'I' for Inactive)
ROOT
ATOM      1  C   UNL d   1       4.603   5.502  -2.799  0.00  0.00     0.023 A 
ATOM      2  C1  UNL d   1       5.830   4.843  -2.880  0.00  0.00     0.003 A 
ATOM      3  C2  UNL d   1       5.999   3.788  -3.778  0.00  0.00     0.048 A 
ATOM      4  C3  UNL d   1       4.938   3.396  -4.593  0.00  0.00     0.023 A 
ATOM      5  C4  UNL d   1       3.708   4.053  -4.516  0.00  0.00     0.048 A 
ATOM      6  C5  UNL d   1       3.544   5.108  -3.616  0.00  0.00     0.003 A 
ATOM      7  I   UNL d   1       5.187   1.825  -5.930  0.00  0.00    -0.146 I 
ENDROOT
TORSDOF 0
ENDMDL
