MODEL 1
REMARK minimizedAffinity -3.16479874
REMARK minimizedRMSD -1
REMARK  0 active torsions:
REMARK  status: ('A' for Active; 'I' for Inactive)
ROOT
ATOM      1  C   UNL d   1       4.179   5.944  -3.071  0.00  0.00     0.023 A 
ATOM      2  C1  UNL d   1       5.480   5.479  -2.876  0.00  0.00     0.003 A 
ATOM      3  C2  UNL d   1       6.000   4.487  -3.710  0.00  0.00     0.048 A 
ATOM      4  C3  UNL d   1       5.214   3.966  -4.738  0.00  0.00     0.023 A 
ATOM      5  C4  UNL d   1       3.913   4.429  -4.937  0.00  0.00     0.048 A 
ATOM      6  C5  UNL d   1       3.397   5.420  -4.100  0.00  0.00     0.003 A 
ATOM      7  I   UNL d   1       5.986   2.490  -5.981  0.00  0.00    -0.146 I 
ENDROOT
TORSDOF 0
ENDMDL
