MODEL 1
REMARK minimizedAffinity 17.8366718
REMARK minimizedRMSD -1
REMARK  0 active torsions:
REMARK  status: ('A' for Active; 'I' for Inactive)
ROOT
ATOM      1  C   UNL d   1       4.151   3.122  -4.267  0.00  0.00     0.023 A 
ATOM      2  C1  UNL d   1       3.335   4.080  -3.664  0.00  0.00     0.003 A 
ATOM      3  C2  UNL d   1       3.848   4.905  -2.662  0.00  0.00     0.048 A 
ATOM      4  C3  UNL d   1       5.178   4.769  -2.268  0.00  0.00     0.023 A 
ATOM      5  C4  UNL d   1       5.999   3.813  -2.869  0.00  0.00     0.048 A 
ATOM      6  C5  UNL d   1       5.482   2.989  -3.870  0.00  0.00     0.003 A 
ATOM      7  I   UNL d   1       5.945   5.997  -0.776  0.00  0.00    -0.146 I 
ENDROOT
TORSDOF 0
ENDMDL
