MODEL 1
REMARK minimizedAffinity 10.7602167
REMARK minimizedRMSD -1
REMARK  0 active torsions:
REMARK  status: ('A' for Active; 'I' for Inactive)
ROOT
ATOM      1  C   UNL d   1      -1.177  -2.473  -1.382  0.00  0.00     0.023 A 
ATOM      2  C1  UNL d   1      -1.068  -1.973  -2.680  0.00  0.00     0.003 A 
ATOM      3  C2  UNL d   1       0.174  -1.948  -3.318  0.00  0.00     0.048 A 
ATOM      4  C3  UNL d   1       1.303  -2.426  -2.653  0.00  0.00     0.023 A 
ATOM      5  C4  UNL d   1       1.198  -2.928  -1.355  0.00  0.00     0.048 A 
ATOM      6  C5  UNL d   1      -0.045  -2.950  -0.720  0.00  0.00     0.003 A 
ATOM      7  I   UNL d   1       3.152  -2.390  -3.601  0.00  0.00    -0.146 I 
ENDROOT
TORSDOF 0
ENDMDL
