MODEL 1
REMARK minimizedAffinity -3.10750198
REMARK minimizedRMSD -1
REMARK  0 active torsions:
REMARK  status: ('A' for Active; 'I' for Inactive)
ROOT
ATOM      1  C   UNL d   1       4.433   5.774  -3.568  0.00  0.00     0.023 A 
ATOM      2  C1  UNL d   1       3.657   5.282  -4.617  0.00  0.00     0.003 A 
ATOM      3  C2  UNL d   1       4.005   4.082  -5.242  0.00  0.00     0.048 A 
ATOM      4  C3  UNL d   1       5.130   3.380  -4.811  0.00  0.00     0.023 A 
ATOM      5  C4  UNL d   1       5.909   3.868  -3.761  0.00  0.00     0.048 A 
ATOM      6  C5  UNL d   1       5.558   5.069  -3.140  0.00  0.00     0.003 A 
ATOM      7  I   UNL d   1       5.651   1.594  -5.738  0.00  0.00    -0.146 I 
ENDROOT
TORSDOF 0
ENDMDL
