MODEL 1
REMARK minimizedAffinity -1.98740804
REMARK minimizedRMSD -1
REMARK  0 active torsions:
REMARK  status: ('A' for Active; 'I' for Inactive)
ROOT
ATOM      1  C   UNL d   1       4.293   5.983  -2.258  0.00  0.00     0.023 A 
ATOM      2  C1  UNL d   1       5.505   5.369  -1.941  0.00  0.00     0.003 A 
ATOM      3  C2  UNL d   1       5.996   4.336  -2.743  0.00  0.00     0.048 A 
ATOM      4  C3  UNL d   1       5.270   3.923  -3.860  0.00  0.00     0.023 A 
ATOM      5  C4  UNL d   1       4.058   4.536  -4.181  0.00  0.00     0.048 A 
ATOM      6  C5  UNL d   1       3.571   5.568  -3.376  0.00  0.00     0.003 A 
ATOM      7  I   UNL d   1       5.999   2.387  -5.054  0.00  0.00    -0.146 I 
ENDROOT
TORSDOF 0
ENDMDL
