MODEL 1
REMARK minimizedAffinity 0.945423543
REMARK minimizedRMSD -1
REMARK  0 active torsions:
REMARK  status: ('A' for Active; 'I' for Inactive)
ROOT
ATOM      1  C   UNL d   1       4.476   5.983  -2.621  0.00  0.00     0.023 A 
ATOM      2  C1  UNL d   1       5.584   5.170  -2.382  0.00  0.00     0.003 A 
ATOM      3  C2  UNL d   1       6.000   4.252  -3.349  0.00  0.00     0.048 A 
ATOM      4  C3  UNL d   1       5.304   4.154  -4.554  0.00  0.00     0.023 A 
ATOM      5  C4  UNL d   1       4.196   4.967  -4.798  0.00  0.00     0.048 A 
ATOM      6  C5  UNL d   1       3.783   5.882  -3.828  0.00  0.00     0.003 A 
ATOM      7  I   UNL d   1       5.922   2.790  -5.995  0.00  0.00    -0.146 I 
ENDROOT
TORSDOF 0
ENDMDL
