MODEL 1
REMARK minimizedAffinity -3.46102691
REMARK minimizedRMSD -1
REMARK  0 active torsions:
REMARK  status: ('A' for Active; 'I' for Inactive)
ROOT
ATOM      1  C   UNL d   1       4.339   5.958  -2.255  0.00  0.00     0.023 A 
ATOM      2  C1  UNL d   1       5.637   5.447  -2.279  0.00  0.00     0.003 A 
ATOM      3  C2  UNL d   1       6.000   4.505  -3.245  0.00  0.00     0.048 A 
ATOM      4  C3  UNL d   1       5.061   4.080  -4.184  0.00  0.00     0.023 A 
ATOM      5  C4  UNL d   1       3.761   4.590  -4.164  0.00  0.00     0.048 A 
ATOM      6  C5  UNL d   1       3.402   5.530  -3.196  0.00  0.00     0.003 A 
ATOM      7  I   UNL d   1       5.599   2.680  -5.622  0.00  0.00    -0.146 I 
ENDROOT
TORSDOF 0
ENDMDL
