MODEL 1
REMARK minimizedAffinity -2.4519043
REMARK minimizedRMSD -1
REMARK  0 active torsions:
REMARK  status: ('A' for Active; 'I' for Inactive)
ROOT
ATOM      1  C   UNL d   1      -0.070   2.780  -0.141  0.00  0.00     0.078 C 
ATOM      2  C1  UNL d   1       0.582   1.432  -0.056  0.00  0.00    -0.077 A 
ATOM      3  C2  UNL d   1       1.679   1.214   0.787  0.00  0.00    -0.001 A 
ATOM      4  C3  UNL d   1       2.282  -0.044   0.849  0.00  0.00     0.003 A 
ATOM      5  C4  UNL d   1       1.797  -1.092   0.070  0.00  0.00    -0.005 A 
ATOM      6  C5  UNL d   1       0.707  -0.883  -0.774  0.00  0.00     0.003 A 
ATOM      7  C6  UNL d   1       0.103   0.373  -0.837  0.00  0.00    -0.001 A 
ENDROOT
TORSDOF 0
ENDMDL
