MODEL 1
REMARK minimizedAffinity -0.0976830572
REMARK minimizedRMSD -1
REMARK  0 active torsions:
REMARK  status: ('A' for Active; 'I' for Inactive)
ROOT
ATOM      1  C   UNL d   1       2.731  -1.474  -0.249  0.00  0.00     0.078 C 
ATOM      2  C1  UNL d   1       1.436  -0.967   0.312  0.00  0.00    -0.077 A 
ATOM      3  C2  UNL d   1       1.024  -1.315   1.604  0.00  0.00    -0.001 A 
ATOM      4  C3  UNL d   1      -0.188  -0.844   2.110  0.00  0.00     0.003 A 
ATOM      5  C4  UNL d   1      -0.999  -0.022   1.330  0.00  0.00    -0.005 A 
ATOM      6  C5  UNL d   1      -0.599   0.328   0.042  0.00  0.00     0.003 A 
ATOM      7  C6  UNL d   1       0.613  -0.142  -0.465  0.00  0.00    -0.001 A 
ENDROOT
TORSDOF 0
ENDMDL
