MODEL 1
REMARK minimizedAffinity -4.64644623
REMARK minimizedRMSD -1
REMARK  0 active torsions:
REMARK  status: ('A' for Active; 'I' for Inactive)
ROOT
ATOM      1  C   UNL d   1      -0.004   0.542  -1.448  0.00  0.00     0.078 C 
ATOM      2  C1  UNL d   1       0.162   0.184  -0.002  0.00  0.00    -0.077 A 
ATOM      3  C2  UNL d   1      -0.916  -0.298   0.750  0.00  0.00    -0.001 A 
ATOM      4  C3  UNL d   1      -0.750  -0.619   2.098  0.00  0.00     0.003 A 
ATOM      5  C4  UNL d   1       0.493  -0.459   2.707  0.00  0.00    -0.005 A 
ATOM      6  C5  UNL d   1       1.572   0.022   1.967  0.00  0.00     0.003 A 
ATOM      7  C6  UNL d   1       1.407   0.343   0.619  0.00  0.00    -0.001 A 
ENDROOT
TORSDOF 0
ENDMDL
