MODEL 1
REMARK minimizedAffinity -5.34800053
REMARK minimizedRMSD -1
REMARK  0 active torsions:
REMARK  status: ('A' for Active; 'I' for Inactive)
ROOT
ATOM      1  C   UNL d   1      -1.991  -0.758   0.211  0.00  0.00     0.078 C 
ATOM      2  C1  UNL d   1      -0.667  -0.501   0.865  0.00  0.00    -0.077 A 
ATOM      3  C2  UNL d   1      -0.195  -1.331   1.889  0.00  0.00    -0.001 A 
ATOM      4  C3  UNL d   1       1.036  -1.074   2.496  0.00  0.00     0.003 A 
ATOM      5  C4  UNL d   1       1.805   0.013   2.085  0.00  0.00    -0.005 A 
ATOM      6  C5  UNL d   1       1.343   0.845   1.068  0.00  0.00     0.003 A 
ATOM      7  C6  UNL d   1       0.112   0.590   0.460  0.00  0.00    -0.001 A 
ENDROOT
TORSDOF 0
ENDMDL
