MODEL 1
REMARK minimizedAffinity -5.00104475
REMARK minimizedRMSD -1
REMARK  0 active torsions:
REMARK  status: ('A' for Active; 'I' for Inactive)
ROOT
ATOM      1  C   UNL d   1       1.936  -0.643   2.936  0.00  0.00     0.078 C 
ATOM      2  C1  UNL d   1       0.835  -0.662   1.918  0.00  0.00    -0.077 A 
ATOM      3  C2  UNL d   1      -0.499  -0.846   2.301  0.00  0.00    -0.001 A 
ATOM      4  C3  UNL d   1      -1.512  -0.871   1.341  0.00  0.00     0.003 A 
ATOM      5  C4  UNL d   1      -1.202  -0.713  -0.008  0.00  0.00    -0.005 A 
ATOM      6  C5  UNL d   1       0.123  -0.531  -0.399  0.00  0.00     0.003 A 
ATOM      7  C6  UNL d   1       1.137  -0.506   0.559  0.00  0.00    -0.001 A 
ENDROOT
TORSDOF 0
ENDMDL
