MODEL 1
REMARK minimizedAffinity -3.39236617
REMARK minimizedRMSD -1
REMARK  0 active torsions:
REMARK  status: ('A' for Active; 'I' for Inactive)
ROOT
ATOM      1  C   UNL d   1      -1.233   0.651  -0.041  0.00  0.00     0.078 C 
ATOM      2  C1  UNL d   1       0.130   0.026  -0.008  0.00  0.00    -0.077 A 
ATOM      3  C2  UNL d   1       0.661  -0.606  -1.138  0.00  0.00    -0.001 A 
ATOM      4  C3  UNL d   1       1.927  -1.192  -1.090  0.00  0.00     0.003 A 
ATOM      5  C4  UNL d   1       2.672  -1.153   0.087  0.00  0.00    -0.005 A 
ATOM      6  C5  UNL d   1       2.150  -0.528   1.218  0.00  0.00     0.003 A 
ATOM      7  C6  UNL d   1       0.884   0.058   1.172  0.00  0.00    -0.001 A 
ENDROOT
TORSDOF 0
ENDMDL
