MODEL 1
REMARK minimizedAffinity -2.44705701
REMARK minimizedRMSD -1
REMARK  0 active torsions:
REMARK  status: ('A' for Active; 'I' for Inactive)
ROOT
ATOM      1  C   UNL d   1       2.324  -1.186   0.081  0.00  0.00     0.124 A 
ATOM      2  C1  UNL d   1       1.951   0.006   0.686  0.00  0.00     0.062 A 
ATOM      3  C2  UNL d   1       0.628   0.435   0.629  0.00  0.00     0.162 A 
ATOM      4  C3  UNL d   1      -0.332  -0.329  -0.035  0.00  0.00    -0.034 A 
ATOM      5  C4  UNL d   1       0.051  -1.526  -0.642  0.00  0.00     0.162 A 
ATOM      6  C5  UNL d   1       1.375  -1.951  -0.582  0.00  0.00     0.062 A 
ATOM      7  F   UNL d   1       1.734  -3.103  -1.168  0.00  0.00    -0.097 F 
ATOM      8  F1  UNL d   1      -0.846  -2.285  -1.288  0.00  0.00    -0.096 F 
ATOM      9  I   UNL d   1      -2.311   0.310  -0.122  0.00  0.00    -0.060 I 
ATOM     10  F2  UNL d   1       0.295   1.591   1.223  0.00  0.00    -0.096 F 
ATOM     11  F3  UNL d   1       2.867   0.747   1.326  0.00  0.00    -0.097 F 
ATOM     12  F4  UNL d   1       3.598  -1.597   0.136  0.00  0.00    -0.092 F 
ENDROOT
TORSDOF 0
ENDMDL
