MODEL 1
REMARK minimizedAffinity -3.36632442
REMARK minimizedRMSD -1
REMARK  0 active torsions:
REMARK  status: ('A' for Active; 'I' for Inactive)
ROOT
ATOM      1  C   UNL d   1       1.527   0.492   0.719  0.00  0.00     0.124 A 
ATOM      2  C1  UNL d   1       2.142  -0.735   0.930  0.00  0.00     0.062 A 
ATOM      3  C2  UNL d   1       1.567  -1.900   0.431  0.00  0.00     0.162 A 
ATOM      4  C3  UNL d   1       0.371  -1.845  -0.284  0.00  0.00    -0.034 A 
ATOM      5  C4  UNL d   1      -0.242  -0.608  -0.491  0.00  0.00     0.162 A 
ATOM      6  C5  UNL d   1       0.336   0.554   0.009  0.00  0.00     0.062 A 
ATOM      7  F   UNL d   1      -0.259   1.738  -0.195  0.00  0.00    -0.097 F 
ATOM      8  F1  UNL d   1      -1.392  -0.519  -1.175  0.00  0.00    -0.096 F 
ATOM      9  I   UNL d   1      -0.491  -3.586  -1.032  0.00  0.00    -0.060 I 
ATOM     10  F2  UNL d   1       2.183  -3.072   0.649  0.00  0.00    -0.096 F 
ATOM     11  F3  UNL d   1       3.292  -0.798   1.616  0.00  0.00    -0.097 F 
ATOM     12  F4  UNL d   1       2.081   1.612   1.201  0.00  0.00    -0.092 F 
ENDROOT
TORSDOF 0
ENDMDL
