MODEL 1
REMARK minimizedAffinity -4.16975546
REMARK minimizedRMSD -1
REMARK  0 active torsions:
REMARK  status: ('A' for Active; 'I' for Inactive)
ROOT
ATOM      1  C   UNL d   1       2.951  -1.102  -0.149  0.00  0.00     0.124 A 
ATOM      2  C1  UNL d   1       2.517  -0.132   0.743  0.00  0.00     0.062 A 
ATOM      3  C2  UNL d   1       1.196   0.306   0.712  0.00  0.00     0.162 A 
ATOM      4  C3  UNL d   1       0.299  -0.227  -0.215  0.00  0.00    -0.034 A 
ATOM      5  C4  UNL d   1       0.744  -1.202  -1.109  0.00  0.00     0.162 A 
ATOM      6  C5  UNL d   1       2.065  -1.636  -1.074  0.00  0.00     0.062 A 
ATOM      7  F   UNL d   1       2.483  -2.574  -1.937  0.00  0.00    -0.097 F 
ATOM      8  F1  UNL d   1      -0.091  -1.735  -2.013  0.00  0.00    -0.096 F 
ATOM      9  I   UNL d   1      -1.676   0.426  -0.264  0.00  0.00    -0.060 I 
ATOM     10  F2  UNL d   1       0.804   1.245   1.586  0.00  0.00    -0.096 F 
ATOM     11  F3  UNL d   1       3.371   0.386   1.637  0.00  0.00    -0.097 F 
ATOM     12  F4  UNL d   1       4.223  -1.521  -0.118  0.00  0.00    -0.092 F 
ENDROOT
TORSDOF 0
ENDMDL
