MODEL 1
REMARK minimizedAffinity 1.72453964
REMARK minimizedRMSD -1
REMARK  0 active torsions:
REMARK  status: ('A' for Active; 'I' for Inactive)
ROOT
ATOM      1  C   UNL d   1       1.509   0.806  -0.172  0.00  0.00     0.124 A 
ATOM      2  C1  UNL d   1       0.134   0.638  -0.256  0.00  0.00     0.062 A 
ATOM      3  C2  UNL d   1      -0.411  -0.640  -0.346  0.00  0.00     0.162 A 
ATOM      4  C3  UNL d   1       0.420  -1.760  -0.352  0.00  0.00    -0.034 A 
ATOM      5  C4  UNL d   1       1.802  -1.583  -0.268  0.00  0.00     0.162 A 
ATOM      6  C5  UNL d   1       2.342  -0.304  -0.178  0.00  0.00     0.062 A 
ATOM      7  F   UNL d   1       3.671  -0.144  -0.097  0.00  0.00    -0.097 F 
ATOM      8  F1  UNL d   1       2.630  -2.639  -0.271  0.00  0.00    -0.096 F 
ATOM      9  I   UNL d   1      -0.391  -3.672  -0.487  0.00  0.00    -0.060 I 
ATOM     10  F2  UNL d   1      -1.743  -0.772  -0.426  0.00  0.00    -0.096 F 
ATOM     11  F3  UNL d   1      -0.672   1.709  -0.251  0.00  0.00    -0.097 F 
ATOM     12  F4  UNL d   1       2.031   2.036  -0.086  0.00  0.00    -0.092 F 
ENDROOT
TORSDOF 0
ENDMDL
