MODEL 1
REMARK minimizedAffinity -1.29579842
REMARK minimizedRMSD -1
REMARK  0 active torsions:
REMARK  status: ('A' for Active; 'I' for Inactive)
ROOT
ATOM      1  C   UNL d   1       2.451  -0.372   0.470  0.00  0.00     0.124 A 
ATOM      2  C1  UNL d   1       2.022   0.948   0.488  0.00  0.00     0.062 A 
ATOM      3  C2  UNL d   1       0.692   1.255   0.218  0.00  0.00     0.162 A 
ATOM      4  C3  UNL d   1      -0.220   0.240  -0.073  0.00  0.00    -0.034 A 
ATOM      5  C4  UNL d   1       0.219  -1.085  -0.090  0.00  0.00     0.162 A 
ATOM      6  C5  UNL d   1       1.550  -1.387   0.181  0.00  0.00     0.062 A 
ATOM      7  F   UNL d   1       1.963  -2.663   0.164  0.00  0.00    -0.097 F 
ATOM      8  F1  UNL d   1      -0.630  -2.086  -0.365  0.00  0.00    -0.096 F 
ATOM      9  I   UNL d   1      -2.210   0.695  -0.478  0.00  0.00    -0.060 I 
ATOM     10  F2  UNL d   1       0.305   2.539   0.242  0.00  0.00    -0.096 F 
ATOM     11  F3  UNL d   1       2.891   1.930   0.766  0.00  0.00    -0.097 F 
ATOM     12  F4  UNL d   1       3.732  -0.664   0.730  0.00  0.00    -0.092 F 
ENDROOT
TORSDOF 0
ENDMDL
