MODEL 1
REMARK minimizedAffinity -3.8026793
REMARK minimizedRMSD -1
REMARK  0 active torsions:
REMARK  status: ('A' for Active; 'I' for Inactive)
ROOT
ATOM      1  C   UNL d   1       2.633  -1.001   0.035  0.00  0.00     0.124 A 
ATOM      2  C1  UNL d   1       1.787  -1.818  -0.701  0.00  0.00     0.062 A 
ATOM      3  C2  UNL d   1       0.422  -1.549  -0.751  0.00  0.00     0.162 A 
ATOM      4  C3  UNL d   1      -0.105  -0.456  -0.063  0.00  0.00    -0.034 A 
ATOM      5  C4  UNL d   1       0.753   0.362   0.675  0.00  0.00     0.162 A 
ATOM      6  C5  UNL d   1       2.116   0.088   0.722  0.00  0.00     0.062 A 
ATOM      7  F   UNL d   1       2.932   0.879   1.433  0.00  0.00    -0.097 F 
ATOM      8  F1  UNL d   1       0.279   1.421   1.348  0.00  0.00    -0.096 F 
ATOM      9  I   UNL d   1      -2.145  -0.050  -0.135  0.00  0.00    -0.060 I 
ATOM     10  F2  UNL d   1      -0.372  -2.356  -1.469  0.00  0.00    -0.096 F 
ATOM     11  F3  UNL d   1       2.284  -2.871  -1.365  0.00  0.00    -0.097 F 
ATOM     12  F4  UNL d   1       3.946  -1.263   0.081  0.00  0.00    -0.092 F 
ENDROOT
TORSDOF 0
ENDMDL
