MODEL 1
REMARK minimizedAffinity -2.58771467
REMARK minimizedRMSD -1
REMARK  0 active torsions:
REMARK  status: ('A' for Active; 'I' for Inactive)
ROOT
ATOM      1  C   UNL d   1       1.394  -1.983  -0.348  0.00  0.00     0.124 A 
ATOM      2  C1  UNL d   1       0.273  -2.184  -1.141  0.00  0.00     0.062 A 
ATOM      3  C2  UNL d   1      -0.810  -1.313  -1.056  0.00  0.00     0.162 A 
ATOM      4  C3  UNL d   1      -0.777  -0.233  -0.175  0.00  0.00    -0.034 A 
ATOM      5  C4  UNL d   1       0.354  -0.038   0.621  0.00  0.00     0.162 A 
ATOM      6  C5  UNL d   1       1.434  -0.910   0.532  0.00  0.00     0.062 A 
ATOM      7  F   UNL d   1       2.516  -0.714   1.299  0.00  0.00    -0.097 F 
ATOM      8  F1  UNL d   1       0.419   0.991   1.479  0.00  0.00    -0.096 F 
ATOM      9  I   UNL d   1      -2.394   1.071  -0.044  0.00  0.00    -0.060 I 
ATOM     10  F2  UNL d   1      -1.880  -1.532  -1.834  0.00  0.00    -0.096 F 
ATOM     11  F3  UNL d   1       0.232  -3.220  -1.992  0.00  0.00    -0.097 F 
ATOM     12  F4  UNL d   1       2.434  -2.822  -0.432  0.00  0.00    -0.092 F 
ENDROOT
TORSDOF 0
ENDMDL
