MODEL 1
REMARK minimizedAffinity 3.12372804
REMARK minimizedRMSD -1
REMARK  0 active torsions:
REMARK  status: ('A' for Active; 'I' for Inactive)
ROOT
ATOM      1  C   UNL d   1       1.609  -2.302  -0.887  0.00  0.00     0.124 A 
ATOM      2  C1  UNL d   1       2.040  -0.983  -0.850  0.00  0.00     0.062 A 
ATOM      3  C2  UNL d   1       1.137   0.055  -1.062  0.00  0.00     0.162 A 
ATOM      4  C3  UNL d   1      -0.207  -0.222  -1.311  0.00  0.00    -0.034 A 
ATOM      5  C4  UNL d   1      -0.633  -1.551  -1.347  0.00  0.00     0.162 A 
ATOM      6  C5  UNL d   1       0.273  -2.585  -1.135  0.00  0.00     0.062 A 
ATOM      7  F   UNL d   1      -0.145  -3.858  -1.171  0.00  0.00    -0.097 F 
ATOM      8  F1  UNL d   1      -1.918  -1.852  -1.584  0.00  0.00    -0.096 F 
ATOM      9  I   UNL d   1      -1.560   1.327  -1.627  0.00  0.00    -0.060 I 
ATOM     10  F2  UNL d   1       1.582   1.319  -1.021  0.00  0.00    -0.096 F 
ATOM     11  F3  UNL d   1       3.331  -0.708  -0.612  0.00  0.00    -0.097 F 
ATOM     12  F4  UNL d   1       2.481  -3.299  -0.684  0.00  0.00    -0.092 F 
ENDROOT
TORSDOF 0
ENDMDL
