MODEL 1
REMARK minimizedAffinity 8.47912693
REMARK minimizedRMSD -1
REMARK  1 active torsions:
REMARK  status: ('A' for Active; 'I' for Inactive)
REMARK    1  A    between atoms: N_2  and  C1_3 
ROOT
ATOM      1  C1  UNL d   1       1.528  -1.488   4.477  0.00  0.00     0.143 A 
ATOM      2  C2  UNL d   1       1.738  -0.209   5.004  0.00  0.00    -0.057 A 
ATOM      3  C3  UNL d   1       1.864   0.908   4.170  0.00  0.00     0.033 A 
ATOM      4  C4  UNL d   1       1.811   0.762   2.788  0.00  0.00    -0.042 A 
ATOM      5  C5  UNL d   1       1.628  -0.503   2.241  0.00  0.00     0.033 A 
ATOM      6  C6  UNL d   1       1.497  -1.615   3.079  0.00  0.00    -0.057 A 
ENDROOT
BRANCH   1   7
ATOM      7  N   UNL d   1       1.494  -2.652   5.249  0.00  0.00    -0.732 N 
ATOM      8  C   UNL d   1       0.308  -3.003   6.000  0.00  0.00     0.284 C 
ATOM      9  H3  UNL d   1       1.941  -3.439   4.785  0.00  0.00     0.395 HD
ENDBRANCH   1   7
TORSDOF 1
ENDMDL
