MODEL 1
REMARK minimizedAffinity -0.301152766
REMARK minimizedRMSD -1
REMARK  1 active torsions:
REMARK  status: ('A' for Active; 'I' for Inactive)
REMARK    1  A    between atoms: N_2  and  C1_3 
ROOT
ATOM      1  C1  UNL d   1      -1.510  -2.491   0.909  0.00  0.00     0.143 A 
ATOM      2  C2  UNL d   1      -0.222  -3.037   0.903  0.00  0.00    -0.057 A 
ATOM      3  C3  UNL d   1       0.883  -2.297   1.340  0.00  0.00     0.033 A 
ATOM      4  C4  UNL d   1       0.723  -0.982   1.765  0.00  0.00    -0.042 A 
ATOM      5  C5  UNL d   1      -0.544  -0.410   1.755  0.00  0.00     0.033 A 
ATOM      6  C6  UNL d   1      -1.645  -1.157   1.324  0.00  0.00    -0.057 A 
ENDROOT
BRANCH   1   7
ATOM      7  N   UNL d   1      -2.634  -3.142   0.394  0.00  0.00    -0.732 N 
ATOM      8  C   UNL d   1      -2.730  -3.442  -1.018  0.00  0.00     0.284 C 
ATOM      9  H3  UNL d   1      -2.961  -3.890   1.001  0.00  0.00     0.395 HD
ENDBRANCH   1   7
TORSDOF 1
ENDMDL
