MODEL 1
REMARK minimizedAffinity 6.80781603
REMARK minimizedRMSD -1
REMARK  1 active torsions:
REMARK  status: ('A' for Active; 'I' for Inactive)
REMARK    1  A    between atoms: N_2  and  C1_3 
ROOT
ATOM      1  C1  UNL d   1      -2.715  -2.116  -2.839  0.00  0.00     0.143 A 
ATOM      2  C2  UNL d   1      -1.881  -3.213  -3.078  0.00  0.00    -0.057 A 
ATOM      3  C3  UNL d   1      -1.310  -3.935  -2.023  0.00  0.00     0.033 A 
ATOM      4  C4  UNL d   1      -1.540  -3.551  -0.705  0.00  0.00    -0.042 A 
ATOM      5  C5  UNL d   1      -2.345  -2.448  -0.445  0.00  0.00     0.033 A 
ATOM      6  C6  UNL d   1      -2.918  -1.736  -1.503  0.00  0.00    -0.057 A 
ENDROOT
BRANCH   1   7
ATOM      7  N   UNL d   1      -3.233  -1.298  -3.847  0.00  0.00    -0.732 N 
ATOM      8  C   UNL d   1      -3.372   0.127  -3.641  0.00  0.00     0.284 C 
ATOM      9  H3  UNL d   1      -2.888  -1.553  -4.769  0.00  0.00     0.395 HD
ENDBRANCH   1   7
TORSDOF 1
ENDMDL
