MODEL 1
REMARK minimizedAffinity 5.08213091
REMARK minimizedRMSD -1
REMARK  1 active torsions:
REMARK  status: ('A' for Active; 'I' for Inactive)
REMARK    1  A    between atoms: N_2  and  C1_3 
ROOT
ATOM      1  C1  UNL d   1      -2.597  -0.018  -0.022  0.00  0.00     0.143 A 
ATOM      2  C2  UNL d   1      -1.966  -0.966   0.790  0.00  0.00    -0.057 A 
ATOM      3  C3  UNL d   1      -0.838  -0.636   1.551  0.00  0.00     0.033 A 
ATOM      4  C4  UNL d   1      -0.301   0.646   1.489  0.00  0.00    -0.042 A 
ATOM      5  C5  UNL d   1      -0.896   1.598   0.669  0.00  0.00     0.033 A 
ATOM      6  C6  UNL d   1      -2.027   1.264  -0.083  0.00  0.00    -0.057 A 
ENDROOT
BRANCH   1   7
ATOM      7  N   UNL d   1      -3.662  -0.311  -0.877  0.00  0.00    -0.732 N 
ATOM      8  C   UNL d   1      -3.455  -0.410  -2.306  0.00  0.00     0.284 C 
ATOM      9  H3  UNL d   1      -4.281  -1.023  -0.497  0.00  0.00     0.395 HD
ENDBRANCH   1   7
TORSDOF 1
ENDMDL
