MODEL 1
REMARK minimizedAffinity 6.63942242
REMARK minimizedRMSD -1
REMARK  1 active torsions:
REMARK  status: ('A' for Active; 'I' for Inactive)
REMARK    1  A    between atoms: N_2  and  C1_3 
ROOT
ATOM      1  C1  UNL d   1       1.507  -2.681   4.538  0.00  0.00     0.143 A 
ATOM      2  C2  UNL d   1       2.233  -3.436   3.611  0.00  0.00    -0.057 A 
ATOM      3  C3  UNL d   1       2.452  -2.971   2.308  0.00  0.00     0.033 A 
ATOM      4  C4  UNL d   1       1.922  -1.752   1.900  0.00  0.00    -0.042 A 
ATOM      5  C5  UNL d   1       1.176  -0.996   2.798  0.00  0.00     0.033 A 
ATOM      6  C6  UNL d   1       0.966  -1.463   4.099  0.00  0.00    -0.057 A 
ENDROOT
BRANCH   1   7
ATOM      7  N   UNL d   1       1.172  -3.133   5.817  0.00  0.00    -0.732 N 
ATOM      8  C   UNL d   1       0.341  -4.305   5.990  0.00  0.00     0.284 C 
ATOM      9  H3  UNL d   1       1.954  -3.078   6.466  0.00  0.00     0.395 HD
ENDBRANCH   1   7
TORSDOF 1
ENDMDL
