MODEL 1
REMARK minimizedAffinity 3.51731348
REMARK minimizedRMSD -1
REMARK  1 active torsions:
REMARK  status: ('A' for Active; 'I' for Inactive)
REMARK    1  A    between atoms: N_2  and  C1_3 
ROOT
ATOM      1  C1  UNL d   1      -0.984   0.048   0.671  0.00  0.00     0.143 A 
ATOM      2  C2  UNL d   1      -1.703  -1.148   0.562  0.00  0.00    -0.057 A 
ATOM      3  C3  UNL d   1      -1.077  -2.389   0.732  0.00  0.00     0.033 A 
ATOM      4  C4  UNL d   1       0.289  -2.457   0.986  0.00  0.00    -0.042 A 
ATOM      5  C5  UNL d   1       1.028  -1.282   1.073  0.00  0.00     0.033 A 
ATOM      6  C6  UNL d   1       0.396  -0.046   0.909  0.00  0.00    -0.057 A 
ENDROOT
BRANCH   1   7
ATOM      7  N   UNL d   1      -1.529   1.308   0.415  0.00  0.00    -0.732 N 
ATOM      8  C   UNL d   1      -0.695   2.490   0.437  0.00  0.00     0.284 C 
ATOM      9  H3  UNL d   1      -2.207   1.292  -0.344  0.00  0.00     0.395 HD
ENDBRANCH   1   7
TORSDOF 1
ENDMDL
