MODEL 1
REMARK minimizedAffinity -1.11130488
REMARK minimizedRMSD -1
REMARK  1 active torsions:
REMARK  status: ('A' for Active; 'I' for Inactive)
REMARK    1  A    between atoms: N_2  and  C1_3 
ROOT
ATOM      1  C1  UNL d   1       5.554   4.181  -3.358  0.00  0.00     0.143 A 
ATOM      2  C2  UNL d   1       6.000   5.108  -2.411  0.00  0.00    -0.057 A 
ATOM      3  C3  UNL d   1       5.450   5.153  -1.124  0.00  0.00     0.033 A 
ATOM      4  C4  UNL d   1       4.420   4.288  -0.771  0.00  0.00    -0.042 A 
ATOM      5  C5  UNL d   1       3.944   3.374  -1.705  0.00  0.00     0.033 A 
ATOM      6  C6  UNL d   1       4.502   3.330  -2.986  0.00  0.00    -0.057 A 
ENDROOT
BRANCH   1   7
ATOM      7  N   UNL d   1       5.992   4.152  -4.685  0.00  0.00    -0.732 N 
ATOM      8  C   UNL d   1       5.995   5.357  -5.487  0.00  0.00     0.284 C 
ATOM      9  H3  UNL d   1       6.816   3.568  -4.809  0.00  0.00     0.395 HD
ENDBRANCH   1   7
TORSDOF 1
ENDMDL
