MODEL 1
REMARK minimizedAffinity 4.87551212
REMARK minimizedRMSD -1
REMARK  3 active torsions:
REMARK  status: ('A' for Active; 'I' for Inactive)
REMARK    1  A    between atoms: C3'_2  and  C2'_3 
REMARK    2  A    between atoms: C2'_3  and  C1'_4 
REMARK    3  A    between atoms: C1'_4  and  C1_5 
ROOT
ATOM      1  C1  N4B d   1      -5.386  -1.901   3.801  0.00  0.00    -0.075 A 
ATOM      2  C2  N4B d   1      -5.994  -0.639   3.983  0.00  0.00     0.002 A 
ATOM      3  C3  N4B d   1      -5.454   0.475   3.389  0.00  0.00     0.002 A 
ATOM      4  C4  N4B d   1      -4.302   0.356   2.627  0.00  0.00    -0.004 A 
ATOM      5  C5  N4B d   1      -3.735  -0.870   2.434  0.00  0.00     0.002 A 
ATOM      6  C6  N4B d   1      -4.269  -1.999   3.022  0.00  0.00     0.002 A 
ENDROOT
BRANCH   1   7
ATOM      7  C1' N4B d   1      -5.889  -3.134   4.500  0.00  0.00     0.057 C 
BRANCH   7   8
ATOM      8  C2' N4B d   1      -5.334  -3.165   5.921  0.00  0.00     0.009 C 
BRANCH   8   9
ATOM      9  C3' N4B d   1      -4.013  -3.912   5.999  0.00  0.00     0.004 C 
ATOM     10  C4' N4B d   1      -2.827  -2.995   5.995  0.00  0.00     0.003 C 
ENDBRANCH   8   9
ENDBRANCH   7   8
ENDBRANCH   1   7
TORSDOF 3
ENDMDL
