MODEL 1
REMARK minimizedAffinity 2.9508028
REMARK minimizedRMSD -1
REMARK  3 active torsions:
REMARK  status: ('A' for Active; 'I' for Inactive)
REMARK    1  A    between atoms: C3'_2  and  C2'_3 
REMARK    2  A    between atoms: C2'_3  and  C1'_4 
REMARK    3  A    between atoms: C1'_4  and  C1_5 
ROOT
ATOM      1  C1  N4B d   1      -5.084  -0.646   3.231  0.00  0.00    -0.075 A 
ATOM      2  C2  N4B d   1      -5.098  -2.056   3.316  0.00  0.00     0.002 A 
ATOM      3  C3  N4B d   1      -5.560  -2.670   4.454  0.00  0.00     0.002 A 
ATOM      4  C4  N4B d   1      -5.993  -1.899   5.522  0.00  0.00    -0.004 A 
ATOM      5  C5  N4B d   1      -5.999  -0.539   5.423  0.00  0.00     0.002 A 
ATOM      6  C6  N4B d   1      -5.542   0.092   4.283  0.00  0.00     0.002 A 
ENDROOT
BRANCH   1   7
ATOM      7  C1' N4B d   1      -4.508   0.072   2.041  0.00  0.00     0.057 C 
BRANCH   7   8
ATOM      8  C2' N4B d   1      -4.113  -0.952   0.981  0.00  0.00     0.009 C 
BRANCH   8   9
ATOM      9  C3' N4B d   1      -3.704  -0.290  -0.324  0.00  0.00     0.004 C 
ATOM     10  C4' N4B d   1      -4.875   0.228  -1.104  0.00  0.00     0.003 C 
ENDBRANCH   8   9
ENDBRANCH   7   8
ENDBRANCH   1   7
TORSDOF 3
ENDMDL
