MODEL 1
REMARK minimizedAffinity 10.2367029
REMARK minimizedRMSD -1
REMARK  3 active torsions:
REMARK  status: ('A' for Active; 'I' for Inactive)
REMARK    1  A    between atoms: C3'_2  and  C2'_3 
REMARK    2  A    between atoms: C2'_3  and  C1'_4 
REMARK    3  A    between atoms: C1'_4  and  C1_5 
ROOT
ATOM      1  C1  N4B d   1      -2.328   3.088  -2.606  0.00  0.00    -0.075 A 
ATOM      2  C2  N4B d   1      -1.060   2.875  -2.022  0.00  0.00     0.002 A 
ATOM      3  C3  N4B d   1      -0.131   3.887  -2.010  0.00  0.00     0.002 A 
ATOM      4  C4  N4B d   1      -0.440   5.108  -2.591  0.00  0.00    -0.004 A 
ATOM      5  C5  N4B d   1      -1.675   5.313  -3.131  0.00  0.00     0.002 A 
ATOM      6  C6  N4B d   1      -2.620   4.307  -3.146  0.00  0.00     0.002 A 
ENDROOT
BRANCH   1   7
ATOM      7  C1' N4B d   1      -3.346   1.985  -2.719  0.00  0.00     0.057 C 
BRANCH   7   8
ATOM      8  C2' N4B d   1      -4.071   1.835  -1.385  0.00  0.00     0.009 C 
BRANCH   8   9
ATOM      9  C3' N4B d   1      -3.960   0.424  -0.833  0.00  0.00     0.004 C 
ATOM     10  C4' N4B d   1      -3.210   0.365   0.464  0.00  0.00     0.003 C 
ENDBRANCH   8   9
ENDBRANCH   7   8
ENDBRANCH   1   7
TORSDOF 3
ENDMDL
