MODEL 1
REMARK minimizedAffinity 11.7189732
REMARK minimizedRMSD -1
REMARK  3 active torsions:
REMARK  status: ('A' for Active; 'I' for Inactive)
REMARK    1  A    between atoms: C3'_2  and  C2'_3 
REMARK    2  A    between atoms: C2'_3  and  C1'_4 
REMARK    3  A    between atoms: C1'_4  and  C1_5 
ROOT
ATOM      1  C1  N4B d   1      -1.589   4.896  -1.493  0.00  0.00    -0.075 A 
ATOM      2  C2  N4B d   1      -2.868   4.897  -2.092  0.00  0.00     0.002 A 
ATOM      3  C3  N4B d   1      -3.936   5.447  -1.426  0.00  0.00     0.002 A 
ATOM      4  C4  N4B d   1      -3.754   5.982  -0.160  0.00  0.00    -0.004 A 
ATOM      5  C5  N4B d   1      -2.511   6.000   0.400  0.00  0.00     0.002 A 
ATOM      6  C6  N4B d   1      -1.427   5.455  -0.258  0.00  0.00     0.002 A 
ENDROOT
BRANCH   1   7
ATOM      7  C1' N4B d   1      -0.408   4.231  -2.145  0.00  0.00     0.057 C 
BRANCH   7   8
ATOM      8  C2' N4B d   1      -0.183   2.866  -1.500  0.00  0.00     0.009 C 
BRANCH   8   9
ATOM      9  C3' N4B d   1       0.631   2.969  -0.221  0.00  0.00     0.004 C 
ATOM     10  C4' N4B d   1       0.052   2.162   0.902  0.00  0.00     0.003 C 
ENDBRANCH   8   9
ENDBRANCH   7   8
ENDBRANCH   1   7
TORSDOF 3
ENDMDL
