MODEL 1
REMARK minimizedAffinity 10.3683929
REMARK minimizedRMSD -1
REMARK  3 active torsions:
REMARK  status: ('A' for Active; 'I' for Inactive)
REMARK    1  A    between atoms: C3'_2  and  C2'_3 
REMARK    2  A    between atoms: C2'_3  and  C1'_4 
REMARK    3  A    between atoms: C1'_4  and  C1_5 
ROOT
ATOM      1  C1  N4B d   1      -0.842   3.250  -2.193  0.00  0.00    -0.075 A 
ATOM      2  C2  N4B d   1      -0.243   4.189  -1.325  0.00  0.00     0.002 A 
ATOM      3  C3  N4B d   1       0.410   3.761  -0.195  0.00  0.00     0.002 A 
ATOM      4  C4  N4B d   1       0.460   2.407   0.096  0.00  0.00    -0.004 A 
ATOM      5  C5  N4B d   1      -0.099   1.504  -0.760  0.00  0.00     0.002 A 
ATOM      6  C6  N4B d   1      -0.754   1.919  -1.902  0.00  0.00     0.002 A 
ENDROOT
BRANCH   1   7
ATOM      7  C1' N4B d   1      -1.640   3.675  -3.395  0.00  0.00     0.057 C 
BRANCH   7   8
ATOM      8  C2' N4B d   1      -2.974   2.934  -3.398  0.00  0.00     0.009 C 
BRANCH   8   9
ATOM      9  C3' N4B d   1      -3.743   3.155  -4.689  0.00  0.00     0.004 C 
ATOM     10  C4' N4B d   1      -4.082   1.873  -5.390  0.00  0.00     0.003 C 
ENDBRANCH   8   9
ENDBRANCH   7   8
ENDBRANCH   1   7
TORSDOF 3
ENDMDL
