MODEL 1
REMARK minimizedAffinity 1.836097
REMARK minimizedRMSD -1
REMARK  3 active torsions:
REMARK  status: ('A' for Active; 'I' for Inactive)
REMARK    1  A    between atoms: C3'_2  and  C2'_3 
REMARK    2  A    between atoms: C2'_3  and  C1'_4 
REMARK    3  A    between atoms: C1'_4  and  C1_5 
ROOT
ATOM      1  C1  N4B d   1      -2.318  -4.952  -4.582  0.00  0.00    -0.075 A 
ATOM      2  C2  N4B d   1      -2.300  -3.743  -5.313  0.00  0.00     0.002 A 
ATOM      3  C3  N4B d   1      -3.419  -3.338  -5.998  0.00  0.00     0.002 A 
ATOM      4  C4  N4B d   1      -4.557  -4.131  -5.982  0.00  0.00    -0.004 A 
ATOM      5  C5  N4B d   1      -4.575  -5.284  -5.253  0.00  0.00     0.002 A 
ATOM      6  C6  N4B d   1      -3.458  -5.701  -4.557  0.00  0.00     0.002 A 
ENDROOT
BRANCH   1   7
ATOM      7  C1' N4B d   1      -1.092  -5.478  -3.889  0.00  0.00     0.057 C 
BRANCH   7   8
ATOM      8  C2' N4B d   1      -1.049  -4.933  -2.464  0.00  0.00     0.009 C 
BRANCH   8   9
ATOM      9  C3' N4B d   1       0.271  -5.240  -1.778  0.00  0.00     0.004 C 
ATOM     10  C4' N4B d   1       0.762  -4.105  -0.929  0.00  0.00     0.003 C 
ENDBRANCH   8   9
ENDBRANCH   7   8
ENDBRANCH   1   7
TORSDOF 3
ENDMDL
