MODEL 1
REMARK minimizedAffinity 2.20897174
REMARK minimizedRMSD -1
REMARK  1 active torsions:
REMARK  status: ('A' for Active; 'I' for Inactive)
REMARK    1  A    between atoms: C1_2  and  C2_3 
ROOT
ATOM      1  C2  UNL d   1       1.276  -0.226   0.653  0.00  0.00    -0.073 A 
ATOM      2  C3  UNL d   1       2.534   0.139   0.159  0.00  0.00    -0.002 A 
ATOM      3  C4  UNL d   1       3.279   1.135   0.791  0.00  0.00     0.004 A 
ATOM      4  C5  UNL d   1       2.778   1.771   1.927  0.00  0.00    -0.004 A 
ATOM      5  C6  UNL d   1       1.528   1.413   2.443  0.00  0.00    -0.075 A 
ATOM      6  C7  UNL d   1       0.974   2.089   3.662  0.00  0.00     0.076 C 
ATOM      7  C8  UNL d   1       0.785   0.413   1.800  0.00  0.00     0.001 A 
ENDROOT
BRANCH   1   8
ATOM      8  C1  UNL d   1       0.472  -1.305  -0.023  0.00  0.00     0.053 C 
ATOM      9  C   UNL d   1      -0.726  -0.740  -0.771  0.00  0.00     0.018 C 
ENDBRANCH   1   8
TORSDOF 1
ENDMDL
