MODEL 1
REMARK minimizedAffinity 3.47947955
REMARK minimizedRMSD -1
REMARK  1 active torsions:
REMARK  status: ('A' for Active; 'I' for Inactive)
REMARK    1  A    between atoms: C1_2  and  C2_3 
ROOT
ATOM      1  C2  UNL d   1       0.910  -0.275   0.417  0.00  0.00    -0.073 A 
ATOM      2  C3  UNL d   1       0.423   0.152   1.658  0.00  0.00    -0.002 A 
ATOM      3  C4  UNL d   1       0.949   1.291   2.268  0.00  0.00     0.004 A 
ATOM      4  C5  UNL d   1       1.960   2.019   1.641  0.00  0.00    -0.004 A 
ATOM      5  C6  UNL d   1       2.451   1.616   0.396  0.00  0.00    -0.075 A 
ATOM      6  C7  UNL d   1       3.541   2.388  -0.291  0.00  0.00     0.076 C 
ATOM      7  C8  UNL d   1       1.920   0.469  -0.209  0.00  0.00     0.001 A 
ENDROOT
BRANCH   1   8
ATOM      8  C1  UNL d   1       0.341  -1.501  -0.248  0.00  0.00     0.053 C 
ATOM      9  C   UNL d   1      -1.102  -1.296  -0.682  0.00  0.00     0.018 C 
ENDBRANCH   1   8
TORSDOF 1
ENDMDL
