MODEL 1
REMARK minimizedAffinity 5.9408927
REMARK minimizedRMSD -1
REMARK  1 active torsions:
REMARK  status: ('A' for Active; 'I' for Inactive)
REMARK    1  A    between atoms: C1_2  and  C2_3 
ROOT
ATOM      1  C2  UNL d   1       3.227   2.185   2.568  0.00  0.00    -0.073 A 
ATOM      2  C3  UNL d   1       3.883   2.558   1.390  0.00  0.00    -0.002 A 
ATOM      3  C4  UNL d   1       5.214   2.974   1.425  0.00  0.00     0.004 A 
ATOM      4  C5  UNL d   1       5.905   3.014   2.636  0.00  0.00    -0.004 A 
ATOM      5  C6  UNL d   1       5.271   2.633   3.823  0.00  0.00    -0.075 A 
ATOM      6  C7  UNL d   1       6.000   2.672   5.134  0.00  0.00     0.076 C 
ATOM      7  C8  UNL d   1       3.933   2.219   3.780  0.00  0.00     0.001 A 
ENDROOT
BRANCH   1   8
ATOM      8  C1  UNL d   1       1.792   1.729   2.534  0.00  0.00     0.053 C 
ATOM      9  C   UNL d   1       0.871   2.789   1.951  0.00  0.00     0.018 C 
ENDBRANCH   1   8
TORSDOF 1
ENDMDL
