MODEL 1
REMARK minimizedAffinity 7.43340302
REMARK minimizedRMSD -1
REMARK  1 active torsions:
REMARK  status: ('A' for Active; 'I' for Inactive)
REMARK    1  A    between atoms: C1_2  and  C2_3 
ROOT
ATOM      1  C2  UNL d   1       2.431   0.442   0.534  0.00  0.00    -0.073 A 
ATOM      2  C3  UNL d   1       1.227   1.145   0.660  0.00  0.00    -0.002 A 
ATOM      3  C4  UNL d   1       1.059   2.075   1.687  0.00  0.00     0.004 A 
ATOM      4  C5  UNL d   1       2.092   2.317   2.592  0.00  0.00    -0.004 A 
ATOM      5  C6  UNL d   1       3.307   1.633   2.475  0.00  0.00    -0.075 A 
ATOM      6  C7  UNL d   1       4.427   1.880   3.441  0.00  0.00     0.076 C 
ATOM      7  C8  UNL d   1       3.467   0.699   1.443  0.00  0.00     0.001 A 
ENDROOT
BRANCH   1   8
ATOM      8  C1  UNL d   1       2.620  -0.559  -0.577  0.00  0.00     0.053 C 
ATOM      9  C   UNL d   1       4.032  -1.123  -0.602  0.00  0.00     0.018 C 
ENDBRANCH   1   8
TORSDOF 1
ENDMDL
