MODEL 1
REMARK minimizedAffinity 4.09749985
REMARK minimizedRMSD -1
REMARK  1 active torsions:
REMARK  status: ('A' for Active; 'I' for Inactive)
REMARK    1  A    between atoms: C1_2  and  C2_3 
ROOT
ATOM      1  C2  UNL d   1      -1.609   0.198   2.179  0.00  0.00    -0.073 A 
ATOM      2  C3  UNL d   1      -1.858  -1.174   2.050  0.00  0.00    -0.002 A 
ATOM      3  C4  UNL d   1      -2.905  -1.628   1.246  0.00  0.00     0.004 A 
ATOM      4  C5  UNL d   1      -3.707  -0.718   0.558  0.00  0.00    -0.004 A 
ATOM      5  C6  UNL d   1      -3.467   0.656   0.665  0.00  0.00    -0.075 A 
ATOM      6  C7  UNL d   1      -4.322   1.648  -0.067  0.00  0.00     0.076 C 
ATOM      7  C8  UNL d   1      -2.416   1.104   1.476  0.00  0.00     0.001 A 
ENDROOT
BRANCH   1   8
ATOM      8  C1  UNL d   1      -0.477   0.692   3.041  0.00  0.00     0.053 C 
ATOM      9  C   UNL d   1       0.771  -0.163   2.889  0.00  0.00     0.018 C 
ENDBRANCH   1   8
TORSDOF 1
ENDMDL
