MODEL 1
REMARK minimizedAffinity 9.74622726
REMARK minimizedRMSD -1
REMARK  0 active torsions:
REMARK  status: ('A' for Active; 'I' for Inactive)
ROOT
ATOM      1  C4' PXY d   1      -2.613  -0.299   3.864  0.00  0.00     0.077 C 
ATOM      2  C1' PXY d   1       1.251  -3.992   1.663  0.00  0.00     0.077 C 
ATOM      3  C1  PXY d   1       0.231  -3.023   2.228  0.00  0.00    -0.082 A 
ATOM      4  C2  PXY d   1       0.555  -2.262   3.262  0.00  0.00     0.003 A 
ATOM      5  C3  PXY d   1      -0.366  -1.404   3.806  0.00  0.00     0.003 A 
ATOM      6  C4  PXY d   1      -1.613  -1.284   3.254  0.00  0.00    -0.082 A 
ATOM      7  C5  PXY d   1      -1.947  -2.049   2.193  0.00  0.00     0.003 A 
ATOM      8  C6  PXY d   1      -1.012  -2.944   1.681  0.00  0.00     0.003 A 
ENDROOT
TORSDOF 0
ENDMDL
