MODEL 1
REMARK minimizedAffinity 0.278606325
REMARK minimizedRMSD -1
REMARK  0 active torsions:
REMARK  status: ('A' for Active; 'I' for Inactive)
ROOT
ATOM      1  C4' PXY d   1       4.097  -2.002   5.235  0.00  0.00     0.077 C 
ATOM      2  C1' PXY d   1       6.000   3.243   3.724  0.00  0.00     0.077 C 
ATOM      3  C1  PXY d   1       5.512   1.865   4.127  0.00  0.00    -0.082 A 
ATOM      4  C2  PXY d   1       4.606   1.249   3.386  0.00  0.00     0.003 A 
ATOM      5  C3  PXY d   1       4.130   0.017   3.753  0.00  0.00     0.003 A 
ATOM      6  C4  PXY d   1       4.626  -0.615   4.862  0.00  0.00    -0.082 A 
ATOM      7  C5  PXY d   1       5.559   0.002   5.618  0.00  0.00     0.003 A 
ATOM      8  C6  PXY d   1       5.998   1.271   5.250  0.00  0.00     0.003 A 
ENDROOT
TORSDOF 0
ENDMDL
