MODEL 1
REMARK minimizedAffinity 2.55965638
REMARK minimizedRMSD -1
REMARK  0 active torsions:
REMARK  status: ('A' for Active; 'I' for Inactive)
ROOT
ATOM      1  C4' PXY d   1       6.000   4.335   4.120  0.00  0.00     0.077 C 
ATOM      2  C1' PXY d   1       3.728  -0.895   3.169  0.00  0.00     0.077 C 
ATOM      3  C1  PXY d   1       4.324   0.474   3.431  0.00  0.00    -0.082 A 
ATOM      4  C2  PXY d   1       4.113   1.456   2.570  0.00  0.00     0.003 A 
ATOM      5  C3  PXY d   1       4.671   2.691   2.775  0.00  0.00     0.003 A 
ATOM      6  C4  PXY d   1       5.410   2.939   3.901  0.00  0.00    -0.082 A 
ATOM      7  C5  PXY d   1       5.621   1.946   4.790  0.00  0.00     0.003 A 
ATOM      8  C6  PXY d   1       5.080   0.687   4.543  0.00  0.00     0.003 A 
ENDROOT
TORSDOF 0
ENDMDL
