MODEL 1
REMARK minimizedAffinity 4.25564337
REMARK minimizedRMSD -1
REMARK  0 active torsions:
REMARK  status: ('A' for Active; 'I' for Inactive)
ROOT
ATOM      1  C4' PXY d   1       3.059   4.963  -3.058  0.00  0.00     0.077 C 
ATOM      2  C1' PXY d   1      -1.097   1.643  -0.794  0.00  0.00     0.077 C 
ATOM      3  C1  PXY d   1      -0.009   2.523  -1.378  0.00  0.00    -0.082 A 
ATOM      4  C2  PXY d   1       0.295   2.422  -2.662  0.00  0.00     0.003 A 
ATOM      5  C3  PXY d   1       1.298   3.186  -3.200  0.00  0.00     0.003 A 
ATOM      6  C4  PXY d   1       1.961   4.102  -2.428  0.00  0.00    -0.082 A 
ATOM      7  C5  PXY d   1       1.650   4.218  -1.119  0.00  0.00     0.003 A 
ATOM      8  C6  PXY d   1       0.656   3.404  -0.583  0.00  0.00     0.003 A 
ENDROOT
TORSDOF 0
ENDMDL
