MODEL 1
REMARK minimizedAffinity 4.76681519
REMARK minimizedRMSD -1
REMARK  0 active torsions:
REMARK  status: ('A' for Active; 'I' for Inactive)
ROOT
ATOM      1  C4' PXY d   1       6.000  -1.490   4.374  0.00  0.00     0.077 C 
ATOM      2  C1' PXY d   1       4.748   4.022   3.162  0.00  0.00     0.077 C 
ATOM      3  C1  PXY d   1       5.085   2.580   3.488  0.00  0.00    -0.082 A 
ATOM      4  C2  PXY d   1       4.791   1.627   2.619  0.00  0.00     0.003 A 
ATOM      5  C3  PXY d   1       5.061   0.315   2.912  0.00  0.00     0.003 A 
ATOM      6  C4  PXY d   1       5.686  -0.020   4.083  0.00  0.00    -0.082 A 
ATOM      7  C5  PXY d   1       5.999   0.949   4.970  0.00  0.00     0.003 A 
ATOM      8  C6  PXY d   1       5.679   2.270   4.672  0.00  0.00     0.003 A 
ENDROOT
TORSDOF 0
ENDMDL
