MODEL 1
REMARK minimizedAffinity 9.12578869
REMARK minimizedRMSD -1
REMARK  0 active torsions:
REMARK  status: ('A' for Active; 'I' for Inactive)
ROOT
ATOM      1  C4' PXY d   1       5.986   1.763  -6.000  0.00  0.00     0.077 C 
ATOM      2  C1' PXY d   1       3.211   5.998  -3.212  0.00  0.00     0.077 C 
ATOM      3  C1  PXY d   1       3.927   4.883  -3.948  0.00  0.00    -0.082 A 
ATOM      4  C2  PXY d   1       5.089   4.441  -3.495  0.00  0.00     0.003 A 
ATOM      5  C3  PXY d   1       5.766   3.456  -4.166  0.00  0.00     0.003 A 
ATOM      6  C4  PXY d   1       5.223   2.880  -5.283  0.00  0.00    -0.082 A 
ATOM      7  C5  PXY d   1       4.033   3.318  -5.746  0.00  0.00     0.003 A 
ATOM      8  C6  PXY d   1       3.381   4.347  -5.073  0.00  0.00     0.003 A 
ENDROOT
TORSDOF 0
ENDMDL
