MODEL 1
REMARK minimizedAffinity -2.73834324
REMARK minimizedRMSD -1
REMARK  0 active torsions:
REMARK  status: ('A' for Active; 'I' for Inactive)
ROOT
ATOM      1  C4' PXY d   1       0.760  -5.589   1.594  0.00  0.00     0.077 C 
ATOM      2  C1' PXY d   1       0.356  -0.282  -0.661  0.00  0.00     0.077 C 
ATOM      3  C1  PXY d   1       0.475  -1.673  -0.070  0.00  0.00    -0.082 A 
ATOM      4  C2  PXY d   1      -0.546  -2.510  -0.157  0.00  0.00     0.003 A 
ATOM      5  C3  PXY d   1      -0.468  -3.760   0.400  0.00  0.00     0.003 A 
ATOM      6  C4  PXY d   1       0.688  -4.178   1.004  0.00  0.00    -0.082 A 
ATOM      7  C5  PXY d   1       1.738  -3.334   1.087  0.00  0.00     0.003 A 
ATOM      8  C6  PXY d   1       1.623  -2.054   0.552  0.00  0.00     0.003 A 
ENDROOT
TORSDOF 0
ENDMDL
