MODEL 1
REMARK minimizedAffinity 4.69501877
REMARK minimizedRMSD -1
REMARK  0 active torsions:
REMARK  status: ('A' for Active; 'I' for Inactive)
ROOT
ATOM      1  C4' PXY d   1       6.000   1.529   5.347  0.00  0.00     0.077 C 
ATOM      2  C1' PXY d   1       2.759  -1.879   1.985  0.00  0.00     0.077 C 
ATOM      3  C1  PXY d   1       3.598  -0.980   2.871  0.00  0.00    -0.082 A 
ATOM      4  C2  PXY d   1       4.842  -0.696   2.524  0.00  0.00     0.003 A 
ATOM      5  C3  PXY d   1       5.626   0.090   3.330  0.00  0.00     0.003 A 
ATOM      6  C4  PXY d   1       5.113   0.633   4.477  0.00  0.00    -0.082 A 
ATOM      7  C5  PXY d   1       3.840   0.357   4.833  0.00  0.00     0.003 A 
ATOM      8  C6  PXY d   1       3.075  -0.476   4.022  0.00  0.00     0.003 A 
ENDROOT
TORSDOF 0
ENDMDL
