MODEL 1
REMARK minimizedAffinity 0.387415171
REMARK minimizedRMSD -1
REMARK  0 active torsions:
REMARK  status: ('A' for Active; 'I' for Inactive)
ROOT
ATOM      1  C4' PXY d   1      -2.634  -1.498   1.127  0.00  0.00     0.077 C 
ATOM      2  C1' PXY d   1      -2.830   4.191   0.124  0.00  0.00     0.077 C 
ATOM      3  C1  PXY d   1      -2.773   2.701   0.399  0.00  0.00    -0.082 A 
ATOM      4  C2  PXY d   1      -2.745   1.850  -0.613  0.00  0.00     0.003 A 
ATOM      5  C3  PXY d   1      -2.726   0.499  -0.383  0.00  0.00     0.003 A 
ATOM      6  C4  PXY d   1      -2.682   0.015   0.897  0.00  0.00    -0.082 A 
ATOM      7  C5  PXY d   1      -2.700   0.877   1.935  0.00  0.00     0.003 A 
ATOM      8  C6  PXY d   1      -2.761   2.244   1.681  0.00  0.00     0.003 A 
ENDROOT
TORSDOF 0
ENDMDL
