MODEL 1
REMARK minimizedAffinity 4.32293034
REMARK minimizedRMSD -1
REMARK  0 active torsions:
REMARK  status: ('A' for Active; 'I' for Inactive)
ROOT
ATOM      1  C4' PXY d   1      -4.642  -5.491   1.472  0.00  0.00     0.077 C 
ATOM      2  C1' PXY d   1      -0.387  -3.882  -2.095  0.00  0.00     0.077 C 
ATOM      3  C1  PXY d   1      -1.494  -4.309  -1.152  0.00  0.00    -0.082 A 
ATOM      4  C2  PXY d   1      -2.725  -4.462  -1.614  0.00  0.00     0.003 A 
ATOM      5  C3  PXY d   1      -3.744  -4.817  -0.768  0.00  0.00     0.003 A 
ATOM      6  C4  PXY d   1      -3.491  -5.070   0.554  0.00  0.00    -0.082 A 
ATOM      7  C5  PXY d   1      -2.237  -4.927   1.031  0.00  0.00     0.003 A 
ATOM      8  C6  PXY d   1      -1.224  -4.526   0.164  0.00  0.00     0.003 A 
ENDROOT
TORSDOF 0
ENDMDL
