MODEL 1
REMARK minimizedAffinity 1.64353323
REMARK minimizedRMSD -1
REMARK  0 active torsions:
REMARK  status: ('A' for Active; 'I' for Inactive)
ROOT
ATOM      1  C4' PXY d   1       6.000   0.537   5.976  0.00  0.00     0.077 C 
ATOM      2  C1' PXY d   1       3.266   2.808   1.417  0.00  0.00     0.077 C 
ATOM      3  C1  PXY d   1       3.974   2.203   2.614  0.00  0.00    -0.082 A 
ATOM      4  C2  PXY d   1       4.786   2.953   3.341  0.00  0.00     0.003 A 
ATOM      5  C3  PXY d   1       5.459   2.414   4.407  0.00  0.00     0.003 A 
ATOM      6  C4  PXY d   1       5.257   1.108   4.765  0.00  0.00    -0.082 A 
ATOM      7  C5  PXY d   1       4.422   0.339   4.035  0.00  0.00     0.003 A 
ATOM      8  C6  PXY d   1       3.780   0.895   2.931  0.00  0.00     0.003 A 
ENDROOT
TORSDOF 0
ENDMDL
