MODEL 1
REMARK minimizedAffinity -0.701237619
REMARK minimizedRMSD -1
REMARK  0 active torsions:
REMARK  status: ('A' for Active; 'I' for Inactive)
ROOT
ATOM      1  C4' PXY d   1       6.000   1.222   5.515  0.00  0.00     0.077 C 
ATOM      2  C1' PXY d   1       2.449  -1.142   1.614  0.00  0.00     0.077 C 
ATOM      3  C1  PXY d   1       3.384  -0.513   2.629  0.00  0.00    -0.082 A 
ATOM      4  C2  PXY d   1       3.906  -1.259   3.588  0.00  0.00     0.003 A 
ATOM      5  C3  PXY d   1       4.728  -0.700   4.532  0.00  0.00     0.003 A 
ATOM      6  C4  PXY d   1       5.059   0.627   4.464  0.00  0.00    -0.082 A 
ATOM      7  C5  PXY d   1       4.539   1.393   3.482  0.00  0.00     0.003 A 
ATOM      8  C6  PXY d   1       3.674   0.814   2.557  0.00  0.00     0.003 A 
ENDROOT
TORSDOF 0
ENDMDL
