MODEL 1
REMARK minimizedAffinity -0.303725183
REMARK minimizedRMSD -1
REMARK  0 active torsions:
REMARK  status: ('A' for Active; 'I' for Inactive)
ROOT
ATOM      1  C4' PXY d   1       2.325  -1.091   1.510  0.00  0.00     0.077 C 
ATOM      2  C1' PXY d   1       6.000   1.386   5.222  0.00  0.00     0.077 C 
ATOM      3  C1  PXY d   1       5.033   0.749   4.244  0.00  0.00    -0.082 A 
ATOM      4  C2  PXY d   1       4.513  -0.437   4.517  0.00  0.00     0.003 A 
ATOM      5  C3  PXY d   1       3.662  -1.043   3.629  0.00  0.00     0.003 A 
ATOM      6  C4  PXY d   1       3.298  -0.405   2.473  0.00  0.00    -0.082 A 
ATOM      7  C5  PXY d   1       3.816   0.810   2.192  0.00  0.00     0.003 A 
ATOM      8  C6  PXY d   1       4.710   1.390   3.088  0.00  0.00     0.003 A 
ENDROOT
TORSDOF 0
ENDMDL
