MODEL 1
REMARK minimizedAffinity 7.56397533
REMARK minimizedRMSD -1
REMARK  0 active torsions:
REMARK  status: ('A' for Active; 'I' for Inactive)
ROOT
ATOM      1  C4' PXY d   1       2.952  -2.537   3.433  0.00  0.00     0.077 C 
ATOM      2  C1' PXY d   1       5.998   2.229   4.629  0.00  0.00     0.077 C 
ATOM      3  C1  PXY d   1       5.195   0.979   4.327  0.00  0.00    -0.082 A 
ATOM      4  C2  PXY d   1       5.575   0.178   3.345  0.00  0.00     0.003 A 
ATOM      5  C3  PXY d   1       4.842  -0.939   3.038  0.00  0.00     0.003 A 
ATOM      6  C4  PXY d   1       3.738  -1.269   3.779  0.00  0.00    -0.082 A 
ATOM      7  C5  PXY d   1       3.350  -0.463   4.790  0.00  0.00     0.003 A 
ATOM      8  C6  PXY d   1       4.085   0.689   5.059  0.00  0.00     0.003 A 
ENDROOT
TORSDOF 0
ENDMDL
