MODEL 1
REMARK minimizedAffinity -3.27139783
REMARK minimizedRMSD -1
REMARK  0 active torsions:
REMARK  status: ('A' for Active; 'I' for Inactive)
ROOT
ATOM      1  C4' PXY d   1       2.254  -1.081   0.979  0.00  0.00     0.077 C 
ATOM      2  C1' PXY d   1       6.000   0.374   5.134  0.00  0.00     0.077 C 
ATOM      3  C1  PXY d   1       5.011   0.004   4.046  0.00  0.00    -0.082 A 
ATOM      4  C2  PXY d   1       4.813  -1.270   3.749  0.00  0.00     0.003 A 
ATOM      5  C3  PXY d   1       3.946  -1.622   2.746  0.00  0.00     0.003 A 
ATOM      6  C4  PXY d   1       3.235  -0.661   2.077  0.00  0.00    -0.082 A 
ATOM      7  C5  PXY d   1       3.424   0.640   2.382  0.00  0.00     0.003 A 
ATOM      8  C6  PXY d   1       4.339   0.978   3.375  0.00  0.00     0.003 A 
ENDROOT
TORSDOF 0
ENDMDL
