MODEL 1
REMARK minimizedAffinity 4.34864473
REMARK minimizedRMSD -1
REMARK  0 active torsions:
REMARK  status: ('A' for Active; 'I' for Inactive)
ROOT
ATOM      1  C4' PXY d   1      -2.910   2.054   2.963  0.00  0.00     0.077 C 
ATOM      2  C1' PXY d   1      -6.000  -2.819   3.318  0.00  0.00     0.077 C 
ATOM      3  C1  PXY d   1      -5.190  -1.542   3.212  0.00  0.00    -0.082 A 
ATOM      4  C2  PXY d   1      -4.441  -1.155   4.233  0.00  0.00     0.003 A 
ATOM      5  C3  PXY d   1      -3.727   0.013   4.166  0.00  0.00     0.003 A 
ATOM      6  C4  PXY d   1      -3.737   0.767   3.022  0.00  0.00    -0.082 A 
ATOM      7  C5  PXY d   1      -4.490   0.373   1.973  0.00  0.00     0.003 A 
ATOM      8  C6  PXY d   1      -5.240  -0.794   2.076  0.00  0.00     0.003 A 
ENDROOT
TORSDOF 0
ENDMDL
