MODEL 1
REMARK minimizedAffinity -3.74481273
REMARK minimizedRMSD -1
REMARK  0 active torsions:
REMARK  status: ('A' for Active; 'I' for Inactive)
ROOT
ATOM      1  C4' PXY d   1       6.000   1.333   5.994  0.00  0.00     0.077 C 
ATOM      2  C1' PXY d   1       2.844  -0.968   1.733  0.00  0.00     0.077 C 
ATOM      3  C1  PXY d   1       3.677  -0.355   2.842  0.00  0.00    -0.082 A 
ATOM      4  C2  PXY d   1       4.012  -1.090   3.890  0.00  0.00     0.003 A 
ATOM      5  C3  PXY d   1       4.737  -0.543   4.917  0.00  0.00     0.003 A 
ATOM      6  C4  PXY d   1       5.169   0.754   4.846  0.00  0.00    -0.082 A 
ATOM      7  C5  PXY d   1       4.840   1.507   3.775  0.00  0.00     0.003 A 
ATOM      8  C6  PXY d   1       4.068   0.945   2.762  0.00  0.00     0.003 A 
ENDROOT
TORSDOF 0
ENDMDL
