MODEL 1
REMARK minimizedAffinity -4.57955885
REMARK minimizedRMSD -1
REMARK  0 active torsions:
REMARK  status: ('A' for Active; 'I' for Inactive)
ROOT
ATOM      1  C4' PXY d   1      -3.030   4.265   1.986  0.00  0.00     0.077 C 
ATOM      2  C1' PXY d   1      -2.915  -1.386   0.775  0.00  0.00     0.077 C 
ATOM      3  C1  PXY d   1      -2.949   0.099   1.080  0.00  0.00    -0.082 A 
ATOM      4  C2  PXY d   1      -2.231   0.576   2.084  0.00  0.00     0.003 A 
ATOM      5  C3  PXY d   1      -2.274   1.911   2.394  0.00  0.00     0.003 A 
ATOM      6  C4  PXY d   1      -3.019   2.775   1.636  0.00  0.00    -0.082 A 
ATOM      7  C5  PXY d   1      -3.746   2.297   0.604  0.00  0.00     0.003 A 
ATOM      8  C6  PXY d   1      -3.720   0.932   0.331  0.00  0.00     0.003 A 
ENDROOT
TORSDOF 0
ENDMDL
