MODEL 1
REMARK minimizedAffinity 1.31937528
REMARK minimizedRMSD -1
REMARK  0 active torsions:
REMARK  status: ('A' for Active; 'I' for Inactive)
ROOT
ATOM      1  C4' PXY d   1      -5.971   0.549  -1.923  0.00  0.00     0.077 C 
ATOM      2  C1' PXY d   1      -2.775  -0.615   2.751  0.00  0.00     0.077 C 
ATOM      3  C1  PXY d   1      -3.604  -0.301   1.521  0.00  0.00    -0.082 A 
ATOM      4  C2  PXY d   1      -4.915  -0.482   1.552  0.00  0.00     0.003 A 
ATOM      5  C3  PXY d   1      -5.675  -0.234   0.439  0.00  0.00     0.003 A 
ATOM      6  C4  PXY d   1      -5.096   0.255  -0.701  0.00  0.00    -0.082 A 
ATOM      7  C5  PXY d   1      -3.761   0.453  -0.737  0.00  0.00     0.003 A 
ATOM      8  C6  PXY d   1      -3.001   0.156   0.390  0.00  0.00     0.003 A 
ENDROOT
TORSDOF 0
ENDMDL
