MODEL 1
REMARK minimizedAffinity 2.34560752
REMARK minimizedRMSD -1
REMARK  0 active torsions:
REMARK  status: ('A' for Active; 'I' for Inactive)
ROOT
ATOM      1  C4' PXY d   1      -3.621  -1.524   2.280  0.00  0.00     0.077 C 
ATOM      2  C1' PXY d   1      -2.742   3.883   0.436  0.00  0.00     0.077 C 
ATOM      3  C1  PXY d   1      -2.981   2.463   0.910  0.00  0.00    -0.082 A 
ATOM      4  C2  PXY d   1      -2.748   2.147   2.174  0.00  0.00     0.003 A 
ATOM      5  C3  PXY d   1      -2.928   0.861   2.612  0.00  0.00     0.003 A 
ATOM      6  C4  PXY d   1      -3.402  -0.101   1.760  0.00  0.00    -0.082 A 
ATOM      7  C5  PXY d   1      -3.652   0.216   0.472  0.00  0.00     0.003 A 
ATOM      8  C6  PXY d   1      -3.424   1.518   0.037  0.00  0.00     0.003 A 
ENDROOT
TORSDOF 0
ENDMDL
