MODEL 1
REMARK minimizedAffinity 2.48307252
REMARK minimizedRMSD -1
REMARK  0 active torsions:
REMARK  status: ('A' for Active; 'I' for Inactive)
ROOT
ATOM      1  O1  BZF d   1       2.808   3.737  -3.762  0.00  0.00    -0.204 OA
ATOM      2  C2  BZF d   1       2.092   3.800  -2.582  0.00  0.00     0.174 A 
ATOM      3  C3  BZF d   1       2.764   4.509  -1.652  0.00  0.00    -0.012 A 
ATOM      4  C3A BZF d   1       3.933   4.993  -2.320  0.00  0.00    -0.107 A 
ATOM      5  C4  BZF d   1       4.984   5.771  -1.927  0.00  0.00     0.055 A 
ATOM      6  C5  BZF d   1       6.000   5.999  -2.801  0.00  0.00    -0.016 A 
ATOM      7  C6  BZF d   1       6.000   5.460  -4.071  0.00  0.00     0.022 A 
ATOM      8  C7  BZF d   1       4.977   4.685  -4.507  0.00  0.00     0.029 A 
ATOM      9  C7A BZF d   1       3.933   4.481  -3.638  0.00  0.00     0.058 A 
ENDROOT
TORSDOF 0
ENDMDL
