MODEL 1
REMARK minimizedAffinity 9.13780785
REMARK minimizedRMSD -1
REMARK  0 active torsions:
REMARK  status: ('A' for Active; 'I' for Inactive)
ROOT
ATOM      1  O1  BZF d   1       2.405   3.635  -3.368  0.00  0.00    -0.204 OA
ATOM      2  C2  BZF d   1       1.620   4.466  -2.593  0.00  0.00     0.174 A 
ATOM      3  C3  BZF d   1       2.368   5.423  -2.009  0.00  0.00    -0.012 A 
ATOM      4  C3A BZF d   1       3.691   5.231  -2.519  0.00  0.00    -0.107 A 
ATOM      5  C4  BZF d   1       4.876   5.880  -2.324  0.00  0.00     0.055 A 
ATOM      6  C5  BZF d   1       6.000   5.396  -2.915  0.00  0.00    -0.016 A 
ATOM      7  C6  BZF d   1       5.976   4.264  -3.703  0.00  0.00     0.022 A 
ATOM      8  C7  BZF d   1       4.822   3.589  -3.930  0.00  0.00     0.029 A 
ATOM      9  C7A BZF d   1       3.679   4.095  -3.361  0.00  0.00     0.058 A 
ENDROOT
TORSDOF 0
ENDMDL
