MODEL 1
REMARK minimizedAffinity 8.86439037
REMARK minimizedRMSD -1
REMARK  0 active torsions:
REMARK  status: ('A' for Active; 'I' for Inactive)
ROOT
ATOM      1  O1  BZF d   1      -0.767  -5.327  -2.377  0.00  0.00    -0.204 OA
ATOM      2  C2  BZF d   1      -0.377  -5.991  -3.524  0.00  0.00     0.174 A 
ATOM      3  C3  BZF d   1       0.419  -5.210  -4.282  0.00  0.00    -0.012 A 
ATOM      4  C3A BZF d   1       0.608  -4.013  -3.520  0.00  0.00    -0.107 A 
ATOM      5  C4  BZF d   1       1.314  -2.865  -3.735  0.00  0.00     0.055 A 
ATOM      6  C5  BZF d   1       1.231  -1.858  -2.826  0.00  0.00    -0.016 A 
ATOM      7  C6  BZF d   1       0.449  -1.964  -1.695  0.00  0.00     0.022 A 
ATOM      8  C7  BZF d   1      -0.266  -3.086  -1.436  0.00  0.00     0.029 A 
ATOM      9  C7A BZF d   1      -0.158  -4.118  -2.336  0.00  0.00     0.058 A 
ENDROOT
TORSDOF 0
ENDMDL
