MODEL 1
REMARK minimizedAffinity 2.21113396
REMARK minimizedRMSD -1
REMARK  0 active torsions:
REMARK  status: ('A' for Active; 'I' for Inactive)
ROOT
ATOM      1  O1  BZF d   1       4.860  -3.832   2.034  0.00  0.00    -0.204 OA
ATOM      2  C2  BZF d   1       3.788  -3.036   1.679  0.00  0.00     0.174 A 
ATOM      3  C3  BZF d   1       3.251  -2.444   2.766  0.00  0.00    -0.012 A 
ATOM      4  C3A BZF d   1       4.093  -2.827   3.857  0.00  0.00    -0.107 A 
ATOM      5  C4  BZF d   1       4.086  -2.543   5.193  0.00  0.00     0.055 A 
ATOM      6  C5  BZF d   1       5.006  -3.135   5.999  0.00  0.00    -0.016 A 
ATOM      7  C6  BZF d   1       5.943  -4.018   5.505  0.00  0.00     0.022 A 
ATOM      8  C7  BZF d   1       5.993  -4.327   4.186  0.00  0.00     0.029 A 
ATOM      9  C7A BZF d   1       5.086  -3.705   3.364  0.00  0.00     0.058 A 
ENDROOT
TORSDOF 0
ENDMDL
