MODEL 1
REMARK minimizedAffinity 8.70002174
REMARK minimizedRMSD -1
REMARK  0 active torsions:
REMARK  status: ('A' for Active; 'I' for Inactive)
ROOT
ATOM      1  O1  BZF d   1      -0.770  -2.495  -2.332  0.00  0.00    -0.204 OA
ATOM      2  C2  BZF d   1       0.255  -1.602  -2.085  0.00  0.00     0.174 A 
ATOM      3  C3  BZF d   1       0.266  -1.234  -0.788  0.00  0.00    -0.012 A 
ATOM      4  C3A BZF d   1      -0.762  -2.011  -0.167  0.00  0.00    -0.107 A 
ATOM      5  C4  BZF d   1      -1.225  -2.104   1.115  0.00  0.00     0.055 A 
ATOM      6  C5  BZF d   1      -2.291  -2.906   1.376  0.00  0.00    -0.016 A 
ATOM      7  C6  BZF d   1      -2.921  -3.623   0.380  0.00  0.00     0.022 A 
ATOM      8  C7  BZF d   1      -2.496  -3.566  -0.906  0.00  0.00     0.029 A 
ATOM      9  C7A BZF d   1      -1.398  -2.783  -1.167  0.00  0.00     0.058 A 
ENDROOT
TORSDOF 0
ENDMDL
