MODEL 1
REMARK minimizedAffinity 7.5746088
REMARK minimizedRMSD -1
REMARK  0 active torsions:
REMARK  status: ('A' for Active; 'I' for Inactive)
ROOT
ATOM      1  O1  BZF d   1       3.684   5.810  -2.293  0.00  0.00    -0.204 OA
ATOM      2  C2  BZF d   1       4.128   5.080  -1.207  0.00  0.00     0.174 A 
ATOM      3  C3  BZF d   1       5.007   4.133  -1.594  0.00  0.00    -0.012 A 
ATOM      4  C3A BZF d   1       5.190   4.340  -2.998  0.00  0.00    -0.107 A 
ATOM      5  C4  BZF d   1       5.956   3.724  -3.946  0.00  0.00     0.055 A 
ATOM      6  C5  BZF d   1       5.849   4.121  -5.241  0.00  0.00    -0.016 A 
ATOM      7  C6  BZF d   1       4.984   5.125  -5.624  0.00  0.00     0.022 A 
ATOM      8  C7  BZF d   1       4.208   5.769  -4.719  0.00  0.00     0.029 A 
ATOM      9  C7A BZF d   1       4.337   5.393  -3.404  0.00  0.00     0.058 A 
ENDROOT
TORSDOF 0
ENDMDL
