MODEL 1
REMARK minimizedAffinity 5.52522373
REMARK minimizedRMSD -1
REMARK  0 active torsions:
REMARK  status: ('A' for Active; 'I' for Inactive)
ROOT
ATOM      1  O1  BZF d   1       3.751  -4.523   5.954  0.00  0.00    -0.204 OA
ATOM      2  C2  BZF d   1       4.944  -5.220   5.944  0.00  0.00     0.174 A 
ATOM      3  C3  BZF d   1       5.991  -4.375   5.865  0.00  0.00    -0.012 A 
ATOM      4  C3A BZF d   1       5.422  -3.063   5.918  0.00  0.00    -0.107 A 
ATOM      5  C4  BZF d   1       5.955  -1.806   5.898  0.00  0.00     0.055 A 
ATOM      6  C5  BZF d   1       5.120  -0.734   5.891  0.00  0.00    -0.016 A 
ATOM      7  C6  BZF d   1       3.748  -0.882   5.898  0.00  0.00     0.022 A 
ATOM      8  C7  BZF d   1       3.173  -2.109   5.923  0.00  0.00     0.029 A 
ATOM      9  C7A BZF d   1       4.014  -3.194   5.964  0.00  0.00     0.058 A 
ENDROOT
TORSDOF 0
ENDMDL
