MODEL 1
REMARK minimizedAffinity 1.44388759
REMARK minimizedRMSD -1
REMARK  0 active torsions:
REMARK  status: ('A' for Active; 'I' for Inactive)
ROOT
ATOM      1  O1  BZF d   1       0.256  -1.636  -1.978  0.00  0.00    -0.204 OA
ATOM      2  C2  BZF d   1      -0.030  -2.494  -3.023  0.00  0.00     0.174 A 
ATOM      3  C3  BZF d   1      -0.972  -3.389  -2.663  0.00  0.00    -0.012 A 
ATOM      4  C3A BZF d   1      -1.362  -3.012  -1.339  0.00  0.00    -0.107 A 
ATOM      5  C4  BZF d   1      -2.274  -3.510  -0.452  0.00  0.00     0.055 A 
ATOM      6  C5  BZF d   1      -2.359  -2.958   0.787  0.00  0.00    -0.016 A 
ATOM      7  C6  BZF d   1      -1.546  -1.912   1.173  0.00  0.00     0.022 A 
ATOM      8  C7  BZF d   1      -0.631  -1.381   0.326  0.00  0.00     0.029 A 
ATOM      9  C7A BZF d   1      -0.565  -1.916  -0.937  0.00  0.00     0.058 A 
ENDROOT
TORSDOF 0
ENDMDL
