MODEL 1
REMARK minimizedAffinity 3.32417655
REMARK minimizedRMSD -1
REMARK  0 active torsions:
REMARK  status: ('A' for Active; 'I' for Inactive)
ROOT
ATOM      1  O1  BZF d   1       3.760   3.748  -4.468  0.00  0.00    -0.204 OA
ATOM      2  C2  BZF d   1       4.933   3.205  -4.955  0.00  0.00     0.174 A 
ATOM      3  C3  BZF d   1       5.997   3.664  -4.265  0.00  0.00    -0.012 A 
ATOM      4  C3A BZF d   1       5.447   4.479  -3.225  0.00  0.00    -0.107 A 
ATOM      5  C4  BZF d   1       6.000   5.198  -2.204  0.00  0.00     0.055 A 
ATOM      6  C5  BZF d   1       5.190   5.945  -1.408  0.00  0.00    -0.016 A 
ATOM      7  C6  BZF d   1       3.826   5.999  -1.607  0.00  0.00     0.022 A 
ATOM      8  C7  BZF d   1       3.231   5.299  -2.603  0.00  0.00     0.029 A 
ATOM      9  C7A BZF d   1       4.043   4.518  -3.389  0.00  0.00     0.058 A 
ENDROOT
TORSDOF 0
ENDMDL
