MODEL 1
REMARK minimizedAffinity 5.98913717
REMARK minimizedRMSD -1
REMARK  0 active torsions:
REMARK  status: ('A' for Active; 'I' for Inactive)
ROOT
ATOM      1  O1  BZF d   1       0.993  -4.413  -4.390  0.00  0.00    -0.204 OA
ATOM      2  C2  BZF d   1       0.194  -5.539  -4.366  0.00  0.00     0.174 A 
ATOM      3  C3  BZF d   1      -0.730  -5.450  -3.388  0.00  0.00    -0.012 A 
ATOM      4  C3A BZF d   1      -0.553  -4.149  -2.820  0.00  0.00    -0.107 A 
ATOM      5  C4  BZF d   1      -1.183  -3.468  -1.819  0.00  0.00     0.055 A 
ATOM      6  C5  BZF d   1      -0.720  -2.242  -1.460  0.00  0.00    -0.016 A 
ATOM      7  C6  BZF d   1       0.374  -1.670  -2.077  0.00  0.00     0.022 A 
ATOM      8  C7  BZF d   1       1.029  -2.305  -3.079  0.00  0.00     0.029 A 
ATOM      9  C7A BZF d   1       0.543  -3.530  -3.466  0.00  0.00     0.058 A 
ENDROOT
TORSDOF 0
ENDMDL
