MODEL 1
REMARK minimizedAffinity 2.45208907
REMARK minimizedRMSD -1
REMARK  0 active torsions:
REMARK  status: ('A' for Active; 'I' for Inactive)
ROOT
ATOM      1  O1  BZF d   1       2.637   5.970  -4.406  0.00  0.00    -0.204 OA
ATOM      2  C2  BZF d   1       1.886   5.998  -3.247  0.00  0.00     0.174 A 
ATOM      3  C3  BZF d   1       2.550   5.407  -2.233  0.00  0.00    -0.012 A 
ATOM      4  C3A BZF d   1       3.831   5.063  -2.771  0.00  0.00    -0.107 A 
ATOM      5  C4  BZF d   1       4.940   4.465  -2.245  0.00  0.00     0.055 A 
ATOM      6  C5  BZF d   1       6.000   4.209  -3.056  0.00  0.00    -0.016 A 
ATOM      7  C6  BZF d   1       5.982   4.533  -4.397  0.00  0.00     0.022 A 
ATOM      8  C7  BZF d   1       4.906   5.132  -4.963  0.00  0.00     0.029 A 
ATOM      9  C7A BZF d   1       3.847   5.422  -4.138  0.00  0.00     0.058 A 
ENDROOT
TORSDOF 0
ENDMDL
