MODEL 1
REMARK minimizedAffinity 6.21263838
REMARK minimizedRMSD -1
REMARK  0 active torsions:
REMARK  status: ('A' for Active; 'I' for Inactive)
ROOT
ATOM      1  O1  BZF d   1       0.350  -2.008  -0.792  0.00  0.00    -0.204 OA
ATOM      2  C2  BZF d   1      -0.406  -2.048  -1.948  0.00  0.00     0.174 A 
ATOM      3  C3  BZF d   1       0.385  -1.998  -3.039  0.00  0.00    -0.012 A 
ATOM      4  C3A BZF d   1       1.724  -2.016  -2.534  0.00  0.00    -0.107 A 
ATOM      5  C4  BZF d   1       2.952  -2.002  -3.130  0.00  0.00     0.055 A 
ATOM      6  C5  BZF d   1       4.064  -1.953  -2.351  0.00  0.00    -0.016 A 
ATOM      7  C6  BZF d   1       3.985  -1.912  -0.974  0.00  0.00     0.022 A 
ATOM      8  C7  BZF d   1       2.788  -1.930  -0.337  0.00  0.00     0.029 A 
ATOM      9  C7A BZF d   1       1.664  -2.012  -1.121  0.00  0.00     0.058 A 
ENDROOT
TORSDOF 0
ENDMDL
