MODEL 1
REMARK minimizedAffinity 6.52944517
REMARK minimizedRMSD -1
REMARK  0 active torsions:
REMARK  status: ('A' for Active; 'I' for Inactive)
ROOT
ATOM      1  O1  BZF d   1      -1.762  -2.111  -2.033  0.00  0.00    -0.204 OA
ATOM      2  C2  BZF d   1      -0.381  -2.087  -2.031  0.00  0.00     0.174 A 
ATOM      3  C3  BZF d   1       0.100  -2.351  -0.799  0.00  0.00    -0.012 A 
ATOM      4  C3A BZF d   1      -1.050  -2.643   0.000  0.00  0.00    -0.107 A 
ATOM      5  C4  BZF d   1      -1.220  -2.995   1.309  0.00  0.00     0.055 A 
ATOM      6  C5  BZF d   1      -2.480  -3.137   1.796  0.00  0.00    -0.016 A 
ATOM      7  C6  BZF d   1      -3.592  -2.931   1.006  0.00  0.00     0.022 A 
ATOM      8  C7  BZF d   1      -3.474  -2.586  -0.299  0.00  0.00     0.029 A 
ATOM      9  C7A BZF d   1      -2.201  -2.473  -0.803  0.00  0.00     0.058 A 
ENDROOT
TORSDOF 0
ENDMDL
