MODEL 1
REMARK minimizedAffinity 8.95573235
REMARK minimizedRMSD -1
REMARK  0 active torsions:
REMARK  status: ('A' for Active; 'I' for Inactive)
ROOT
ATOM      1  O1  BZF d   1       2.883  -1.360  -1.506  0.00  0.00    -0.204 OA
ATOM      2  C2  BZF d   1       3.659  -1.605  -2.623  0.00  0.00     0.174 A 
ATOM      3  C3  BZF d   1       2.943  -2.240  -3.573  0.00  0.00    -0.012 A 
ATOM      4  C3A BZF d   1       1.613  -2.320  -3.052  0.00  0.00    -0.107 A 
ATOM      5  C4  BZF d   1       0.443  -2.828  -3.539  0.00  0.00     0.055 A 
ATOM      6  C5  BZF d   1      -0.663  -2.814  -2.749  0.00  0.00    -0.016 A 
ATOM      7  C6  BZF d   1      -0.633  -2.304  -1.468  0.00  0.00     0.022 A 
ATOM      8  C7  BZF d   1       0.503  -1.784  -0.943  0.00  0.00     0.029 A 
ATOM      9  C7A BZF d   1       1.614  -1.767  -1.750  0.00  0.00     0.058 A 
ENDROOT
TORSDOF 0
ENDMDL
