MODEL 1
REMARK minimizedAffinity 6.75733995
REMARK minimizedRMSD -1
REMARK  0 active torsions:
REMARK  status: ('A' for Active; 'I' for Inactive)
ROOT
ATOM      1  O1  BZF d   1      -0.197  -1.548  -0.816  0.00  0.00    -0.204 OA
ATOM      2  C2  BZF d   1      -1.078  -2.260  -0.026  0.00  0.00     0.174 A 
ATOM      3  C3  BZF d   1      -1.598  -3.302  -0.707  0.00  0.00    -0.012 A 
ATOM      4  C3A BZF d   1      -0.935  -3.290  -1.975  0.00  0.00    -0.107 A 
ATOM      5  C4  BZF d   1      -1.011  -4.087  -3.081  0.00  0.00     0.055 A 
ATOM      6  C5  BZF d   1      -0.283  -3.761  -4.182  0.00  0.00    -0.016 A 
ATOM      7  C6  BZF d   1       0.526  -2.645  -4.212  0.00  0.00     0.022 A 
ATOM      8  C7  BZF d   1       0.638  -1.827  -3.137  0.00  0.00     0.029 A 
ATOM      9  C7A BZF d   1      -0.071  -2.172  -2.013  0.00  0.00     0.058 A 
ENDROOT
TORSDOF 0
ENDMDL
