MODEL 1
REMARK minimizedAffinity -5.37926769
REMARK minimizedRMSD -1
REMARK  1 active torsions:
REMARK  status: ('A' for Active; 'I' for Inactive)
REMARK    1  A    between atoms: N_2  and  C1_3 
ROOT
ATOM      1  C1  UNL d   1       0.232  -0.759  -0.377  0.00  0.00     0.143 A 
ATOM      2  C2  UNL d   1       0.773   0.429  -0.882  0.00  0.00    -0.057 A 
ATOM      3  C3  UNL d   1       1.626   0.424  -1.992  0.00  0.00     0.033 A 
ATOM      4  C4  UNL d   1       1.979  -0.775  -2.601  0.00  0.00    -0.042 A 
ATOM      5  C5  UNL d   1       1.474  -1.970  -2.101  0.00  0.00     0.033 A 
ATOM      6  C6  UNL d   1       0.616  -1.959  -0.996  0.00  0.00    -0.057 A 
ENDROOT
BRANCH   1   7
ATOM      7  N   UNL d   1      -0.543  -0.830   0.783  0.00  0.00    -0.732 N 
ATOM      8  C   UNL d   1      -1.041   0.375   1.411  0.00  0.00     0.284 C 
ATOM      9  H3  UNL d   1      -1.215  -1.593   0.755  0.00  0.00     0.395 HD
ENDBRANCH   1   7
TORSDOF 1
ENDMDL
