MODEL 1
REMARK minimizedAffinity -2.91953254
REMARK minimizedRMSD -1
REMARK  1 active torsions:
REMARK  status: ('A' for Active; 'I' for Inactive)
REMARK    1  A    between atoms: N_2  and  C1_3 
ROOT
ATOM      1  C1  UNL d   1       0.242   0.204  -0.717  0.00  0.00     0.143 A 
ATOM      2  C2  UNL d   1      -0.558  -0.180  -1.797  0.00  0.00    -0.057 A 
ATOM      3  C3  UNL d   1       0.001  -0.477  -3.046  0.00  0.00     0.033 A 
ATOM      4  C4  UNL d   1       1.373  -0.367  -3.244  0.00  0.00    -0.042 A 
ATOM      5  C5  UNL d   1       2.186   0.038  -2.191  0.00  0.00     0.033 A 
ATOM      6  C6  UNL d   1       1.622   0.327  -0.944  0.00  0.00    -0.057 A 
ENDROOT
BRANCH   1   7
ATOM      7  N   UNL d   1      -0.264   0.608   0.522  0.00  0.00    -0.732 N 
ATOM      8  C   UNL d   1      -1.559   0.148   0.974  0.00  0.00     0.284 C 
ATOM      9  H3  UNL d   1       0.449   0.620   1.247  0.00  0.00     0.395 HD
ENDBRANCH   1   7
TORSDOF 1
ENDMDL
