MODEL 1
REMARK minimizedAffinity 4.95568848
REMARK minimizedRMSD -1
REMARK  1 active torsions:
REMARK  status: ('A' for Active; 'I' for Inactive)
REMARK    1  A    between atoms: N_2  and  C1_3 
ROOT
ATOM      1  C1  UNL d   1       1.726   1.203  -1.411  0.00  0.00     0.143 A 
ATOM      2  C2  UNL d   1       1.747   1.095  -0.016  0.00  0.00    -0.057 A 
ATOM      3  C3  UNL d   1       1.435   2.188   0.801  0.00  0.00     0.033 A 
ATOM      4  C4  UNL d   1       1.122   3.420   0.236  0.00  0.00    -0.042 A 
ATOM      5  C5  UNL d   1       1.120   3.557  -1.148  0.00  0.00     0.033 A 
ATOM      6  C6  UNL d   1       1.426   2.460  -1.959  0.00  0.00    -0.057 A 
ENDROOT
BRANCH   1   7
ATOM      7  N   UNL d   1       2.123   0.180  -2.276  0.00  0.00    -0.732 N 
ATOM      8  C   UNL d   1       1.260  -0.249  -3.356  0.00  0.00     0.284 C 
ATOM      9  H3  UNL d   1       3.106   0.246  -2.531  0.00  0.00     0.395 HD
ENDBRANCH   1   7
TORSDOF 1
ENDMDL
