MODEL 1
REMARK minimizedAffinity -2.24230695
REMARK minimizedRMSD -1
REMARK  1 active torsions:
REMARK  status: ('A' for Active; 'I' for Inactive)
REMARK    1  A    between atoms: N_2  and  C1_3 
ROOT
ATOM      1  C1  UNL d   1       0.091  -0.051  -0.456  0.00  0.00     0.143 A 
ATOM      2  C2  UNL d   1      -0.181  -0.782  -1.618  0.00  0.00    -0.057 A 
ATOM      3  C3  UNL d   1       0.556  -0.582  -2.791  0.00  0.00     0.033 A 
ATOM      4  C4  UNL d   1       1.563   0.377  -2.832  0.00  0.00    -0.042 A 
ATOM      5  C5  UNL d   1       1.834   1.133  -1.697  0.00  0.00     0.033 A 
ATOM      6  C6  UNL d   1       1.099   0.924  -0.527  0.00  0.00    -0.057 A 
ENDROOT
BRANCH   1   7
ATOM      7  N   UNL d   1      -0.671  -0.134   0.712  0.00  0.00    -0.732 N 
ATOM      8  C   UNL d   1      -2.084   0.176   0.693  0.00  0.00     0.284 C 
ATOM      9  H3  UNL d   1      -0.430  -0.946   1.275  0.00  0.00     0.395 HD
ENDBRANCH   1   7
TORSDOF 1
ENDMDL
