MODEL 1
REMARK minimizedAffinity -4.93802452
REMARK minimizedRMSD -1
REMARK  1 active torsions:
REMARK  status: ('A' for Active; 'I' for Inactive)
REMARK    1  A    between atoms: N_2  and  C1_3 
ROOT
ATOM      1  C1  UNL d   1      -0.524  -0.252   0.105  0.00  0.00     0.143 A 
ATOM      2  C2  UNL d   1      -0.058  -0.771  -1.108  0.00  0.00    -0.057 A 
ATOM      3  C3  UNL d   1       0.911  -0.097  -1.861  0.00  0.00     0.033 A 
ATOM      4  C4  UNL d   1       1.411   1.126  -1.427  0.00  0.00    -0.042 A 
ATOM      5  C5  UNL d   1       0.944   1.673  -0.237  0.00  0.00     0.033 A 
ATOM      6  C6  UNL d   1      -0.019   0.992   0.514  0.00  0.00    -0.057 A 
ENDROOT
BRANCH   1   7
ATOM      7  N   UNL d   1      -1.557  -0.826   0.850  0.00  0.00    -0.732 N 
ATOM      8  C   UNL d   1      -2.682  -0.027   1.287  0.00  0.00     0.284 C 
ATOM      9  H3  UNL d   1      -1.811  -1.752   0.514  0.00  0.00     0.395 HD
ENDBRANCH   1   7
TORSDOF 1
ENDMDL
