MODEL 1
REMARK minimizedAffinity -4.43372011
REMARK minimizedRMSD -1
REMARK  1 active torsions:
REMARK  status: ('A' for Active; 'I' for Inactive)
REMARK    1  A    between atoms: N_2  and  C1_3 
ROOT
ATOM      1  C1  UNL d   1       0.083  -0.008   0.157  0.00  0.00     0.143 A 
ATOM      2  C2  UNL d   1       0.896   1.120   0.003  0.00  0.00    -0.057 A 
ATOM      3  C3  UNL d   1       1.662   1.309  -1.154  0.00  0.00     0.033 A 
ATOM      4  C4  UNL d   1       1.650   0.357  -2.168  0.00  0.00    -0.042 A 
ATOM      5  C5  UNL d   1       0.868  -0.784  -2.024  0.00  0.00     0.033 A 
ATOM      6  C6  UNL d   1       0.100  -0.964  -0.870  0.00  0.00    -0.057 A 
ENDROOT
BRANCH   1   7
ATOM      7  N   UNL d   1      -0.626  -0.302   1.325  0.00  0.00    -0.732 N 
ATOM      8  C   UNL d   1      -2.034   0.012   1.432  0.00  0.00     0.284 C 
ATOM      9  H3  UNL d   1      -0.370  -1.205   1.718  0.00  0.00     0.395 HD
ENDBRANCH   1   7
TORSDOF 1
ENDMDL
