MODEL 1
REMARK minimizedAffinity -2.63809156
REMARK minimizedRMSD -1
REMARK  1 active torsions:
REMARK  status: ('A' for Active; 'I' for Inactive)
REMARK    1  A    between atoms: N_2  and  C1_3 
ROOT
ATOM      1  C1  UNL d   1      -0.065  -0.215  -0.492  0.00  0.00     0.143 A 
ATOM      2  C2  UNL d   1       0.474   1.073  -0.573  0.00  0.00    -0.057 A 
ATOM      3  C3  UNL d   1       1.299   1.449  -1.640  0.00  0.00     0.033 A 
ATOM      4  C4  UNL d   1       1.625   0.531  -2.633  0.00  0.00    -0.042 A 
ATOM      5  C5  UNL d   1       1.121  -0.763  -2.559  0.00  0.00     0.033 A 
ATOM      6  C6  UNL d   1       0.292  -1.130  -1.495  0.00  0.00    -0.057 A 
ENDROOT
BRANCH   1   7
ATOM      7  N   UNL d   1      -0.811  -0.679   0.594  0.00  0.00    -0.732 N 
ATOM      8  C   UNL d   1      -1.061   0.175   1.735  0.00  0.00     0.284 C 
ATOM      9  H3  UNL d   1      -1.614  -1.233   0.305  0.00  0.00     0.395 HD
ENDBRANCH   1   7
TORSDOF 1
ENDMDL
