MODEL 1
REMARK minimizedAffinity -3.15089774
REMARK minimizedRMSD -1
REMARK  1 active torsions:
REMARK  status: ('A' for Active; 'I' for Inactive)
REMARK    1  A    between atoms: N_2  and  C1_3 
ROOT
ATOM      1  C1  UNL d   1      -0.048   0.099   0.188  0.00  0.00     0.143 A 
ATOM      2  C2  UNL d   1       1.022   0.999   0.137  0.00  0.00    -0.057 A 
ATOM      3  C3  UNL d   1       1.871   1.054  -0.975  0.00  0.00     0.033 A 
ATOM      4  C4  UNL d   1       1.682   0.187  -2.046  0.00  0.00    -0.042 A 
ATOM      5  C5  UNL d   1       0.641  -0.733  -2.006  0.00  0.00     0.033 A 
ATOM      6  C6  UNL d   1      -0.208  -0.779  -0.896  0.00  0.00    -0.057 A 
ENDROOT
BRANCH   1   7
ATOM      7  N   UNL d   1      -0.868  -0.072   1.306  0.00  0.00    -0.732 N 
ATOM      8  C   UNL d   1      -2.306  -0.149   1.162  0.00  0.00     0.284 C 
ATOM      9  H3  UNL d   1      -0.481  -0.736   1.974  0.00  0.00     0.395 HD
ENDBRANCH   1   7
TORSDOF 1
ENDMDL
