MODEL 1
REMARK minimizedAffinity -1.78672194
REMARK minimizedRMSD -1
REMARK  1 active torsions:
REMARK  status: ('A' for Active; 'I' for Inactive)
REMARK    1  A    between atoms: N_2  and  C1_3 
ROOT
ATOM      1  C1  UNL d   1      -0.606   0.046   0.702  0.00  0.00     0.143 A 
ATOM      2  C2  UNL d   1       0.019   1.264   0.416  0.00  0.00    -0.057 A 
ATOM      3  C3  UNL d   1       0.938   1.380  -0.634  0.00  0.00     0.033 A 
ATOM      4  C4  UNL d   1       1.271   0.269  -1.401  0.00  0.00    -0.042 A 
ATOM      5  C5  UNL d   1       0.681  -0.958  -1.119  0.00  0.00     0.033 A 
ATOM      6  C6  UNL d   1      -0.241  -1.066  -0.074  0.00  0.00    -0.057 A 
ENDROOT
BRANCH   1   7
ATOM      7  N   UNL d   1      -1.454  -0.157   1.794  0.00  0.00    -0.732 N 
ATOM      8  C   UNL d   1      -2.800   0.374   1.790  0.00  0.00     0.284 C 
ATOM      9  H3  UNL d   1      -1.378  -1.097   2.175  0.00  0.00     0.395 HD
ENDBRANCH   1   7
TORSDOF 1
ENDMDL
