MODEL 1
REMARK minimizedAffinity -4.51295567
REMARK minimizedRMSD -1
REMARK  1 active torsions:
REMARK  status: ('A' for Active; 'I' for Inactive)
REMARK    1  A    between atoms: N_2  and  C1_3 
ROOT
ATOM      1  C1  UNL d   1       0.027  -0.161   0.356  0.00  0.00     0.143 A 
ATOM      2  C2  UNL d   1       0.863   0.955   0.239  0.00  0.00    -0.057 A 
ATOM      3  C3  UNL d   1       1.554   1.223  -0.948  0.00  0.00     0.033 A 
ATOM      4  C4  UNL d   1       1.443   0.361  -2.035  0.00  0.00    -0.042 A 
ATOM      5  C5  UNL d   1       0.637  -0.767  -1.933  0.00  0.00     0.033 A 
ATOM      6  C6  UNL d   1      -0.055  -1.026  -0.746  0.00  0.00    -0.057 A 
ENDROOT
BRANCH   1   7
ATOM      7  N   UNL d   1      -0.609  -0.535   1.542  0.00  0.00    -0.732 N 
ATOM      8  C   UNL d   1      -1.892   0.031   1.901  0.00  0.00     0.284 C 
ATOM      9  H3  UNL d   1      -0.528  -1.532   1.729  0.00  0.00     0.395 HD
ENDBRANCH   1   7
TORSDOF 1
ENDMDL
