MODEL 1
REMARK minimizedAffinity -2.87654781
REMARK minimizedRMSD -1
REMARK  1 active torsions:
REMARK  status: ('A' for Active; 'I' for Inactive)
REMARK    1  A    between atoms: N_2  and  C1_3 
ROOT
ATOM      1  C1  UNL d   1      -2.134   0.182   2.154  0.00  0.00     0.143 A 
ATOM      2  C2  UNL d   1      -2.372   1.465   2.659  0.00  0.00    -0.057 A 
ATOM      3  C3  UNL d   1      -3.655   2.026   2.638  0.00  0.00     0.033 A 
ATOM      4  C4  UNL d   1      -4.719   1.324   2.083  0.00  0.00    -0.042 A 
ATOM      5  C5  UNL d   1      -4.500   0.057   1.553  0.00  0.00     0.033 A 
ATOM      6  C6  UNL d   1      -3.219  -0.501   1.583  0.00  0.00    -0.057 A 
ENDROOT
BRANCH   1   7
ATOM      7  N   UNL d   1      -0.863  -0.391   2.057  0.00  0.00    -0.732 N 
ATOM      8  C   UNL d   1      -0.234  -0.574   0.767  0.00  0.00     0.284 C 
ATOM      9  H3  UNL d   1      -0.232  -0.063   2.784  0.00  0.00     0.395 HD
ENDBRANCH   1   7
TORSDOF 1
ENDMDL
