MODEL 1
REMARK minimizedAffinity -4.66243362
REMARK minimizedRMSD -1
REMARK  1 active torsions:
REMARK  status: ('A' for Active; 'I' for Inactive)
REMARK    1  A    between atoms: N_2  and  C1_3 
ROOT
ATOM      1  C1  UNL d   1       0.660   0.299  -0.788  0.00  0.00     0.143 A 
ATOM      2  C2  UNL d   1       1.455   1.241  -1.450  0.00  0.00    -0.057 A 
ATOM      3  C3  UNL d   1       2.225   0.886  -2.564  0.00  0.00     0.033 A 
ATOM      4  C4  UNL d   1       2.236  -0.429  -3.020  0.00  0.00    -0.042 A 
ATOM      5  C5  UNL d   1       1.472  -1.387  -2.362  0.00  0.00     0.033 A 
ATOM      6  C6  UNL d   1       0.700  -1.024  -1.254  0.00  0.00    -0.057 A 
ENDROOT
BRANCH   1   7
ATOM      7  N   UNL d   1      -0.051   0.568   0.384  0.00  0.00    -0.732 N 
ATOM      8  C   UNL d   1      -0.845  -0.463   1.018  0.00  0.00     0.284 C 
ATOM      9  H3  UNL d   1       0.477   1.145   1.035  0.00  0.00     0.395 HD
ENDBRANCH   1   7
TORSDOF 1
ENDMDL
