MODEL 1
REMARK minimizedAffinity 9.9371748
REMARK minimizedRMSD -1
REMARK  0 active torsions:
REMARK  status: ('A' for Active; 'I' for Inactive)
ROOT
ATOM      1  C1  DEN d   1      -0.719  -0.970   1.503  0.00  0.00     0.130 A 
ATOM      2  C2  DEN d   1      -0.993  -1.477   0.161  0.00  0.00    -0.031 A 
ATOM      3  C3  DEN d   1       0.268  -1.442  -0.606  0.00  0.00     0.027 A 
ATOM      4  C4  DEN d   1       2.607  -0.662   0.150  0.00  0.00     0.027 A 
ATOM      5  C5  DEN d   1       3.331  -0.138   1.198  0.00  0.00    -0.003 A 
ATOM      6  C6  DEN d   1       2.754   0.175   2.400  0.00  0.00     0.001 A 
ATOM      7  C7  DEN d   1       1.422  -0.076   2.599  0.00  0.00     0.017 A 
ATOM      8  C8  DEN d   1       0.684  -0.598   1.545  0.00  0.00    -0.094 A 
ATOM      9  C9  DEN d   1       1.288  -0.918   0.341  0.00  0.00    -0.072 A 
ENDROOT
TORSDOF 0
ENDMDL
