MODEL 1
REMARK minimizedAffinity 4.23609591
REMARK minimizedRMSD -1
REMARK  0 active torsions:
REMARK  status: ('A' for Active; 'I' for Inactive)
ROOT
ATOM      1  C1  DEN d   1       2.096  -3.524  -0.000  0.00  0.00     0.130 A 
ATOM      2  C2  DEN d   1       1.129  -4.498  -0.500  0.00  0.00    -0.031 A 
ATOM      3  C3  DEN d   1      -0.211  -3.881  -0.442  0.00  0.00     0.027 A 
ATOM      4  C4  DEN d   1      -0.879  -1.524   0.364  0.00  0.00     0.027 A 
ATOM      5  C5  DEN d   1      -0.407  -0.341   0.890  0.00  0.00    -0.003 A 
ATOM      6  C6  DEN d   1       0.917  -0.151   1.185  0.00  0.00     0.001 A 
ATOM      7  C7  DEN d   1       1.823  -1.143   0.914  0.00  0.00     0.017 A 
ATOM      8  C8  DEN d   1       1.353  -2.340   0.391  0.00  0.00    -0.094 A 
ATOM      9  C9  DEN d   1       0.012  -2.509   0.088  0.00  0.00    -0.072 A 
ENDROOT
TORSDOF 0
ENDMDL
