MODEL 1
REMARK minimizedAffinity -3.81057954
REMARK minimizedRMSD -1
REMARK  0 active torsions:
REMARK  status: ('A' for Active; 'I' for Inactive)
ROOT
ATOM      1  C1  DEN d   1       2.626  -2.864   0.340  0.00  0.00     0.130 A 
ATOM      2  C2  DEN d   1       3.328  -1.645  -0.050  0.00  0.00    -0.031 A 
ATOM      3  C3  DEN d   1       2.341  -0.547  -0.103  0.00  0.00     0.027 A 
ATOM      4  C4  DEN d   1      -0.191  -0.617   0.384  0.00  0.00     0.027 A 
ATOM      5  C5  DEN d   1      -1.244  -1.431   0.741  0.00  0.00    -0.003 A 
ATOM      6  C6  DEN d   1      -1.088  -2.775   0.954  0.00  0.00     0.001 A 
ATOM      7  C7  DEN d   1       0.158  -3.338   0.857  0.00  0.00     0.017 A 
ATOM      8  C8  DEN d   1       1.222  -2.525   0.490  0.00  0.00    -0.094 A 
ATOM      9  C9  DEN d   1       1.046  -1.166   0.291  0.00  0.00    -0.072 A 
ENDROOT
TORSDOF 0
ENDMDL
