MODEL 1
REMARK minimizedAffinity 1.72710621
REMARK minimizedRMSD -1
REMARK  0 active torsions:
REMARK  status: ('A' for Active; 'I' for Inactive)
ROOT
ATOM      1  C1  DEN d   1       0.252  -3.474   0.202  0.00  0.00     0.130 A 
ATOM      2  C2  DEN d   1      -0.469  -2.393   0.868  0.00  0.00    -0.031 A 
ATOM      3  C3  DEN d   1       0.498  -1.320   1.175  0.00  0.00     0.027 A 
ATOM      4  C4  DEN d   1       3.027  -1.226   0.681  0.00  0.00     0.027 A 
ATOM      5  C5  DEN d   1       4.092  -1.913   0.142  0.00  0.00    -0.003 A 
ATOM      6  C6  DEN d   1       3.959  -3.173  -0.379  0.00  0.00     0.001 A 
ATOM      7  C7  DEN d   1       2.725  -3.766  -0.414  0.00  0.00     0.017 A 
ATOM      8  C8  DEN d   1       1.648  -3.082   0.134  0.00  0.00    -0.094 A 
ATOM      9  C9  DEN d   1       1.801  -1.805   0.646  0.00  0.00    -0.072 A 
ENDROOT
TORSDOF 0
ENDMDL
