MODEL 1
REMARK minimizedAffinity -3.85635543
REMARK minimizedRMSD -1
REMARK  0 active torsions:
REMARK  status: ('A' for Active; 'I' for Inactive)
ROOT
ATOM      1  C1  DEN d   1       2.756  -2.460   0.758  0.00  0.00     0.130 A 
ATOM      2  C2  DEN d   1       2.477  -3.725   0.086  0.00  0.00    -0.031 A 
ATOM      3  C3  DEN d   1       1.038  -3.760  -0.242  0.00  0.00     0.027 A 
ATOM      4  C4  DEN d   1      -0.775  -1.985   0.219  0.00  0.00     0.027 A 
ATOM      5  C5  DEN d   1      -1.020  -0.749   0.776  0.00  0.00    -0.003 A 
ATOM      6  C6  DEN d   1      -0.039  -0.018   1.391  0.00  0.00     0.001 A 
ATOM      7  C7  DEN d   1       1.244  -0.497   1.424  0.00  0.00     0.017 A 
ATOM      8  C8  DEN d   1       1.497  -1.745   0.871  0.00  0.00    -0.094 A 
ATOM      9  C9  DEN d   1       0.494  -2.463   0.243  0.00  0.00    -0.072 A 
ENDROOT
TORSDOF 0
ENDMDL
