MODEL 1
REMARK minimizedAffinity -1.14166415
REMARK minimizedRMSD -1
REMARK  0 active torsions:
REMARK  status: ('A' for Active; 'I' for Inactive)
ROOT
ATOM      1  C1  DEN d   1      -0.245  -3.407   0.708  0.00  0.00     0.130 A 
ATOM      2  C2  DEN d   1      -0.751  -2.144   1.238  0.00  0.00    -0.031 A 
ATOM      3  C3  DEN d   1       0.358  -1.170   1.234  0.00  0.00     0.027 A 
ATOM      4  C4  DEN d   1       2.797  -1.490   0.458  0.00  0.00     0.027 A 
ATOM      5  C5  DEN d   1       3.701  -2.391  -0.058  0.00  0.00    -0.003 A 
ATOM      6  C6  DEN d   1       3.366  -3.693  -0.321  0.00  0.00     0.001 A 
ATOM      7  C7  DEN d   1       2.081  -4.118  -0.111  0.00  0.00     0.017 A 
ATOM      8  C8  DEN d   1       1.165  -3.217   0.416  0.00  0.00    -0.094 A 
ATOM      9  C9  DEN d   1       1.520  -1.902   0.664  0.00  0.00    -0.072 A 
ENDROOT
TORSDOF 0
ENDMDL
