MODEL 1
REMARK minimizedAffinity -3.68121791
REMARK minimizedRMSD -1
REMARK  0 active torsions:
REMARK  status: ('A' for Active; 'I' for Inactive)
ROOT
ATOM      1  C1  DEN d   1       0.932  -0.112   0.856  0.00  0.00     0.130 A 
ATOM      2  C2  DEN d   1      -0.492  -0.282   1.127  0.00  0.00    -0.031 A 
ATOM      3  C3  DEN d   1      -0.847  -1.687   0.839  0.00  0.00     0.027 A 
ATOM      4  C4  DEN d   1       0.665  -3.605   0.009  0.00  0.00     0.027 A 
ATOM      5  C5  DEN d   1       1.945  -3.939  -0.374  0.00  0.00    -0.003 A 
ATOM      6  C6  DEN d   1       2.961  -3.022  -0.406  0.00  0.00     0.001 A 
ATOM      7  C7  DEN d   1       2.725  -1.733  -0.005  0.00  0.00     0.017 A 
ATOM      8  C8  DEN d   1       1.435  -1.386   0.375  0.00  0.00    -0.094 A 
ATOM      9  C9  DEN d   1       0.424  -2.331   0.412  0.00  0.00    -0.072 A 
ENDROOT
TORSDOF 0
ENDMDL
