MODEL 1
REMARK minimizedAffinity -2.10465193
REMARK minimizedRMSD -1
REMARK  0 active torsions:
REMARK  status: ('A' for Active; 'I' for Inactive)
ROOT
ATOM      1  C1  DEN d   1       2.160  -3.717  -0.309  0.00  0.00     0.130 A 
ATOM      2  C2  DEN d   1       3.523  -3.196  -0.366  0.00  0.00    -0.031 A 
ATOM      3  C3  DEN d   1       3.483  -1.769   0.012  0.00  0.00     0.027 A 
ATOM      4  C4  DEN d   1       1.454  -0.325   0.682  0.00  0.00     0.027 A 
ATOM      5  C5  DEN d   1       0.088  -0.323   0.865  0.00  0.00    -0.003 A 
ATOM      6  C6  DEN d   1      -0.680  -1.434   0.638  0.00  0.00     0.001 A 
ATOM      7  C7  DEN d   1      -0.082  -2.607   0.259  0.00  0.00     0.017 A 
ATOM      8  C8  DEN d   1       1.293  -2.615   0.066  0.00  0.00    -0.094 A 
ATOM      9  C9  DEN d   1       2.054  -1.484   0.312  0.00  0.00    -0.072 A 
ENDROOT
TORSDOF 0
ENDMDL
