MODEL 1
REMARK minimizedAffinity 3.40097904
REMARK minimizedRMSD -1
REMARK  0 active torsions:
REMARK  status: ('A' for Active; 'I' for Inactive)
ROOT
ATOM      1  C1  DEN d   1       0.936  -1.547   1.576  0.00  0.00     0.130 A 
ATOM      2  C2  DEN d   1       0.712  -2.635   0.628  0.00  0.00    -0.031 A 
ATOM      3  C3  DEN d   1      -0.671  -2.522   0.121  0.00  0.00     0.027 A 
ATOM      4  C4  DEN d   1      -2.475  -0.774   0.705  0.00  0.00     0.027 A 
ATOM      5  C5  DEN d   1      -2.755   0.338   1.468  0.00  0.00    -0.003 A 
ATOM      6  C6  DEN d   1      -1.844   0.875   2.339  0.00  0.00     0.001 A 
ATOM      7  C7  DEN d   1      -0.592   0.327   2.434  0.00  0.00     0.017 A 
ATOM      8  C8  DEN d   1      -0.305  -0.798   1.674  0.00  0.00    -0.094 A 
ATOM      9  C9  DEN d   1      -1.235  -1.319   0.790  0.00  0.00    -0.072 A 
ENDROOT
TORSDOF 0
ENDMDL
