MODEL 1
REMARK minimizedAffinity 2.70290375
REMARK minimizedRMSD -1
REMARK  0 active torsions:
REMARK  status: ('A' for Active; 'I' for Inactive)
ROOT
ATOM      1  C1  DEN d   1       0.310  -3.792   0.318  0.00  0.00     0.130 A 
ATOM      2  C2  DEN d   1       1.665  -4.151  -0.091  0.00  0.00    -0.031 A 
ATOM      3  C3  DEN d   1       2.500  -2.935  -0.024  0.00  0.00     0.027 A 
ATOM      4  C4  DEN d   1       1.830  -0.544   0.676  0.00  0.00     0.027 A 
ATOM      5  C5  DEN d   1       0.788   0.252   1.095  0.00  0.00    -0.003 A 
ATOM      6  C6  DEN d   1      -0.484  -0.232   1.251  0.00  0.00     0.001 A 
ATOM      7  C7  DEN d   1      -0.737  -1.560   1.029  0.00  0.00     0.017 A 
ATOM      8  C8  DEN d   1       0.308  -2.367   0.599  0.00  0.00    -0.094 A 
ATOM      9  C9  DEN d   1       1.589  -1.862   0.459  0.00  0.00    -0.072 A 
ENDROOT
TORSDOF 0
ENDMDL
