MODEL 1
REMARK minimizedAffinity -2.80993128
REMARK minimizedRMSD -1
REMARK  0 active torsions:
REMARK  status: ('A' for Active; 'I' for Inactive)
ROOT
ATOM      1  C1  DEN d   1       1.399  -3.459  -0.341  0.00  0.00     0.130 A 
ATOM      2  C2  DEN d   1       2.843  -3.242  -0.309  0.00  0.00    -0.031 A 
ATOM      3  C3  DEN d   1       3.097  -1.964   0.387  0.00  0.00     0.027 A 
ATOM      4  C4  DEN d   1       1.404  -0.313   1.416  0.00  0.00     0.027 A 
ATOM      5  C5  DEN d   1       0.066  -0.061   1.626  0.00  0.00    -0.003 A 
ATOM      6  C6  DEN d   1      -0.915  -0.901   1.169  0.00  0.00     0.001 A 
ATOM      7  C7  DEN d   1      -0.570  -2.056   0.518  0.00  0.00     0.017 A 
ATOM      8  C8  DEN d   1       0.776  -2.312   0.296  0.00  0.00    -0.094 A 
ATOM      9  C9  DEN d   1       1.753  -1.457   0.776  0.00  0.00    -0.072 A 
ENDROOT
TORSDOF 0
ENDMDL
