MODEL 1
REMARK minimizedAffinity -3.1004436
REMARK minimizedRMSD -1
REMARK  0 active torsions:
REMARK  status: ('A' for Active; 'I' for Inactive)
ROOT
ATOM      1  C1  DEN d   1       1.763  -4.041   0.195  0.00  0.00     0.130 A 
ATOM      2  C2  DEN d   1       3.186  -3.755   0.034  0.00  0.00    -0.031 A 
ATOM      3  C3  DEN d   1       3.385  -2.305   0.233  0.00  0.00     0.027 A 
ATOM      4  C4  DEN d   1       1.639  -0.486   0.776  0.00  0.00     0.027 A 
ATOM      5  C5  DEN d   1       0.301  -0.245   0.996  0.00  0.00    -0.003 A 
ATOM      6  C6  DEN d   1      -0.641  -1.238   0.932  0.00  0.00     0.001 A 
ATOM      7  C7  DEN d   1      -0.251  -2.528   0.685  0.00  0.00     0.017 A 
ATOM      8  C8  DEN d   1       1.096  -2.778   0.454  0.00  0.00    -0.094 A 
ATOM      9  C9  DEN d   1       2.033  -1.762   0.536  0.00  0.00    -0.072 A 
ENDROOT
TORSDOF 0
ENDMDL
