MODEL 1
REMARK minimizedAffinity 1.38711357
REMARK minimizedRMSD -1
REMARK  0 active torsions:
REMARK  status: ('A' for Active; 'I' for Inactive)
ROOT
ATOM      1  C1  DEN d   1      -0.650  -3.014   0.119  0.00  0.00     0.130 A 
ATOM      2  C2  DEN d   1      -1.595  -2.638   1.166  0.00  0.00    -0.031 A 
ATOM      3  C3  DEN d   1      -0.999  -1.533   1.944  0.00  0.00     0.027 A 
ATOM      4  C4  DEN d   1       1.282  -0.372   1.627  0.00  0.00     0.027 A 
ATOM      5  C5  DEN d   1       2.437  -0.353   0.878  0.00  0.00    -0.003 A 
ATOM      6  C6  DEN d   1       2.658  -1.235  -0.147  0.00  0.00     0.001 A 
ATOM      7  C7  DEN d   1       1.689  -2.144  -0.480  0.00  0.00     0.017 A 
ATOM      8  C8  DEN d   1       0.524  -2.174   0.276  0.00  0.00    -0.094 A 
ATOM      9  C9  DEN d   1       0.315  -1.266   1.300  0.00  0.00    -0.072 A 
ENDROOT
TORSDOF 0
ENDMDL
