MODEL 1
REMARK minimizedAffinity -2.25447941
REMARK minimizedRMSD -1
REMARK  0 active torsions:
REMARK  status: ('A' for Active; 'I' for Inactive)
ROOT
ATOM      1  C1  DEN d   1       1.120   0.002   0.856  0.00  0.00     0.130 A 
ATOM      2  C2  DEN d   1      -0.276  -0.145   1.258  0.00  0.00    -0.031 A 
ATOM      3  C3  DEN d   1      -0.665  -1.554   1.053  0.00  0.00     0.027 A 
ATOM      4  C4  DEN d   1       0.753  -3.515   0.159  0.00  0.00     0.027 A 
ATOM      5  C5  DEN d   1       1.991  -3.876  -0.324  0.00  0.00    -0.003 A 
ATOM      6  C6  DEN d   1       3.007  -2.970  -0.479  0.00  0.00     0.001 A 
ATOM      7  C7  DEN d   1       2.817  -1.666  -0.104  0.00  0.00     0.017 A 
ATOM      8  C8  DEN d   1       1.569  -1.293   0.377  0.00  0.00    -0.094 A 
ATOM      9  C9  DEN d   1       0.559  -2.226   0.537  0.00  0.00    -0.072 A 
ENDROOT
TORSDOF 0
ENDMDL
