MODEL 1
REMARK minimizedAffinity 10.8392143
REMARK minimizedRMSD -1
REMARK  0 active torsions:
REMARK  status: ('A' for Active; 'I' for Inactive)
ROOT
ATOM      1  C   UNL d   1       1.565   0.219   1.199  0.00  0.00     0.124 A 
ATOM      2  C1  UNL d   1       1.015   1.309   0.538  0.00  0.00     0.062 A 
ATOM      3  C2  UNL d   1       0.485   1.157  -0.740  0.00  0.00     0.162 A 
ATOM      4  C3  UNL d   1       0.501  -0.090  -1.365  0.00  0.00    -0.034 A 
ATOM      5  C4  UNL d   1       1.056  -1.181  -0.694  0.00  0.00     0.162 A 
ATOM      6  C5  UNL d   1       1.585  -1.024   0.583  0.00  0.00     0.062 A 
ATOM      7  F   UNL d   1       2.115  -2.077   1.221  0.00  0.00    -0.097 F 
ATOM      8  F1  UNL d   1       1.087  -2.394  -1.266  0.00  0.00    -0.096 F 
ATOM      9  I   UNL d   1      -0.291  -0.321  -3.276  0.00  0.00    -0.060 I 
ATOM     10  F2  UNL d   1      -0.040   2.227  -1.356  0.00  0.00    -0.096 F 
ATOM     11  F3  UNL d   1       0.996   2.511   1.131  0.00  0.00    -0.097 F 
ATOM     12  F4  UNL d   1       2.075   0.368   2.428  0.00  0.00    -0.092 F 
ENDROOT
TORSDOF 0
ENDMDL
