MODEL 1
REMARK minimizedAffinity 9.85548401
REMARK minimizedRMSD -1
REMARK  0 active torsions:
REMARK  status: ('A' for Active; 'I' for Inactive)
ROOT
ATOM      1  C   UNL d   1       0.727   1.919   0.356  0.00  0.00     0.124 A 
ATOM      2  C1  UNL d   1      -0.219   2.451  -0.508  0.00  0.00     0.062 A 
ATOM      3  C2  UNL d   1      -0.606   1.744  -1.643  0.00  0.00     0.162 A 
ATOM      4  C3  UNL d   1      -0.047   0.497  -1.920  0.00  0.00    -0.034 A 
ATOM      5  C4  UNL d   1       0.905  -0.031  -1.046  0.00  0.00     0.162 A 
ATOM      6  C5  UNL d   1       1.288   0.679   0.087  0.00  0.00     0.062 A 
ATOM      7  F   UNL d   1       2.203   0.164   0.921  0.00  0.00    -0.097 F 
ATOM      8  F1  UNL d   1       1.462  -1.228  -1.282  0.00  0.00    -0.096 F 
ATOM      9  I   UNL d   1      -0.623  -0.563  -3.615  0.00  0.00    -0.060 I 
ATOM     10  F2  UNL d   1      -1.523   2.283  -2.461  0.00  0.00    -0.096 F 
ATOM     11  F3  UNL d   1      -0.762   3.650  -0.251  0.00  0.00    -0.097 F 
ATOM     12  F4  UNL d   1       1.098   2.602   1.447  0.00  0.00    -0.092 F 
ENDROOT
TORSDOF 0
ENDMDL
