MODEL 1
REMARK minimizedAffinity 27.6233864
REMARK minimizedRMSD -1
REMARK  0 active torsions:
REMARK  status: ('A' for Active; 'I' for Inactive)
ROOT
ATOM      1  C   UNL d   1       1.864  -1.398   2.445  0.00  0.00     0.124 A 
ATOM      2  C1  UNL d   1       1.492  -1.683   3.752  0.00  0.00     0.062 A 
ATOM      3  C2  UNL d   1       2.461  -1.799   4.745  0.00  0.00     0.162 A 
ATOM      4  C3  UNL d   1       3.810  -1.629   4.435  0.00  0.00    -0.034 A 
ATOM      5  C4  UNL d   1       4.176  -1.343   3.119  0.00  0.00     0.162 A 
ATOM      6  C5  UNL d   1       3.204  -1.229   2.130  0.00  0.00     0.062 A 
ATOM      7  F   UNL d   1       3.565  -0.953   0.868  0.00  0.00    -0.097 F 
ATOM      8  F1  UNL d   1       5.464  -1.174   2.786  0.00  0.00    -0.096 F 
ATOM      9  I   UNL d   1       5.261  -1.801   5.918  0.00  0.00    -0.060 I 
ATOM     10  F2  UNL d   1       2.073  -2.075   5.999  0.00  0.00    -0.096 F 
ATOM     11  F3  UNL d   1       0.198  -1.848   4.059  0.00  0.00    -0.097 F 
ATOM     12  F4  UNL d   1       0.930  -1.288   1.491  0.00  0.00    -0.092 F 
ENDROOT
TORSDOF 0
ENDMDL
