MODEL 1
REMARK minimizedAffinity 14.4161987
REMARK minimizedRMSD -1
REMARK  0 active torsions:
REMARK  status: ('A' for Active; 'I' for Inactive)
ROOT
ATOM      1  C   UNL d   1       0.385   1.927   0.074  0.00  0.00     0.124 A 
ATOM      2  C1  UNL d   1      -0.863   2.535   0.095  0.00  0.00     0.062 A 
ATOM      3  C2  UNL d   1      -1.716   2.420  -0.999  0.00  0.00     0.162 A 
ATOM      4  C3  UNL d   1      -1.324   1.694  -2.124  0.00  0.00    -0.034 A 
ATOM      5  C4  UNL d   1      -0.067   1.087  -2.138  0.00  0.00     0.162 A 
ATOM      6  C5  UNL d   1       0.781   1.204  -1.042  0.00  0.00     0.062 A 
ATOM      7  F   UNL d   1       1.987   0.617  -1.065  0.00  0.00    -0.097 F 
ATOM      8  F1  UNL d   1       0.341   0.381  -3.203  0.00  0.00    -0.096 F 
ATOM      9  I   UNL d   1      -2.596   1.521  -3.762  0.00  0.00    -0.060 I 
ATOM     10  F2  UNL d   1      -2.916   3.017  -0.951  0.00  0.00    -0.096 F 
ATOM     11  F3  UNL d   1      -1.248   3.235   1.171  0.00  0.00    -0.097 F 
ATOM     12  F4  UNL d   1       1.204   2.040   1.127  0.00  0.00    -0.092 F 
ENDROOT
TORSDOF 0
ENDMDL
