MODEL 1
REMARK minimizedAffinity 11.1781855
REMARK minimizedRMSD -1
REMARK  0 active torsions:
REMARK  status: ('A' for Active; 'I' for Inactive)
ROOT
ATOM      1  C   UNL d   1      -1.186   0.575  -4.386  0.00  0.00     0.124 A 
ATOM      2  C1  UNL d   1       0.064   0.067  -4.060  0.00  0.00     0.062 A 
ATOM      3  C2  UNL d   1       0.578   0.242  -2.779  0.00  0.00     0.162 A 
ATOM      4  C3  UNL d   1      -0.158   0.927  -1.812  0.00  0.00    -0.034 A 
ATOM      5  C4  UNL d   1      -1.414   1.436  -2.148  0.00  0.00     0.162 A 
ATOM      6  C5  UNL d   1      -1.924   1.259  -3.430  0.00  0.00     0.062 A 
ATOM      7  F   UNL d   1      -3.132   1.750  -3.743  0.00  0.00    -0.097 F 
ATOM      8  F1  UNL d   1      -2.149   2.100  -1.243  0.00  0.00    -0.096 F 
ATOM      9  I   UNL d   1       0.607   1.191   0.105  0.00  0.00    -0.060 I 
ATOM     10  F2  UNL d   1       1.789  -0.259  -2.492  0.00  0.00    -0.096 F 
ATOM     11  F3  UNL d   1       0.779  -0.593  -4.982  0.00  0.00    -0.097 F 
ATOM     12  F4  UNL d   1      -1.678   0.406  -5.620  0.00  0.00    -0.092 F 
ENDROOT
TORSDOF 0
ENDMDL
