MODEL 1
REMARK minimizedAffinity 19.6083336
REMARK minimizedRMSD -1
REMARK  0 active torsions:
REMARK  status: ('A' for Active; 'I' for Inactive)
ROOT
ATOM      1  C   UNL d   1       4.626  -1.147   4.863  0.00  0.00     0.124 A 
ATOM      2  C1  UNL d   1       3.900  -0.051   4.416  0.00  0.00     0.062 A 
ATOM      3  C2  UNL d   1       3.168  -0.131   3.235  0.00  0.00     0.162 A 
ATOM      4  C3  UNL d   1       3.158  -1.311   2.492  0.00  0.00    -0.034 A 
ATOM      5  C4  UNL d   1       3.891  -2.408   2.947  0.00  0.00     0.162 A 
ATOM      6  C5  UNL d   1       4.621  -2.324   4.128  0.00  0.00     0.062 A 
ATOM      7  F   UNL d   1       5.322  -3.383   4.558  0.00  0.00    -0.097 F 
ATOM      8  F1  UNL d   1       3.903  -3.559   2.257  0.00  0.00    -0.096 F 
ATOM      9  I   UNL d   1       2.065  -1.434   0.725  0.00  0.00    -0.060 I 
ATOM     10  F2  UNL d   1       2.476   0.943   2.828  0.00  0.00    -0.096 F 
ATOM     11  F3  UNL d   1       3.904   1.087   5.124  0.00  0.00    -0.097 F 
ATOM     12  F4  UNL d   1       5.330  -1.067   5.999  0.00  0.00    -0.092 F 
ENDROOT
TORSDOF 0
ENDMDL
