MODEL 1
REMARK minimizedAffinity 24.2634506
REMARK minimizedRMSD -1
REMARK  0 active torsions:
REMARK  status: ('A' for Active; 'I' for Inactive)
ROOT
ATOM      1  C   UNL d   1       1.233   1.498   0.585  0.00  0.00     0.124 A 
ATOM      2  C1  UNL d   1       1.389   0.732  -0.563  0.00  0.00     0.062 A 
ATOM      3  C2  UNL d   1       0.523   0.900  -1.639  0.00  0.00     0.162 A 
ATOM      4  C3  UNL d   1      -0.507   1.838  -1.574  0.00  0.00    -0.034 A 
ATOM      5  C4  UNL d   1      -0.659   2.604  -0.417  0.00  0.00     0.162 A 
ATOM      6  C5  UNL d   1       0.209   2.432   0.657  0.00  0.00     0.062 A 
ATOM      7  F   UNL d   1       0.057   3.172   1.765  0.00  0.00    -0.097 F 
ATOM      8  F1  UNL d   1      -1.638   3.514  -0.321  0.00  0.00    -0.096 F 
ATOM      9  I   UNL d   1      -1.804   2.092  -3.182  0.00  0.00    -0.060 I 
ATOM     10  F2  UNL d   1       0.698   0.147  -2.735  0.00  0.00    -0.096 F 
ATOM     11  F3  UNL d   1       2.377  -0.172  -0.634  0.00  0.00    -0.097 F 
ATOM     12  F4  UNL d   1       2.067   1.333   1.620  0.00  0.00    -0.092 F 
ENDROOT
TORSDOF 0
ENDMDL
