MODEL 1
REMARK minimizedAffinity 17.7048397
REMARK minimizedRMSD -1
REMARK  0 active torsions:
REMARK  status: ('A' for Active; 'I' for Inactive)
ROOT
ATOM      1  C   UNL d   1      -2.775   0.675  -3.627  0.00  0.00     0.124 A 
ATOM      2  C1  UNL d   1      -2.030   1.451  -4.504  0.00  0.00     0.062 A 
ATOM      3  C2  UNL d   1      -2.619   2.529  -5.158  0.00  0.00     0.162 A 
ATOM      4  C3  UNL d   1      -3.962   2.837  -4.938  0.00  0.00    -0.034 A 
ATOM      5  C4  UNL d   1      -4.705   2.051  -4.056  0.00  0.00     0.162 A 
ATOM      6  C5  UNL d   1      -4.112   0.975  -3.404  0.00  0.00     0.062 A 
ATOM      7  F   UNL d   1      -4.833   0.226  -2.558  0.00  0.00    -0.097 F 
ATOM      8  F1  UNL d   1      -5.998   2.320  -3.821  0.00  0.00    -0.096 F 
ATOM      9  I   UNL d   1      -4.847   4.448  -5.915  0.00  0.00    -0.060 I 
ATOM     10  F2  UNL d   1      -1.876   3.262  -5.999  0.00  0.00    -0.096 F 
ATOM     11  F3  UNL d   1      -0.739   1.162  -4.721  0.00  0.00    -0.097 F 
ATOM     12  F4  UNL d   1      -2.206  -0.362  -3.000  0.00  0.00    -0.092 F 
ENDROOT
TORSDOF 0
ENDMDL
