MODEL 1
REMARK minimizedAffinity 20.701931
REMARK minimizedRMSD -1
REMARK  0 active torsions:
REMARK  status: ('A' for Active; 'I' for Inactive)
ROOT
ATOM      1  C   UNL d   1       1.571   4.164  -0.379  0.00  0.00     0.124 A 
ATOM      2  C1  UNL d   1       1.304   3.020   0.360  0.00  0.00     0.062 A 
ATOM      3  C2  UNL d   1      -0.010   2.604   0.555  0.00  0.00     0.162 A 
ATOM      4  C3  UNL d   1      -1.067   3.332   0.009  0.00  0.00    -0.034 A 
ATOM      5  C4  UNL d   1      -0.790   4.482  -0.733  0.00  0.00     0.162 A 
ATOM      6  C5  UNL d   1       0.525   4.893  -0.925  0.00  0.00     0.062 A 
ATOM      7  F   UNL d   1       0.781   5.999  -1.639  0.00  0.00    -0.097 F 
ATOM      8  F1  UNL d   1      -1.783   5.205  -1.272  0.00  0.00    -0.096 F 
ATOM      9  I   UNL d   1      -3.033   2.713   0.298  0.00  0.00    -0.060 I 
ATOM     10  F2  UNL d   1      -0.239   1.495   1.273  0.00  0.00    -0.096 F 
ATOM     11  F3  UNL d   1       2.313   2.313   0.888  0.00  0.00    -0.097 F 
ATOM     12  F4  UNL d   1       2.837   4.562  -0.565  0.00  0.00    -0.092 F 
ENDROOT
TORSDOF 0
ENDMDL
