MODEL 1
REMARK minimizedAffinity 18.8500099
REMARK minimizedRMSD -1
REMARK  0 active torsions:
REMARK  status: ('A' for Active; 'I' for Inactive)
ROOT
ATOM      1  C   UNL d   1       0.999   1.538   0.744  0.00  0.00     0.124 A 
ATOM      2  C1  UNL d   1       0.098   2.135  -0.127  0.00  0.00     0.062 A 
ATOM      3  C2  UNL d   1       0.349   3.409  -0.628  0.00  0.00     0.162 A 
ATOM      4  C3  UNL d   1       1.507   4.095  -0.261  0.00  0.00    -0.034 A 
ATOM      5  C4  UNL d   1       2.408   3.488   0.615  0.00  0.00     0.162 A 
ATOM      6  C5  UNL d   1       2.153   2.215   1.114  0.00  0.00     0.062 A 
ATOM      7  F   UNL d   1       3.025   1.640   1.955  0.00  0.00    -0.097 F 
ATOM      8  F1  UNL d   1       3.531   4.119   0.989  0.00  0.00    -0.096 F 
ATOM      9  I   UNL d   1       1.885   6.000  -1.009  0.00  0.00    -0.060 I 
ATOM     10  F2  UNL d   1      -0.540   3.962  -1.468  0.00  0.00    -0.096 F 
ATOM     11  F3  UNL d   1      -1.018   1.484  -0.485  0.00  0.00    -0.097 F 
ATOM     12  F4  UNL d   1       0.755   0.313   1.226  0.00  0.00    -0.092 F 
ENDROOT
TORSDOF 0
ENDMDL
