MODEL 1
REMARK minimizedAffinity 1.53383708
REMARK minimizedRMSD -1
REMARK  2 active torsions:
REMARK  status: ('A' for Active; 'I' for Inactive)
REMARK    1  A    between atoms: C1_2  and  C2_3 
REMARK    2  A    between atoms: C2_3  and  C3_4 
ROOT
ATOM      1  C3  UNL d   1      -2.612   1.796   2.523  0.00  0.00    -0.075 A 
ATOM      2  C4  UNL d   1      -2.362   0.421   2.639  0.00  0.00     0.002 A 
ATOM      3  C5  UNL d   1      -1.168  -0.124   2.165  0.00  0.00     0.002 A 
ATOM      4  C6  UNL d   1      -0.216   0.694   1.563  0.00  0.00    -0.004 A 
ATOM      5  C7  UNL d   1      -0.460   2.059   1.428  0.00  0.00     0.002 A 
ATOM      6  C8  UNL d   1      -1.652   2.608   1.904  0.00  0.00     0.002 A 
ENDROOT
BRANCH   1   7
ATOM      7  C2  UNL d   1      -3.889   2.397   3.060  0.00  0.00     0.056 C 
BRANCH   7   8
ATOM      8  C1  UNL d   1      -4.617   1.510   4.075  0.00  0.00     0.007 C 
ATOM      9  C   UNL d   1      -5.221   2.294   5.233  0.00  0.00     0.009 C 
ENDBRANCH   7   8
ENDBRANCH   1   7
TORSDOF 2
ENDMDL
