MODEL 1
REMARK minimizedAffinity 5.55948734
REMARK minimizedRMSD -1
REMARK  2 active torsions:
REMARK  status: ('A' for Active; 'I' for Inactive)
REMARK    1  A    between atoms: C1_2  and  C2_3 
REMARK    2  A    between atoms: C2_3  and  C3_4 
ROOT
ATOM      1  C3  UNL d   1       2.365   3.191  -4.089  0.00  0.00    -0.075 A 
ATOM      2  C4  UNL d   1       1.091   3.770  -3.994  0.00  0.00     0.002 A 
ATOM      3  C5  UNL d   1       0.754   4.872  -4.779  0.00  0.00     0.002 A 
ATOM      4  C6  UNL d   1       1.686   5.416  -5.660  0.00  0.00    -0.004 A 
ATOM      5  C7  UNL d   1       2.960   4.859  -5.751  0.00  0.00     0.002 A 
ATOM      6  C8  UNL d   1       3.299   3.753  -4.969  0.00  0.00     0.002 A 
ENDROOT
BRANCH   1   7
ATOM      7  C2  UNL d   1       2.727   1.980  -3.263  0.00  0.00     0.056 C 
BRANCH   7   8
ATOM      8  C1  UNL d   1       3.017   0.724  -4.091  0.00  0.00     0.007 C 
ATOM      9  C   UNL d   1       4.462   0.253  -3.982  0.00  0.00     0.009 C 
ENDBRANCH   7   8
ENDBRANCH   1   7
TORSDOF 2
ENDMDL
