MODEL 1
REMARK minimizedAffinity -2.17727256
REMARK minimizedRMSD -1
REMARK  2 active torsions:
REMARK  status: ('A' for Active; 'I' for Inactive)
REMARK    1  A    between atoms: C1_2  and  C2_3 
REMARK    2  A    between atoms: C2_3  and  C3_4 
ROOT
ATOM      1  C3  UNL d   1       1.060   0.664   0.825  0.00  0.00    -0.075 A 
ATOM      2  C4  UNL d   1       0.754  -0.499   1.546  0.00  0.00     0.002 A 
ATOM      3  C5  UNL d   1      -0.532  -0.704   2.048  0.00  0.00     0.002 A 
ATOM      4  C6  UNL d   1      -1.523   0.254   1.845  0.00  0.00    -0.004 A 
ATOM      5  C7  UNL d   1      -1.226   1.420   1.144  0.00  0.00     0.002 A 
ATOM      6  C8  UNL d   1       0.058   1.626   0.637  0.00  0.00     0.002 A 
ENDROOT
BRANCH   1   7
ATOM      7  C2  UNL d   1       2.441   0.878   0.254  0.00  0.00     0.056 C 
BRANCH   7   8
ATOM      8  C1  UNL d   1       2.959  -0.296  -0.584  0.00  0.00     0.007 C 
ATOM      9  C   UNL d   1       3.376   0.109  -1.991  0.00  0.00     0.009 C 
ENDBRANCH   7   8
ENDBRANCH   1   7
TORSDOF 2
ENDMDL
