MODEL 1
REMARK minimizedAffinity 0.201398075
REMARK minimizedRMSD -1
REMARK  2 active torsions:
REMARK  status: ('A' for Active; 'I' for Inactive)
REMARK    1  A    between atoms: C1_2  and  C2_3 
REMARK    2  A    between atoms: C2_3  and  C3_4 
ROOT
ATOM      1  C3  UNL d   1      -4.156  -3.758  -1.336  0.00  0.00    -0.075 A 
ATOM      2  C4  UNL d   1      -2.866  -3.762  -0.784  0.00  0.00     0.002 A 
ATOM      3  C5  UNL d   1      -2.395  -4.879  -0.094  0.00  0.00     0.002 A 
ATOM      4  C6  UNL d   1      -3.208  -6.000   0.063  0.00  0.00    -0.004 A 
ATOM      5  C7  UNL d   1      -4.497  -6.000  -0.467  0.00  0.00     0.002 A 
ATOM      6  C8  UNL d   1      -4.969  -4.885  -1.162  0.00  0.00     0.002 A 
ENDROOT
BRANCH   1   7
ATOM      7  C2  UNL d   1      -4.661  -2.563  -2.109  0.00  0.00     0.056 C 
BRANCH   7   8
ATOM      8  C1  UNL d   1      -3.553  -1.631  -2.610  0.00  0.00     0.007 C 
ATOM      9  C   UNL d   1      -2.753  -2.216  -3.766  0.00  0.00     0.009 C 
ENDBRANCH   7   8
ENDBRANCH   1   7
TORSDOF 2
ENDMDL
