MODEL 1
REMARK minimizedAffinity -1.1830672
REMARK minimizedRMSD -1
REMARK  2 active torsions:
REMARK  status: ('A' for Active; 'I' for Inactive)
REMARK    1  A    between atoms: C1_2  and  C2_3 
REMARK    2  A    between atoms: C2_3  and  C3_4 
ROOT
ATOM      1  C3  UNL d   1      -1.477   1.678   1.768  0.00  0.00    -0.075 A 
ATOM      2  C4  UNL d   1      -1.447   0.296   2.006  0.00  0.00     0.002 A 
ATOM      3  C5  UNL d   1      -0.426  -0.492   1.475  0.00  0.00     0.002 A 
ATOM      4  C6  UNL d   1       0.571   0.088   0.693  0.00  0.00    -0.004 A 
ATOM      5  C7  UNL d   1       0.542   1.457   0.437  0.00  0.00     0.002 A 
ATOM      6  C8  UNL d   1      -0.476   2.249   0.970  0.00  0.00     0.002 A 
ENDROOT
BRANCH   1   7
ATOM      7  C2  UNL d   1      -2.563   2.541   2.365  0.00  0.00     0.056 C 
BRANCH   7   8
ATOM      8  C1  UNL d   1      -3.686   1.750   3.043  0.00  0.00     0.007 C 
ATOM      9  C   UNL d   1      -4.479   2.575   4.048  0.00  0.00     0.009 C 
ENDBRANCH   7   8
ENDBRANCH   1   7
TORSDOF 2
ENDMDL
