MODEL 1
REMARK minimizedAffinity 3.07528639
REMARK minimizedRMSD -1
REMARK  2 active torsions:
REMARK  status: ('A' for Active; 'I' for Inactive)
REMARK    1  A    between atoms: C1_2  and  C2_3 
REMARK    2  A    between atoms: C2_3  and  C3_4 
ROOT
ATOM      1  C3  UNL d   1      -1.586   1.792   2.187  0.00  0.00    -0.075 A 
ATOM      2  C4  UNL d   1      -1.811   0.461   1.807  0.00  0.00     0.002 A 
ATOM      3  C5  UNL d   1      -0.766  -0.321   1.311  0.00  0.00     0.002 A 
ATOM      4  C6  UNL d   1       0.511   0.220   1.180  0.00  0.00    -0.004 A 
ATOM      5  C7  UNL d   1       0.742   1.546   1.539  0.00  0.00     0.002 A 
ATOM      6  C8  UNL d   1      -0.300   2.329   2.039  0.00  0.00     0.002 A 
ENDROOT
BRANCH   1   7
ATOM      7  C2  UNL d   1      -2.705   2.634   2.752  0.00  0.00     0.056 C 
BRANCH   7   8
ATOM      8  C1  UNL d   1      -3.663   1.864   3.667  0.00  0.00     0.007 C 
ATOM      9  C   UNL d   1      -4.581   2.773   4.475  0.00  0.00     0.009 C 
ENDBRANCH   7   8
ENDBRANCH   1   7
TORSDOF 2
ENDMDL
