MODEL 1
REMARK minimizedAffinity 1.90669382
REMARK minimizedRMSD -1
REMARK  2 active torsions:
REMARK  status: ('A' for Active; 'I' for Inactive)
REMARK    1  A    between atoms: C1_2  and  C2_3 
REMARK    2  A    between atoms: C2_3  and  C3_4 
ROOT
ATOM      1  C3  UNL d   1       1.506   0.402   0.822  0.00  0.00    -0.075 A 
ATOM      2  C4  UNL d   1       0.408  -0.462   0.940  0.00  0.00     0.002 A 
ATOM      3  C5  UNL d   1      -0.872   0.045   1.167  0.00  0.00     0.002 A 
ATOM      4  C6  UNL d   1      -1.068   1.419   1.288  0.00  0.00    -0.004 A 
ATOM      5  C7  UNL d   1       0.018   2.286   1.188  0.00  0.00     0.002 A 
ATOM      6  C8  UNL d   1       1.299   1.782   0.957  0.00  0.00     0.002 A 
ENDROOT
BRANCH   1   7
ATOM      7  C2  UNL d   1       2.889  -0.138   0.547  0.00  0.00     0.056 C 
BRANCH   7   8
ATOM      8  C1  UNL d   1       3.169  -0.410  -0.935  0.00  0.00     0.007 C 
ATOM      9  C   UNL d   1       3.015   0.826  -1.811  0.00  0.00     0.009 C 
ENDBRANCH   7   8
ENDBRANCH   1   7
TORSDOF 2
ENDMDL
