MODEL 1
REMARK minimizedAffinity -0.213748664
REMARK minimizedRMSD -1
REMARK  2 active torsions:
REMARK  status: ('A' for Active; 'I' for Inactive)
REMARK    1  A    between atoms: C1_2  and  C2_3 
REMARK    2  A    between atoms: C2_3  and  C3_4 
ROOT
ATOM      1  C3  UNL d   1      -2.827   1.886   2.250  0.00  0.00    -0.075 A 
ATOM      2  C4  UNL d   1      -2.744   0.495   2.409  0.00  0.00     0.002 A 
ATOM      3  C5  UNL d   1      -1.707  -0.225   1.815  0.00  0.00     0.002 A 
ATOM      4  C6  UNL d   1      -0.748   0.433   1.048  0.00  0.00    -0.004 A 
ATOM      5  C7  UNL d   1      -0.830   1.812   0.869  0.00  0.00     0.002 A 
ATOM      6  C8  UNL d   1      -1.864   2.536   1.466  0.00  0.00     0.002 A 
ENDROOT
BRANCH   1   7
ATOM      7  C2  UNL d   1      -3.930   2.675   2.914  0.00  0.00     0.056 C 
BRANCH   7   8
ATOM      8  C1  UNL d   1      -4.579   1.960   4.104  0.00  0.00     0.007 C 
ATOM      9  C   UNL d   1      -5.015   2.911   5.211  0.00  0.00     0.009 C 
ENDBRANCH   7   8
ENDBRANCH   1   7
TORSDOF 2
ENDMDL
