MODEL 1
REMARK minimizedAffinity -0.139800102
REMARK minimizedRMSD -1
REMARK  2 active torsions:
REMARK  status: ('A' for Active; 'I' for Inactive)
REMARK    1  A    between atoms: C1_2  and  C2_3 
REMARK    2  A    between atoms: C2_3  and  C3_4 
ROOT
ATOM      1  C3  UNL d   1      -1.959   1.512   2.123  0.00  0.00    -0.075 A 
ATOM      2  C4  UNL d   1      -1.895   0.112   2.165  0.00  0.00     0.002 A 
ATOM      3  C5  UNL d   1      -0.810  -0.565   1.608  0.00  0.00     0.002 A 
ATOM      4  C6  UNL d   1       0.219   0.147   0.995  0.00  0.00    -0.004 A 
ATOM      5  C7  UNL d   1       0.158   1.537   0.933  0.00  0.00     0.002 A 
ATOM      6  C8  UNL d   1      -0.925   2.218   1.493  0.00  0.00     0.002 A 
ENDROOT
BRANCH   1   7
ATOM      7  C2  UNL d   1      -3.116   2.253   2.749  0.00  0.00     0.056 C 
BRANCH   7   8
ATOM      8  C1  UNL d   1      -4.122   1.346   3.467  0.00  0.00     0.007 C 
ATOM      9  C   UNL d   1      -5.183   2.118   4.238  0.00  0.00     0.009 C 
ENDBRANCH   7   8
ENDBRANCH   1   7
TORSDOF 2
ENDMDL
