MODEL 1
REMARK minimizedAffinity 5.1578269
REMARK minimizedRMSD -1
REMARK  2 active torsions:
REMARK  status: ('A' for Active; 'I' for Inactive)
REMARK    1  A    between atoms: C1_2  and  C2_3 
REMARK    2  A    between atoms: C2_3  and  C3_4 
ROOT
ATOM      1  C3  UNL d   1      -0.373  -0.155   1.992  0.00  0.00    -0.075 A 
ATOM      2  C4  UNL d   1      -1.164   0.998   1.887  0.00  0.00     0.002 A 
ATOM      3  C5  UNL d   1      -0.717   2.100   1.158  0.00  0.00     0.002 A 
ATOM      4  C6  UNL d   1       0.528   2.068   0.534  0.00  0.00    -0.004 A 
ATOM      5  C7  UNL d   1       1.330   0.934   0.645  0.00  0.00     0.002 A 
ATOM      6  C8  UNL d   1       0.883  -0.172   1.370  0.00  0.00     0.002 A 
ENDROOT
BRANCH   1   7
ATOM      7  C2  UNL d   1      -0.864  -1.363   2.754  0.00  0.00     0.056 C 
BRANCH   7   8
ATOM      8  C1  UNL d   1      -2.387  -1.425   2.910  0.00  0.00     0.007 C 
ATOM      9  C   UNL d   1      -2.834  -2.199   4.143  0.00  0.00     0.009 C 
ENDBRANCH   7   8
ENDBRANCH   1   7
TORSDOF 2
ENDMDL
