MODEL 1
REMARK minimizedAffinity -0.459577739
REMARK minimizedRMSD -1
REMARK  2 active torsions:
REMARK  status: ('A' for Active; 'I' for Inactive)
REMARK    1  A    between atoms: C1_2  and  C2_3 
REMARK    2  A    between atoms: C2_3  and  C3_4 
ROOT
ATOM      1  C3  UNL d   1      -0.060  -0.801   1.455  0.00  0.00    -0.075 A 
ATOM      2  C4  UNL d   1       1.101  -0.203   0.943  0.00  0.00     0.002 A 
ATOM      3  C5  UNL d   1       1.046   1.058   0.349  0.00  0.00     0.002 A 
ATOM      4  C6  UNL d   1      -0.170   1.732   0.249  0.00  0.00    -0.004 A 
ATOM      5  C7  UNL d   1      -1.332   1.140   0.738  0.00  0.00     0.002 A 
ATOM      6  C8  UNL d   1      -1.279  -0.120   1.338  0.00  0.00     0.002 A 
ENDROOT
BRANCH   1   7
ATOM      7  C2  UNL d   1      -0.001  -2.152   2.126  0.00  0.00     0.056 C 
BRANCH   7   8
ATOM      8  C1  UNL d   1      -0.271  -2.112   3.633  0.00  0.00     0.007 C 
ATOM      9  C   UNL d   1       0.684  -1.198   4.390  0.00  0.00     0.009 C 
ENDBRANCH   7   8
ENDBRANCH   1   7
TORSDOF 2
ENDMDL
