MODEL 1
REMARK minimizedAffinity 9.76768398
REMARK minimizedRMSD -1
REMARK  2 active torsions:
REMARK  status: ('A' for Active; 'I' for Inactive)
REMARK    1  A    between atoms: C1_2  and  C2_3 
REMARK    2  A    between atoms: C2_3  and  C3_4 
ROOT
ATOM      1  C3  UNL d   1      -3.628  -3.585  -0.850  0.00  0.00    -0.075 A 
ATOM      2  C4  UNL d   1      -2.465  -3.622  -0.067  0.00  0.00     0.002 A 
ATOM      3  C5  UNL d   1      -1.781  -4.822   0.130  0.00  0.00     0.002 A 
ATOM      4  C6  UNL d   1      -2.255  -5.999  -0.445  0.00  0.00    -0.004 A 
ATOM      5  C7  UNL d   1      -3.418  -5.977  -1.211  0.00  0.00     0.002 A 
ATOM      6  C8  UNL d   1      -4.102  -4.777  -1.413  0.00  0.00     0.002 A 
ENDROOT
BRANCH   1   7
ATOM      7  C2  UNL d   1      -4.356  -2.284  -1.091  0.00  0.00     0.056 C 
BRANCH   7   8
ATOM      8  C1  UNL d   1      -3.783  -1.453  -2.244  0.00  0.00     0.007 C 
ATOM      9  C   UNL d   1      -4.141   0.025  -2.154  0.00  0.00     0.009 C 
ENDBRANCH   7   8
ENDBRANCH   1   7
TORSDOF 2
ENDMDL
