MODEL 1
REMARK minimizedAffinity 8.08180332
REMARK minimizedRMSD -1
REMARK  1 active torsions:
REMARK  status: ('A' for Active; 'I' for Inactive)
REMARK    1  A    between atoms: C1_2  and  C2_3 
ROOT
ATOM      1  C2  UNL d   1      -0.882  -4.041   1.428  0.00  0.00    -0.077 A 
ATOM      2  C3  UNL d   1      -0.787  -3.426   0.172  0.00  0.00     0.002 A 
ATOM      3  C4  UNL d   1      -1.364  -2.174  -0.046  0.00  0.00     0.002 A 
ATOM      4  C5  UNL d   1      -2.035  -1.524   0.987  0.00  0.00    -0.004 A 
ATOM      5  C6  UNL d   1      -2.137  -2.128   2.240  0.00  0.00     0.002 A 
ATOM      6  C7  UNL d   1      -1.562  -3.381   2.460  0.00  0.00     0.002 A 
ENDROOT
BRANCH   1   7
ATOM      7  C1  UNL d   1      -0.218  -5.370   1.680  0.00  0.00     0.055 C 
ATOM      8  C   UNL d   1      -0.709  -5.997   2.977  0.00  0.00     0.019 C 
ENDBRANCH   1   7
TORSDOF 1
ENDMDL
