MODEL 1
REMARK minimizedAffinity 9.97106743
REMARK minimizedRMSD -1
REMARK  1 active torsions:
REMARK  status: ('A' for Active; 'I' for Inactive)
REMARK    1  A    between atoms: C1_2  and  C2_3 
ROOT
ATOM      1  C2  UNL d   1       3.572   2.101  -1.474  0.00  0.00    -0.077 A 
ATOM      2  C3  UNL d   1       4.766   1.947  -2.193  0.00  0.00     0.002 A 
ATOM      3  C4  UNL d   1       5.926   2.609  -1.786  0.00  0.00     0.002 A 
ATOM      4  C5  UNL d   1       5.904   3.425  -0.657  0.00  0.00    -0.004 A 
ATOM      5  C6  UNL d   1       4.721   3.585   0.064  0.00  0.00     0.002 A 
ATOM      6  C7  UNL d   1       3.561   2.926  -0.342  0.00  0.00     0.002 A 
ENDROOT
BRANCH   1   7
ATOM      7  C1  UNL d   1       2.332   1.349  -1.884  0.00  0.00     0.055 C 
ATOM      8  C   UNL d   1       2.566  -0.154  -1.867  0.00  0.00     0.019 C 
ENDBRANCH   1   7
TORSDOF 1
ENDMDL
