MODEL 1
REMARK minimizedAffinity 6.82856321
REMARK minimizedRMSD -1
REMARK  1 active torsions:
REMARK  status: ('A' for Active; 'I' for Inactive)
REMARK    1  A    between atoms: C1_2  and  C2_3 
ROOT
ATOM      1  C2  UNL d   1       2.732   1.777  -0.562  0.00  0.00    -0.077 A 
ATOM      2  C3  UNL d   1       3.720   2.721  -0.873  0.00  0.00     0.002 A 
ATOM      3  C4  UNL d   1       4.454   3.337   0.143  0.00  0.00     0.002 A 
ATOM      4  C5  UNL d   1       4.209   3.013   1.476  0.00  0.00    -0.004 A 
ATOM      5  C6  UNL d   1       3.227   2.077   1.796  0.00  0.00     0.002 A 
ATOM      6  C7  UNL d   1       2.492   1.461   0.782  0.00  0.00     0.002 A 
ENDROOT
BRANCH   1   7
ATOM      7  C1  UNL d   1       1.974   1.075  -1.658  0.00  0.00     0.055 C 
ATOM      8  C   UNL d   1       2.914   0.312  -2.580  0.00  0.00     0.019 C 
ENDBRANCH   1   7
TORSDOF 1
ENDMDL
