MODEL 1
REMARK minimizedAffinity 0.508640647
REMARK minimizedRMSD -1
REMARK  1 active torsions:
REMARK  status: ('A' for Active; 'I' for Inactive)
REMARK    1  A    between atoms: C1_2  and  C2_3 
ROOT
ATOM      1  C2  UNL d   1      -1.513  -3.298   1.981  0.00  0.00    -0.077 A 
ATOM      2  C3  UNL d   1      -0.840  -4.380   1.398  0.00  0.00     0.002 A 
ATOM      3  C4  UNL d   1      -0.408  -4.312   0.072  0.00  0.00     0.002 A 
ATOM      4  C5  UNL d   1      -0.641  -3.162  -0.680  0.00  0.00    -0.004 A 
ATOM      5  C6  UNL d   1      -1.311  -2.081  -0.109  0.00  0.00     0.002 A 
ATOM      6  C7  UNL d   1      -1.745  -2.148   1.216  0.00  0.00     0.002 A 
ENDROOT
BRANCH   1   7
ATOM      7  C1  UNL d   1      -1.936  -3.351   3.426  0.00  0.00     0.055 C 
ATOM      8  C   UNL d   1      -1.835  -1.982   4.083  0.00  0.00     0.019 C 
ENDBRANCH   1   7
TORSDOF 1
ENDMDL
