MODEL 1
REMARK minimizedAffinity 10.4101238
REMARK minimizedRMSD -1
REMARK  1 active torsions:
REMARK  status: ('A' for Active; 'I' for Inactive)
REMARK    1  A    between atoms: C1_2  and  C2_3 
ROOT
ATOM      1  C2  UNL d   1      -4.185   3.779  -4.723  0.00  0.00    -0.077 A 
ATOM      2  C3  UNL d   1      -4.090   4.906  -3.896  0.00  0.00     0.002 A 
ATOM      3  C4  UNL d   1      -4.939   5.998  -4.089  0.00  0.00     0.002 A 
ATOM      4  C5  UNL d   1      -5.890   5.971  -5.106  0.00  0.00    -0.004 A 
ATOM      5  C6  UNL d   1      -5.992   4.855  -5.936  0.00  0.00     0.002 A 
ATOM      6  C7  UNL d   1      -5.143   3.764  -5.745  0.00  0.00     0.002 A 
ENDROOT
BRANCH   1   7
ATOM      7  C1  UNL d   1      -3.304   2.580  -4.485  0.00  0.00     0.055 C 
ATOM      8  C   UNL d   1      -1.838   2.980  -4.397  0.00  0.00     0.019 C 
ENDBRANCH   1   7
TORSDOF 1
ENDMDL
