MODEL 1
REMARK minimizedAffinity 10.9344158
REMARK minimizedRMSD -1
REMARK  1 active torsions:
REMARK  status: ('A' for Active; 'I' for Inactive)
REMARK    1  A    between atoms: C1_2  and  C2_3 
ROOT
ATOM      1  C2  UNL d   1      -2.130  -3.076   1.774  0.00  0.00    -0.077 A 
ATOM      2  C3  UNL d   1      -1.165  -3.978   1.304  0.00  0.00     0.002 A 
ATOM      3  C4  UNL d   1      -0.621  -3.829   0.027  0.00  0.00     0.002 A 
ATOM      4  C5  UNL d   1      -1.031  -2.777  -0.788  0.00  0.00    -0.004 A 
ATOM      5  C6  UNL d   1      -1.992  -1.875  -0.331  0.00  0.00     0.002 A 
ATOM      6  C7  UNL d   1      -2.538  -2.023   0.944  0.00  0.00     0.002 A 
ENDROOT
BRANCH   1   7
ATOM      7  C1  UNL d   1      -2.682  -3.206   3.169  0.00  0.00     0.055 C 
ATOM      8  C   UNL d   1      -2.203  -2.071   4.062  0.00  0.00     0.019 C 
ENDBRANCH   1   7
TORSDOF 1
ENDMDL
