MODEL 1
REMARK minimizedAffinity 4.67180061
REMARK minimizedRMSD -1
REMARK  1 active torsions:
REMARK  status: ('A' for Active; 'I' for Inactive)
REMARK    1  A    between atoms: C1_2  and  C2_3 
ROOT
ATOM      1  C2  UNL d   1      -4.137   3.575  -5.147  0.00  0.00    -0.077 A 
ATOM      2  C3  UNL d   1      -3.686   4.702  -4.446  0.00  0.00     0.002 A 
ATOM      3  C4  UNL d   1      -4.386   5.908  -4.524  0.00  0.00     0.002 A 
ATOM      4  C5  UNL d   1      -5.541   5.997  -5.298  0.00  0.00    -0.004 A 
ATOM      5  C6  UNL d   1      -5.996   4.881  -6.000  0.00  0.00     0.002 A 
ATOM      6  C7  UNL d   1      -5.298   3.675  -5.924  0.00  0.00     0.002 A 
ENDROOT
BRANCH   1   7
ATOM      7  C1  UNL d   1      -3.412   2.260  -5.025  0.00  0.00     0.055 C 
ATOM      8  C   UNL d   1      -2.209   2.375  -4.099  0.00  0.00     0.019 C 
ENDBRANCH   1   7
TORSDOF 1
ENDMDL
