MODEL 1
REMARK minimizedAffinity -2.81347799
REMARK minimizedRMSD -1
REMARK  1 active torsions:
REMARK  status: ('A' for Active; 'I' for Inactive)
REMARK    1  A    between atoms: C1_2  and  C2_3 
ROOT
ATOM      1  C2  UNL d   1      -2.923  -0.412   5.716  0.00  0.00    -0.077 A 
ATOM      2  C3  UNL d   1      -2.670   0.967   5.724  0.00  0.00     0.002 A 
ATOM      3  C4  UNL d   1      -3.720   1.877   5.863  0.00  0.00     0.002 A 
ATOM      4  C5  UNL d   1      -5.028   1.419   6.000  0.00  0.00    -0.004 A 
ATOM      5  C6  UNL d   1      -5.291   0.049   5.992  0.00  0.00     0.002 A 
ATOM      6  C7  UNL d   1      -4.243  -0.862   5.851  0.00  0.00     0.002 A 
ENDROOT
BRANCH   1   7
ATOM      7  C1  UNL d   1      -1.788  -1.396   5.615  0.00  0.00     0.055 C 
ATOM      8  C   UNL d   1      -2.208  -2.652   4.866  0.00  0.00     0.019 C 
ENDBRANCH   1   7
TORSDOF 1
ENDMDL
