MODEL 1
REMARK minimizedAffinity 10.3487825
REMARK minimizedRMSD -1
REMARK  1 active torsions:
REMARK  status: ('A' for Active; 'I' for Inactive)
REMARK    1  A    between atoms: C1_2  and  C2_3 
ROOT
ATOM      1  C2  UNL d   1      -2.317  -2.033  -1.542  0.00  0.00    -0.077 A 
ATOM      2  C3  UNL d   1      -1.510  -3.017  -0.952  0.00  0.00     0.002 A 
ATOM      3  C4  UNL d   1      -0.944  -4.027  -1.732  0.00  0.00     0.002 A 
ATOM      4  C5  UNL d   1      -1.175  -4.061  -3.106  0.00  0.00    -0.004 A 
ATOM      5  C6  UNL d   1      -1.978  -3.089  -3.701  0.00  0.00     0.002 A 
ATOM      6  C7  UNL d   1      -2.545  -2.079  -2.923  0.00  0.00     0.002 A 
ENDROOT
BRANCH   1   7
ATOM      7  C1  UNL d   1      -2.888  -0.915  -0.710  0.00  0.00     0.055 C 
ATOM      8  C   UNL d   1      -4.329  -1.200  -0.313  0.00  0.00     0.019 C 
ENDBRANCH   1   7
TORSDOF 1
ENDMDL
