MODEL 1
REMARK minimizedAffinity 11.906908
REMARK minimizedRMSD -1
REMARK  1 active torsions:
REMARK  status: ('A' for Active; 'I' for Inactive)
REMARK    1  A    between atoms: C1_2  and  C2_3 
ROOT
ATOM      1  C2  UNL d   1      -4.132   4.641  -4.840  0.00  0.00    -0.077 A 
ATOM      2  C3  UNL d   1      -4.486   3.636  -5.750  0.00  0.00     0.002 A 
ATOM      3  C4  UNL d   1      -3.911   2.367  -5.660  0.00  0.00     0.002 A 
ATOM      4  C5  UNL d   1      -2.983   2.090  -4.658  0.00  0.00    -0.004 A 
ATOM      5  C6  UNL d   1      -2.623   3.084  -3.749  0.00  0.00     0.002 A 
ATOM      6  C7  UNL d   1      -3.196   4.354  -3.839  0.00  0.00     0.002 A 
ENDROOT
BRANCH   1   7
ATOM      7  C1  UNL d   1      -4.788   5.996  -4.905  0.00  0.00     0.055 C 
ATOM      8  C   UNL d   1      -5.977   5.990  -5.855  0.00  0.00     0.019 C 
ENDBRANCH   1   7
TORSDOF 1
ENDMDL
