MODEL 1
REMARK minimizedAffinity 8.63277245
REMARK minimizedRMSD -1
REMARK  1 active torsions:
REMARK  status: ('A' for Active; 'I' for Inactive)
REMARK    1  A    between atoms: C1_2  and  C2_3 
ROOT
ATOM      1  C2  UNL d   1      -0.641  -2.916  -0.850  0.00  0.00    -0.077 A 
ATOM      2  C3  UNL d   1      -0.766  -3.822  -1.913  0.00  0.00     0.002 A 
ATOM      3  C4  UNL d   1      -0.513  -5.181  -1.717  0.00  0.00     0.002 A 
ATOM      4  C5  UNL d   1      -0.137  -5.646  -0.459  0.00  0.00    -0.004 A 
ATOM      5  C6  UNL d   1      -0.008  -4.753   0.604  0.00  0.00     0.002 A 
ATOM      6  C7  UNL d   1      -0.259  -3.395   0.410  0.00  0.00     0.002 A 
ENDROOT
BRANCH   1   7
ATOM      7  C1  UNL d   1      -0.962  -1.458  -1.048  0.00  0.00     0.055 C 
ATOM      8  C   UNL d   1      -2.006  -0.980  -0.050  0.00  0.00     0.019 C 
ENDBRANCH   1   7
TORSDOF 1
ENDMDL
