MODEL 1
REMARK minimizedAffinity 10.0184174
REMARK minimizedRMSD -1
REMARK  1 active torsions:
REMARK  status: ('A' for Active; 'I' for Inactive)
REMARK    1  A    between atoms: C1_2  and  C2_3 
ROOT
ATOM      1  C2  UNL d   1      -2.108   2.369  -4.185  0.00  0.00    -0.077 A 
ATOM      2  C3  UNL d   1      -2.320   3.245  -5.259  0.00  0.00     0.002 A 
ATOM      3  C4  UNL d   1      -1.240   3.729  -5.999  0.00  0.00     0.002 A 
ATOM      4  C5  UNL d   1       0.058   3.341  -5.676  0.00  0.00    -0.004 A 
ATOM      5  C6  UNL d   1       0.280   2.472  -4.609  0.00  0.00     0.002 A 
ATOM      6  C7  UNL d   1      -0.798   1.987  -3.867  0.00  0.00     0.002 A 
ENDROOT
BRANCH   1   7
ATOM      7  C1  UNL d   1      -3.275   1.806  -3.416  0.00  0.00     0.055 C 
ATOM      8  C   UNL d   1      -3.035   0.354  -3.029  0.00  0.00     0.019 C 
ENDBRANCH   1   7
TORSDOF 1
ENDMDL
