MODEL 1
REMARK minimizedAffinity 13.2179108
REMARK minimizedRMSD -1
REMARK  1 active torsions:
REMARK  status: ('A' for Active; 'I' for Inactive)
REMARK    1  A    between atoms: C1_2  and  C2_3 
ROOT
ATOM      1  C2  UNL d   1       4.881   3.454   3.533  0.00  0.00    -0.077 A 
ATOM      2  C3  UNL d   1       3.699   3.446   4.286  0.00  0.00     0.002 A 
ATOM      3  C4  UNL d   1       3.639   4.107   5.514  0.00  0.00     0.002 A 
ATOM      4  C5  UNL d   1       4.756   4.784   5.998  0.00  0.00    -0.004 A 
ATOM      5  C6  UNL d   1       5.938   4.796   5.258  0.00  0.00     0.002 A 
ATOM      6  C7  UNL d   1       6.000   4.135   4.031  0.00  0.00     0.002 A 
ENDROOT
BRANCH   1   7
ATOM      7  C1  UNL d   1       4.933   2.784   2.185  0.00  0.00     0.055 C 
ATOM      8  C   UNL d   1       4.256   3.632   1.119  0.00  0.00     0.019 C 
ENDBRANCH   1   7
TORSDOF 1
ENDMDL
