MODEL 1
REMARK minimizedAffinity 9.71073437
REMARK minimizedRMSD -1
REMARK  1 active torsions:
REMARK  status: ('A' for Active; 'I' for Inactive)
REMARK    1  A    between atoms: C1_2  and  C2_3 
ROOT
ATOM      1  C2  UNL d   1      -5.057   5.436   1.552  0.00  0.00    -0.077 A 
ATOM      2  C3  UNL d   1      -4.986   6.000   0.270  0.00  0.00     0.002 A 
ATOM      3  C4  UNL d   1      -4.145   5.448  -0.699  0.00  0.00     0.002 A 
ATOM      4  C5  UNL d   1      -3.373   4.328  -0.398  0.00  0.00    -0.004 A 
ATOM      5  C6  UNL d   1      -3.436   3.761   0.875  0.00  0.00     0.002 A 
ATOM      6  C7  UNL d   1      -4.274   4.312   1.845  0.00  0.00     0.002 A 
ENDROOT
BRANCH   1   7
ATOM      7  C1  UNL d   1      -6.000   6.000   2.582  0.00  0.00     0.055 C 
ATOM      8  C   UNL d   1      -5.761   5.376   3.950  0.00  0.00     0.019 C 
ENDBRANCH   1   7
TORSDOF 1
ENDMDL
