MODEL 1
REMARK minimizedAffinity 2.52480364
REMARK minimizedRMSD -1
REMARK  1 active torsions:
REMARK  status: ('A' for Active; 'I' for Inactive)
REMARK    1  A    between atoms: C1_2  and  C2_3 
ROOT
ATOM      1  C2  UNL d   1      -3.097  -1.725   1.103  0.00  0.00    -0.077 A 
ATOM      2  C3  UNL d   1      -2.225  -2.217   0.123  0.00  0.00     0.002 A 
ATOM      3  C4  UNL d   1      -1.093  -2.949   0.487  0.00  0.00     0.002 A 
ATOM      4  C5  UNL d   1      -0.826  -3.199   1.831  0.00  0.00    -0.004 A 
ATOM      5  C6  UNL d   1      -1.687  -2.713   2.814  0.00  0.00     0.002 A 
ATOM      6  C7  UNL d   1      -2.818  -1.980   2.452  0.00  0.00     0.002 A 
ENDROOT
BRANCH   1   7
ATOM      7  C1  UNL d   1      -4.344  -0.977   0.710  0.00  0.00     0.055 C 
ATOM      8  C   UNL d   1      -4.008   0.351   0.048  0.00  0.00     0.019 C 
ENDBRANCH   1   7
TORSDOF 1
ENDMDL
