MODEL 1
REMARK minimizedAffinity 4.22211647
REMARK minimizedRMSD -1
REMARK  1 active torsions:
REMARK  status: ('A' for Active; 'I' for Inactive)
REMARK    1  A    between atoms: C1_2  and  C2_3 
ROOT
ATOM      1  C2  UNL d   1      -2.540   0.737  -2.834  0.00  0.00    -0.077 A 
ATOM      2  C3  UNL d   1      -3.313   0.771  -1.664  0.00  0.00     0.002 A 
ATOM      3  C4  UNL d   1      -3.214  -0.255  -0.723  0.00  0.00     0.002 A 
ATOM      4  C5  UNL d   1      -2.342  -1.320  -0.938  0.00  0.00    -0.004 A 
ATOM      5  C6  UNL d   1      -1.571  -1.364  -2.099  0.00  0.00     0.002 A 
ATOM      6  C7  UNL d   1      -1.669  -0.340  -3.042  0.00  0.00     0.002 A 
ENDROOT
BRANCH   1   7
ATOM      7  C1  UNL d   1      -2.608   1.867  -3.827  0.00  0.00     0.055 C 
ATOM      8  C   UNL d   1      -1.220   2.391  -4.166  0.00  0.00     0.019 C 
ENDBRANCH   1   7
TORSDOF 1
ENDMDL
