MODEL 1
REMARK minimizedAffinity 2.47524953
REMARK minimizedRMSD -1
REMARK  0 active torsions:
REMARK  status: ('A' for Active; 'I' for Inactive)
ROOT
ATOM      1  C   UNL d   1       5.494  -0.496   2.169  0.00  0.00     0.078 C 
ATOM      2  C1  UNL d   1       4.333  -1.029   1.384  0.00  0.00    -0.077 A 
ATOM      3  C2  UNL d   1       3.759  -2.267   1.698  0.00  0.00    -0.001 A 
ATOM      4  C3  UNL d   1       2.685  -2.756   0.953  0.00  0.00     0.003 A 
ATOM      5  C4  UNL d   1       2.176  -2.014  -0.111  0.00  0.00    -0.005 A 
ATOM      6  C5  UNL d   1       2.742  -0.782  -0.432  0.00  0.00     0.003 A 
ATOM      7  C6  UNL d   1       3.817  -0.291   0.312  0.00  0.00    -0.001 A 
ENDROOT
TORSDOF 0
ENDMDL
