MODEL 1
REMARK minimizedAffinity -1.20886278
REMARK minimizedRMSD -1
REMARK  0 active torsions:
REMARK  status: ('A' for Active; 'I' for Inactive)
ROOT
ATOM      1  C   UNL d   1       1.953  -2.332   0.033  0.00  0.00     0.078 C 
ATOM      2  C1  UNL d   1       2.624  -1.023  -0.258  0.00  0.00    -0.077 A 
ATOM      3  C2  UNL d   1       3.835  -0.974  -0.959  0.00  0.00    -0.001 A 
ATOM      4  C3  UNL d   1       4.454   0.251  -1.214  0.00  0.00     0.003 A 
ATOM      5  C4  UNL d   1       3.870   1.436  -0.770  0.00  0.00    -0.005 A 
ATOM      6  C5  UNL d   1       2.667   1.396  -0.069  0.00  0.00     0.003 A 
ATOM      7  C6  UNL d   1       2.046   0.173   0.187  0.00  0.00    -0.001 A 
ENDROOT
TORSDOF 0
ENDMDL
