MODEL 1
REMARK minimizedAffinity -2.53299618
REMARK minimizedRMSD -1
REMARK  0 active torsions:
REMARK  status: ('A' for Active; 'I' for Inactive)
ROOT
ATOM      1  C   UNL d   1      -0.648  -2.176  -1.241  0.00  0.00     0.078 C 
ATOM      2  C1  UNL d   1       0.565  -1.623  -0.554  0.00  0.00    -0.077 A 
ATOM      3  C2  UNL d   1       1.702  -2.414  -0.350  0.00  0.00    -0.001 A 
ATOM      4  C3  UNL d   1       2.820  -1.889   0.300  0.00  0.00     0.003 A 
ATOM      5  C4  UNL d   1       2.812  -0.571   0.751  0.00  0.00    -0.005 A 
ATOM      6  C5  UNL d   1       1.684   0.224   0.554  0.00  0.00     0.003 A 
ATOM      7  C6  UNL d   1       0.565  -0.299  -0.095  0.00  0.00    -0.001 A 
ENDROOT
TORSDOF 0
ENDMDL
