MODEL 1
REMARK minimizedAffinity 3.04056382
REMARK minimizedRMSD -1
REMARK  0 active torsions:
REMARK  status: ('A' for Active; 'I' for Inactive)
ROOT
ATOM      1  C   UNL d   1       1.684   2.256   0.055  0.00  0.00     0.078 C 
ATOM      2  C1  UNL d   1       2.087   0.818   0.190  0.00  0.00    -0.077 A 
ATOM      3  C2  UNL d   1       2.189  -0.011  -0.934  0.00  0.00    -0.001 A 
ATOM      4  C3  UNL d   1       2.555  -1.350  -0.792  0.00  0.00     0.003 A 
ATOM      5  C4  UNL d   1       2.822  -1.873   0.472  0.00  0.00    -0.005 A 
ATOM      6  C5  UNL d   1       2.721  -1.056   1.596  0.00  0.00     0.003 A 
ATOM      7  C6  UNL d   1       2.355   0.283   1.457  0.00  0.00    -0.001 A 
ENDROOT
TORSDOF 0
ENDMDL
