MODEL 1
REMARK minimizedAffinity -2.90150595
REMARK minimizedRMSD -1
REMARK  0 active torsions:
REMARK  status: ('A' for Active; 'I' for Inactive)
ROOT
ATOM      1  C   UNL d   1       0.386   0.396  -0.169  0.00  0.00     0.078 C 
ATOM      2  C1  UNL d   1      -0.948   0.731   0.427  0.00  0.00    -0.077 A 
ATOM      3  C2  UNL d   1      -1.045   1.503   1.591  0.00  0.00    -0.001 A 
ATOM      4  C3  UNL d   1      -2.294   1.799   2.140  0.00  0.00     0.003 A 
ATOM      5  C4  UNL d   1      -3.455   1.327   1.532  0.00  0.00    -0.005 A 
ATOM      6  C5  UNL d   1      -3.369   0.556   0.375  0.00  0.00     0.003 A 
ATOM      7  C6  UNL d   1      -2.121   0.259  -0.176  0.00  0.00    -0.001 A 
ENDROOT
TORSDOF 0
ENDMDL
