MODEL 1
REMARK minimizedAffinity -0.135427028
REMARK minimizedRMSD -1
REMARK  0 active torsions:
REMARK  status: ('A' for Active; 'I' for Inactive)
ROOT
ATOM      1  C   UNL d   1       0.727  -2.271   4.887  0.00  0.00     0.078 C 
ATOM      2  C1  UNL d   1       0.086  -3.569   5.277  0.00  0.00    -0.077 A 
ATOM      3  C2  UNL d   1       0.815  -4.765   5.270  0.00  0.00    -0.001 A 
ATOM      4  C3  UNL d   1       0.203  -5.967   5.626  0.00  0.00     0.003 A 
ATOM      5  C4  UNL d   1      -1.142  -5.987   5.991  0.00  0.00    -0.005 A 
ATOM      6  C5  UNL d   1      -1.876  -4.803   5.999  0.00  0.00     0.003 A 
ATOM      7  C6  UNL d   1      -1.266  -3.599   5.643  0.00  0.00    -0.001 A 
ENDROOT
TORSDOF 0
ENDMDL
