MODEL 1
REMARK minimizedAffinity 7.76992607
REMARK minimizedRMSD -1
REMARK  2 active torsions:
REMARK  status: ('A' for Active; 'I' for Inactive)
REMARK    1  A    between atoms: C1_2  and  C2_3 
REMARK    2  A    between atoms: C2_3  and  C3_4 
ROOT
ATOM      1  C3  UNL d   1       0.905  -0.227  -2.251  0.00  0.00    -0.075 A 
ATOM      2  C4  UNL d   1       0.056  -0.593  -1.196  0.00  0.00     0.002 A 
ATOM      3  C5  UNL d   1      -1.068  -1.384  -1.433  0.00  0.00     0.002 A 
ATOM      4  C6  UNL d   1      -1.363  -1.811  -2.726  0.00  0.00    -0.004 A 
ATOM      5  C7  UNL d   1      -0.537  -1.439  -3.784  0.00  0.00     0.002 A 
ATOM      6  C8  UNL d   1       0.591  -0.651  -3.549  0.00  0.00     0.002 A 
ENDROOT
BRANCH   1   7
ATOM      7  C2  UNL d   1       2.139   0.605  -1.997  0.00  0.00     0.056 C 
BRANCH   7   8
ATOM      8  C1  UNL d   1       3.395  -0.218  -1.696  0.00  0.00     0.007 C 
ATOM      9  C   UNL d   1       4.180  -0.596  -2.946  0.00  0.00     0.009 C 
ENDBRANCH   7   8
ENDBRANCH   1   7
TORSDOF 2
ENDMDL
