MODEL 1
REMARK minimizedAffinity 15.1974525
REMARK minimizedRMSD -1
REMARK  2 active torsions:
REMARK  status: ('A' for Active; 'I' for Inactive)
REMARK    1  A    between atoms: C1_2  and  C2_3 
REMARK    2  A    between atoms: C2_3  and  C3_4 
ROOT
ATOM      1  C3  UNL d   1       3.802   3.142  -0.440  0.00  0.00    -0.075 A 
ATOM      2  C4  UNL d   1       3.820   4.288   0.368  0.00  0.00     0.002 A 
ATOM      3  C5  UNL d   1       4.911   5.157   0.339  0.00  0.00     0.002 A 
ATOM      4  C6  UNL d   1       6.000   4.886  -0.487  0.00  0.00    -0.004 A 
ATOM      5  C7  UNL d   1       6.000   3.741  -1.280  0.00  0.00     0.002 A 
ATOM      6  C8  UNL d   1       4.907   2.873  -1.257  0.00  0.00     0.002 A 
ENDROOT
BRANCH   1   7
ATOM      7  C2  UNL d   1       2.611   2.213  -0.436  0.00  0.00     0.056 C 
BRANCH   7   8
ATOM      8  C1  UNL d   1       2.152   1.781  -1.833  0.00  0.00     0.007 C 
ATOM      9  C   UNL d   1       1.475   0.417  -1.847  0.00  0.00     0.009 C 
ENDBRANCH   7   8
ENDBRANCH   1   7
TORSDOF 2
ENDMDL
