MODEL 1
REMARK minimizedAffinity 12.7860947
REMARK minimizedRMSD -1
REMARK  2 active torsions:
REMARK  status: ('A' for Active; 'I' for Inactive)
REMARK    1  A    between atoms: C1_2  and  C2_3 
REMARK    2  A    between atoms: C2_3  and  C3_4 
ROOT
ATOM      1  C3  UNL d   1      -0.678  -1.037  -1.549  0.00  0.00    -0.075 A 
ATOM      2  C4  UNL d   1      -0.866  -1.139  -2.935  0.00  0.00     0.002 A 
ATOM      3  C5  UNL d   1       0.059  -0.583  -3.819  0.00  0.00     0.002 A 
ATOM      4  C6  UNL d   1       1.176   0.090  -3.330  0.00  0.00    -0.004 A 
ATOM      5  C7  UNL d   1       1.365   0.212  -1.955  0.00  0.00     0.002 A 
ATOM      6  C8  UNL d   1       0.443  -0.348  -1.068  0.00  0.00     0.002 A 
ENDROOT
BRANCH   1   7
ATOM      7  C2  UNL d   1      -1.660  -1.662  -0.588  0.00  0.00     0.056 C 
BRANCH   7   8
ATOM      8  C1  UNL d   1      -1.025  -2.644   0.402  0.00  0.00     0.007 C 
ATOM      9  C   UNL d   1      -0.512  -3.916  -0.260  0.00  0.00     0.009 C 
ENDBRANCH   7   8
ENDBRANCH   1   7
TORSDOF 2
ENDMDL
