MODEL 1
REMARK minimizedAffinity 12.5474415
REMARK minimizedRMSD -1
REMARK  2 active torsions:
REMARK  status: ('A' for Active; 'I' for Inactive)
REMARK    1  A    between atoms: C1_2  and  C2_3 
REMARK    2  A    between atoms: C2_3  and  C3_4 
ROOT
ATOM      1  C3  UNL d   1       0.138  -0.250  -1.795  0.00  0.00    -0.075 A 
ATOM      2  C4  UNL d   1      -0.521  -0.600  -2.983  0.00  0.00     0.002 A 
ATOM      3  C5  UNL d   1      -1.840  -1.052  -2.955  0.00  0.00     0.002 A 
ATOM      4  C6  UNL d   1      -2.514  -1.169  -1.741  0.00  0.00    -0.004 A 
ATOM      5  C7  UNL d   1      -1.864  -0.840  -0.553  0.00  0.00     0.002 A 
ATOM      6  C8  UNL d   1      -0.545  -0.383  -0.579  0.00  0.00     0.002 A 
ENDROOT
BRANCH   1   7
ATOM      7  C2  UNL d   1       1.556   0.268  -1.822  0.00  0.00     0.056 C 
BRANCH   7   8
ATOM      8  C1  UNL d   1       1.668   1.788  -1.660  0.00  0.00     0.007 C 
ATOM      9  C   UNL d   1       2.678   2.206  -0.601  0.00  0.00     0.009 C 
ENDBRANCH   7   8
ENDBRANCH   1   7
TORSDOF 2
ENDMDL
