MODEL 1
REMARK minimizedAffinity 13.710269
REMARK minimizedRMSD -1
REMARK  2 active torsions:
REMARK  status: ('A' for Active; 'I' for Inactive)
REMARK    1  A    between atoms: C1_2  and  C2_3 
REMARK    2  A    between atoms: C2_3  and  C3_4 
ROOT
ATOM      1  C3  UNL d   1      -2.120  -2.037   1.630  0.00  0.00    -0.075 A 
ATOM      2  C4  UNL d   1      -1.104  -2.943   1.294  0.00  0.00     0.002 A 
ATOM      3  C5  UNL d   1      -0.576  -2.968   0.002  0.00  0.00     0.002 A 
ATOM      4  C6  UNL d   1      -1.063  -2.097  -0.969  0.00  0.00    -0.004 A 
ATOM      5  C7  UNL d   1      -2.084  -1.204  -0.651  0.00  0.00     0.002 A 
ATOM      6  C8  UNL d   1      -2.611  -1.174   0.642  0.00  0.00     0.002 A 
ENDROOT
BRANCH   1   7
ATOM      7  C2  UNL d   1      -2.676  -1.985   3.033  0.00  0.00     0.056 C 
BRANCH   7   8
ATOM      8  C1  UNL d   1      -1.840  -1.144   4.004  0.00  0.00     0.007 C 
ATOM      9  C   UNL d   1      -2.586   0.071   4.540  0.00  0.00     0.009 C 
ENDBRANCH   7   8
ENDBRANCH   1   7
TORSDOF 2
ENDMDL
