MODEL 1
REMARK minimizedAffinity 13.1106606
REMARK minimizedRMSD -1
REMARK  2 active torsions:
REMARK  status: ('A' for Active; 'I' for Inactive)
REMARK    1  A    between atoms: C1_2  and  C2_3 
REMARK    2  A    between atoms: C2_3  and  C3_4 
ROOT
ATOM      1  C3  UNL d   1       1.554   0.203  -1.777  0.00  0.00    -0.075 A 
ATOM      2  C4  UNL d   1       1.410  -0.107  -3.137  0.00  0.00     0.002 A 
ATOM      3  C5  UNL d   1       0.449  -1.028  -3.556  0.00  0.00     0.002 A 
ATOM      4  C6  UNL d   1      -0.371  -1.657  -2.621  0.00  0.00    -0.004 A 
ATOM      5  C7  UNL d   1      -0.226  -1.369  -1.266  0.00  0.00     0.002 A 
ATOM      6  C8  UNL d   1       0.732  -0.444  -0.845  0.00  0.00     0.002 A 
ENDROOT
BRANCH   1   7
ATOM      7  C2  UNL d   1       2.571   1.221  -1.320  0.00  0.00     0.056 C 
BRANCH   7   8
ATOM      8  C1  UNL d   1       2.255   1.853   0.039  0.00  0.00     0.007 C 
ATOM      9  C   UNL d   1       3.482   2.427   0.735  0.00  0.00     0.009 C 
ENDBRANCH   7   8
ENDBRANCH   1   7
TORSDOF 2
ENDMDL
