MODEL 1
REMARK minimizedAffinity 17.0131416
REMARK minimizedRMSD -1
REMARK  2 active torsions:
REMARK  status: ('A' for Active; 'I' for Inactive)
REMARK    1  A    between atoms: C1_2  and  C2_3 
REMARK    2  A    between atoms: C2_3  and  C3_4 
ROOT
ATOM      1  C3  UNL d   1       3.722   1.272   1.971  0.00  0.00    -0.075 A 
ATOM      2  C4  UNL d   1       3.183   2.294   1.176  0.00  0.00     0.002 A 
ATOM      3  C5  UNL d   1       2.624   2.004  -0.068  0.00  0.00     0.002 A 
ATOM      4  C6  UNL d   1       2.606   0.692  -0.539  0.00  0.00    -0.004 A 
ATOM      5  C7  UNL d   1       3.154  -0.329   0.235  0.00  0.00     0.002 A 
ATOM      6  C8  UNL d   1       3.710  -0.042   1.483  0.00  0.00     0.002 A 
ENDROOT
BRANCH   1   7
ATOM      7  C2  UNL d   1       4.302   1.575   3.332  0.00  0.00     0.056 C 
BRANCH   7   8
ATOM      8  C1  UNL d   1       3.270   1.568   4.465  0.00  0.00     0.007 C 
ATOM      9  C   UNL d   1       3.643   2.485   5.622  0.00  0.00     0.009 C 
ENDBRANCH   7   8
ENDBRANCH   1   7
TORSDOF 2
ENDMDL
