MODEL 1
REMARK minimizedAffinity 8.40895939
REMARK minimizedRMSD -1
REMARK  2 active torsions:
REMARK  status: ('A' for Active; 'I' for Inactive)
REMARK    1  A    between atoms: C1_2  and  C2_3 
REMARK    2  A    between atoms: C2_3  and  C3_4 
ROOT
ATOM      1  C3  UNL d   1      -4.097   3.630  -5.212  0.00  0.00    -0.075 A 
ATOM      2  C4  UNL d   1      -5.254   3.741  -5.998  0.00  0.00     0.002 A 
ATOM      3  C5  UNL d   1      -5.998   4.922  -6.000  0.00  0.00     0.002 A 
ATOM      4  C6  UNL d   1      -5.601   5.999  -5.211  0.00  0.00    -0.004 A 
ATOM      5  C7  UNL d   1      -4.463   5.894  -4.414  0.00  0.00     0.002 A 
ATOM      6  C8  UNL d   1      -3.715   4.715  -4.414  0.00  0.00     0.002 A 
ENDROOT
BRANCH   1   7
ATOM      7  C2  UNL d   1      -3.272   2.365  -5.228  0.00  0.00     0.056 C 
BRANCH   7   8
ATOM      8  C1  UNL d   1      -2.220   2.293  -4.116  0.00  0.00     0.007 C 
ATOM      9  C   UNL d   1      -0.791   2.266  -4.642  0.00  0.00     0.009 C 
ENDBRANCH   7   8
ENDBRANCH   1   7
TORSDOF 2
ENDMDL
