MODEL 1
REMARK minimizedAffinity 16.4646053
REMARK minimizedRMSD -1
REMARK  2 active torsions:
REMARK  status: ('A' for Active; 'I' for Inactive)
REMARK    1  A    between atoms: C1_2  and  C2_3 
REMARK    2  A    between atoms: C2_3  and  C3_4 
ROOT
ATOM      1  C3  UNL d   1      -0.144  -0.677  -1.880  0.00  0.00    -0.075 A 
ATOM      2  C4  UNL d   1       0.405  -1.102  -3.099  0.00  0.00     0.002 A 
ATOM      3  C5  UNL d   1       1.663  -0.655  -3.503  0.00  0.00     0.002 A 
ATOM      4  C6  UNL d   1       2.383   0.229  -2.702  0.00  0.00    -0.004 A 
ATOM      5  C7  UNL d   1       1.840   0.670  -1.497  0.00  0.00     0.002 A 
ATOM      6  C8  UNL d   1       0.584   0.221  -1.087  0.00  0.00     0.002 A 
ENDROOT
BRANCH   1   7
ATOM      7  C2  UNL d   1      -1.492  -1.181  -1.422  0.00  0.00     0.056 C 
BRANCH   7   8
ATOM      8  C1  UNL d   1      -1.546  -1.557   0.063  0.00  0.00     0.007 C 
ATOM      9  C   UNL d   1      -0.767  -2.825   0.389  0.00  0.00     0.009 C 
ENDBRANCH   7   8
ENDBRANCH   1   7
TORSDOF 2
ENDMDL
