MODEL 1
REMARK minimizedAffinity 5.50042057
REMARK minimizedRMSD -1
REMARK  2 active torsions:
REMARK  status: ('A' for Active; 'I' for Inactive)
REMARK    1  A    between atoms: C1_2  and  C2_3 
REMARK    2  A    between atoms: C2_3  and  C3_4 
ROOT
ATOM      1  C3  UNL d   1      -3.435   2.885  -5.045  0.00  0.00    -0.075 A 
ATOM      2  C4  UNL d   1      -3.431   4.047  -4.259  0.00  0.00     0.002 A 
ATOM      3  C5  UNL d   1      -4.509   4.932  -4.298  0.00  0.00     0.002 A 
ATOM      4  C6  UNL d   1      -5.597   4.673  -5.129  0.00  0.00    -0.004 A 
ATOM      5  C7  UNL d   1      -5.604   3.531  -5.926  0.00  0.00     0.002 A 
ATOM      6  C8  UNL d   1      -4.529   2.641  -5.886  0.00  0.00     0.002 A 
ENDROOT
BRANCH   1   7
ATOM      7  C2  UNL d   1      -2.285   1.909  -4.985  0.00  0.00     0.056 C 
BRANCH   7   8
ATOM      8  C1  UNL d   1      -0.911   2.571  -4.837  0.00  0.00     0.007 C 
ATOM      9  C   UNL d   1      -0.617   3.593  -5.927  0.00  0.00     0.009 C 
ENDBRANCH   7   8
ENDBRANCH   1   7
TORSDOF 2
ENDMDL
