MODEL 1
REMARK minimizedAffinity 14.1117983
REMARK minimizedRMSD -1
REMARK  2 active torsions:
REMARK  status: ('A' for Active; 'I' for Inactive)
REMARK    1  A    between atoms: C1_2  and  C2_3 
REMARK    2  A    between atoms: C2_3  and  C3_4 
ROOT
ATOM      1  C3  UNL d   1      -4.257   3.515  -5.287  0.00  0.00    -0.075 A 
ATOM      2  C4  UNL d   1      -5.395   4.097  -5.865  0.00  0.00     0.002 A 
ATOM      3  C5  UNL d   1      -5.867   5.330  -5.415  0.00  0.00     0.002 A 
ATOM      4  C6  UNL d   1      -5.216   5.991  -4.376  0.00  0.00    -0.004 A 
ATOM      5  C7  UNL d   1      -4.094   5.416  -3.783  0.00  0.00     0.002 A 
ATOM      6  C8  UNL d   1      -3.617   4.184  -4.235  0.00  0.00     0.002 A 
ENDROOT
BRANCH   1   7
ATOM      7  C2  UNL d   1      -3.724   2.195  -5.789  0.00  0.00     0.056 C 
BRANCH   7   8
ATOM      8  C1  UNL d   1      -2.856   1.445  -4.773  0.00  0.00     0.007 C 
ATOM      9  C   UNL d   1      -1.477   1.086  -5.311  0.00  0.00     0.009 C 
ENDBRANCH   7   8
ENDBRANCH   1   7
TORSDOF 2
ENDMDL
