MODEL 1
REMARK minimizedAffinity 18.0098743
REMARK minimizedRMSD -1
REMARK  2 active torsions:
REMARK  status: ('A' for Active; 'I' for Inactive)
REMARK    1  A    between atoms: C1_2  and  C2_3 
REMARK    2  A    between atoms: C2_3  and  C3_4 
ROOT
ATOM      1  C3  UNL d   1      -0.147   0.836  -4.252  0.00  0.00    -0.075 A 
ATOM      2  C4  UNL d   1       0.258   2.140  -4.572  0.00  0.00     0.002 A 
ATOM      3  C5  UNL d   1      -0.684   3.160  -4.712  0.00  0.00     0.002 A 
ATOM      4  C6  UNL d   1      -2.040   2.888  -4.545  0.00  0.00    -0.004 A 
ATOM      5  C7  UNL d   1      -2.455   1.593  -4.243  0.00  0.00     0.002 A 
ATOM      6  C8  UNL d   1      -1.515   0.571  -4.098  0.00  0.00     0.002 A 
ENDROOT
BRANCH   1   7
ATOM      7  C2  UNL d   1       0.869  -0.266  -4.070  0.00  0.00     0.056 C 
BRANCH   7   8
ATOM      8  C1  UNL d   1       1.924   0.029  -2.999  0.00  0.00     0.007 C 
ATOM      9  C   UNL d   1       3.334  -0.362  -3.420  0.00  0.00     0.009 C 
ENDBRANCH   7   8
ENDBRANCH   1   7
TORSDOF 2
ENDMDL
