MODEL 1
REMARK minimizedAffinity 18.4126282
REMARK minimizedRMSD -1
REMARK  2 active torsions:
REMARK  status: ('A' for Active; 'I' for Inactive)
REMARK    1  A    between atoms: C1_2  and  C2_3 
REMARK    2  A    between atoms: C2_3  and  C3_4 
ROOT
ATOM      1  C3  UNL d   1      -4.826   5.981  -3.189  0.00  0.00    -0.075 A 
ATOM      2  C4  UNL d   1      -5.996   5.967  -3.962  0.00  0.00     0.002 A 
ATOM      3  C5  UNL d   1      -5.925   5.938  -5.355  0.00  0.00     0.002 A 
ATOM      4  C6  UNL d   1      -4.687   5.932  -5.992  0.00  0.00    -0.004 A 
ATOM      5  C7  UNL d   1      -3.518   5.962  -5.235  0.00  0.00     0.002 A 
ATOM      6  C8  UNL d   1      -3.586   5.987  -3.841  0.00  0.00     0.002 A 
ENDROOT
BRANCH   1   7
ATOM      7  C2  UNL d   1      -4.896   5.982  -1.681  0.00  0.00     0.056 C 
BRANCH   7   8
ATOM      8  C1  UNL d   1      -3.924   5.006  -1.010  0.00  0.00     0.007 C 
ATOM      9  C   UNL d   1      -4.352   4.603   0.394  0.00  0.00     0.009 C 
ENDBRANCH   7   8
ENDBRANCH   1   7
TORSDOF 2
ENDMDL
