MODEL 1
REMARK minimizedAffinity 14.7896147
REMARK minimizedRMSD -1
REMARK  2 active torsions:
REMARK  status: ('A' for Active; 'I' for Inactive)
REMARK    1  A    between atoms: C1_2  and  C2_3 
REMARK    2  A    between atoms: C2_3  and  C3_4 
ROOT
ATOM      1  C3  UNL d   1      -0.432  -0.193  -3.673  0.00  0.00    -0.075 A 
ATOM      2  C4  UNL d   1      -0.572   1.027  -4.351  0.00  0.00     0.002 A 
ATOM      3  C5  UNL d   1      -1.838   1.554  -4.608  0.00  0.00     0.002 A 
ATOM      4  C6  UNL d   1      -2.978   0.866  -4.200  0.00  0.00    -0.004 A 
ATOM      5  C7  UNL d   1      -2.852  -0.355  -3.540  0.00  0.00     0.002 A 
ATOM      6  C8  UNL d   1      -1.586  -0.883  -3.278  0.00  0.00     0.002 A 
ENDROOT
BRANCH   1   7
ATOM      7  C2  UNL d   1       0.936  -0.754  -3.367  0.00  0.00     0.056 C 
BRANCH   7   8
ATOM      8  C1  UNL d   1       1.690   0.005  -2.271  0.00  0.00     0.007 C 
ATOM      9  C   UNL d   1       3.203  -0.049  -2.436  0.00  0.00     0.009 C 
ENDBRANCH   7   8
ENDBRANCH   1   7
TORSDOF 2
ENDMDL
