MODEL 1
REMARK minimizedAffinity 11.5871181
REMARK minimizedRMSD -1
REMARK  2 active torsions:
REMARK  status: ('A' for Active; 'I' for Inactive)
REMARK    1  A    between atoms: C1_2  and  C2_3 
REMARK    2  A    between atoms: C2_3  and  C3_4 
ROOT
ATOM      1  C3  UNL d   1      -0.600  -3.119   0.148  0.00  0.00    -0.075 A 
ATOM      2  C4  UNL d   1      -0.305  -2.466  -1.058  0.00  0.00     0.002 A 
ATOM      3  C5  UNL d   1      -1.081  -1.390  -1.489  0.00  0.00     0.002 A 
ATOM      4  C6  UNL d   1      -2.165  -0.960  -0.728  0.00  0.00    -0.004 A 
ATOM      5  C7  UNL d   1      -2.478  -1.612   0.463  0.00  0.00     0.002 A 
ATOM      6  C8  UNL d   1      -1.701  -2.686   0.899  0.00  0.00     0.002 A 
ENDROOT
BRANCH   1   7
ATOM      7  C2  UNL d   1       0.253  -4.266   0.634  0.00  0.00     0.056 C 
BRANCH   7   8
ATOM      8  C1  UNL d   1      -0.082  -5.612  -0.016  0.00  0.00     0.007 C 
ATOM      9  C   UNL d   1      -0.474  -5.490  -1.482  0.00  0.00     0.009 C 
ENDBRANCH   7   8
ENDBRANCH   1   7
TORSDOF 2
ENDMDL
