MODEL 1
REMARK minimizedAffinity 6.72531891
REMARK minimizedRMSD -1
REMARK  2 active torsions:
REMARK  status: ('A' for Active; 'I' for Inactive)
REMARK    1  A    between atoms: C1_2  and  C2_3 
REMARK    2  A    between atoms: C2_3  and  C3_4 
ROOT
ATOM      1  C3  UNL d   1      -4.712   4.490  -0.656  0.00  0.00    -0.075 A 
ATOM      2  C4  UNL d   1      -5.464   5.504  -0.044  0.00  0.00     0.002 A 
ATOM      3  C5  UNL d   1      -5.950   5.340   1.254  0.00  0.00     0.002 A 
ATOM      4  C6  UNL d   1      -5.700   4.160   1.950  0.00  0.00    -0.004 A 
ATOM      5  C7  UNL d   1      -4.969   3.140   1.346  0.00  0.00     0.002 A 
ATOM      6  C8  UNL d   1      -4.477   3.302   0.050  0.00  0.00     0.002 A 
ENDROOT
BRANCH   1   7
ATOM      7  C2  UNL d   1      -4.158   4.673  -2.049  0.00  0.00     0.056 C 
BRANCH   7   8
ATOM      8  C1  UNL d   1      -4.556   5.997  -2.709  0.00  0.00     0.007 C 
ATOM      9  C   UNL d   1      -5.102   5.824  -4.120  0.00  0.00     0.009 C 
ENDBRANCH   7   8
ENDBRANCH   1   7
TORSDOF 2
ENDMDL
