MODEL 1
REMARK minimizedAffinity 9.91755962
REMARK minimizedRMSD -1
REMARK  0 active torsions:
REMARK  status: ('A' for Active; 'I' for Inactive)
ROOT
ATOM      1  N1  IND d   1       0.920   2.534   0.166  0.00  0.00    -0.196 N 
ATOM      2  C2  IND d   1       2.009   1.733  -0.039  0.00  0.00     0.054 A 
ATOM      3  C3  IND d   1       2.160   0.871   0.992  0.00  0.00    -0.031 A 
ATOM      4  C4  IND d   1       0.677   0.529   3.068  0.00  0.00     0.051 A 
ATOM      5  C5  IND d   1      -0.411   1.049   3.713  0.00  0.00    -0.031 A 
ATOM      6  C6  IND d   1      -1.127   2.109   3.196  0.00  0.00     0.015 A 
ATOM      7  C7  IND d   1      -0.787   2.685   2.005  0.00  0.00    -0.016 A 
ATOM      8  C8  IND d   1       0.321   2.165   1.351  0.00  0.00    -0.047 A 
ATOM      9  C9  IND d   1       1.077   1.117   1.891  0.00  0.00    -0.096 A 
ATOM     10  HN1 IND d   1       0.653   3.161  -0.357  0.00  0.00     0.298 HD
ENDROOT
TORSDOF 0
ENDMDL
