MODEL 1
REMARK minimizedAffinity 7.67481661
REMARK minimizedRMSD -1
REMARK  0 active torsions:
REMARK  status: ('A' for Active; 'I' for Inactive)
ROOT
ATOM      1  N1  IND d   1       1.849   1.420  -0.175  0.00  0.00    -0.196 N 
ATOM      2  C2  IND d   1       2.172   2.240   0.871  0.00  0.00     0.054 A 
ATOM      3  C3  IND d   1       2.793   1.538   1.844  0.00  0.00    -0.031 A 
ATOM      4  C4  IND d   1       3.475  -0.944   1.890  0.00  0.00     0.051 A 
ATOM      5  C5  IND d   1       3.363  -2.105   1.178  0.00  0.00    -0.031 A 
ATOM      6  C6  IND d   1       2.731  -2.151  -0.047  0.00  0.00     0.015 A 
ATOM      7  C7  IND d   1       2.194  -1.030  -0.614  0.00  0.00    -0.016 A 
ATOM      8  C8  IND d   1       2.299   0.150   0.109  0.00  0.00    -0.047 A 
ATOM      9  C9  IND d   1       2.903   0.194   1.373  0.00  0.00    -0.096 A 
ATOM     10  HN1 IND d   1       1.435   1.658  -0.890  0.00  0.00     0.298 HD
ENDROOT
TORSDOF 0
ENDMDL
