MODEL 1
REMARK minimizedAffinity 6.40892458
REMARK minimizedRMSD -1
REMARK  0 active torsions:
REMARK  status: ('A' for Active; 'I' for Inactive)
ROOT
ATOM      1  N1  IND d   1       2.314   2.542   0.684  0.00  0.00    -0.196 N 
ATOM      2  C2  IND d   1       0.995   2.443   0.339  0.00  0.00     0.054 A 
ATOM      3  C3  IND d   1       0.703   1.180  -0.045  0.00  0.00    -0.031 A 
ATOM      4  C4  IND d   1       2.211  -0.906  -0.090  0.00  0.00     0.051 A 
ATOM      5  C5  IND d   1       3.504  -1.305   0.100  0.00  0.00    -0.031 A 
ATOM      6  C6  IND d   1       4.486  -0.424   0.506  0.00  0.00     0.015 A 
ATOM      7  C7  IND d   1       4.208   0.891   0.748  0.00  0.00    -0.016 A 
ATOM      8  C8  IND d   1       2.897   1.301   0.549  0.00  0.00    -0.047 A 
ATOM      9  C9  IND d   1       1.905   0.421   0.096  0.00  0.00    -0.096 A 
ATOM     10  HN1 IND d   1       2.713   3.259   0.941  0.00  0.00     0.298 HD
ENDROOT
TORSDOF 0
ENDMDL
