MODEL 1
REMARK minimizedAffinity 0.3686575
REMARK minimizedRMSD -1
REMARK  0 active torsions:
REMARK  status: ('A' for Active; 'I' for Inactive)
ROOT
ATOM      1  N1  IND d   1       2.880  -2.006  -1.468  0.00  0.00    -0.196 N 
ATOM      2  C2  IND d   1       1.885  -2.019  -0.531  0.00  0.00     0.054 A 
ATOM      3  C3  IND d   1       1.694  -0.778  -0.030  0.00  0.00    -0.031 A 
ATOM      4  C4  IND d   1       2.834   1.439  -0.674  0.00  0.00     0.051 A 
ATOM      5  C5  IND d   1       3.833   1.950  -1.455  0.00  0.00    -0.031 A 
ATOM      6  C6  IND d   1       4.579   1.152  -2.298  0.00  0.00     0.015 A 
ATOM      7  C7  IND d   1       4.345  -0.190  -2.402  0.00  0.00    -0.016 A 
ATOM      8  C8  IND d   1       3.335  -0.713  -1.606  0.00  0.00    -0.047 A 
ATOM      9  C9  IND d   1       2.604   0.084  -0.716  0.00  0.00    -0.096 A 
ATOM     10  HN1 IND d   1       3.173  -2.690  -1.899  0.00  0.00     0.298 HD
ENDROOT
TORSDOF 0
ENDMDL
