MODEL 1
REMARK minimizedAffinity 9.36581135
REMARK minimizedRMSD -1
REMARK  0 active torsions:
REMARK  status: ('A' for Active; 'I' for Inactive)
ROOT
ATOM      1  C   UNL d   1       5.965  -1.872   2.986  0.00  0.00     0.078 C 
ATOM      2  C1  UNL d   1       4.494  -1.596   2.899  0.00  0.00    -0.077 A 
ATOM      3  C2  UNL d   1       3.998  -0.573   2.082  0.00  0.00    -0.001 A 
ATOM      4  C3  UNL d   1       2.627  -0.321   2.019  0.00  0.00     0.003 A 
ATOM      5  C4  UNL d   1       1.739  -1.087   2.771  0.00  0.00    -0.005 A 
ATOM      6  C5  UNL d   1       2.223  -2.107   3.589  0.00  0.00     0.003 A 
ATOM      7  C6  UNL d   1       3.594  -2.360   3.654  0.00  0.00    -0.001 A 
ENDROOT
TORSDOF 0
ENDMDL
