MODEL 1
REMARK minimizedAffinity 4.32925701
REMARK minimizedRMSD -1
REMARK  0 active torsions:
REMARK  status: ('A' for Active; 'I' for Inactive)
ROOT
ATOM      1  C   UNL d   1       2.929   0.692   2.100  0.00  0.00     0.078 C 
ATOM      2  C1  UNL d   1       2.835  -0.511   2.991  0.00  0.00    -0.077 A 
ATOM      3  C2  UNL d   1       3.966  -1.016   3.644  0.00  0.00    -0.001 A 
ATOM      4  C3  UNL d   1       3.865  -2.142   4.462  0.00  0.00     0.003 A 
ATOM      5  C4  UNL d   1       2.635  -2.774   4.634  0.00  0.00    -0.005 A 
ATOM      6  C5  UNL d   1       1.504  -2.280   3.987  0.00  0.00     0.003 A 
ATOM      7  C6  UNL d   1       1.603  -1.154   3.168  0.00  0.00    -0.001 A 
ENDROOT
TORSDOF 0
ENDMDL
