MODEL 1
REMARK minimizedAffinity 10.5224333
REMARK minimizedRMSD -1
REMARK  0 active torsions:
REMARK  status: ('A' for Active; 'I' for Inactive)
ROOT
ATOM      1  C   UNL d   1       2.173  -0.751   2.428  0.00  0.00     0.078 C 
ATOM      2  C1  UNL d   1       1.093  -0.813   1.389  0.00  0.00    -0.077 A 
ATOM      3  C2  UNL d   1       1.298  -1.480   0.175  0.00  0.00    -0.001 A 
ATOM      4  C3  UNL d   1       0.288  -1.521  -0.787  0.00  0.00     0.003 A 
ATOM      5  C4  UNL d   1      -0.934  -0.897  -0.545  0.00  0.00    -0.005 A 
ATOM      6  C5  UNL d   1      -1.147  -0.229   0.659  0.00  0.00     0.003 A 
ATOM      7  C6  UNL d   1      -0.137  -0.187   1.622  0.00  0.00    -0.001 A 
ENDROOT
TORSDOF 0
ENDMDL
