MODEL 1
REMARK minimizedAffinity 1.87618327
REMARK minimizedRMSD -1
REMARK  0 active torsions:
REMARK  status: ('A' for Active; 'I' for Inactive)
ROOT
ATOM      1  C   UNL d   1       1.678  -0.324   1.955  0.00  0.00     0.078 C 
ATOM      2  C1  UNL d   1       2.187  -1.097   3.135  0.00  0.00    -0.077 A 
ATOM      3  C2  UNL d   1       1.303  -1.678   4.053  0.00  0.00    -0.001 A 
ATOM      4  C3  UNL d   1       1.791  -2.387   5.151  0.00  0.00     0.003 A 
ATOM      5  C4  UNL d   1       3.165  -2.521   5.343  0.00  0.00    -0.005 A 
ATOM      6  C5  UNL d   1       4.052  -1.946   4.436  0.00  0.00     0.003 A 
ATOM      7  C6  UNL d   1       3.566  -1.236   3.337  0.00  0.00    -0.001 A 
ENDROOT
TORSDOF 0
ENDMDL
