MODEL 1
REMARK minimizedAffinity 0.841586828
REMARK minimizedRMSD -1
REMARK  0 active torsions:
REMARK  status: ('A' for Active; 'I' for Inactive)
ROOT
ATOM      1  C   UNL d   1       5.984  -2.624   4.879  0.00  0.00     0.078 C 
ATOM      2  C1  UNL d   1       4.485  -2.592   4.865  0.00  0.00    -0.077 A 
ATOM      3  C2  UNL d   1       3.783  -2.145   3.739  0.00  0.00    -0.001 A 
ATOM      4  C3  UNL d   1       2.388  -2.111   3.744  0.00  0.00     0.003 A 
ATOM      5  C4  UNL d   1       1.682  -2.524   4.872  0.00  0.00    -0.005 A 
ATOM      6  C5  UNL d   1       2.371  -2.969   5.998  0.00  0.00     0.003 A 
ATOM      7  C6  UNL d   1       3.767  -3.003   5.996  0.00  0.00    -0.001 A 
ENDROOT
TORSDOF 0
ENDMDL
