MODEL 1
REMARK minimizedAffinity 0.935597181
REMARK minimizedRMSD -1
REMARK  0 active torsions:
REMARK  status: ('A' for Active; 'I' for Inactive)
ROOT
ATOM      1  C   UNL d   1       2.266  -0.374   2.218  0.00  0.00     0.078 C 
ATOM      2  C1  UNL d   1       2.392  -1.785   2.709  0.00  0.00    -0.077 A 
ATOM      3  C2  UNL d   1       2.055  -2.124   4.026  0.00  0.00    -0.001 A 
ATOM      4  C3  UNL d   1       2.187  -3.439   4.472  0.00  0.00     0.003 A 
ATOM      5  C4  UNL d   1       2.657  -4.427   3.609  0.00  0.00    -0.005 A 
ATOM      6  C5  UNL d   1       2.997  -4.100   2.298  0.00  0.00     0.003 A 
ATOM      7  C6  UNL d   1       2.866  -2.785   1.850  0.00  0.00    -0.001 A 
ENDROOT
TORSDOF 0
ENDMDL
