MODEL 1
REMARK minimizedAffinity 6.01989985
REMARK minimizedRMSD -1
REMARK  0 active torsions:
REMARK  status: ('A' for Active; 'I' for Inactive)
ROOT
ATOM      1  C   UNL d   1       4.695  -5.985  -5.860  0.00  0.00     0.078 C 
ATOM      2  C1  UNL d   1       4.080  -5.997  -4.493  0.00  0.00    -0.077 A 
ATOM      3  C2  UNL d   1       2.690  -5.995  -4.327  0.00  0.00    -0.001 A 
ATOM      4  C3  UNL d   1       2.132  -5.997  -3.047  0.00  0.00     0.003 A 
ATOM      5  C4  UNL d   1       2.956  -6.000  -1.924  0.00  0.00    -0.005 A 
ATOM      6  C5  UNL d   1       4.341  -6.000  -2.079  0.00  0.00     0.003 A 
ATOM      7  C6  UNL d   1       4.901  -5.998  -3.358  0.00  0.00    -0.001 A 
ENDROOT
TORSDOF 0
ENDMDL
