MODEL 1
REMARK minimizedAffinity 15.0472612
REMARK minimizedRMSD -1
REMARK  0 active torsions:
REMARK  status: ('A' for Active; 'I' for Inactive)
ROOT
ATOM      1  C   UNL d   1       2.063   4.045  -4.745  0.00  0.00     0.020 A 
ATOM      2  C1  UNL d   1       2.173   5.429  -4.875  0.00  0.00     0.020 A 
ATOM      3  C2  UNL d   1       3.388   6.000  -5.260  0.00  0.00     0.034 A 
ATOM      4  C3  UNL d   1       4.498   5.186  -5.516  0.00  0.00     0.017 A 
ATOM      5  C4  UNL d   1       4.387   3.797  -5.385  0.00  0.00     0.017 A 
ATOM      6  C5  UNL d   1       3.168   3.231  -4.999  0.00  0.00     0.034 A 
ATOM      7 Cl   UNL d   1       5.712   2.729  -5.683  0.00  0.00    -0.070 Cl
ATOM      8 Cl1  UNL d   1       5.969   5.960  -5.988  0.00  0.00    -0.070 Cl
ENDROOT
TORSDOF 0
ENDMDL
