MODEL 1
REMARK minimizedAffinity 13.5767202
REMARK minimizedRMSD -1
REMARK  0 active torsions:
REMARK  status: ('A' for Active; 'I' for Inactive)
ROOT
ATOM      1  C   UNL d   1      -5.999   2.995  -5.871  0.00  0.00     0.020 A 
ATOM      2  C1  UNL d   1      -5.253   1.864  -5.543  0.00  0.00     0.020 A 
ATOM      3  C2  UNL d   1      -4.175   1.969  -4.662  0.00  0.00     0.034 A 
ATOM      4  C3  UNL d   1      -3.839   3.209  -4.105  0.00  0.00     0.017 A 
ATOM      5  C4  UNL d   1      -4.589   4.344  -4.435  0.00  0.00     0.017 A 
ATOM      6  C5  UNL d   1      -5.667   4.233  -5.318  0.00  0.00     0.034 A 
ATOM      7 Cl   UNL d   1      -4.235   5.908  -3.789  0.00  0.00    -0.070 Cl
ATOM      8 Cl1  UNL d   1      -2.494   3.266  -3.023  0.00  0.00    -0.070 Cl
ENDROOT
TORSDOF 0
ENDMDL
