MODEL 1
REMARK minimizedAffinity 7.00751495
REMARK minimizedRMSD -1
REMARK  0 active torsions:
REMARK  status: ('A' for Active; 'I' for Inactive)
ROOT
ATOM      1  C   UNL d   1      -2.619   2.836  -2.851  0.00  0.00     0.020 A 
ATOM      2  C1  UNL d   1      -2.773   1.502  -2.478  0.00  0.00     0.020 A 
ATOM      3  C2  UNL d   1      -3.823   0.746  -3.003  0.00  0.00     0.034 A 
ATOM      4  C3  UNL d   1      -4.724   1.325  -3.905  0.00  0.00     0.017 A 
ATOM      5  C4  UNL d   1      -4.569   2.665  -4.278  0.00  0.00     0.017 A 
ATOM      6  C5  UNL d   1      -3.516   3.416  -3.749  0.00  0.00     0.034 A 
ATOM      7 Cl   UNL d   1      -5.641   3.448  -5.385  0.00  0.00    -0.070 Cl
ATOM      8 Cl1  UNL d   1      -6.000   0.332  -4.515  0.00  0.00    -0.070 Cl
ENDROOT
TORSDOF 0
ENDMDL
