MODEL 1
REMARK minimizedAffinity 6.67228842
REMARK minimizedRMSD -1
REMARK  0 active torsions:
REMARK  status: ('A' for Active; 'I' for Inactive)
ROOT
ATOM      1  C   UNL d   1       1.037   4.518  -5.103  0.00  0.00     0.020 A 
ATOM      2  C1  UNL d   1       1.384   5.715  -5.729  0.00  0.00     0.020 A 
ATOM      3  C2  UNL d   1       2.725   6.000  -5.997  0.00  0.00     0.034 A 
ATOM      4  C3  UNL d   1       3.724   5.087  -5.638  0.00  0.00     0.017 A 
ATOM      5  C4  UNL d   1       3.374   3.886  -5.010  0.00  0.00     0.017 A 
ATOM      6  C5  UNL d   1       2.030   3.606  -4.744  0.00  0.00     0.034 A 
ATOM      7 Cl   UNL d   1       4.550   2.711  -4.537  0.00  0.00    -0.070 Cl
ATOM      8 Cl1  UNL d   1       5.361   5.504  -6.000  0.00  0.00    -0.070 Cl
ENDROOT
TORSDOF 0
ENDMDL
