MODEL 1
REMARK minimizedAffinity 6.32632446
REMARK minimizedRMSD -1
REMARK  0 active torsions:
REMARK  status: ('A' for Active; 'I' for Inactive)
ROOT
ATOM      1  C   UNL d   1       1.943   3.976  -5.898  0.00  0.00     0.020 A 
ATOM      2  C1  UNL d   1       2.052   5.365  -5.949  0.00  0.00     0.020 A 
ATOM      3  C2  UNL d   1       3.312   5.966  -5.970  0.00  0.00     0.034 A 
ATOM      4  C3  UNL d   1       4.469   5.179  -5.940  0.00  0.00     0.017 A 
ATOM      5  C4  UNL d   1       4.358   3.784  -5.889  0.00  0.00     0.017 A 
ATOM      6  C5  UNL d   1       3.094   3.187  -5.868  0.00  0.00     0.034 A 
ATOM      7 Cl   UNL d   1       5.740   2.746  -5.849  0.00  0.00    -0.070 Cl
ATOM      8 Cl1  UNL d   1       5.994   5.989  -5.969  0.00  0.00    -0.070 Cl
ENDROOT
TORSDOF 0
ENDMDL
