MODEL 1
REMARK minimizedAffinity 14.7942524
REMARK minimizedRMSD -1
REMARK  0 active torsions:
REMARK  status: ('A' for Active; 'I' for Inactive)
ROOT
ATOM      1  C   UNL d   1       4.662  -5.453   2.052  0.00  0.00     0.020 A 
ATOM      2  C1  UNL d   1       5.438  -4.298   1.966  0.00  0.00     0.020 A 
ATOM      3  C2  UNL d   1       5.838  -3.636   3.129  0.00  0.00     0.034 A 
ATOM      4  C3  UNL d   1       5.462  -4.130   4.384  0.00  0.00     0.017 A 
ATOM      5  C4  UNL d   1       4.684  -5.290   4.470  0.00  0.00     0.017 A 
ATOM      6  C5  UNL d   1       4.286  -5.948   3.302  0.00  0.00     0.034 A 
ATOM      7 Cl   UNL d   1       4.181  -5.959   5.982  0.00  0.00    -0.070 Cl
ATOM      8 Cl1  UNL d   1       5.993  -3.262   5.780  0.00  0.00    -0.070 Cl
ENDROOT
TORSDOF 0
ENDMDL
