MODEL 1
REMARK minimizedAffinity 2.66411877
REMARK minimizedRMSD -1
REMARK  1 active torsions:
REMARK  status: ('A' for Active; 'I' for Inactive)
REMARK    1  A    between atoms: C1_2  and  C2_3 
ROOT
ATOM      1  C2  UNL d   1       0.466  -2.124   2.553  0.00  0.00    -0.073 A 
ATOM      2  C3  UNL d   1      -0.373  -3.224   2.761  0.00  0.00    -0.002 A 
ATOM      3  C4  UNL d   1       0.034  -4.503   2.382  0.00  0.00     0.004 A 
ATOM      4  C5  UNL d   1       1.286  -4.697   1.797  0.00  0.00    -0.004 A 
ATOM      5  C6  UNL d   1       2.144  -3.611   1.591  0.00  0.00    -0.075 A 
ATOM      6  C7  UNL d   1       3.492  -3.802   0.962  0.00  0.00     0.076 C 
ATOM      7  C8  UNL d   1       1.726  -2.329   1.973  0.00  0.00     0.001 A 
ENDROOT
BRANCH   1   8
ATOM      8  C1  UNL d   1       0.032  -0.741   2.966  0.00  0.00     0.053 C 
ATOM      9  C   UNL d   1      -1.471  -0.654   3.175  0.00  0.00     0.018 C 
ENDBRANCH   1   8
TORSDOF 1
ENDMDL
