MODEL 1
REMARK minimizedAffinity 0.644771397
REMARK minimizedRMSD -1
REMARK  1 active torsions:
REMARK  status: ('A' for Active; 'I' for Inactive)
REMARK    1  A    between atoms: C1_2  and  C2_3 
ROOT
ATOM      1  C2  UNL d   1       0.987  -2.263   1.897  0.00  0.00    -0.073 A 
ATOM      2  C3  UNL d   1       0.439  -3.393   2.513  0.00  0.00    -0.002 A 
ATOM      3  C4  UNL d   1      -0.765  -3.300   3.214  0.00  0.00     0.004 A 
ATOM      4  C5  UNL d   1      -1.435  -2.080   3.299  0.00  0.00    -0.004 A 
ATOM      5  C6  UNL d   1      -0.909  -0.942   2.679  0.00  0.00    -0.075 A 
ATOM      6  C7  UNL d   1      -1.617   0.379   2.763  0.00  0.00     0.076 C 
ATOM      7  C8  UNL d   1       0.301  -1.042   1.980  0.00  0.00     0.001 A 
ENDROOT
BRANCH   1   8
ATOM      8  C1  UNL d   1       2.283  -2.359   1.134  0.00  0.00     0.053 C 
ATOM      9  C   UNL d   1       2.320  -1.405  -0.049  0.00  0.00     0.018 C 
ENDBRANCH   1   8
TORSDOF 1
ENDMDL
