MODEL 1
REMARK minimizedAffinity 2.14026499
REMARK minimizedRMSD -1
REMARK  1 active torsions:
REMARK  status: ('A' for Active; 'I' for Inactive)
REMARK    1  A    between atoms: C1_2  and  C2_3 
ROOT
ATOM      1  C2  UNL d   1       3.723   5.161  -5.831  0.00  0.00    -0.073 A 
ATOM      2  C3  UNL d   1       3.677   3.793  -5.541  0.00  0.00    -0.002 A 
ATOM      3  C4  UNL d   1       2.451   3.145  -5.393  0.00  0.00     0.004 A 
ATOM      4  C5  UNL d   1       1.259   3.855  -5.539  0.00  0.00    -0.004 A 
ATOM      5  C6  UNL d   1       1.284   5.220  -5.840  0.00  0.00    -0.075 A 
ATOM      6  C7  UNL d   1       0.012   5.999  -5.999  0.00  0.00     0.076 C 
ATOM      7  C8  UNL d   1       2.520   5.865  -5.985  0.00  0.00     0.001 A 
ENDROOT
BRANCH   1   8
ATOM      8  C1  UNL d   1       5.046   5.864  -5.999  0.00  0.00     0.053 C 
ATOM      9  C   UNL d   1       5.922   5.732  -4.763  0.00  0.00     0.018 C 
ENDBRANCH   1   8
TORSDOF 1
ENDMDL
