MODEL 1
REMARK minimizedAffinity 4.01420069
REMARK minimizedRMSD -1
REMARK  1 active torsions:
REMARK  status: ('A' for Active; 'I' for Inactive)
REMARK    1  A    between atoms: C1_2  and  C2_3 
ROOT
ATOM      1  C2  UNL d   1       2.078  -1.256   2.176  0.00  0.00    -0.073 A 
ATOM      2  C3  UNL d   1       1.143  -2.056   1.509  0.00  0.00    -0.002 A 
ATOM      3  C4  UNL d   1       1.324  -2.380   0.164  0.00  0.00     0.004 A 
ATOM      4  C5  UNL d   1       2.445  -1.916  -0.525  0.00  0.00    -0.004 A 
ATOM      5  C6  UNL d   1       3.396  -1.125   0.127  0.00  0.00    -0.075 A 
ATOM      6  C7  UNL d   1       4.606  -0.616  -0.601  0.00  0.00     0.076 C 
ATOM      7  C8  UNL d   1       3.205  -0.801   1.477  0.00  0.00     0.001 A 
ENDROOT
BRANCH   1   8
ATOM      8  C1  UNL d   1       1.889  -0.908   3.630  0.00  0.00     0.053 C 
ATOM      9  C   UNL d   1       3.043  -1.401   4.488  0.00  0.00     0.018 C 
ENDBRANCH   1   8
TORSDOF 1
ENDMDL
