MODEL 1
REMARK minimizedAffinity 6.32518482
REMARK minimizedRMSD -1
REMARK  1 active torsions:
REMARK  status: ('A' for Active; 'I' for Inactive)
REMARK    1  A    between atoms: C1_2  and  C2_3 
ROOT
ATOM      1  C2  UNL d   1      -1.090   3.961  -4.946  0.00  0.00    -0.073 A 
ATOM      2  C3  UNL d   1      -0.964   2.810  -4.160  0.00  0.00    -0.002 A 
ATOM      3  C4  UNL d   1      -2.033   2.369  -3.380  0.00  0.00     0.004 A 
ATOM      4  C5  UNL d   1      -3.240   3.068  -3.383  0.00  0.00    -0.004 A 
ATOM      5  C6  UNL d   1      -3.390   4.213  -4.172  0.00  0.00    -0.075 A 
ATOM      6  C7  UNL d   1      -4.681   4.978  -4.185  0.00  0.00     0.076 C 
ATOM      7  C8  UNL d   1      -2.310   4.652  -4.950  0.00  0.00     0.001 A 
ENDROOT
BRANCH   1   8
ATOM      8  C1  UNL d   1       0.060   4.438  -5.795  0.00  0.00     0.053 C 
ATOM      9  C   UNL d   1       1.381   4.389  -5.045  0.00  0.00     0.018 C 
ENDBRANCH   1   8
TORSDOF 1
ENDMDL
