MODEL 1
REMARK minimizedAffinity 13.7800703
REMARK minimizedRMSD -1
REMARK  1 active torsions:
REMARK  status: ('A' for Active; 'I' for Inactive)
REMARK    1  A    between atoms: C1_2  and  C2_3 
ROOT
ATOM      1  C2  UNL d   1       1.624  -3.183   0.224  0.00  0.00    -0.073 A 
ATOM      2  C3  UNL d   1       2.603  -2.185   0.173  0.00  0.00    -0.002 A 
ATOM      3  C4  UNL d   1       2.436  -0.996   0.884  0.00  0.00     0.004 A 
ATOM      4  C5  UNL d   1       1.293  -0.796   1.658  0.00  0.00    -0.004 A 
ATOM      5  C6  UNL d   1       0.308  -1.786   1.731  0.00  0.00    -0.075 A 
ATOM      6  C7  UNL d   1      -0.928  -1.586   2.557  0.00  0.00     0.076 C 
ATOM      7  C8  UNL d   1       0.482  -2.976   1.012  0.00  0.00     0.001 A 
ENDROOT
BRANCH   1   8
ATOM      8  C1  UNL d   1       1.803  -4.471  -0.538  0.00  0.00     0.053 C 
ATOM      9  C   UNL d   1       1.272  -5.668   0.235  0.00  0.00     0.018 C 
ENDBRANCH   1   8
TORSDOF 1
ENDMDL
