MODEL 1
REMARK minimizedAffinity -3.19775081
REMARK minimizedRMSD -1
REMARK  1 active torsions:
REMARK  status: ('A' for Active; 'I' for Inactive)
REMARK    1  A    between atoms: C1_2  and  C2_3 
ROOT
ATOM      1  C2  UNL d   1       0.482  -0.441   0.384  0.00  0.00    -0.073 A 
ATOM      2  C3  UNL d   1       1.337  -0.232   1.472  0.00  0.00    -0.002 A 
ATOM      3  C4  UNL d   1       2.606  -0.813   1.493  0.00  0.00     0.004 A 
ATOM      4  C5  UNL d   1       3.035  -1.600   0.425  0.00  0.00    -0.004 A 
ATOM      5  C6  UNL d   1       2.200  -1.810  -0.677  0.00  0.00    -0.075 A 
ATOM      6  C7  UNL d   1       2.646  -2.656  -1.833  0.00  0.00     0.076 C 
ATOM      7  C8  UNL d   1       0.926  -1.226  -0.689  0.00  0.00     0.001 A 
ENDROOT
BRANCH   1   8
ATOM      8  C1  UNL d   1      -0.887   0.189   0.354  0.00  0.00     0.053 C 
ATOM      9  C   UNL d   1      -1.288   0.614  -1.049  0.00  0.00     0.018 C 
ENDBRANCH   1   8
TORSDOF 1
ENDMDL
