MODEL 1
REMARK minimizedAffinity -3.47064471
REMARK minimizedRMSD -1
REMARK  1 active torsions:
REMARK  status: ('A' for Active; 'I' for Inactive)
REMARK    1  A    between atoms: C1_2  and  C2_3 
ROOT
ATOM      1  C2  UNL d   1      -0.924   0.421  -0.385  0.00  0.00    -0.073 A 
ATOM      2  C3  UNL d   1      -0.566  -0.879  -0.759  0.00  0.00    -0.002 A 
ATOM      3  C4  UNL d   1       0.676  -1.401  -0.394  0.00  0.00     0.004 A 
ATOM      4  C5  UNL d   1       1.568  -0.633   0.354  0.00  0.00    -0.004 A 
ATOM      5  C6  UNL d   1       1.224   0.664   0.748  0.00  0.00    -0.075 A 
ATOM      6  C7  UNL d   1       2.173   1.504   1.551  0.00  0.00     0.076 C 
ATOM      7  C8  UNL d   1      -0.024   1.182   0.375  0.00  0.00     0.001 A 
ENDROOT
BRANCH   1   8
ATOM      8  C1  UNL d   1      -2.265   0.988  -0.771  0.00  0.00     0.053 C 
ATOM      9  C   UNL d   1      -3.281   0.864   0.353  0.00  0.00     0.018 C 
ENDBRANCH   1   8
TORSDOF 1
ENDMDL
