MODEL 1
REMARK minimizedAffinity -2.95776272
REMARK minimizedRMSD -1
REMARK  1 active torsions:
REMARK  status: ('A' for Active; 'I' for Inactive)
REMARK    1  A    between atoms: C1_2  and  C2_3 
ROOT
ATOM      1  C2  UNL d   1      -0.567  -0.222  -0.213  0.00  0.00    -0.073 A 
ATOM      2  C3  UNL d   1      -0.060  -1.479  -0.564  0.00  0.00    -0.002 A 
ATOM      3  C4  UNL d   1       1.237  -1.842  -0.201  0.00  0.00     0.004 A 
ATOM      4  C5  UNL d   1       2.037  -0.957   0.523  0.00  0.00    -0.004 A 
ATOM      5  C6  UNL d   1       1.544   0.298   0.894  0.00  0.00    -0.075 A 
ATOM      6  C7  UNL d   1       2.392   1.262   1.670  0.00  0.00     0.076 C 
ATOM      7  C8  UNL d   1       0.241   0.656   0.522  0.00  0.00     0.001 A 
ENDROOT
BRANCH   1   8
ATOM      8  C1  UNL d   1      -1.970   0.172  -0.598  0.00  0.00     0.053 C 
ATOM      9  C   UNL d   1      -2.850   0.407   0.620  0.00  0.00     0.018 C 
ENDBRANCH   1   8
TORSDOF 1
ENDMDL
