MODEL 1
REMARK minimizedAffinity -3.26008797
REMARK minimizedRMSD -1
REMARK  1 active torsions:
REMARK  status: ('A' for Active; 'I' for Inactive)
REMARK    1  A    between atoms: C1_2  and  C2_3 
ROOT
ATOM      1  C2  UNL d   1      -1.840  -0.358   0.598  0.00  0.00    -0.073 A 
ATOM      2  C3  UNL d   1      -1.934   0.326  -0.619  0.00  0.00    -0.002 A 
ATOM      3  C4  UNL d   1      -0.876   0.293  -1.529  0.00  0.00     0.004 A 
ATOM      4  C5  UNL d   1       0.281  -0.428  -1.234  0.00  0.00    -0.004 A 
ATOM      5  C6  UNL d   1       0.389  -1.127  -0.027  0.00  0.00    -0.075 A 
ATOM      6  C7  UNL d   1       1.628  -1.905   0.306  0.00  0.00     0.076 C 
ATOM      7  C8  UNL d   1      -0.677  -1.087   0.882  0.00  0.00     0.001 A 
ENDROOT
BRANCH   1   8
ATOM      8  C1  UNL d   1      -2.983  -0.331   1.581  0.00  0.00     0.053 C 
ATOM      9  C   UNL d   1      -3.686   1.017   1.601  0.00  0.00     0.018 C 
ENDBRANCH   1   8
TORSDOF 1
ENDMDL
