MODEL 1
REMARK minimizedAffinity -1.08300161
REMARK minimizedRMSD -1
REMARK  1 active torsions:
REMARK  status: ('A' for Active; 'I' for Inactive)
REMARK    1  A    between atoms: C1_2  and  C2_3 
ROOT
ATOM      1  C2  UNL d   1      -0.505  -0.131   0.342  0.00  0.00    -0.073 A 
ATOM      2  C3  UNL d   1      -0.680  -0.872  -0.832  0.00  0.00    -0.002 A 
ATOM      3  C4  UNL d   1       0.328  -1.726  -1.284  0.00  0.00     0.004 A 
ATOM      4  C5  UNL d   1       1.516  -1.852  -0.565  0.00  0.00    -0.004 A 
ATOM      5  C6  UNL d   1       1.705  -1.129   0.617  0.00  0.00    -0.075 A 
ATOM      6  C7  UNL d   1       2.978  -1.252   1.402  0.00  0.00     0.076 C 
ATOM      7  C8  UNL d   1       0.690  -0.272   1.063  0.00  0.00     0.001 A 
ENDROOT
BRANCH   1   8
ATOM      8  C1  UNL d   1      -1.592   0.787   0.837  0.00  0.00     0.053 C 
ATOM      9  C   UNL d   1      -2.969   0.151   0.726  0.00  0.00     0.018 C 
ENDBRANCH   1   8
TORSDOF 1
ENDMDL
