MODEL 1
REMARK minimizedAffinity -3.97511625
REMARK minimizedRMSD -1
REMARK  1 active torsions:
REMARK  status: ('A' for Active; 'I' for Inactive)
REMARK    1  A    between atoms: C1_2  and  C2_3 
ROOT
ATOM      1  C2  UNL d   1       2.364  -0.594   0.024  0.00  0.00    -0.073 A 
ATOM      2  C3  UNL d   1       2.122  -1.915  -0.369  0.00  0.00    -0.002 A 
ATOM      3  C4  UNL d   1       0.828  -2.330  -0.688  0.00  0.00     0.004 A 
ATOM      4  C5  UNL d   1      -0.234  -1.428  -0.624  0.00  0.00    -0.004 A 
ATOM      5  C6  UNL d   1      -0.010  -0.100  -0.245  0.00  0.00    -0.075 A 
ATOM      6  C7  UNL d   1      -1.142   0.882  -0.169  0.00  0.00     0.076 C 
ATOM      7  C8  UNL d   1       1.292   0.308   0.076  0.00  0.00     0.001 A 
ENDROOT
BRANCH   1   8
ATOM      8  C1  UNL d   1       3.761  -0.140   0.362  0.00  0.00     0.053 C 
ATOM      9  C   UNL d   1       3.969   1.336   0.062  0.00  0.00     0.018 C 
ENDBRANCH   1   8
TORSDOF 1
ENDMDL
