MODEL 1
REMARK minimizedAffinity -4.32690096
REMARK minimizedRMSD -1
REMARK  1 active torsions:
REMARK  status: ('A' for Active; 'I' for Inactive)
REMARK    1  A    between atoms: C1_2  and  C2_3 
ROOT
ATOM      1  C2  UNL d   1      -0.607   0.157   0.294  0.00  0.00    -0.073 A 
ATOM      2  C3  UNL d   1      -1.161   0.615  -0.906  0.00  0.00    -0.002 A 
ATOM      3  C4  UNL d   1      -2.495   1.021  -0.958  0.00  0.00     0.004 A 
ATOM      4  C5  UNL d   1      -3.286   0.980   0.190  0.00  0.00    -0.004 A 
ATOM      5  C6  UNL d   1      -2.747   0.537   1.402  0.00  0.00    -0.075 A 
ATOM      6  C7  UNL d   1      -3.586   0.484   2.646  0.00  0.00     0.076 C 
ATOM      7  C8  UNL d   1      -1.408   0.128   1.445  0.00  0.00     0.001 A 
ENDROOT
BRANCH   1   8
ATOM      8  C1  UNL d   1       0.835  -0.276   0.356  0.00  0.00     0.053 C 
ATOM      9  C   UNL d   1       1.767   0.887   0.655  0.00  0.00     0.018 C 
ENDBRANCH   1   8
TORSDOF 1
ENDMDL
