MODEL 1
REMARK minimizedAffinity -4.26610851
REMARK minimizedRMSD -1
REMARK  1 active torsions:
REMARK  status: ('A' for Active; 'I' for Inactive)
REMARK    1  A    between atoms: N_2  and  C1_3 
ROOT
ATOM      1  C1  UNL d   1      -0.356   3.476  -4.004  0.00  0.00     0.143 A 
ATOM      2  C2  UNL d   1      -0.445   3.155  -2.645  0.00  0.00    -0.057 A 
ATOM      3  C3  UNL d   1      -1.566   2.497  -2.126  0.00  0.00     0.033 A 
ATOM      4  C4  UNL d   1      -2.636   2.173  -2.954  0.00  0.00    -0.042 A 
ATOM      5  C5  UNL d   1      -2.580   2.505  -4.303  0.00  0.00     0.033 A 
ATOM      6  C6  UNL d   1      -1.455   3.156  -4.817  0.00  0.00    -0.057 A 
ENDROOT
BRANCH   1   7
ATOM      7  N   UNL d   1       0.688   4.217  -4.562  0.00  0.00    -0.732 N 
ATOM      8  C   UNL d   1       0.658   5.664  -4.542  0.00  0.00     0.284 C 
ATOM      9  H3  UNL d   1       1.601   3.818  -4.356  0.00  0.00     0.395 HD
ENDBRANCH   1   7
TORSDOF 1
ENDMDL
