MODEL 1
REMARK minimizedAffinity -3.62207937
REMARK minimizedRMSD -1
REMARK  1 active torsions:
REMARK  status: ('A' for Active; 'I' for Inactive)
REMARK    1  A    between atoms: N_2  and  C1_3 
ROOT
ATOM      1  C1  UNL d   1       0.935  -1.047   0.953  0.00  0.00     0.143 A 
ATOM      2  C2  UNL d   1       1.352  -1.970   1.918  0.00  0.00    -0.057 A 
ATOM      3  C3  UNL d   1       0.541  -2.291   3.014  0.00  0.00     0.033 A 
ATOM      4  C4  UNL d   1      -0.693  -1.670   3.178  0.00  0.00    -0.042 A 
ATOM      5  C5  UNL d   1      -1.117  -0.732   2.244  0.00  0.00     0.033 A 
ATOM      6  C6  UNL d   1      -0.306  -0.421   1.149  0.00  0.00    -0.057 A 
ENDROOT
BRANCH   1   7
ATOM      7  N   UNL d   1       1.737  -0.613  -0.106  0.00  0.00    -0.732 N 
ATOM      8  C   UNL d   1       1.984   0.798  -0.313  0.00  0.00     0.284 C 
ATOM      9  H3  UNL d   1       2.556  -1.203  -0.240  0.00  0.00     0.395 HD
ENDBRANCH   1   7
TORSDOF 1
ENDMDL
