MODEL 1
REMARK minimizedAffinity -0.574565768
REMARK minimizedRMSD -1
REMARK  1 active torsions:
REMARK  status: ('A' for Active; 'I' for Inactive)
REMARK    1  A    between atoms: N_2  and  C1_3 
ROOT
ATOM      1  C1  UNL d   1       1.081  -0.685   0.233  0.00  0.00     0.143 A 
ATOM      2  C2  UNL d   1      -0.187  -0.654   0.821  0.00  0.00    -0.057 A 
ATOM      3  C3  UNL d   1      -1.111   0.348   0.503  0.00  0.00     0.033 A 
ATOM      4  C4  UNL d   1      -0.771   1.357  -0.392  0.00  0.00    -0.042 A 
ATOM      5  C5  UNL d   1       0.493   1.361  -0.970  0.00  0.00     0.033 A 
ATOM      6  C6  UNL d   1       1.409   0.353  -0.653  0.00  0.00    -0.057 A 
ENDROOT
BRANCH   1   7
ATOM      7  N   UNL d   1       2.079  -1.599   0.582  0.00  0.00    -0.732 N 
ATOM      8  C   UNL d   1       2.234  -2.032   1.954  0.00  0.00     0.284 C 
ATOM      9  H3  UNL d   1       2.181  -2.344  -0.103  0.00  0.00     0.395 HD
ENDBRANCH   1   7
TORSDOF 1
ENDMDL
