MODEL 1
REMARK minimizedAffinity -4.59975481
REMARK minimizedRMSD -1
REMARK  1 active torsions:
REMARK  status: ('A' for Active; 'I' for Inactive)
REMARK    1  A    between atoms: N_2  and  C1_3 
ROOT
ATOM      1  C1  UNL d   1       0.393  -1.761   1.496  0.00  0.00     0.143 A 
ATOM      2  C2  UNL d   1      -0.221  -0.782   0.707  0.00  0.00    -0.057 A 
ATOM      3  C3  UNL d   1       0.481  -0.122  -0.309  0.00  0.00     0.033 A 
ATOM      4  C4  UNL d   1       1.823  -0.410  -0.535  0.00  0.00    -0.042 A 
ATOM      5  C5  UNL d   1       2.461  -1.362   0.252  0.00  0.00     0.033 A 
ATOM      6  C6  UNL d   1       1.752  -2.022   1.261  0.00  0.00    -0.057 A 
ENDROOT
BRANCH   1   7
ATOM      7  N   UNL d   1      -0.223  -2.382   2.585  0.00  0.00    -0.732 N 
ATOM      8  C   UNL d   1      -1.311  -1.733   3.285  0.00  0.00     0.284 C 
ATOM      9  H3  UNL d   1      -0.360  -3.379   2.437  0.00  0.00     0.395 HD
ENDBRANCH   1   7
TORSDOF 1
ENDMDL
