MODEL 1
REMARK minimizedAffinity -2.71162677
REMARK minimizedRMSD -1
REMARK  1 active torsions:
REMARK  status: ('A' for Active; 'I' for Inactive)
REMARK    1  A    between atoms: N_2  and  C1_3 
ROOT
ATOM      1  C1  UNL d   1      -0.837  -0.852   1.392  0.00  0.00     0.143 A 
ATOM      2  C2  UNL d   1       0.356  -1.522   1.103  0.00  0.00    -0.057 A 
ATOM      3  C3  UNL d   1       0.823  -2.558   1.921  0.00  0.00     0.033 A 
ATOM      4  C4  UNL d   1       0.118  -2.922   3.063  0.00  0.00    -0.042 A 
ATOM      5  C5  UNL d   1      -1.058  -2.253   3.384  0.00  0.00     0.033 A 
ATOM      6  C6  UNL d   1      -1.523  -1.224   2.559  0.00  0.00    -0.057 A 
ENDROOT
BRANCH   1   7
ATOM      7  N   UNL d   1      -1.303   0.251   0.672  0.00  0.00    -0.732 N 
ATOM      8  C   UNL d   1      -0.380   1.243   0.163  0.00  0.00     0.284 C 
ATOM      9  H3  UNL d   1      -2.049   0.006   0.025  0.00  0.00     0.395 HD
ENDBRANCH   1   7
TORSDOF 1
ENDMDL
