MODEL 1
REMARK minimizedAffinity -4.84582853
REMARK minimizedRMSD -1
REMARK  1 active torsions:
REMARK  status: ('A' for Active; 'I' for Inactive)
REMARK    1  A    between atoms: N_2  and  C1_3 
ROOT
ATOM      1  C1  UNL d   1      -0.082  -0.019   0.357  0.00  0.00     0.143 A 
ATOM      2  C2  UNL d   1       1.148  -0.451  -0.150  0.00  0.00    -0.057 A 
ATOM      3  C3  UNL d   1       1.740  -1.639   0.295  0.00  0.00     0.033 A 
ATOM      4  C4  UNL d   1       1.123  -2.404   1.280  0.00  0.00    -0.042 A 
ATOM      5  C5  UNL d   1      -0.088  -1.981   1.816  0.00  0.00     0.033 A 
ATOM      6  C6  UNL d   1      -0.677  -0.797   1.362  0.00  0.00    -0.057 A 
ENDROOT
BRANCH   1   7
ATOM      7  N   UNL d   1      -0.674   1.203   0.026  0.00  0.00    -0.732 N 
ATOM      8  C   UNL d   1      -1.120   1.464  -1.326  0.00  0.00     0.284 C 
ATOM      9  H3  UNL d   1      -1.313   1.532   0.745  0.00  0.00     0.395 HD
ENDBRANCH   1   7
TORSDOF 1
ENDMDL
