MODEL 1
REMARK minimizedAffinity -5.46416426
REMARK minimizedRMSD -1
REMARK  1 active torsions:
REMARK  status: ('A' for Active; 'I' for Inactive)
REMARK    1  A    between atoms: N_2  and  C1_3 
ROOT
ATOM      1  C1  UNL d   1      -0.037  -0.177   0.760  0.00  0.00     0.143 A 
ATOM      2  C2  UNL d   1       1.108  -0.697   0.147  0.00  0.00    -0.057 A 
ATOM      3  C3  UNL d   1       1.672  -1.906   0.570  0.00  0.00     0.033 A 
ATOM      4  C4  UNL d   1       1.117  -2.604   1.636  0.00  0.00    -0.042 A 
ATOM      5  C5  UNL d   1      -0.007  -2.094   2.277  0.00  0.00     0.033 A 
ATOM      6  C6  UNL d   1      -0.570  -0.889   1.846  0.00  0.00    -0.057 A 
ENDROOT
BRANCH   1   7
ATOM      7  N   UNL d   1      -0.588   1.069   0.450  0.00  0.00    -0.732 N 
ATOM      8  C   UNL d   1      -0.756   1.479  -0.928  0.00  0.00     0.284 C 
ATOM      9  H3  UNL d   1      -1.372   1.308   1.053  0.00  0.00     0.395 HD
ENDBRANCH   1   7
TORSDOF 1
ENDMDL
