MODEL 1
REMARK minimizedAffinity -4.43764305
REMARK minimizedRMSD -1
REMARK  1 active torsions:
REMARK  status: ('A' for Active; 'I' for Inactive)
REMARK    1  A    between atoms: N_2  and  C1_3 
ROOT
ATOM      1  C1  UNL d   1       0.181  -0.153   0.378  0.00  0.00     0.143 A 
ATOM      2  C2  UNL d   1       1.546  -0.142   0.070  0.00  0.00    -0.057 A 
ATOM      3  C3  UNL d   1       2.434  -1.041   0.672  0.00  0.00     0.033 A 
ATOM      4  C4  UNL d   1       1.976  -1.951   1.619  0.00  0.00    -0.042 A 
ATOM      5  C5  UNL d   1       0.628  -1.963   1.960  0.00  0.00     0.033 A 
ATOM      6  C6  UNL d   1      -0.255  -1.067   1.350  0.00  0.00    -0.057 A 
ENDROOT
BRANCH   1   7
ATOM      7  N   UNL d   1      -0.735   0.780  -0.113  0.00  0.00    -0.732 N 
ATOM      8  C   UNL d   1      -0.648   1.250  -1.479  0.00  0.00     0.284 C 
ATOM      9  H3  UNL d   1      -1.684   0.596   0.204  0.00  0.00     0.395 HD
ENDBRANCH   1   7
TORSDOF 1
ENDMDL
