MODEL 1
REMARK minimizedAffinity -3.94390392
REMARK minimizedRMSD -1
REMARK  1 active torsions:
REMARK  status: ('A' for Active; 'I' for Inactive)
REMARK    1  A    between atoms: N_2  and  C1_3 
ROOT
ATOM      1  C1  UNL d   1       0.043   0.186  -0.207  0.00  0.00     0.143 A 
ATOM      2  C2  UNL d   1       1.362  -0.017  -0.629  0.00  0.00    -0.057 A 
ATOM      3  C3  UNL d   1       2.071  -1.168  -0.266  0.00  0.00     0.033 A 
ATOM      4  C4  UNL d   1       1.483  -2.126   0.553  0.00  0.00    -0.042 A 
ATOM      5  C5  UNL d   1       0.182  -1.934   1.005  0.00  0.00     0.033 A 
ATOM      6  C6  UNL d   1      -0.524  -0.785   0.633  0.00  0.00    -0.057 A 
ENDROOT
BRANCH   1   7
ATOM      7  N   UNL d   1      -0.681   1.355  -0.453  0.00  0.00    -0.732 N 
ATOM      8  C   UNL d   1      -1.327   1.567  -1.731  0.00  0.00     0.284 C 
ATOM      9  H3  UNL d   1      -1.239   1.642   0.348  0.00  0.00     0.395 HD
ENDBRANCH   1   7
TORSDOF 1
ENDMDL
