MODEL 1
REMARK minimizedAffinity -5.03218508
REMARK minimizedRMSD -1
REMARK  1 active torsions:
REMARK  status: ('A' for Active; 'I' for Inactive)
REMARK    1  A    between atoms: N_2  and  C1_3 
ROOT
ATOM      1  C1  UNL d   1      -0.336  -0.954   0.857  0.00  0.00     0.143 A 
ATOM      2  C2  UNL d   1       0.894  -1.194   0.236  0.00  0.00    -0.057 A 
ATOM      3  C3  UNL d   1       1.759  -2.193   0.700  0.00  0.00     0.033 A 
ATOM      4  C4  UNL d   1       1.419  -2.952   1.815  0.00  0.00    -0.042 A 
ATOM      5  C5  UNL d   1       0.212  -2.714   2.463  0.00  0.00     0.033 A 
ATOM      6  C6  UNL d   1      -0.650  -1.720   1.991  0.00  0.00    -0.057 A 
ENDROOT
BRANCH   1   7
ATOM      7  N   UNL d   1      -1.195   0.090   0.504  0.00  0.00    -0.732 N 
ATOM      8  C   UNL d   1      -0.840   1.010  -0.555  0.00  0.00     0.284 C 
ATOM      9  H3  UNL d   1      -2.171  -0.196   0.496  0.00  0.00     0.395 HD
ENDBRANCH   1   7
TORSDOF 1
ENDMDL
