MODEL 1
REMARK minimizedAffinity -3.98538661
REMARK minimizedRMSD -1
REMARK  1 active torsions:
REMARK  status: ('A' for Active; 'I' for Inactive)
REMARK    1  A    between atoms: N_2  and  C1_3 
ROOT
ATOM      1  C1  UNL d   1      -0.507  -0.639   0.539  0.00  0.00     0.143 A 
ATOM      2  C2  UNL d   1       0.726  -1.114   0.081  0.00  0.00    -0.057 A 
ATOM      3  C3  UNL d   1       1.465  -2.047   0.819  0.00  0.00     0.033 A 
ATOM      4  C4  UNL d   1       0.994  -2.501   2.047  0.00  0.00    -0.042 A 
ATOM      5  C5  UNL d   1      -0.218  -2.024   2.533  0.00  0.00     0.033 A 
ATOM      6  C6  UNL d   1      -0.954  -1.097   1.789  0.00  0.00    -0.057 A 
ENDROOT
BRANCH   1   7
ATOM      7  N   UNL d   1      -1.241   0.363  -0.101  0.00  0.00    -0.732 N 
ATOM      8  C   UNL d   1      -0.574   1.502  -0.693  0.00  0.00     0.284 C 
ATOM      9  H3  UNL d   1      -2.002  -0.012  -0.663  0.00  0.00     0.395 HD
ENDBRANCH   1   7
TORSDOF 1
ENDMDL
