MODEL 1
REMARK minimizedAffinity -3.79343438
REMARK minimizedRMSD -1
REMARK  1 active torsions:
REMARK  status: ('A' for Active; 'I' for Inactive)
REMARK    1  A    between atoms: N_2  and  C1_3 
ROOT
ATOM      1  C1  UNL d   1      -0.241   0.770  -0.324  0.00  0.00     0.143 A 
ATOM      2  C2  UNL d   1       1.110   0.825  -0.682  0.00  0.00    -0.057 A 
ATOM      3  C3  UNL d   1       1.976  -0.242  -0.414  0.00  0.00     0.033 A 
ATOM      4  C4  UNL d   1       1.511  -1.376   0.244  0.00  0.00    -0.042 A 
ATOM      5  C5  UNL d   1       0.177  -1.442   0.632  0.00  0.00     0.033 A 
ATOM      6  C6  UNL d   1      -0.684  -0.376   0.356  0.00  0.00    -0.057 A 
ENDROOT
BRANCH   1   7
ATOM      7  N   UNL d   1      -1.129   1.837  -0.474  0.00  0.00    -0.732 N 
ATOM      8  C   UNL d   1      -1.840   2.036  -1.719  0.00  0.00     0.284 C 
ATOM      9  H3  UNL d   1      -1.696   1.991   0.357  0.00  0.00     0.395 HD
ENDBRANCH   1   7
TORSDOF 1
ENDMDL
