MODEL 1
REMARK minimizedAffinity -5.00607347
REMARK minimizedRMSD -1
REMARK  1 active torsions:
REMARK  status: ('A' for Active; 'I' for Inactive)
REMARK    1  A    between atoms: N_2  and  C1_3 
ROOT
ATOM      1  C1  UNL d   1       0.117  -0.059  -0.189  0.00  0.00     0.143 A 
ATOM      2  C2  UNL d   1       1.441  -0.351  -0.533  0.00  0.00    -0.057 A 
ATOM      3  C3  UNL d   1       2.082  -1.497  -0.046  0.00  0.00     0.033 A 
ATOM      4  C4  UNL d   1       1.416  -2.359   0.819  0.00  0.00    -0.042 A 
ATOM      5  C5  UNL d   1       0.107  -2.075   1.194  0.00  0.00     0.033 A 
ATOM      6  C6  UNL d   1      -0.529  -0.933   0.699  0.00  0.00    -0.057 A 
ENDROOT
BRANCH   1   7
ATOM      7  N   UNL d   1      -0.542   1.116  -0.561  0.00  0.00    -0.732 N 
ATOM      8  C   UNL d   1      -1.402   1.141  -1.725  0.00  0.00     0.284 C 
ATOM      9  H3  UNL d   1      -0.911   1.624   0.239  0.00  0.00     0.395 HD
ENDBRANCH   1   7
TORSDOF 1
ENDMDL
