MODEL 1
REMARK minimizedAffinity 7.76553679
REMARK minimizedRMSD -1
REMARK  0 active torsions:
REMARK  status: ('A' for Active; 'I' for Inactive)
ROOT
ATOM      1  C   UNL d   1       3.151   4.842  -2.204  0.00  0.00     0.023 A 
ATOM      2  C1  UNL d   1       3.354   3.741  -3.036  0.00  0.00     0.003 A 
ATOM      3  C2  UNL d   1       2.318   2.833  -3.261  0.00  0.00     0.048 A 
ATOM      4  C3  UNL d   1       1.080   3.032  -2.651  0.00  0.00     0.023 A 
ATOM      5  C4  UNL d   1       0.871   4.132  -1.818  0.00  0.00     0.048 A 
ATOM      6  C5  UNL d   1       1.911   5.037  -1.596  0.00  0.00     0.003 A 
ATOM      7  I   UNL d   1      -0.464   1.681  -2.984  0.00  0.00    -0.146 I 
ENDROOT
TORSDOF 0
ENDMDL
