MODEL 1
REMARK minimizedAffinity -2.30405974
REMARK minimizedRMSD -1
REMARK  0 active torsions:
REMARK  status: ('A' for Active; 'I' for Inactive)
ROOT
ATOM      1  C   UNL d   1       6.000  -2.219  -5.341  0.00  0.00     0.023 A 
ATOM      2  C1  UNL d   1       5.370  -3.275  -5.999  0.00  0.00     0.003 A 
ATOM      3  C2  UNL d   1       4.007  -3.507  -5.804  0.00  0.00     0.048 A 
ATOM      4  C3  UNL d   1       3.280  -2.679  -4.950  0.00  0.00     0.023 A 
ATOM      5  C4  UNL d   1       3.906  -1.620  -4.290  0.00  0.00     0.048 A 
ATOM      6  C5  UNL d   1       5.269  -1.392  -4.488  0.00  0.00     0.003 A 
ATOM      7  I   UNL d   1       1.251  -3.022  -4.658  0.00  0.00    -0.146 I 
ENDROOT
TORSDOF 0
ENDMDL
