MODEL 1
REMARK minimizedAffinity 1.44038677
REMARK minimizedRMSD -1
REMARK  0 active torsions:
REMARK  status: ('A' for Active; 'I' for Inactive)
ROOT
ATOM      1  C   UNL d   1       1.179  -2.973  -5.267  0.00  0.00     0.023 A 
ATOM      2  C1  UNL d   1       1.888  -1.812  -4.957  0.00  0.00     0.003 A 
ATOM      3  C2  UNL d   1       3.268  -1.758  -5.167  0.00  0.00     0.048 A 
ATOM      4  C3  UNL d   1       3.932  -2.868  -5.687  0.00  0.00     0.023 A 
ATOM      5  C4  UNL d   1       3.227  -4.031  -6.000  0.00  0.00     0.048 A 
ATOM      6  C5  UNL d   1       1.848  -4.081  -5.788  0.00  0.00     0.003 A 
ATOM      7  I   UNL d   1       5.985  -2.790  -6.000  0.00  0.00    -0.146 I 
ENDROOT
TORSDOF 0
ENDMDL
