MODEL 1
REMARK minimizedAffinity 5.1474123
REMARK minimizedRMSD -1
REMARK  0 active torsions:
REMARK  status: ('A' for Active; 'I' for Inactive)
ROOT
ATOM      1  C   UNL d   1      -3.179   0.676  -3.675  0.00  0.00     0.023 A 
ATOM      2  C1  UNL d   1      -3.139   1.136  -2.358  0.00  0.00     0.003 A 
ATOM      3  C2  UNL d   1      -3.835   2.292  -2.000  0.00  0.00     0.048 A 
ATOM      4  C3  UNL d   1      -4.570   2.983  -2.962  0.00  0.00     0.023 A 
ATOM      5  C4  UNL d   1      -4.614   2.526  -4.280  0.00  0.00     0.048 A 
ATOM      6  C5  UNL d   1      -3.916   1.370  -4.635  0.00  0.00     0.003 A 
ATOM      7  I   UNL d   1      -5.608   4.703  -2.430  0.00  0.00    -0.146 I 
ENDROOT
TORSDOF 0
ENDMDL
