MODEL 1
REMARK minimizedAffinity -5.98663807
REMARK minimizedRMSD -1
REMARK  0 active torsions:
REMARK  status: ('A' for Active; 'I' for Inactive)
ROOT
ATOM      1  C   UNL d   1       0.110  -0.576  -0.397  0.00  0.00     0.078 C 
ATOM      2  C1  UNL d   1       0.800   0.623   0.183  0.00  0.00    -0.077 A 
ATOM      3  C2  UNL d   1       2.067   1.014  -0.267  0.00  0.00    -0.001 A 
ATOM      4  C3  UNL d   1       2.702   2.126   0.289  0.00  0.00     0.003 A 
ATOM      5  C4  UNL d   1       2.078   2.855   1.299  0.00  0.00    -0.005 A 
ATOM      6  C5  UNL d   1       0.818   2.472   1.756  0.00  0.00     0.003 A 
ATOM      7  C6  UNL d   1       0.182   1.360   1.201  0.00  0.00    -0.001 A 
ENDROOT
TORSDOF 0
ENDMDL
