MODEL 1
REMARK minimizedAffinity -5.06570292
REMARK minimizedRMSD -1
REMARK  0 active torsions:
REMARK  status: ('A' for Active; 'I' for Inactive)
ROOT
ATOM      1  C   UNL d   1      -0.711   0.004  -0.425  0.00  0.00     0.078 C 
ATOM      2  C1  UNL d   1       0.517   0.768  -0.031  0.00  0.00    -0.077 A 
ATOM      3  C2  UNL d   1       0.425   1.935   0.738  0.00  0.00    -0.001 A 
ATOM      4  C3  UNL d   1       1.576   2.642   1.089  0.00  0.00     0.003 A 
ATOM      5  C4  UNL d   1       2.828   2.191   0.674  0.00  0.00    -0.005 A 
ATOM      6  C5  UNL d   1       2.929   1.032  -0.093  0.00  0.00     0.003 A 
ATOM      7  C6  UNL d   1       1.779   0.324  -0.445  0.00  0.00    -0.001 A 
ENDROOT
TORSDOF 0
ENDMDL
