MODEL 1
REMARK minimizedAffinity -5.94606018
REMARK minimizedRMSD -1
REMARK  0 active torsions:
REMARK  status: ('A' for Active; 'I' for Inactive)
ROOT
ATOM      1  C   UNL d   1      -0.749   0.504   1.724  0.00  0.00     0.078 C 
ATOM      2  C1  UNL d   1       0.535   1.111   1.242  0.00  0.00    -0.077 A 
ATOM      3  C2  UNL d   1       1.242   0.550   0.172  0.00  0.00    -0.001 A 
ATOM      4  C3  UNL d   1       2.440   1.120  -0.259  0.00  0.00     0.003 A 
ATOM      5  C4  UNL d   1       2.944   2.254   0.375  0.00  0.00    -0.005 A 
ATOM      6  C5  UNL d   1       2.248   2.819   1.442  0.00  0.00     0.003 A 
ATOM      7  C6  UNL d   1       1.050   2.250   1.875  0.00  0.00    -0.001 A 
ENDROOT
TORSDOF 0
ENDMDL
