MODEL 1
REMARK minimizedAffinity -5.56982708
REMARK minimizedRMSD -1
REMARK  0 active torsions:
REMARK  status: ('A' for Active; 'I' for Inactive)
ROOT
ATOM      1  C   UNL d   1      -1.079  -0.156   1.085  0.00  0.00     0.078 C 
ATOM      2  C1  UNL d   1       0.227   0.564   0.938  0.00  0.00    -0.077 A 
ATOM      3  C2  UNL d   1       0.550   1.649   1.761  0.00  0.00    -0.001 A 
ATOM      4  C3  UNL d   1       1.766   2.316   1.606  0.00  0.00     0.003 A 
ATOM      5  C4  UNL d   1       2.669   1.906   0.627  0.00  0.00    -0.005 A 
ATOM      6  C5  UNL d   1       2.356   0.829  -0.199  0.00  0.00     0.003 A 
ATOM      7  C6  UNL d   1       1.140   0.161  -0.045  0.00  0.00    -0.001 A 
ENDROOT
TORSDOF 0
ENDMDL
