MODEL 1
REMARK minimizedAffinity -4.95674562
REMARK minimizedRMSD -1
REMARK  0 active torsions:
REMARK  status: ('A' for Active; 'I' for Inactive)
ROOT
ATOM      1  C   UNL d   1       2.611   1.484   4.209  0.00  0.00     0.078 C 
ATOM      2  C1  UNL d   1       2.374   1.513   2.728  0.00  0.00    -0.077 A 
ATOM      3  C2  UNL d   1       1.297   2.223   2.184  0.00  0.00    -0.001 A 
ATOM      4  C3  UNL d   1       1.083   2.233   0.805  0.00  0.00     0.003 A 
ATOM      5  C4  UNL d   1       1.942   1.534  -0.042  0.00  0.00    -0.005 A 
ATOM      6  C5  UNL d   1       3.015   0.823   0.491  0.00  0.00     0.003 A 
ATOM      7  C6  UNL d   1       3.231   0.812   1.870  0.00  0.00    -0.001 A 
ENDROOT
TORSDOF 0
ENDMDL
