MODEL 1
REMARK minimizedAffinity -5.80185127
REMARK minimizedRMSD -1
REMARK  0 active torsions:
REMARK  status: ('A' for Active; 'I' for Inactive)
ROOT
ATOM      1  C   UNL d   1      -0.030  -0.363  -0.380  0.00  0.00     0.078 C 
ATOM      2  C1  UNL d   1       0.726   0.747   0.286  0.00  0.00    -0.077 A 
ATOM      3  C2  UNL d   1       2.093   0.936   0.044  0.00  0.00    -0.001 A 
ATOM      4  C3  UNL d   1       2.786   1.968   0.679  0.00  0.00     0.003 A 
ATOM      5  C4  UNL d   1       2.122   2.819   1.560  0.00  0.00    -0.005 A 
ATOM      6  C5  UNL d   1       0.763   2.638   1.809  0.00  0.00     0.003 A 
ATOM      7  C6  UNL d   1       0.068   1.606   1.175  0.00  0.00    -0.001 A 
ENDROOT
TORSDOF 0
ENDMDL
