MODEL 1
REMARK minimizedAffinity -5.51334238
REMARK minimizedRMSD -1
REMARK  0 active torsions:
REMARK  status: ('A' for Active; 'I' for Inactive)
ROOT
ATOM      1  C   UNL d   1       3.190   0.315  -0.759  0.00  0.00     0.078 C 
ATOM      2  C1  UNL d   1       2.151   1.032   0.049  0.00  0.00    -0.077 A 
ATOM      3  C2  UNL d   1       0.791   0.728  -0.092  0.00  0.00    -0.001 A 
ATOM      4  C3  UNL d   1      -0.167   1.411   0.659  0.00  0.00     0.003 A 
ATOM      5  C4  UNL d   1       0.224   2.403   1.557  0.00  0.00    -0.005 A 
ATOM      6  C5  UNL d   1       1.575   2.714   1.702  0.00  0.00     0.003 A 
ATOM      7  C6  UNL d   1       2.534   2.032   0.952  0.00  0.00    -0.001 A 
ENDROOT
TORSDOF 0
ENDMDL
