MODEL 1
REMARK minimizedAffinity -3.25914502
REMARK minimizedRMSD -1
REMARK  0 active torsions:
REMARK  status: ('A' for Active; 'I' for Inactive)
ROOT
ATOM      1  C   UNL d   1      -0.041  -1.057  -0.381  0.00  0.00     0.078 C 
ATOM      2  C1  UNL d   1       0.201   0.271   0.271  0.00  0.00    -0.077 A 
ATOM      3  C2  UNL d   1       1.256   1.095  -0.140  0.00  0.00    -0.001 A 
ATOM      4  C3  UNL d   1       1.476   2.325   0.482  0.00  0.00     0.003 A 
ATOM      5  C4  UNL d   1       0.644   2.742   1.520  0.00  0.00    -0.005 A 
ATOM      6  C5  UNL d   1      -0.408   1.929   1.936  0.00  0.00     0.003 A 
ATOM      7  C6  UNL d   1      -0.629   0.698   1.315  0.00  0.00    -0.001 A 
ENDROOT
TORSDOF 0
ENDMDL
