MODEL 1
REMARK minimizedAffinity -1.85558093
REMARK minimizedRMSD -1
REMARK  0 active torsions:
REMARK  status: ('A' for Active; 'I' for Inactive)
ROOT
ATOM      1  C   UNL d   1       1.871   2.340  -0.035  0.00  0.00     0.078 C 
ATOM      2  C1  UNL d   1       1.040   1.092  -0.075  0.00  0.00    -0.077 A 
ATOM      3  C2  UNL d   1      -0.126   0.977   0.692  0.00  0.00    -0.001 A 
ATOM      4  C3  UNL d   1      -0.885  -0.194   0.653  0.00  0.00     0.003 A 
ATOM      5  C4  UNL d   1      -0.485  -1.260  -0.152  0.00  0.00    -0.005 A 
ATOM      6  C5  UNL d   1       0.675  -1.155  -0.917  0.00  0.00     0.003 A 
ATOM      7  C6  UNL d   1       1.435   0.015  -0.878  0.00  0.00    -0.001 A 
ENDROOT
TORSDOF 0
ENDMDL
