MODEL 1
REMARK minimizedAffinity -5.2116518
REMARK minimizedRMSD -1
REMARK  0 active torsions:
REMARK  status: ('A' for Active; 'I' for Inactive)
ROOT
ATOM      1  C   UNL d   1      -0.657  -0.635  -0.780  0.00  0.00     0.078 C 
ATOM      2  C1  UNL d   1       0.232   0.355  -0.090  0.00  0.00    -0.077 A 
ATOM      3  C2  UNL d   1       1.575   0.498  -0.460  0.00  0.00    -0.001 A 
ATOM      4  C3  UNL d   1       2.395   1.418   0.197  0.00  0.00     0.003 A 
ATOM      5  C4  UNL d   1       1.881   2.200   1.229  0.00  0.00    -0.005 A 
ATOM      6  C5  UNL d   1       0.546   2.063   1.606  0.00  0.00     0.003 A 
ATOM      7  C6  UNL d   1      -0.274   1.145   0.950  0.00  0.00    -0.001 A 
ENDROOT
TORSDOF 0
ENDMDL
