MODEL 1
REMARK minimizedAffinity -5.2330265
REMARK minimizedRMSD -1
REMARK  0 active torsions:
REMARK  status: ('A' for Active; 'I' for Inactive)
ROOT
ATOM      1  C   UNL d   1      -0.229  -0.845  -0.538  0.00  0.00     0.078 C 
ATOM      2  C1  UNL d   1       0.320   0.299   0.261  0.00  0.00    -0.077 A 
ATOM      3  C2  UNL d   1       1.660   0.686   0.141  0.00  0.00    -0.001 A 
ATOM      4  C3  UNL d   1       2.160   1.746   0.899  0.00  0.00     0.003 A 
ATOM      5  C4  UNL d   1       1.326   2.428   1.783  0.00  0.00    -0.005 A 
ATOM      6  C5  UNL d   1      -0.009   2.049   1.911  0.00  0.00     0.003 A 
ATOM      7  C6  UNL d   1      -0.510   0.989   1.154  0.00  0.00    -0.001 A 
ENDROOT
TORSDOF 0
ENDMDL
