MODEL 1
REMARK minimizedAffinity -5.41300106
REMARK minimizedRMSD -1
REMARK  0 active torsions:
REMARK  status: ('A' for Active; 'I' for Inactive)
ROOT
ATOM      1  C   UNL d   1      -0.194  -0.874  -0.477  0.00  0.00     0.078 C 
ATOM      2  C1  UNL d   1       0.392   0.348   0.166  0.00  0.00    -0.077 A 
ATOM      3  C2  UNL d   1       1.682   0.784  -0.157  0.00  0.00    -0.001 A 
ATOM      4  C3  UNL d   1       2.218   1.917   0.457  0.00  0.00     0.003 A 
ATOM      5  C4  UNL d   1       1.472   2.622   1.399  0.00  0.00    -0.005 A 
ATOM      6  C5  UNL d   1       0.188   2.193   1.729  0.00  0.00     0.003 A 
ATOM      7  C6  UNL d   1      -0.350   1.061   1.116  0.00  0.00    -0.001 A 
ENDROOT
TORSDOF 0
ENDMDL
