MODEL 1
REMARK minimizedAffinity -5.52604294
REMARK minimizedRMSD -1
REMARK  0 active torsions:
REMARK  status: ('A' for Active; 'I' for Inactive)
ROOT
ATOM      1  C   UNL d   1       3.620   1.152  -0.096  0.00  0.00     0.078 C 
ATOM      2  C1  UNL d   1       2.251   1.548   0.373  0.00  0.00    -0.077 A 
ATOM      3  C2  UNL d   1       1.183   0.645   0.325  0.00  0.00    -0.001 A 
ATOM      4  C3  UNL d   1      -0.088   1.031   0.756  0.00  0.00     0.003 A 
ATOM      5  C4  UNL d   1      -0.302   2.322   1.235  0.00  0.00    -0.005 A 
ATOM      6  C5  UNL d   1       0.755   3.228   1.284  0.00  0.00     0.003 A 
ATOM      7  C6  UNL d   1       2.026   2.844   0.854  0.00  0.00    -0.001 A 
ENDROOT
TORSDOF 0
ENDMDL
