MODEL 1
REMARK minimizedAffinity -6.01508522
REMARK minimizedRMSD -1
REMARK  0 active torsions:
REMARK  status: ('A' for Active; 'I' for Inactive)
ROOT
ATOM      1  C   UNL d   1       0.180  -0.609  -0.406  0.00  0.00     0.078 C 
ATOM      2  C1  UNL d   1       0.959   0.538   0.164  0.00  0.00    -0.077 A 
ATOM      3  C2  UNL d   1       2.357   0.567   0.091  0.00  0.00    -0.001 A 
ATOM      4  C3  UNL d   1       3.071   1.637   0.634  0.00  0.00     0.003 A 
ATOM      5  C4  UNL d   1       2.395   2.685   1.254  0.00  0.00    -0.005 A 
ATOM      6  C5  UNL d   1       1.004   2.664   1.334  0.00  0.00     0.003 A 
ATOM      7  C6  UNL d   1       0.289   1.595   0.791  0.00  0.00    -0.001 A 
ENDROOT
TORSDOF 0
ENDMDL
