MODEL 1
REMARK minimizedAffinity -3.11034513
REMARK minimizedRMSD -1
REMARK  0 active torsions:
REMARK  status: ('A' for Active; 'I' for Inactive)
ROOT
ATOM      1  C   UNL d   1      -0.653   0.430   0.691  0.00  0.00     0.078 C 
ATOM      2  C1  UNL d   1       0.599   1.245   0.822  0.00  0.00    -0.077 A 
ATOM      3  C2  UNL d   1       1.808   0.802   0.272  0.00  0.00    -0.001 A 
ATOM      4  C3  UNL d   1       2.968   1.567   0.410  0.00  0.00     0.003 A 
ATOM      5  C4  UNL d   1       2.930   2.778   1.098  0.00  0.00    -0.005 A 
ATOM      6  C5  UNL d   1       1.731   3.225   1.650  0.00  0.00     0.003 A 
ATOM      7  C6  UNL d   1       0.571   2.462   1.513  0.00  0.00    -0.001 A 
ENDROOT
TORSDOF 0
ENDMDL
