MODEL 1
REMARK minimizedAffinity -5.75213242
REMARK minimizedRMSD -1
REMARK  0 active torsions:
REMARK  status: ('A' for Active; 'I' for Inactive)
ROOT
ATOM      1  C   UNL d   1       3.408   1.633   0.074  0.00  0.00     0.078 C 
ATOM      2  C1  UNL d   1       2.035   1.237   0.530  0.00  0.00    -0.077 A 
ATOM      3  C2  UNL d   1       1.307   0.251  -0.147  0.00  0.00    -0.001 A 
ATOM      4  C3  UNL d   1       0.026  -0.100   0.282  0.00  0.00     0.003 A 
ATOM      5  C4  UNL d   1      -0.538   0.530   1.389  0.00  0.00    -0.005 A 
ATOM      6  C5  UNL d   1       0.177   1.515   2.067  0.00  0.00     0.003 A 
ATOM      7  C6  UNL d   1       1.458   1.867   1.640  0.00  0.00    -0.001 A 
ENDROOT
TORSDOF 0
ENDMDL
