MODEL 1
REMARK minimizedAffinity -5.11876726
REMARK minimizedRMSD -1
REMARK  1 active torsions:
REMARK  status: ('A' for Active; 'I' for Inactive)
REMARK    1  A    between atoms: C1_2  and  C2_3 
ROOT
ATOM      1  C2  UNL d   1      -0.809   3.009  -3.861  0.00  0.00    -0.077 A 
ATOM      2  C3  UNL d   1      -2.191   2.856  -4.036  0.00  0.00     0.002 A 
ATOM      3  C4  UNL d   1      -2.978   2.322  -3.014  0.00  0.00     0.002 A 
ATOM      4  C5  UNL d   1      -2.393   1.941  -1.809  0.00  0.00    -0.004 A 
ATOM      5  C6  UNL d   1      -1.018   2.087  -1.625  0.00  0.00     0.002 A 
ATOM      6  C7  UNL d   1      -0.230   2.620  -2.646  0.00  0.00     0.002 A 
ENDROOT
BRANCH   1   7
ATOM      7  C1  UNL d   1       0.034   3.631  -4.944  0.00  0.00     0.055 C 
ATOM      8  C   UNL d   1       0.528   5.011  -4.537  0.00  0.00     0.019 C 
ENDBRANCH   1   7
TORSDOF 1
ENDMDL
