MODEL 1
REMARK minimizedAffinity -5.15921259
REMARK minimizedRMSD -1
REMARK  1 active torsions:
REMARK  status: ('A' for Active; 'I' for Inactive)
REMARK    1  A    between atoms: C1_2  and  C2_3 
ROOT
ATOM      1  C2  UNL d   1      -0.011  -1.034   2.031  0.00  0.00    -0.077 A 
ATOM      2  C3  UNL d   1       1.113  -1.871   2.045  0.00  0.00     0.002 A 
ATOM      3  C4  UNL d   1       2.126  -1.709   1.098  0.00  0.00     0.002 A 
ATOM      4  C5  UNL d   1       2.027  -0.708   0.134  0.00  0.00    -0.004 A 
ATOM      5  C6  UNL d   1       0.912   0.128   0.111  0.00  0.00     0.002 A 
ATOM      6  C7  UNL d   1      -0.102  -0.033   1.055  0.00  0.00     0.002 A 
ENDROOT
BRANCH   1   7
ATOM      7  C1  UNL d   1      -1.082  -1.176   3.082  0.00  0.00     0.055 C 
ATOM      8  C   UNL d   1      -1.949   0.072   3.160  0.00  0.00     0.019 C 
ENDBRANCH   1   7
TORSDOF 1
ENDMDL
