MODEL 1
REMARK minimizedAffinity -5.57089233
REMARK minimizedRMSD -1
REMARK  1 active torsions:
REMARK  status: ('A' for Active; 'I' for Inactive)
REMARK    1  A    between atoms: C1_2  and  C2_3 
ROOT
ATOM      1  C2  UNL d   1       0.511  -1.763   1.506  0.00  0.00    -0.077 A 
ATOM      2  C3  UNL d   1       1.860  -1.990   1.202  0.00  0.00     0.002 A 
ATOM      3  C4  UNL d   1       2.478  -1.288   0.166  0.00  0.00     0.002 A 
ATOM      4  C5  UNL d   1       1.757  -0.351  -0.571  0.00  0.00    -0.004 A 
ATOM      5  C6  UNL d   1       0.413  -0.120  -0.278  0.00  0.00     0.002 A 
ATOM      6  C7  UNL d   1      -0.207  -0.821   0.757  0.00  0.00     0.002 A 
ENDROOT
BRANCH   1   7
ATOM      7  C1  UNL d   1      -0.145  -2.483   2.656  0.00  0.00     0.055 C 
ATOM      8  C   UNL d   1      -1.298  -1.674   3.231  0.00  0.00     0.019 C 
ENDBRANCH   1   7
TORSDOF 1
ENDMDL
