MODEL 1
REMARK minimizedAffinity -3.25943375
REMARK minimizedRMSD -1
REMARK  1 active torsions:
REMARK  status: ('A' for Active; 'I' for Inactive)
REMARK    1  A    between atoms: C1_2  and  C2_3 
ROOT
ATOM      1  C2  UNL d   1      -0.753  -0.761   1.476  0.00  0.00    -0.077 A 
ATOM      2  C3  UNL d   1      -1.500  -1.138   2.600  0.00  0.00     0.002 A 
ATOM      3  C4  UNL d   1      -1.125  -2.250   3.357  0.00  0.00     0.002 A 
ATOM      4  C5  UNL d   1      -0.001  -2.991   3.000  0.00  0.00    -0.004 A 
ATOM      5  C6  UNL d   1       0.748  -2.625   1.882  0.00  0.00     0.002 A 
ATOM      6  C7  UNL d   1       0.375  -1.515   1.124  0.00  0.00     0.002 A 
ENDROOT
BRANCH   1   7
ATOM      7  C1  UNL d   1      -1.127   0.467   0.687  0.00  0.00     0.055 C 
ATOM      8  C   UNL d   1       0.088   1.074  -0.000  0.00  0.00     0.019 C 
ENDBRANCH   1   7
TORSDOF 1
ENDMDL
