MODEL 1
REMARK minimizedAffinity -5.11293364
REMARK minimizedRMSD -1
REMARK  1 active torsions:
REMARK  status: ('A' for Active; 'I' for Inactive)
REMARK    1  A    between atoms: C1_2  and  C2_3 
ROOT
ATOM      1  C2  UNL d   1       0.569  -0.325   0.619  0.00  0.00    -0.077 A 
ATOM      2  C3  UNL d   1      -0.568  -0.489   1.422  0.00  0.00     0.002 A 
ATOM      3  C4  UNL d   1      -0.639  -1.538   2.340  0.00  0.00     0.002 A 
ATOM      4  C5  UNL d   1       0.425  -2.428   2.467  0.00  0.00    -0.004 A 
ATOM      5  C6  UNL d   1       1.560  -2.275   1.672  0.00  0.00     0.002 A 
ATOM      6  C7  UNL d   1       1.632  -1.228   0.753  0.00  0.00     0.002 A 
ENDROOT
BRANCH   1   7
ATOM      7  C1  UNL d   1       0.668   0.835  -0.337  0.00  0.00     0.055 C 
ATOM      8  C   UNL d   1      -0.696   1.204  -0.902  0.00  0.00     0.019 C 
ENDBRANCH   1   7
TORSDOF 1
ENDMDL
