MODEL 1
REMARK minimizedAffinity -4.44558096
REMARK minimizedRMSD -1
REMARK  1 active torsions:
REMARK  status: ('A' for Active; 'I' for Inactive)
REMARK    1  A    between atoms: C1_2  and  C2_3 
ROOT
ATOM      1  C2  UNL d   1      -0.054   0.286  -0.177  0.00  0.00    -0.077 A 
ATOM      2  C3  UNL d   1       1.252   0.259  -0.687  0.00  0.00     0.002 A 
ATOM      3  C4  UNL d   1       2.077  -0.844  -0.457  0.00  0.00     0.002 A 
ATOM      4  C5  UNL d   1       1.605  -1.929   0.278  0.00  0.00    -0.004 A 
ATOM      5  C6  UNL d   1       0.308  -1.911   0.792  0.00  0.00     0.002 A 
ATOM      6  C7  UNL d   1      -0.517  -0.809   0.564  0.00  0.00     0.002 A 
ENDROOT
BRANCH   1   7
ATOM      7  C1  UNL d   1      -0.962   1.452  -0.465  0.00  0.00     0.055 C 
ATOM      8  C   UNL d   1      -1.165   1.639  -1.962  0.00  0.00     0.019 C 
ENDBRANCH   1   7
TORSDOF 1
ENDMDL
