MODEL 1
REMARK minimizedAffinity -5.67309141
REMARK minimizedRMSD -1
REMARK  1 active torsions:
REMARK  status: ('A' for Active; 'I' for Inactive)
REMARK    1  A    between atoms: C1_2  and  C2_3 
ROOT
ATOM      1  C2  UNL d   1       0.721  -1.106   0.518  0.00  0.00    -0.077 A 
ATOM      2  C3  UNL d   1       1.015   0.026  -0.256  0.00  0.00     0.002 A 
ATOM      3  C4  UNL d   1       0.188   1.149  -0.208  0.00  0.00     0.002 A 
ATOM      4  C5  UNL d   1      -0.937   1.153   0.615  0.00  0.00    -0.004 A 
ATOM      5  C6  UNL d   1      -1.239   0.032   1.387  0.00  0.00     0.002 A 
ATOM      6  C7  UNL d   1      -0.414  -1.092   1.339  0.00  0.00     0.002 A 
ENDROOT
BRANCH   1   7
ATOM      7  C1  UNL d   1       1.640  -2.299   0.505  0.00  0.00     0.055 C 
ATOM      8  C   UNL d   1       1.323  -3.254   1.648  0.00  0.00     0.019 C 
ENDBRANCH   1   7
TORSDOF 1
ENDMDL
