MODEL 1
REMARK minimizedAffinity -4.43748903
REMARK minimizedRMSD -1
REMARK  1 active torsions:
REMARK  status: ('A' for Active; 'I' for Inactive)
REMARK    1  A    between atoms: C1_2  and  C2_3 
ROOT
ATOM      1  C2  UNL d   1      -0.264   0.274  -0.197  0.00  0.00    -0.077 A 
ATOM      2  C3  UNL d   1      -0.613  -0.858   0.552  0.00  0.00     0.002 A 
ATOM      3  C4  UNL d   1       0.356  -1.801   0.900  0.00  0.00     0.002 A 
ATOM      4  C5  UNL d   1       1.680  -1.620   0.506  0.00  0.00    -0.004 A 
ATOM      5  C6  UNL d   1       2.037  -0.499  -0.242  0.00  0.00     0.002 A 
ATOM      6  C7  UNL d   1       1.070   0.445  -0.591  0.00  0.00     0.002 A 
ENDROOT
BRANCH   1   7
ATOM      7  C1  UNL d   1      -1.298   1.318  -0.531  0.00  0.00     0.055 C 
ATOM      8  C   UNL d   1      -1.466   1.469  -2.036  0.00  0.00     0.019 C 
ENDBRANCH   1   7
TORSDOF 1
ENDMDL
