MODEL 1
REMARK minimizedAffinity -4.29811478
REMARK minimizedRMSD -1
REMARK  1 active torsions:
REMARK  status: ('A' for Active; 'I' for Inactive)
REMARK    1  A    between atoms: C1_2  and  C2_3 
ROOT
ATOM      1  C2  UNL d   1      -0.481  -0.676   0.532  0.00  0.00    -0.077 A 
ATOM      2  C3  UNL d   1       0.748  -1.181   0.085  0.00  0.00     0.002 A 
ATOM      3  C4  UNL d   1       1.472  -2.077   0.873  0.00  0.00     0.002 A 
ATOM      4  C5  UNL d   1       0.973  -2.479   2.110  0.00  0.00    -0.004 A 
ATOM      5  C6  UNL d   1      -0.247  -1.981   2.564  0.00  0.00     0.002 A 
ATOM      6  C7  UNL d   1      -0.972  -1.084   1.778  0.00  0.00     0.002 A 
ENDROOT
BRANCH   1   7
ATOM      7  C1  UNL d   1      -1.287   0.253  -0.339  0.00  0.00     0.055 C 
ATOM      8  C   UNL d   1      -0.531   1.544  -0.619  0.00  0.00     0.019 C 
ENDBRANCH   1   7
TORSDOF 1
ENDMDL
