MODEL 1
REMARK minimizedAffinity -5.61334562
REMARK minimizedRMSD -1
REMARK  1 active torsions:
REMARK  status: ('A' for Active; 'I' for Inactive)
REMARK    1  A    between atoms: C1_2  and  C2_3 
ROOT
ATOM      1  C2  UNL d   1       0.120  -0.027  -0.144  0.00  0.00    -0.077 A 
ATOM      2  C3  UNL d   1      -0.519  -0.947   0.698  0.00  0.00     0.002 A 
ATOM      3  C4  UNL d   1       0.144  -2.103   1.113  0.00  0.00     0.002 A 
ATOM      4  C5  UNL d   1       1.451  -2.348   0.696  0.00  0.00    -0.004 A 
ATOM      5  C6  UNL d   1       2.095  -1.439  -0.143  0.00  0.00     0.002 A 
ATOM      6  C7  UNL d   1       1.433  -0.284  -0.561  0.00  0.00     0.002 A 
ENDROOT
BRANCH   1   7
ATOM      7  C1  UNL d   1      -0.576   1.245  -0.554  0.00  0.00     0.055 C 
ATOM      8  C   UNL d   1      -1.436   1.032  -1.791  0.00  0.00     0.019 C 
ENDBRANCH   1   7
TORSDOF 1
ENDMDL
