MODEL 1
REMARK minimizedAffinity -4.55742693
REMARK minimizedRMSD -1
REMARK  1 active torsions:
REMARK  status: ('A' for Active; 'I' for Inactive)
REMARK    1  A    between atoms: C1_2  and  C2_3 
ROOT
ATOM      1  C2  UNL d   1      -0.288   0.786  -0.415  0.00  0.00    -0.077 A 
ATOM      2  C3  UNL d   1       1.072   0.796  -0.758  0.00  0.00     0.002 A 
ATOM      3  C4  UNL d   1       1.902  -0.262  -0.383  0.00  0.00     0.002 A 
ATOM      4  C5  UNL d   1       1.382  -1.338   0.333  0.00  0.00    -0.004 A 
ATOM      5  C6  UNL d   1       0.032  -1.356   0.681  0.00  0.00     0.002 A 
ATOM      6  C7  UNL d   1      -0.799  -0.299   0.308  0.00  0.00     0.002 A 
ENDROOT
BRANCH   1   7
ATOM      7  C1  UNL d   1      -1.196   1.902  -0.861  0.00  0.00     0.055 C 
ATOM      8  C   UNL d   1      -1.912   1.549  -2.156  0.00  0.00     0.019 C 
ENDBRANCH   1   7
TORSDOF 1
ENDMDL
