MODEL 1
REMARK minimizedAffinity -3.20634651
REMARK minimizedRMSD -1
REMARK  1 active torsions:
REMARK  status: ('A' for Active; 'I' for Inactive)
REMARK    1  A    between atoms: C1_2  and  C2_3 
ROOT
ATOM      1  C2  UNL d   1      -0.781   0.508   0.210  0.00  0.00    -0.077 A 
ATOM      2  C3  UNL d   1      -0.305  -0.795   0.006  0.00  0.00     0.002 A 
ATOM      3  C4  UNL d   1      -0.723  -1.838   0.835  0.00  0.00     0.002 A 
ATOM      4  C5  UNL d   1      -1.621  -1.589   1.871  0.00  0.00    -0.004 A 
ATOM      5  C6  UNL d   1      -2.098  -0.296   2.084  0.00  0.00     0.002 A 
ATOM      6  C7  UNL d   1      -1.681   0.747   1.256  0.00  0.00     0.002 A 
ENDROOT
BRANCH   1   7
ATOM      7  C1  UNL d   1      -0.370   1.624  -0.714  0.00  0.00     0.055 C 
ATOM      8  C   UNL d   1      -1.450   1.913  -1.747  0.00  0.00     0.019 C 
ENDBRANCH   1   7
TORSDOF 1
ENDMDL
