MODEL 1
REMARK minimizedAffinity -5.48088074
REMARK minimizedRMSD -1
REMARK  1 active torsions:
REMARK  status: ('A' for Active; 'I' for Inactive)
REMARK    1  A    between atoms: C1_2  and  C2_3 
ROOT
ATOM      1  C2  UNL d   1      -0.582  -1.460   1.757  0.00  0.00    -0.077 A 
ATOM      2  C3  UNL d   1       0.120  -2.500   2.382  0.00  0.00     0.002 A 
ATOM      3  C4  UNL d   1       1.344  -2.933   1.869  0.00  0.00     0.002 A 
ATOM      4  C5  UNL d   1       1.878  -2.331   0.731  0.00  0.00    -0.004 A 
ATOM      5  C6  UNL d   1       1.186  -1.297   0.101  0.00  0.00     0.002 A 
ATOM      6  C7  UNL d   1      -0.038  -0.863   0.612  0.00  0.00     0.002 A 
ENDROOT
BRANCH   1   7
ATOM      7  C1  UNL d   1      -1.878  -0.957   2.337  0.00  0.00     0.055 C 
ATOM      8  C   UNL d   1      -2.289  -1.768   3.558  0.00  0.00     0.019 C 
ENDBRANCH   1   7
TORSDOF 1
ENDMDL
