MODEL 1
REMARK minimizedAffinity -3.4253552
REMARK minimizedRMSD -1
REMARK  0 active torsions:
REMARK  status: ('A' for Active; 'I' for Inactive)
ROOT
ATOM      1  C1  BNZ d   1      -0.802   0.556   2.949  0.00  0.00     0.000 A 
ATOM      2  C2  BNZ d   1      -0.439   1.043   1.722  0.00  0.00     0.000 A 
ATOM      3  C3  BNZ d   1      -0.515   0.256   0.607  0.00  0.00     0.000 A 
ATOM      4  C4  BNZ d   1      -0.915  -1.026   0.726  0.00  0.00     0.000 A 
ATOM      5  C5  BNZ d   1      -1.275  -1.535   1.958  0.00  0.00     0.000 A 
ATOM      6  C6  BNZ d   1      -1.234  -0.729   3.072  0.00  0.00     0.000 A 
ENDROOT
TORSDOF 0
ENDMDL
