MODEL 1
REMARK minimizedAffinity -3.94626045
REMARK minimizedRMSD -1
REMARK  0 active torsions:
REMARK  status: ('A' for Active; 'I' for Inactive)
ROOT
ATOM      1  C1  BNZ d   1      -1.326  -0.479   1.155  0.00  0.00     0.000 A 
ATOM      2  C2  BNZ d   1      -0.694  -0.329   2.360  0.00  0.00     0.000 A 
ATOM      3  C3  BNZ d   1       0.657  -0.130   2.422  0.00  0.00     0.000 A 
ATOM      4  C4  BNZ d   1       1.379  -0.120   1.283  0.00  0.00     0.000 A 
ATOM      5  C5  BNZ d   1       0.757  -0.279   0.060  0.00  0.00     0.000 A 
ATOM      6  C6  BNZ d   1      -0.608  -0.441  -0.000  0.00  0.00     0.000 A 
ENDROOT
TORSDOF 0
ENDMDL
