MODEL 1
REMARK minimizedAffinity -4.08730221
REMARK minimizedRMSD -1
REMARK  0 active torsions:
REMARK  status: ('A' for Active; 'I' for Inactive)
ROOT
ATOM      1  C1  BNZ d   1      -1.141  -0.970   1.964  0.00  0.00     0.000 A 
ATOM      2  C2  BNZ d   1      -0.293  -0.582   2.966  0.00  0.00     0.000 A 
ATOM      3  C3  BNZ d   1       0.914  -0.008   2.678  0.00  0.00     0.000 A 
ATOM      4  C4  BNZ d   1       1.288   0.140   1.390  0.00  0.00     0.000 A 
ATOM      5  C5  BNZ d   1       0.447  -0.255   0.369  0.00  0.00     0.000 A 
ATOM      6  C6  BNZ d   1      -0.783  -0.797   0.662  0.00  0.00     0.000 A 
ENDROOT
TORSDOF 0
ENDMDL
