MODEL 1
REMARK minimizedAffinity -4.94454193
REMARK minimizedRMSD -1
REMARK  0 active torsions:
REMARK  status: ('A' for Active; 'I' for Inactive)
ROOT
ATOM      1  C1  BNZ d   1       0.569   0.218   1.320  0.00  0.00     0.000 A 
ATOM      2  C2  BNZ d   1       0.360   0.072   2.665  0.00  0.00     0.000 A 
ATOM      3  C3  BNZ d   1      -0.897  -0.136   3.160  0.00  0.00     0.000 A 
ATOM      4  C4  BNZ d   1      -1.947  -0.157   2.314  0.00  0.00     0.000 A 
ATOM      5  C5  BNZ d   1      -1.754  -0.002   0.956  0.00  0.00     0.000 A 
ATOM      6  C6  BNZ d   1      -0.483   0.168   0.458  0.00  0.00     0.000 A 
ENDROOT
TORSDOF 0
ENDMDL
