MODEL 1
REMARK minimizedAffinity -4.27872419
REMARK minimizedRMSD -1
REMARK  0 active torsions:
REMARK  status: ('A' for Active; 'I' for Inactive)
ROOT
ATOM      1  C1  BNZ d   1      -1.286  -0.600   1.128  0.00  0.00     0.000 A 
ATOM      2  C2  BNZ d   1      -0.863   0.085   0.021  0.00  0.00     0.000 A 
ATOM      3  C3  BNZ d   1       0.274   0.842   0.058  0.00  0.00     0.000 A 
ATOM      4  C4  BNZ d   1       0.964   0.946   1.213  0.00  0.00     0.000 A 
ATOM      5  C5  BNZ d   1       0.545   0.269   2.341  0.00  0.00     0.000 A 
ATOM      6  C6  BNZ d   1      -0.579  -0.524   2.288  0.00  0.00     0.000 A 
ENDROOT
TORSDOF 0
ENDMDL
