MODEL 1
REMARK minimizedAffinity -4.94254303
REMARK minimizedRMSD -1
REMARK  0 active torsions:
REMARK  status: ('A' for Active; 'I' for Inactive)
ROOT
ATOM      1  C1  BNZ d   1      -1.921   0.457   1.065  0.00  0.00     0.000 A 
ATOM      2  C2  BNZ d   1      -1.788  -0.210   2.254  0.00  0.00     0.000 A 
ATOM      3  C3  BNZ d   1      -0.586  -0.746   2.625  0.00  0.00     0.000 A 
ATOM      4  C4  BNZ d   1       0.469  -0.649   1.790  0.00  0.00     0.000 A 
ATOM      5  C5  BNZ d   1       0.348   0.012   0.584  0.00  0.00     0.000 A 
ATOM      6  C6  BNZ d   1      -0.853   0.584   0.232  0.00  0.00     0.000 A 
ENDROOT
TORSDOF 0
ENDMDL
