MODEL 1
REMARK minimizedAffinity -4.85340071
REMARK minimizedRMSD -1
REMARK  0 active torsions:
REMARK  status: ('A' for Active; 'I' for Inactive)
ROOT
ATOM      1  C1  BNZ d   1       1.548   0.289   1.081  0.00  0.00     0.000 A 
ATOM      2  C2  BNZ d   1       0.979  -0.004   2.292  0.00  0.00     0.000 A 
ATOM      3  C3  BNZ d   1      -0.361  -0.254   2.393  0.00  0.00     0.000 A 
ATOM      4  C4  BNZ d   1      -1.136  -0.170   1.292  0.00  0.00     0.000 A 
ATOM      5  C5  BNZ d   1      -0.578   0.134   0.066  0.00  0.00     0.000 A 
ATOM      6  C6  BNZ d   1       0.777   0.346  -0.039  0.00  0.00     0.000 A 
ENDROOT
TORSDOF 0
ENDMDL
