MODEL 1
REMARK minimizedAffinity -3.99040866
REMARK minimizedRMSD -1
REMARK  0 active torsions:
REMARK  status: ('A' for Active; 'I' for Inactive)
ROOT
ATOM      1  C1  BNZ d   1      -1.857  -0.507   0.895  0.00  0.00     0.000 A 
ATOM      2  C2  BNZ d   1      -2.116   0.216  -0.239  0.00  0.00     0.000 A 
ATOM      3  C3  BNZ d   1      -1.159   1.025  -0.786  0.00  0.00     0.000 A 
ATOM      4  C4  BNZ d   1       0.039   1.140  -0.178  0.00  0.00     0.000 A 
ATOM      5  C5  BNZ d   1       0.312   0.424   0.971  0.00  0.00     0.000 A 
ATOM      6  C6  BNZ d   1      -0.640  -0.419   1.497  0.00  0.00     0.000 A 
ENDROOT
TORSDOF 0
ENDMDL
