MODEL 1
REMARK minimizedAffinity -4.22545671
REMARK minimizedRMSD -1
REMARK  0 active torsions:
REMARK  status: ('A' for Active; 'I' for Inactive)
ROOT
ATOM      1  C1  BNZ d   1       0.010  -0.031   2.926  0.00  0.00     0.000 A 
ATOM      2  C2  BNZ d   1       0.359   0.311   1.647  0.00  0.00     0.000 A 
ATOM      3  C3  BNZ d   1      -0.515   0.130   0.611  0.00  0.00     0.000 A 
ATOM      4  C4  BNZ d   1      -1.719  -0.427   0.850  0.00  0.00     0.000 A 
ATOM      5  C5  BNZ d   1      -2.082  -0.785   2.133  0.00  0.00     0.000 A 
ATOM      6  C6  BNZ d   1      -1.215  -0.566   3.179  0.00  0.00     0.000 A 
ENDROOT
TORSDOF 0
ENDMDL
