MODEL 1
REMARK minimizedAffinity -0.0148523543
REMARK minimizedRMSD -1
REMARK  0 active torsions:
REMARK  status: ('A' for Active; 'I' for Inactive)
ROOT
ATOM      1  C1  BNZ d   1      -1.034   0.923  -0.891  0.00  0.00     0.000 A 
ATOM      2  C2  BNZ d   1       0.103   0.241  -0.547  0.00  0.00     0.000 A 
ATOM      3  C3  BNZ d   1       0.032  -0.926   0.163  0.00  0.00     0.000 A 
ATOM      4  C4  BNZ d   1      -1.171  -1.387   0.561  0.00  0.00     0.000 A 
ATOM      5  C5  BNZ d   1      -2.326  -0.706   0.230  0.00  0.00     0.000 A 
ATOM      6  C6  BNZ d   1      -2.253   0.447  -0.517  0.00  0.00     0.000 A 
ENDROOT
TORSDOF 0
ENDMDL
