MODEL 1
REMARK minimizedAffinity -2.89324498
REMARK minimizedRMSD -1
REMARK  0 active torsions:
REMARK  status: ('A' for Active; 'I' for Inactive)
ROOT
ATOM      1  C1  BNZ d   1       0.120   0.382   2.487  0.00  0.00     0.000 A 
ATOM      2  C2  BNZ d   1       0.650   0.895   1.333  0.00  0.00     0.000 A 
ATOM      3  C3  BNZ d   1       0.584   0.194   0.161  0.00  0.00     0.000 A 
ATOM      4  C4  BNZ d   1       0.026  -1.034   0.154  0.00  0.00     0.000 A 
ATOM      5  C5  BNZ d   1      -0.503  -1.568   1.311  0.00  0.00     0.000 A 
ATOM      6  C6  BNZ d   1      -0.471  -0.844   2.480  0.00  0.00     0.000 A 
ENDROOT
TORSDOF 0
ENDMDL
