MODEL 1
REMARK minimizedAffinity -0.0176440179
REMARK minimizedRMSD -1
REMARK  0 active torsions:
REMARK  status: ('A' for Active; 'I' for Inactive)
ROOT
ATOM      1  C1  BNZ d   1       0.635   0.289  -0.007  0.00  0.00     0.000 A 
ATOM      2  C2  BNZ d   1      -0.526   0.245  -0.732  0.00  0.00     0.000 A 
ATOM      3  C3  BNZ d   1      -1.731   0.504  -0.141  0.00  0.00     0.000 A 
ATOM      4  C4  BNZ d   1      -1.778   0.768   1.181  0.00  0.00     0.000 A 
ATOM      5  C5  BNZ d   1      -0.617   0.807   1.927  0.00  0.00     0.000 A 
ATOM      6  C6  BNZ d   1       0.598   0.583   1.321  0.00  0.00     0.000 A 
ENDROOT
TORSDOF 0
ENDMDL
