MODEL 1
REMARK minimizedAffinity -3.37148809
REMARK minimizedRMSD -1
REMARK  0 active torsions:
REMARK  status: ('A' for Active; 'I' for Inactive)
ROOT
ATOM      1  C1  BNZ d   1       0.193   0.243   2.951  0.00  0.00     0.000 A 
ATOM      2  C2  BNZ d   1       0.690   0.796   1.801  0.00  0.00     0.000 A 
ATOM      3  C3  BNZ d   1       0.336   0.302   0.577  0.00  0.00     0.000 A 
ATOM      4  C4  BNZ d   1      -0.481  -0.769   0.505  0.00  0.00     0.000 A 
ATOM      5  C5  BNZ d   1      -0.984  -1.343   1.655  0.00  0.00     0.000 A 
ATOM      6  C6  BNZ d   1      -0.656  -0.818   2.885  0.00  0.00     0.000 A 
ENDROOT
TORSDOF 0
ENDMDL
