MODEL 1
REMARK minimizedAffinity -4.10164881
REMARK minimizedRMSD -1
REMARK  0 active torsions:
REMARK  status: ('A' for Active; 'I' for Inactive)
ROOT
ATOM      1  C1  BNZ d   1      -0.817  -0.457   0.658  0.00  0.00     0.000 A 
ATOM      2  C2  BNZ d   1      -1.015  -0.689   1.993  0.00  0.00     0.000 A 
ATOM      3  C3  BNZ d   1      -0.113  -0.250   2.921  0.00  0.00     0.000 A 
ATOM      4  C4  BNZ d   1       1.004   0.384   2.512  0.00  0.00     0.000 A 
ATOM      5  C5  BNZ d   1       1.223   0.618   1.169  0.00  0.00     0.000 A 
ATOM      6  C6  BNZ d   1       0.293   0.209   0.240  0.00  0.00     0.000 A 
ENDROOT
TORSDOF 0
ENDMDL
