MODEL 1
REMARK minimizedAffinity -5.87822199
REMARK minimizedRMSD -1
REMARK  1 active torsions:
REMARK  status: ('A' for Active; 'I' for Inactive)
REMARK    1  A    between atoms: C1_2  and  C2_3 
ROOT
ATOM      1  C2  UNL d   1      -0.105   0.226   0.423  0.00  0.00    -0.076 A 
ATOM      2  C3  UNL d   1       1.034   0.154   1.244  0.00  0.00     0.004 A 
ATOM      3  C4  UNL d   1       0.945  -0.315   2.554  0.00  0.00    -0.003 A 
ATOM      4  C5  UNL d   1      -0.284  -0.719   3.063  0.00  0.00     0.000 A 
ATOM      5  C6  UNL d   1      -1.421  -0.671   2.257  0.00  0.00     0.000 A 
ATOM      6  C7  UNL d   1      -1.345  -0.217   0.929  0.00  0.00    -0.073 A 
ATOM      7  C8  UNL d   1      -2.604  -0.181   0.106  0.00  0.00     0.078 C 
ENDROOT
BRANCH   1   8
ATOM      8  C1  UNL d   1       0.047   0.768  -0.981  0.00  0.00     0.053 C 
ATOM      9  C   UNL d   1       0.520  -0.290  -1.966  0.00  0.00     0.018 C 
ENDBRANCH   1   8
TORSDOF 1
ENDMDL
