MODEL 1
REMARK minimizedAffinity -6.1832304
REMARK minimizedRMSD -1
REMARK  1 active torsions:
REMARK  status: ('A' for Active; 'I' for Inactive)
REMARK    1  A    between atoms: C1_2  and  C2_3 
ROOT
ATOM      1  C2  UNL d   1      -0.834   0.061   0.960  0.00  0.00    -0.076 A 
ATOM      2  C3  UNL d   1       0.202  -0.412   1.784  0.00  0.00     0.004 A 
ATOM      3  C4  UNL d   1      -0.043  -0.777   3.107  0.00  0.00    -0.003 A 
ATOM      4  C5  UNL d   1      -1.328  -0.676   3.627  0.00  0.00     0.000 A 
ATOM      5  C6  UNL d   1      -2.371  -0.225   2.819  0.00  0.00     0.000 A 
ATOM      6  C7  UNL d   1      -2.145   0.131   1.479  0.00  0.00    -0.073 A 
ATOM      7  C8  UNL d   1      -3.306   0.616   0.654  0.00  0.00     0.078 C 
ENDROOT
BRANCH   1   8
ATOM      8  C1  UNL d   1      -0.503   0.468  -0.458  0.00  0.00     0.053 C 
ATOM      9  C   UNL d   1       0.674  -0.308  -1.027  0.00  0.00     0.018 C 
ENDBRANCH   1   8
TORSDOF 1
ENDMDL
