MODEL 1
REMARK minimizedAffinity -3.60169673
REMARK minimizedRMSD -1
REMARK  1 active torsions:
REMARK  status: ('A' for Active; 'I' for Inactive)
REMARK    1  A    between atoms: C1_2  and  C2_3 
ROOT
ATOM      1  C2  UNL d   1      -0.262  -0.471   1.803  0.00  0.00    -0.076 A 
ATOM      2  C3  UNL d   1      -1.483  -0.352   1.116  0.00  0.00     0.004 A 
ATOM      3  C4  UNL d   1      -1.558   0.320  -0.103  0.00  0.00    -0.003 A 
ATOM      4  C5  UNL d   1      -0.413   0.884  -0.655  0.00  0.00     0.000 A 
ATOM      5  C6  UNL d   1       0.810   0.760   0.004  0.00  0.00     0.000 A 
ATOM      6  C7  UNL d   1       0.906   0.072   1.225  0.00  0.00    -0.073 A 
ATOM      7  C8  UNL d   1       2.249  -0.026   1.895  0.00  0.00     0.078 C 
ENDROOT
BRANCH   1   8
ATOM      8  C1  UNL d   1      -0.247  -1.188   3.134  0.00  0.00     0.053 C 
ATOM      9  C   UNL d   1      -1.491  -0.906   3.962  0.00  0.00     0.018 C 
ENDBRANCH   1   8
TORSDOF 1
ENDMDL
