MODEL 1
REMARK minimizedAffinity 0.166208699
REMARK minimizedRMSD -1
REMARK  1 active torsions:
REMARK  status: ('A' for Active; 'I' for Inactive)
REMARK    1  A    between atoms: C1_2  and  C2_3 
ROOT
ATOM      1  C2  UNL d   1      -0.954  -0.399   0.754  0.00  0.00    -0.076 A 
ATOM      2  C3  UNL d   1       0.351  -0.498   0.242  0.00  0.00     0.004 A 
ATOM      3  C4  UNL d   1       0.679   0.047  -0.998  0.00  0.00    -0.003 A 
ATOM      4  C5  UNL d   1      -0.294   0.701  -1.746  0.00  0.00     0.000 A 
ATOM      5  C6  UNL d   1      -1.590   0.824  -1.246  0.00  0.00     0.000 A 
ATOM      6  C7  UNL d   1      -1.932   0.294   0.010  0.00  0.00    -0.073 A 
ATOM      7  C8  UNL d   1      -3.346   0.451   0.498  0.00  0.00     0.078 C 
ENDROOT
BRANCH   1   8
ATOM      8  C1  UNL d   1      -1.257  -1.033   2.093  0.00  0.00     0.053 C 
ATOM      9  C   UNL d   1      -1.012  -0.085   3.256  0.00  0.00     0.018 C 
ENDBRANCH   1   8
TORSDOF 1
ENDMDL
