MODEL 1
REMARK minimizedAffinity -6.18816328
REMARK minimizedRMSD -1
REMARK  1 active torsions:
REMARK  status: ('A' for Active; 'I' for Inactive)
REMARK    1  A    between atoms: C1_2  and  C2_3 
ROOT
ATOM      1  C2  UNL d   1      -0.370   0.238  -0.187  0.00  0.00    -0.076 A 
ATOM      2  C3  UNL d   1       0.355  -0.331   0.874  0.00  0.00     0.004 A 
ATOM      3  C4  UNL d   1      -0.203  -0.441   2.147  0.00  0.00    -0.003 A 
ATOM      4  C5  UNL d   1      -1.495   0.017   2.379  0.00  0.00     0.000 A 
ATOM      5  C6  UNL d   1      -2.235   0.569   1.334  0.00  0.00     0.000 A 
ATOM      6  C7  UNL d   1      -1.694   0.672   0.041  0.00  0.00    -0.073 A 
ATOM      7  C8  UNL d   1      -2.534   1.281  -1.047  0.00  0.00     0.078 C 
ENDROOT
BRANCH   1   8
ATOM      8  C1  UNL d   1       0.297   0.355  -1.539  0.00  0.00     0.053 C 
ATOM      9  C   UNL d   1      -0.060  -0.796  -2.466  0.00  0.00     0.018 C 
ENDBRANCH   1   8
TORSDOF 1
ENDMDL
