MODEL 1
REMARK minimizedAffinity -2.18314791
REMARK minimizedRMSD -1
REMARK  1 active torsions:
REMARK  status: ('A' for Active; 'I' for Inactive)
REMARK    1  A    between atoms: C1_2  and  C2_3 
ROOT
ATOM      1  C2  UNL d   1      -0.442  -0.401   1.407  0.00  0.00    -0.076 A 
ATOM      2  C3  UNL d   1       0.866   0.076   1.215  0.00  0.00     0.004 A 
ATOM      3  C4  UNL d   1       1.244   0.669   0.012  0.00  0.00    -0.003 A 
ATOM      4  C5  UNL d   1       0.319   0.797  -1.018  0.00  0.00     0.000 A 
ATOM      5  C6  UNL d   1      -0.989   0.346  -0.839  0.00  0.00     0.000 A 
ATOM      6  C7  UNL d   1      -1.390  -0.241   0.374  0.00  0.00    -0.073 A 
ATOM      7  C8  UNL d   1      -2.811  -0.715   0.511  0.00  0.00     0.078 C 
ENDROOT
BRANCH   1   8
ATOM      8  C1  UNL d   1      -0.787  -1.061   2.724  0.00  0.00     0.053 C 
ATOM      9  C   UNL d   1      -0.539  -0.148   3.915  0.00  0.00     0.018 C 
ENDBRANCH   1   8
TORSDOF 1
ENDMDL
