MODEL 1
REMARK minimizedAffinity -5.35766363
REMARK minimizedRMSD -1
REMARK  1 active torsions:
REMARK  status: ('A' for Active; 'I' for Inactive)
REMARK    1  A    between atoms: C1_2  and  C2_3 
ROOT
ATOM      1  C2  UNL d   1      -0.711   0.396   0.703  0.00  0.00    -0.076 A 
ATOM      2  C3  UNL d   1      -2.021   0.771   0.357  0.00  0.00     0.004 A 
ATOM      3  C4  UNL d   1      -3.067   0.647   1.269  0.00  0.00    -0.003 A 
ATOM      4  C5  UNL d   1      -2.821   0.147   2.543  0.00  0.00     0.000 A 
ATOM      5  C6  UNL d   1      -1.524  -0.213   2.910  0.00  0.00     0.000 A 
ATOM      6  C7  UNL d   1      -0.455  -0.080   2.007  0.00  0.00    -0.073 A 
ATOM      7  C8  UNL d   1       0.922  -0.489   2.454  0.00  0.00     0.078 C 
ENDROOT
BRANCH   1   8
ATOM      8  C1  UNL d   1       0.379   0.527  -0.337  0.00  0.00     0.053 C 
ATOM      9  C   UNL d   1       0.429  -0.664  -1.281  0.00  0.00     0.018 C 
ENDBRANCH   1   8
TORSDOF 1
ENDMDL
