MODEL 1
REMARK minimizedAffinity -6.34055614
REMARK minimizedRMSD -1
REMARK  1 active torsions:
REMARK  status: ('A' for Active; 'I' for Inactive)
REMARK    1  A    between atoms: C1_2  and  C2_3 
ROOT
ATOM      1  C2  UNL d   1      -0.201   0.203   0.473  0.00  0.00    -0.076 A 
ATOM      2  C3  UNL d   1      -1.497  -0.175   0.866  0.00  0.00     0.004 A 
ATOM      3  C4  UNL d   1      -1.751  -0.630   2.159  0.00  0.00    -0.003 A 
ATOM      4  C5  UNL d   1      -0.713  -0.714   3.080  0.00  0.00     0.000 A 
ATOM      5  C6  UNL d   1       0.575  -0.326   2.713  0.00  0.00     0.000 A 
ATOM      6  C7  UNL d   1       0.845   0.150   1.419  0.00  0.00    -0.073 A 
ATOM      7  C8  UNL d   1       2.255   0.549   1.075  0.00  0.00     0.078 C 
ENDROOT
BRANCH   1   8
ATOM      8  C1  UNL d   1       0.019   0.663  -0.950  0.00  0.00     0.053 C 
ATOM      9  C   UNL d   1       0.444  -0.472  -1.870  0.00  0.00     0.018 C 
ENDBRANCH   1   8
TORSDOF 1
ENDMDL
