MODEL 1
REMARK minimizedAffinity -5.05458021
REMARK minimizedRMSD -1
REMARK  1 active torsions:
REMARK  status: ('A' for Active; 'I' for Inactive)
REMARK    1  A    between atoms: C1_2  and  C2_3 
ROOT
ATOM      1  C2  UNL d   1      -0.330  -0.057   0.275  0.00  0.00    -0.076 A 
ATOM      2  C3  UNL d   1      -1.675  -0.305   0.600  0.00  0.00     0.004 A 
ATOM      3  C4  UNL d   1      -2.058  -0.570   1.914  0.00  0.00    -0.003 A 
ATOM      4  C5  UNL d   1      -1.102  -0.589   2.924  0.00  0.00     0.000 A 
ATOM      5  C6  UNL d   1       0.234  -0.328   2.622  0.00  0.00     0.000 A 
ATOM      6  C7  UNL d   1       0.634  -0.043   1.305  0.00  0.00    -0.073 A 
ATOM      7  C8  UNL d   1       2.089   0.225   1.035  0.00  0.00     0.078 C 
ENDROOT
BRANCH   1   8
ATOM      8  C1  UNL d   1       0.030   0.196  -1.172  0.00  0.00     0.053 C 
ATOM      9  C   UNL d   1      -0.009  -1.070  -2.013  0.00  0.00     0.018 C 
ENDBRANCH   1   8
TORSDOF 1
ENDMDL
