MODEL 1
REMARK minimizedAffinity -0.0783225074
REMARK minimizedRMSD -1
REMARK  1 active torsions:
REMARK  status: ('A' for Active; 'I' for Inactive)
REMARK    1  A    between atoms: C1_2  and  C2_3 
ROOT
ATOM      1  C2  UNL d   1      -0.253  -0.022   0.072  0.00  0.00    -0.076 A 
ATOM      2  C3  UNL d   1      -1.266  -0.992  -0.030  0.00  0.00     0.004 A 
ATOM      3  C4  UNL d   1      -1.786  -1.609   1.107  0.00  0.00    -0.003 A 
ATOM      4  C5  UNL d   1      -1.302  -1.265   2.365  0.00  0.00     0.000 A 
ATOM      5  C6  UNL d   1      -0.310  -0.292   2.486  0.00  0.00     0.000 A 
ATOM      6  C7  UNL d   1       0.213   0.351   1.351  0.00  0.00    -0.073 A 
ATOM      7  C8  UNL d   1       1.286   1.389   1.540  0.00  0.00     0.078 C 
ENDROOT
BRANCH   1   8
ATOM      8  C1  UNL d   1       0.292   0.593  -1.197  0.00  0.00     0.053 C 
ATOM      9  C   UNL d   1       1.074  -0.404  -2.038  0.00  0.00     0.018 C 
ENDBRANCH   1   8
TORSDOF 1
ENDMDL
