MODEL 1
REMARK minimizedAffinity -3.4051733
REMARK minimizedRMSD -1
REMARK  1 active torsions:
REMARK  status: ('A' for Active; 'I' for Inactive)
REMARK    1  A    between atoms: C1_2  and  C2_3 
ROOT
ATOM      1  C2  UNL d   1      -0.788  -0.040   1.694  0.00  0.00    -0.076 A 
ATOM      2  C3  UNL d   1      -2.116  -0.090   1.237  0.00  0.00     0.004 A 
ATOM      3  C4  UNL d   1      -2.425   0.152  -0.100  0.00  0.00    -0.003 A 
ATOM      4  C5  UNL d   1      -1.409   0.449  -1.003  0.00  0.00     0.000 A 
ATOM      5  C6  UNL d   1      -0.084   0.485  -0.571  0.00  0.00     0.000 A 
ATOM      6  C7  UNL d   1       0.246   0.227   0.771  0.00  0.00    -0.073 A 
ATOM      7  C8  UNL d   1       1.691   0.286   1.183  0.00  0.00     0.078 C 
ENDROOT
BRANCH   1   8
ATOM      8  C1  UNL d   1      -0.517  -0.285   3.161  0.00  0.00     0.053 C 
ATOM      9  C   UNL d   1      -1.771  -0.674   3.928  0.00  0.00     0.018 C 
ENDBRANCH   1   8
TORSDOF 1
ENDMDL
