MODEL 1
REMARK minimizedAffinity -0.00203049323
REMARK minimizedRMSD -1
REMARK  2 active torsions:
REMARK  status: ('A' for Active; 'I' for Inactive)
REMARK    1  A    between atoms: C2'_3  and  C1'_4 
REMARK    2  A    between atoms: C1'_4  and  C1_5 
ROOT
ATOM      1  C1  I4B d   1      -4.532   2.779   5.237  0.00  0.00    -0.075 A 
ATOM      2  C2  I4B d   1      -4.872   1.685   5.993  0.00  0.00     0.003 A 
ATOM      3  C3  I4B d   1      -5.102   0.433   5.371  0.00  0.00     0.002 A 
ATOM      4  C4  I4B d   1      -5.031   0.334   3.997  0.00  0.00    -0.004 A 
ATOM      5  C5  I4B d   1      -4.664   1.439   3.235  0.00  0.00     0.002 A 
ATOM      6  C6  I4B d   1      -4.401   2.667   3.859  0.00  0.00     0.003 A 
ENDROOT
BRANCH   1   7
ATOM      7  C1' I4B d   1      -4.329   4.093   5.923  0.00  0.00     0.060 C 
BRANCH   7   8
ATOM      8  C2' I4B d   1      -3.520   4.981   5.000  0.00  0.00    -0.013 C 
ATOM      9  C4' I4B d   1      -4.396   5.998   4.316  0.00  0.00     0.013 C 
ATOM     10  C3' I4B d   1      -2.453   5.648   5.816  0.00  0.00     0.013 C 
ENDBRANCH   7   8
ENDBRANCH   1   7
TORSDOF 2
ENDMDL
