MODEL 1
REMARK minimizedAffinity -3.51642895
REMARK minimizedRMSD -1
REMARK  2 active torsions:
REMARK  status: ('A' for Active; 'I' for Inactive)
REMARK    1  A    between atoms: C2'_3  and  C1'_4 
REMARK    2  A    between atoms: C1'_4  and  C1_5 
ROOT
ATOM      1  C1  I4B d   1       4.390  -3.387   5.208  0.00  0.00    -0.075 A 
ATOM      2  C2  I4B d   1       5.673  -3.720   5.564  0.00  0.00     0.003 A 
ATOM      3  C3  I4B d   1       5.986  -5.049   5.942  0.00  0.00     0.002 A 
ATOM      4  C4  I4B d   1       4.982  -5.994   5.998  0.00  0.00    -0.004 A 
ATOM      5  C5  I4B d   1       3.686  -5.660   5.615  0.00  0.00     0.002 A 
ATOM      6  C6  I4B d   1       3.390  -4.351   5.205  0.00  0.00     0.003 A 
ENDROOT
BRANCH   1   7
ATOM      7  C1' I4B d   1       4.088  -1.968   4.846  0.00  0.00     0.060 C 
BRANCH   7   8
ATOM      8  C2' I4B d   1       5.291  -1.406   4.116  0.00  0.00    -0.013 C 
ATOM      9  C4' I4B d   1       4.882  -0.708   2.846  0.00  0.00     0.013 C 
ATOM     10  C3' I4B d   1       6.000  -0.467   5.046  0.00  0.00     0.013 C 
ENDBRANCH   7   8
ENDBRANCH   1   7
TORSDOF 2
ENDMDL
