MODEL 1
REMARK minimizedAffinity 2.6546526
REMARK minimizedRMSD -1
REMARK  2 active torsions:
REMARK  status: ('A' for Active; 'I' for Inactive)
REMARK    1  A    between atoms: C2'_3  and  C1'_4 
REMARK    2  A    between atoms: C1'_4  and  C1_5 
ROOT
ATOM      1  C1  I4B d   1       2.295   2.181  -0.849  0.00  0.00    -0.075 A 
ATOM      2  C2  I4B d   1       2.739   1.738   0.372  0.00  0.00     0.003 A 
ATOM      3  C3  I4B d   1       2.902   2.647   1.445  0.00  0.00     0.002 A 
ATOM      4  C4  I4B d   1       2.659   3.990   1.240  0.00  0.00    -0.004 A 
ATOM      5  C5  I4B d   1       2.187   4.435   0.009  0.00  0.00     0.002 A 
ATOM      6  C6  I4B d   1       1.992   3.523  -1.039  0.00  0.00     0.003 A 
ENDROOT
BRANCH   1   7
ATOM      7  C1' I4B d   1       2.166   1.199  -1.969  0.00  0.00     0.060 C 
BRANCH   7   8
ATOM      8  C2' I4B d   1       0.690   0.996  -2.244  0.00  0.00    -0.013 C 
ATOM      9  C4' I4B d   1       0.264   1.712  -3.498  0.00  0.00     0.013 C 
ATOM     10  C3' I4B d   1       0.437  -0.479  -2.350  0.00  0.00     0.013 C 
ENDBRANCH   7   8
ENDBRANCH   1   7
TORSDOF 2
ENDMDL
