MODEL 1
REMARK minimizedAffinity 1.98088598
REMARK minimizedRMSD -1
REMARK  2 active torsions:
REMARK  status: ('A' for Active; 'I' for Inactive)
REMARK    1  A    between atoms: C2'_3  and  C1'_4 
REMARK    2  A    between atoms: C1'_4  and  C1_5 
ROOT
ATOM      1  C1  I4B d   1      -4.068   5.927   3.342  0.00  0.00    -0.075 A 
ATOM      2  C2  I4B d   1      -4.965   5.971   4.380  0.00  0.00     0.003 A 
ATOM      3  C3  I4B d   1      -4.505   5.957   5.719  0.00  0.00     0.002 A 
ATOM      4  C4  I4B d   1      -3.153   5.849   5.973  0.00  0.00    -0.004 A 
ATOM      5  C5  I4B d   1      -2.244   5.827   4.919  0.00  0.00     0.002 A 
ATOM      6  C6  I4B d   1      -2.703   5.879   3.595  0.00  0.00     0.003 A 
ENDROOT
BRANCH   1   7
ATOM      7  C1' I4B d   1      -4.589   5.909   1.940  0.00  0.00     0.060 C 
BRANCH   7   8
ATOM      8  C2' I4B d   1      -3.596   5.151   1.082  0.00  0.00    -0.013 C 
ATOM      9  C4' I4B d   1      -2.393   5.999   0.762  0.00  0.00     0.013 C 
ATOM     10  C3' I4B d   1      -3.201   3.908   1.821  0.00  0.00     0.013 C 
ENDBRANCH   7   8
ENDBRANCH   1   7
TORSDOF 2
ENDMDL
