MODEL 1
REMARK minimizedAffinity 10.2970037
REMARK minimizedRMSD -1
REMARK  2 active torsions:
REMARK  status: ('A' for Active; 'I' for Inactive)
REMARK    1  A    between atoms: C2'_3  and  C1'_4 
REMARK    2  A    between atoms: C1'_4  and  C1_5 
ROOT
ATOM      1  C1  I4B d   1      -4.123   3.302   3.179  0.00  0.00    -0.075 A 
ATOM      2  C2  I4B d   1      -4.502   4.262   2.275  0.00  0.00     0.003 A 
ATOM      3  C3  I4B d   1      -4.317   5.634   2.571  0.00  0.00     0.002 A 
ATOM      4  C4  I4B d   1      -3.799   6.000   3.797  0.00  0.00    -0.004 A 
ATOM      5  C5  I4B d   1      -3.394   5.025   4.704  0.00  0.00     0.002 A 
ATOM      6  C6  I4B d   1      -3.546   3.667   4.389  0.00  0.00     0.003 A 
ENDROOT
BRANCH   1   7
ATOM      7  C1' I4B d   1      -4.364   1.863   2.847  0.00  0.00     0.060 C 
BRANCH   7   8
ATOM      8  C2' I4B d   1      -3.385   1.029   3.648  0.00  0.00    -0.013 C 
ATOM      9  C4' I4B d   1      -4.100   0.166   4.654  0.00  0.00     0.013 C 
ATOM     10  C3' I4B d   1      -2.591   0.196   2.687  0.00  0.00     0.013 C 
ENDBRANCH   7   8
ENDBRANCH   1   7
TORSDOF 2
ENDMDL
