MODEL 1
REMARK minimizedAffinity 9.52348995
REMARK minimizedRMSD -1
REMARK  2 active torsions:
REMARK  status: ('A' for Active; 'I' for Inactive)
REMARK    1  A    between atoms: C2'_3  and  C1'_4 
REMARK    2  A    between atoms: C1'_4  and  C1_5 
ROOT
ATOM      1  C1  I4B d   1       0.902   1.895  -3.111  0.00  0.00    -0.075 A 
ATOM      2  C2  I4B d   1       2.181   1.820  -2.619  0.00  0.00     0.003 A 
ATOM      3  C3  I4B d   1       2.603   0.674  -1.903  0.00  0.00     0.002 A 
ATOM      4  C4  I4B d   1       1.705  -0.345  -1.660  0.00  0.00    -0.004 A 
ATOM      5  C5  I4B d   1       0.415  -0.277  -2.180  0.00  0.00     0.002 A 
ATOM      6  C6  I4B d   1       0.015   0.844  -2.920  0.00  0.00     0.003 A 
ENDROOT
BRANCH   1   7
ATOM      7  C1' I4B d   1       0.480   3.135  -3.835  0.00  0.00     0.060 C 
BRANCH   7   8
ATOM      8  C2' I4B d   1       1.280   3.222  -5.118  0.00  0.00    -0.013 C 
ATOM      9  C4' I4B d   1       1.029   2.026  -5.999  0.00  0.00     0.013 C 
ATOM     10  C3' I4B d   1       0.902   4.495  -5.814  0.00  0.00     0.013 C 
ENDBRANCH   7   8
ENDBRANCH   1   7
TORSDOF 2
ENDMDL
