MODEL 1
REMARK minimizedAffinity 8.68865776
REMARK minimizedRMSD -1
REMARK  2 active torsions:
REMARK  status: ('A' for Active; 'I' for Inactive)
REMARK    1  A    between atoms: C2'_3  and  C1'_4 
REMARK    2  A    between atoms: C1'_4  and  C1_5 
ROOT
ATOM      1  C1  I4B d   1      -3.222   5.847   3.314  0.00  0.00    -0.075 A 
ATOM      2  C2  I4B d   1      -4.123   5.818   4.349  0.00  0.00     0.003 A 
ATOM      3  C3  I4B d   1      -3.672   5.882   5.689  0.00  0.00     0.002 A 
ATOM      4  C4  I4B d   1      -2.317   5.923   5.949  0.00  0.00    -0.004 A 
ATOM      5  C5  I4B d   1      -1.406   5.975   4.898  0.00  0.00     0.002 A 
ATOM      6  C6  I4B d   1      -1.861   5.950   3.572  0.00  0.00     0.003 A 
ENDROOT
BRANCH   1   7
ATOM      7  C1' I4B d   1      -3.732   5.745   1.911  0.00  0.00     0.060 C 
BRANCH   7   8
ATOM      8  C2' I4B d   1      -5.108   5.113   1.960  0.00  0.00    -0.013 C 
ATOM      9  C4' I4B d   1      -5.046   3.713   2.513  0.00  0.00     0.013 C 
ATOM     10  C3' I4B d   1      -5.990   5.988   2.799  0.00  0.00     0.013 C 
ENDBRANCH   7   8
ENDBRANCH   1   7
TORSDOF 2
ENDMDL
