MODEL 1
REMARK minimizedAffinity 5.28759336
REMARK minimizedRMSD -1
REMARK  2 active torsions:
REMARK  status: ('A' for Active; 'I' for Inactive)
REMARK    1  A    between atoms: C2'_3  and  C1'_4 
REMARK    2  A    between atoms: C1'_4  and  C1_5 
ROOT
ATOM      1  C1  I4B d   1       3.736   1.445  -3.755  0.00  0.00    -0.075 A 
ATOM      2  C2  I4B d   1       4.958   1.070  -3.256  0.00  0.00     0.003 A 
ATOM      3  C3  I4B d   1       6.000   0.685  -4.134  0.00  0.00     0.002 A 
ATOM      4  C4  I4B d   1       5.761   0.642  -5.493  0.00  0.00    -0.004 A 
ATOM      5  C5  I4B d   1       4.529   1.044  -5.999  0.00  0.00     0.002 A 
ATOM      6  C6  I4B d   1       3.513   1.460  -5.126  0.00  0.00     0.003 A 
ENDROOT
BRANCH   1   7
ATOM      7  C1' I4B d   1       2.648   1.813  -2.797  0.00  0.00     0.060 C 
BRANCH   7   8
ATOM      8  C2' I4B d   1       1.320   1.512  -3.460  0.00  0.00    -0.013 C 
ATOM      9  C4' I4B d   1       0.708   0.252  -2.907  0.00  0.00     0.013 C 
ATOM     10  C3' I4B d   1       0.417   2.691  -3.248  0.00  0.00     0.013 C 
ENDBRANCH   7   8
ENDBRANCH   1   7
TORSDOF 2
ENDMDL
