MODEL 1
REMARK minimizedAffinity 5.28316116
REMARK minimizedRMSD -1
REMARK  2 active torsions:
REMARK  status: ('A' for Active; 'I' for Inactive)
REMARK    1  A    between atoms: C2'_3  and  C1'_4 
REMARK    2  A    between atoms: C1'_4  and  C1_5 
ROOT
ATOM      1  C1  I4B d   1      -3.124   3.542   3.748  0.00  0.00    -0.075 A 
ATOM      2  C2  I4B d   1      -3.597   3.745   2.476  0.00  0.00     0.003 A 
ATOM      3  C3  I4B d   1      -4.142   4.999   2.109  0.00  0.00     0.002 A 
ATOM      4  C4  I4B d   1      -4.242   5.999   3.055  0.00  0.00    -0.004 A 
ATOM      5  C5  I4B d   1      -3.741   5.799   4.338  0.00  0.00     0.002 A 
ATOM      6  C6  I4B d   1      -3.168   4.567   4.684  0.00  0.00     0.003 A 
ENDROOT
BRANCH   1   7
ATOM      7  C1' I4B d   1      -2.584   2.195   4.110  0.00  0.00     0.060 C 
BRANCH   7   8
ATOM      8  C2' I4B d   1      -3.253   1.169   3.218  0.00  0.00    -0.013 C 
ATOM      9  C4' I4B d   1      -2.237   0.404   2.411  0.00  0.00     0.013 C 
ATOM     10  C3' I4B d   1      -4.055   0.250   4.090  0.00  0.00     0.013 C 
ENDBRANCH   7   8
ENDBRANCH   1   7
TORSDOF 2
ENDMDL
