MODEL 1
REMARK minimizedAffinity 4.57397509
REMARK minimizedRMSD -1
REMARK  2 active torsions:
REMARK  status: ('A' for Active; 'I' for Inactive)
REMARK    1  A    between atoms: C2'_3  and  C1'_4 
REMARK    2  A    between atoms: C1'_4  and  C1_5 
ROOT
ATOM      1  C1  I4B d   1       4.368  -3.514   4.851  0.00  0.00    -0.075 A 
ATOM      2  C2  I4B d   1       5.566  -3.622   5.511  0.00  0.00     0.003 A 
ATOM      3  C3  I4B d   1       6.000  -4.878   6.000  0.00  0.00     0.002 A 
ATOM      4  C4  I4B d   1       5.186  -5.983   5.853  0.00  0.00    -0.004 A 
ATOM      5  C5  I4B d   1       3.981  -5.875   5.164  0.00  0.00     0.002 A 
ATOM      6  C6  I4B d   1       3.575  -4.636   4.649  0.00  0.00     0.003 A 
ENDROOT
BRANCH   1   7
ATOM      7  C1' I4B d   1       3.925  -2.166   4.377  0.00  0.00     0.060 C 
BRANCH   7   8
ATOM      8  C2' I4B d   1       5.010  -1.608   3.478  0.00  0.00    -0.013 C 
ATOM      9  C4' I4B d   1       4.444  -1.153   2.159  0.00  0.00     0.013 C 
ATOM     10  C3' I4B d   1       5.674  -0.475   4.202  0.00  0.00     0.013 C 
ENDBRANCH   7   8
ENDBRANCH   1   7
TORSDOF 2
ENDMDL
