MODEL 1
REMARK minimizedAffinity 10.1151953
REMARK minimizedRMSD -1
REMARK  2 active torsions:
REMARK  status: ('A' for Active; 'I' for Inactive)
REMARK    1  A    between atoms: C2'_3  and  C1'_4 
REMARK    2  A    between atoms: C1'_4  and  C1_5 
ROOT
ATOM      1  C1  I4B d   1      -3.628   5.808   3.314  0.00  0.00    -0.075 A 
ATOM      2  C2  I4B d   1      -2.297   5.902   3.634  0.00  0.00     0.003 A 
ATOM      3  C3  I4B d   1      -1.893   5.974   4.990  0.00  0.00     0.002 A 
ATOM      4  C4  I4B d   1      -2.850   5.999   5.984  0.00  0.00    -0.004 A 
ATOM      5  C5  I4B d   1      -4.198   5.881   5.658  0.00  0.00     0.002 A 
ATOM      6  C6  I4B d   1      -4.590   5.772   4.316  0.00  0.00     0.003 A 
ENDROOT
BRANCH   1   7
ATOM      7  C1' I4B d   1      -4.021   5.767   1.871  0.00  0.00     0.060 C 
BRANCH   7   8
ATOM      8  C2' I4B d   1      -4.362   4.333   1.521  0.00  0.00    -0.013 C 
ATOM      9  C4' I4B d   1      -3.364   3.374   2.116  0.00  0.00     0.013 C 
ATOM     10  C3' I4B d   1      -5.748   4.050   2.020  0.00  0.00     0.013 C 
ENDBRANCH   7   8
ENDBRANCH   1   7
TORSDOF 2
ENDMDL
