MODEL 1
REMARK minimizedAffinity 12.057478
REMARK minimizedRMSD -1
REMARK  2 active torsions:
REMARK  status: ('A' for Active; 'I' for Inactive)
REMARK    1  A    between atoms: C2'_3  and  C1'_4 
REMARK    2  A    between atoms: C1'_4  and  C1_5 
ROOT
ATOM      1  C1  I4B d   1       1.927   1.783  -3.164  0.00  0.00    -0.075 A 
ATOM      2  C2  I4B d   1       2.980   1.119  -2.585  0.00  0.00     0.003 A 
ATOM      3  C3  I4B d   1       2.749  -0.035  -1.798  0.00  0.00     0.002 A 
ATOM      4  C4  I4B d   1       1.455  -0.458  -1.575  0.00  0.00    -0.004 A 
ATOM      5  C5  I4B d   1       0.390   0.202  -2.182  0.00  0.00     0.002 A 
ATOM      6  C6  I4B d   1       0.628   1.323  -2.992  0.00  0.00     0.003 A 
ENDROOT
BRANCH   1   7
ATOM      7  C1' I4B d   1       2.204   3.017  -3.963  0.00  0.00     0.060 C 
BRANCH   7   8
ATOM      8  C2' I4B d   1       2.993   2.611  -5.191  0.00  0.00    -0.013 C 
ATOM      9  C4' I4B d   1       2.250   1.581  -6.000  0.00  0.00     0.013 C 
ATOM     10  C3' I4B d   1       3.258   3.846  -6.000  0.00  0.00     0.013 C 
ENDBRANCH   7   8
ENDBRANCH   1   7
TORSDOF 2
ENDMDL
