MODEL 1
REMARK minimizedAffinity 13.9072056
REMARK minimizedRMSD -1
REMARK  2 active torsions:
REMARK  status: ('A' for Active; 'I' for Inactive)
REMARK    1  A    between atoms: C2'_3  and  C1'_4 
REMARK    2  A    between atoms: C1'_4  and  C1_5 
ROOT
ATOM      1  C1  I4B d   1      -3.665   5.120   2.395  0.00  0.00    -0.075 A 
ATOM      2  C2  I4B d   1      -3.888   3.767   2.353  0.00  0.00     0.003 A 
ATOM      3  C3  I4B d   1      -5.060   3.256   1.745  0.00  0.00     0.002 A 
ATOM      4  C4  I4B d   1      -6.000   4.131   1.239  0.00  0.00    -0.004 A 
ATOM      5  C5  I4B d   1      -5.761   5.502   1.261  0.00  0.00     0.002 A 
ATOM      6  C6  I4B d   1      -4.580   6.000   1.832  0.00  0.00     0.003 A 
ENDROOT
BRANCH   1   7
ATOM      7  C1' I4B d   1      -2.432   5.626   3.075  0.00  0.00     0.060 C 
BRANCH   7   8
ATOM      8  C2' I4B d   1      -2.721   5.715   4.560  0.00  0.00    -0.013 C 
ATOM      9  C4' I4B d   1      -4.178   6.000   4.816  0.00  0.00     0.013 C 
ATOM     10  C3' I4B d   1      -2.304   4.420   5.191  0.00  0.00     0.013 C 
ENDBRANCH   7   8
ENDBRANCH   1   7
TORSDOF 2
ENDMDL
