MODEL 1
REMARK minimizedAffinity -5.26247311
REMARK minimizedRMSD -1
REMARK  0 active torsions:
REMARK  status: ('A' for Active; 'I' for Inactive)
ROOT
ATOM      1  C4' PXY d   1      -1.801   0.018   0.655  0.00  0.00     0.077 C 
ATOM      2  C1' PXY d   1       3.507   2.118  -0.259  0.00  0.00     0.077 C 
ATOM      3  C1  PXY d   1       2.118   1.556  -0.026  0.00  0.00    -0.082 A 
ATOM      4  C2  PXY d   1       1.104   2.382   0.176  0.00  0.00     0.003 A 
ATOM      5  C3  PXY d   1      -0.153   1.890   0.421  0.00  0.00     0.003 A 
ATOM      6  C4  PXY d   1      -0.384   0.541   0.405  0.00  0.00    -0.082 A 
ATOM      7  C5  PXY d   1       0.644  -0.308   0.189  0.00  0.00     0.003 A 
ATOM      8  C6  PXY d   1       1.919   0.210  -0.016  0.00  0.00     0.003 A 
ENDROOT
TORSDOF 0
ENDMDL
