MODEL 1
REMARK minimizedAffinity -4.05460501
REMARK minimizedRMSD -1
REMARK  0 active torsions:
REMARK  status: ('A' for Active; 'I' for Inactive)
ROOT
ATOM      1  C4' PXY d   1      -0.153  -1.775   0.377  0.00  0.00     0.077 C 
ATOM      2  C1' PXY d   1       0.505   3.964   0.147  0.00  0.00     0.077 C 
ATOM      3  C1  PXY d   1       0.322   2.460   0.215  0.00  0.00    -0.082 A 
ATOM      4  C2  PXY d   1       1.360   1.665   0.014  0.00  0.00     0.003 A 
ATOM      5  C3  PXY d   1       1.206   0.303   0.040  0.00  0.00     0.003 A 
ATOM      6  C4  PXY d   1      -0.013  -0.251   0.327  0.00  0.00    -0.082 A 
ATOM      7  C5  PXY d   1      -1.075   0.554   0.544  0.00  0.00     0.003 A 
ATOM      8  C6  PXY d   1      -0.906   1.933   0.472  0.00  0.00     0.003 A 
ENDROOT
TORSDOF 0
ENDMDL
