MODEL 1
REMARK minimizedAffinity -5.32705307
REMARK minimizedRMSD -1
REMARK  0 active torsions:
REMARK  status: ('A' for Active; 'I' for Inactive)
ROOT
ATOM      1  C4' PXY d   1      -0.361  -2.419  -0.167  0.00  0.00     0.077 C 
ATOM      2  C1' PXY d   1       0.265   3.326  -0.037  0.00  0.00     0.077 C 
ATOM      3  C1  PXY d   1       0.092   1.820  -0.062  0.00  0.00    -0.082 A 
ATOM      4  C2  PXY d   1       1.095   1.053  -0.457  0.00  0.00     0.003 A 
ATOM      5  C3  PXY d   1       0.944  -0.309  -0.516  0.00  0.00     0.003 A 
ATOM      6  C4  PXY d   1      -0.227  -0.895  -0.116  0.00  0.00    -0.082 A 
ATOM      7  C5  PXY d   1      -1.251  -0.119   0.298  0.00  0.00     0.003 A 
ATOM      8  C6  PXY d   1      -1.092   1.264   0.311  0.00  0.00     0.003 A 
ENDROOT
TORSDOF 0
ENDMDL
