MODEL 1
REMARK minimizedAffinity -4.98458481
REMARK minimizedRMSD -1
REMARK  0 active torsions:
REMARK  status: ('A' for Active; 'I' for Inactive)
ROOT
ATOM      1  C4' PXY d   1      -0.432  -2.318  -0.355  0.00  0.00     0.077 C 
ATOM      2  C1' PXY d   1       0.595   3.268   0.722  0.00  0.00     0.077 C 
ATOM      3  C1  PXY d   1       0.335   1.803   0.431  0.00  0.00    -0.082 A 
ATOM      4  C2  PXY d   1      -0.858   1.288   0.681  0.00  0.00     0.003 A 
ATOM      5  C3  PXY d   1      -1.100  -0.042   0.453  0.00  0.00     0.003 A 
ATOM      6  C4  PXY d   1      -0.128  -0.841  -0.086  0.00  0.00    -0.082 A 
ATOM      7  C5  PXY d   1       1.089  -0.321  -0.354  0.00  0.00     0.003 A 
ATOM      8  C6  PXY d   1       1.327   1.022  -0.077  0.00  0.00     0.003 A 
ENDROOT
TORSDOF 0
ENDMDL
