MODEL 1
REMARK minimizedAffinity -3.62983418
REMARK minimizedRMSD -1
REMARK  0 active torsions:
REMARK  status: ('A' for Active; 'I' for Inactive)
ROOT
ATOM      1  C4' PXY d   1       3.546   1.884   0.616  0.00  0.00     0.077 C 
ATOM      2  C1' PXY d   1      -2.218   1.820   0.189  0.00  0.00     0.077 C 
ATOM      3  C1  PXY d   1      -0.707   1.850   0.297  0.00  0.00    -0.082 A 
ATOM      4  C2  PXY d   1      -0.021   0.724   0.186  0.00  0.00     0.003 A 
ATOM      5  C3  PXY d   1       1.344   0.727   0.314  0.00  0.00     0.003 A 
ATOM      6  C4  PXY d   1       2.019   1.903   0.504  0.00  0.00    -0.082 A 
ATOM      7  C5  PXY d   1       1.327   3.058   0.607  0.00  0.00     0.003 A 
ATOM      8  C6  PXY d   1      -0.061   3.027   0.516  0.00  0.00     0.003 A 
ENDROOT
TORSDOF 0
ENDMDL
