MODEL 1
REMARK minimizedAffinity -4.7813797
REMARK minimizedRMSD -1
REMARK  0 active torsions:
REMARK  status: ('A' for Active; 'I' for Inactive)
ROOT
ATOM      1  C4' PXY d   1      -0.124  -1.613   0.163  0.00  0.00     0.077 C 
ATOM      2  C1' PXY d   1       0.269   4.152   0.023  0.00  0.00     0.077 C 
ATOM      3  C1  PXY d   1       0.153   2.641   0.064  0.00  0.00    -0.082 A 
ATOM      4  C2  PXY d   1       1.248   1.904   0.164  0.00  0.00     0.003 A 
ATOM      5  C3  PXY d   1       1.164   0.536   0.170  0.00  0.00     0.003 A 
ATOM      6  C4  PXY d   1      -0.056  -0.084   0.128  0.00  0.00    -0.082 A 
ATOM      7  C5  PXY d   1      -1.178   0.661   0.037  0.00  0.00     0.003 A 
ATOM      8  C6  PXY d   1      -1.069   2.048  -0.010  0.00  0.00     0.003 A 
ENDROOT
TORSDOF 0
ENDMDL
