MODEL 1
REMARK minimizedAffinity -4.51525211
REMARK minimizedRMSD -1
REMARK  0 active torsions:
REMARK  status: ('A' for Active; 'I' for Inactive)
ROOT
ATOM      1  C4' PXY d   1       0.090  -1.483   0.427  0.00  0.00     0.077 C 
ATOM      2  C1' PXY d   1       0.300   4.221  -0.484  0.00  0.00     0.077 C 
ATOM      3  C1  PXY d   1       0.238   2.727  -0.234  0.00  0.00    -0.082 A 
ATOM      4  C2  PXY d   1       1.183   1.942  -0.725  0.00  0.00     0.003 A 
ATOM      5  C3  PXY d   1       1.125   0.585  -0.536  0.00  0.00     0.003 A 
ATOM      6  C4  PXY d   1       0.118   0.032   0.208  0.00  0.00    -0.082 A 
ATOM      7  C5  PXY d   1      -0.845   0.827   0.721  0.00  0.00     0.003 A 
ATOM      8  C6  PXY d   1      -0.790   2.198   0.483  0.00  0.00     0.003 A 
ENDROOT
TORSDOF 0
ENDMDL
