MODEL 1
REMARK minimizedAffinity -2.96036482
REMARK minimizedRMSD -1
REMARK  0 active torsions:
REMARK  status: ('A' for Active; 'I' for Inactive)
ROOT
ATOM      1  C4' PXY d   1       0.199   3.406   0.484  0.00  0.00     0.077 C 
ATOM      2  C1' PXY d   1      -0.644  -2.285  -0.071  0.00  0.00     0.077 C 
ATOM      3  C1  PXY d   1      -0.436  -0.791   0.073  0.00  0.00    -0.082 A 
ATOM      4  C2  PXY d   1       0.754  -0.269  -0.179  0.00  0.00     0.003 A 
ATOM      5  C3  PXY d   1       0.968   1.077  -0.023  0.00  0.00     0.003 A 
ATOM      6  C4  PXY d   1      -0.060   1.904   0.343  0.00  0.00    -0.082 A 
ATOM      7  C5  PXY d   1      -1.279   1.380   0.592  0.00  0.00     0.003 A 
ATOM      8  C6  PXY d   1      -1.465   0.007   0.467  0.00  0.00     0.003 A 
ENDROOT
TORSDOF 0
ENDMDL
