MODEL 1
REMARK minimizedAffinity -2.91471076
REMARK minimizedRMSD -1
REMARK  0 active torsions:
REMARK  status: ('A' for Active; 'I' for Inactive)
ROOT
ATOM      1  C4' PXY d   1       0.970   3.887   0.496  0.00  0.00     0.077 C 
ATOM      2  C1' PXY d   1      -0.077  -1.719  -0.446  0.00  0.00     0.077 C 
ATOM      3  C1  PXY d   1       0.210  -0.251  -0.198  0.00  0.00    -0.082 A 
ATOM      4  C2  PXY d   1      -0.749   0.534   0.263  0.00  0.00     0.003 A 
ATOM      5  C3  PXY d   1      -0.516   1.870   0.463  0.00  0.00     0.003 A 
ATOM      6  C4  PXY d   1       0.728   2.397   0.240  0.00  0.00    -0.082 A 
ATOM      7  C5  PXY d   1       1.715   1.600  -0.221  0.00  0.00     0.003 A 
ATOM      8  C6  PXY d   1       1.447   0.255  -0.456  0.00  0.00     0.003 A 
ENDROOT
TORSDOF 0
ENDMDL
