MODEL 1
REMARK minimizedAffinity -5.56418991
REMARK minimizedRMSD -1
REMARK  0 active torsions:
REMARK  status: ('A' for Active; 'I' for Inactive)
ROOT
ATOM      1  C4' PXY d   1       2.861   2.686   0.972  0.00  0.00     0.077 C 
ATOM      2  C1' PXY d   1      -2.506   0.934  -0.269  0.00  0.00     0.077 C 
ATOM      3  C1  PXY d   1      -1.102   1.406   0.052  0.00  0.00    -0.082 A 
ATOM      4  C2  PXY d   1      -0.107   0.534   0.069  0.00  0.00     0.003 A 
ATOM      5  C3  PXY d   1       1.164   0.937   0.390  0.00  0.00     0.003 A 
ATOM      6  C4  PXY d   1       1.428   2.257   0.643  0.00  0.00    -0.082 A 
ATOM      7  C5  PXY d   1       0.420   3.154   0.617  0.00  0.00     0.003 A 
ATOM      8  C6  PXY d   1      -0.870   2.717   0.330  0.00  0.00     0.003 A 
ENDROOT
TORSDOF 0
ENDMDL
