MODEL 1
REMARK minimizedAffinity -4.00827646
REMARK minimizedRMSD -1
REMARK  0 active torsions:
REMARK  status: ('A' for Active; 'I' for Inactive)
ROOT
ATOM      1  C4' PXY d   1      -1.069  -2.291   0.399  0.00  0.00     0.077 C 
ATOM      2  C1' PXY d   1       0.378   3.292   0.014  0.00  0.00     0.077 C 
ATOM      3  C1  PXY d   1      -0.011   1.831   0.125  0.00  0.00    -0.082 A 
ATOM      4  C2  PXY d   1       0.850   0.896  -0.244  0.00  0.00     0.003 A 
ATOM      5  C3  PXY d   1       0.504  -0.429  -0.181  0.00  0.00     0.003 A 
ATOM      6  C4  PXY d   1      -0.717  -0.803   0.314  0.00  0.00    -0.082 A 
ATOM      7  C5  PXY d   1      -1.596   0.144   0.702  0.00  0.00     0.003 A 
ATOM      8  C6  PXY d   1      -1.241   1.485   0.592  0.00  0.00     0.003 A 
ENDROOT
TORSDOF 0
ENDMDL
