MODEL 1
REMARK minimizedAffinity -5.53559399
REMARK minimizedRMSD -1
REMARK  0 active torsions:
REMARK  status: ('A' for Active; 'I' for Inactive)
ROOT
ATOM      1  C4' PXY d   1      -0.005  -1.487   0.006  0.00  0.00     0.077 C 
ATOM      2  C1' PXY d   1       1.199   4.162   0.257  0.00  0.00     0.077 C 
ATOM      3  C1  PXY d   1       0.873   2.682   0.199  0.00  0.00    -0.082 A 
ATOM      4  C2  PXY d   1       1.842   1.807  -0.013  0.00  0.00     0.003 A 
ATOM      5  C3  PXY d   1       1.559   0.468  -0.101  0.00  0.00     0.003 A 
ATOM      6  C4  PXY d   1       0.280   0.016   0.083  0.00  0.00    -0.082 A 
ATOM      7  C5  PXY d   1      -0.712   0.902   0.310  0.00  0.00     0.003 A 
ATOM      8  C6  PXY d   1      -0.412   2.260   0.354  0.00  0.00     0.003 A 
ENDROOT
TORSDOF 0
ENDMDL
