MODEL 1
REMARK minimizedAffinity -5.16608477
REMARK minimizedRMSD -1
REMARK  0 active torsions:
REMARK  status: ('A' for Active; 'I' for Inactive)
ROOT
ATOM      1  C4' PXY d   1       0.043  -1.962  -0.475  0.00  0.00     0.077 C 
ATOM      2  C1' PXY d   1       0.563   3.721   0.444  0.00  0.00     0.077 C 
ATOM      3  C1  PXY d   1       0.416   2.231   0.210  0.00  0.00    -0.082 A 
ATOM      4  C2  PXY d   1       1.483   1.506  -0.087  0.00  0.00     0.003 A 
ATOM      5  C3  PXY d   1       1.362   0.163  -0.333  0.00  0.00     0.003 A 
ATOM      6  C4  PXY d   1       0.146  -0.456  -0.222  0.00  0.00    -0.082 A 
ATOM      7  C5  PXY d   1      -0.946   0.274   0.092  0.00  0.00     0.003 A 
ATOM      8  C6  PXY d   1      -0.809   1.644   0.297  0.00  0.00     0.003 A 
ENDROOT
TORSDOF 0
ENDMDL
