MODEL 1
REMARK minimizedAffinity -3.2599051
REMARK minimizedRMSD -1
REMARK  0 active torsions:
REMARK  status: ('A' for Active; 'I' for Inactive)
ROOT
ATOM      1  C4' PXY d   1       0.052  -2.538  -0.074  0.00  0.00     0.077 C 
ATOM      2  C1' PXY d   1      -0.296   3.178   0.721  0.00  0.00     0.077 C 
ATOM      3  C1  PXY d   1      -0.194   1.680   0.506  0.00  0.00    -0.082 A 
ATOM      4  C2  PXY d   1      -1.291   0.941   0.517  0.00  0.00     0.003 A 
ATOM      5  C3  PXY d   1      -1.213  -0.418   0.357  0.00  0.00     0.003 A 
ATOM      6  C4  PXY d   1      -0.005  -1.021   0.129  0.00  0.00    -0.082 A 
ATOM      7  C5  PXY d   1       1.118  -0.272   0.106  0.00  0.00     0.003 A 
ATOM      8  C6  PXY d   1       1.022   1.101   0.312  0.00  0.00     0.003 A 
ENDROOT
TORSDOF 0
ENDMDL
