MODEL 1
REMARK minimizedAffinity -4.57938957
REMARK minimizedRMSD -1
REMARK  0 active torsions:
REMARK  status: ('A' for Active; 'I' for Inactive)
ROOT
ATOM      1  C4' PXY d   1      -0.561  -1.543  -0.197  0.00  0.00     0.077 C 
ATOM      2  C1' PXY d   1       0.931   4.040  -0.326  0.00  0.00     0.077 C 
ATOM      3  C1  PXY d   1       0.533   2.577  -0.281  0.00  0.00    -0.082 A 
ATOM      4  C2  PXY d   1       1.272   1.679  -0.911  0.00  0.00     0.003 A 
ATOM      5  C3  PXY d   1       0.909   0.357  -0.908  0.00  0.00     0.003 A 
ATOM      6  C4  PXY d   1      -0.192  -0.058  -0.208  0.00  0.00    -0.082 A 
ATOM      7  C5  PXY d   1      -0.946   0.852   0.447  0.00  0.00     0.003 A 
ATOM      8  C6  PXY d   1      -0.583   2.195   0.396  0.00  0.00     0.003 A 
ENDROOT
TORSDOF 0
ENDMDL
