MODEL 1
REMARK minimizedAffinity -5.17703962
REMARK minimizedRMSD -1
REMARK  0 active torsions:
REMARK  status: ('A' for Active; 'I' for Inactive)
ROOT
ATOM      1  C4' PXY d   1      -0.525  -2.020  -0.154  0.00  0.00     0.077 C 
ATOM      2  C1' PXY d   1      -0.243   3.751   0.035  0.00  0.00     0.077 C 
ATOM      3  C1  PXY d   1      -0.305   2.237  -0.019  0.00  0.00    -0.082 A 
ATOM      4  C2  PXY d   1      -1.480   1.632  -0.080  0.00  0.00     0.003 A 
ATOM      5  C3  PXY d   1      -1.556   0.263  -0.098  0.00  0.00     0.003 A 
ATOM      6  C4  PXY d   1      -0.414  -0.493  -0.107  0.00  0.00    -0.082 A 
ATOM      7  C5  PXY d   1       0.789   0.117  -0.055  0.00  0.00     0.003 A 
ATOM      8  C6  PXY d   1       0.843   1.506   0.004  0.00  0.00     0.003 A 
ENDROOT
TORSDOF 0
ENDMDL
