MODEL 1
REMARK minimizedAffinity -5.58661079
REMARK minimizedRMSD -1
REMARK  0 active torsions:
REMARK  status: ('A' for Active; 'I' for Inactive)
ROOT
ATOM      1  C4' PXY d   1      -2.086   0.754   0.243  0.00  0.00     0.077 C 
ATOM      2  C1' PXY d   1       3.319   2.802   0.338  0.00  0.00     0.077 C 
ATOM      3  C1  PXY d   1       1.897   2.277   0.316  0.00  0.00    -0.082 A 
ATOM      4  C2  PXY d   1       1.674   0.984   0.493  0.00  0.00     0.003 A 
ATOM      5  C3  PXY d   1       0.397   0.488   0.444  0.00  0.00     0.003 A 
ATOM      6  C4  PXY d   1      -0.668   1.330   0.267  0.00  0.00    -0.082 A 
ATOM      7  C5  PXY d   1      -0.450   2.651   0.097  0.00  0.00     0.003 A 
ATOM      8  C6  PXY d   1       0.857   3.130   0.108  0.00  0.00     0.003 A 
ENDROOT
TORSDOF 0
ENDMDL
