MODEL 1
REMARK minimizedAffinity -3.63334036
REMARK minimizedRMSD -1
REMARK  0 active torsions:
REMARK  status: ('A' for Active; 'I' for Inactive)
ROOT
ATOM      1  C4' PXY d   1      -2.742  -4.051  -1.969  0.00  0.00     0.077 C 
ATOM      2  C1' PXY d   1       2.034  -1.529   0.093  0.00  0.00     0.077 C 
ATOM      3  C1  PXY d   1       0.785  -2.186  -0.460  0.00  0.00    -0.082 A 
ATOM      4  C2  PXY d   1      -0.236  -2.433   0.346  0.00  0.00     0.003 A 
ATOM      5  C3  PXY d   1      -1.361  -3.056  -0.130  0.00  0.00     0.003 A 
ATOM      6  C4  PXY d   1      -1.464  -3.381  -1.456  0.00  0.00    -0.082 A 
ATOM      7  C5  PXY d   1      -0.432  -3.122  -2.287  0.00  0.00     0.003 A 
ATOM      8  C6  PXY d   1       0.718  -2.527  -1.775  0.00  0.00     0.003 A 
ENDROOT
TORSDOF 0
ENDMDL
