MODEL 1
REMARK minimizedAffinity -4.75105619
REMARK minimizedRMSD -1
REMARK  0 active torsions:
REMARK  status: ('A' for Active; 'I' for Inactive)
ROOT
ATOM      1  C4' PXY d   1      -0.229  -1.548  -0.058  0.00  0.00     0.077 C 
ATOM      2  C1' PXY d   1       0.762   4.145  -0.196  0.00  0.00     0.077 C 
ATOM      3  C1  PXY d   1       0.491   2.654  -0.153  0.00  0.00    -0.082 A 
ATOM      4  C2  PXY d   1       1.486   1.803  -0.343  0.00  0.00     0.003 A 
ATOM      5  C3  PXY d   1       1.254   0.452  -0.339  0.00  0.00     0.003 A 
ATOM      6  C4  PXY d   1      -0.001  -0.034  -0.084  0.00  0.00    -0.082 A 
ATOM      7  C5  PXY d   1      -1.019   0.827   0.122  0.00  0.00     0.003 A 
ATOM      8  C6  PXY d   1      -0.770   2.196   0.073  0.00  0.00     0.003 A 
ENDROOT
TORSDOF 0
ENDMDL
