MODEL 1
REMARK minimizedAffinity -2.60551286
REMARK minimizedRMSD -1
REMARK  0 active torsions:
REMARK  status: ('A' for Active; 'I' for Inactive)
ROOT
ATOM      1  C4' PXY d   1      -0.388   3.310   1.853  0.00  0.00     0.077 C 
ATOM      2  C1' PXY d   1      -0.227  -1.673  -1.071  0.00  0.00     0.077 C 
ATOM      3  C1  PXY d   1      -0.256  -0.365  -0.306  0.00  0.00    -0.082 A 
ATOM      4  C2  PXY d   1      -1.241  -0.127   0.545  0.00  0.00     0.003 A 
ATOM      5  C3  PXY d   1      -1.301   1.064   1.222  0.00  0.00     0.003 A 
ATOM      6  C4  PXY d   1      -0.313   1.999   1.066  0.00  0.00    -0.082 A 
ATOM      7  C5  PXY d   1       0.701   1.760   0.207  0.00  0.00     0.003 A 
ATOM      8  C6  PXY d   1       0.721   0.562  -0.501  0.00  0.00     0.003 A 
ENDROOT
TORSDOF 0
ENDMDL
