MODEL 1
REMARK minimizedAffinity -5.565207
REMARK minimizedRMSD -1
REMARK  2 active torsions:
REMARK  status: ('A' for Active; 'I' for Inactive)
REMARK    1  A    between atoms: C2'_3  and  C1'_4 
REMARK    2  A    between atoms: C1'_4  and  C1_5 
ROOT
ATOM      1  C1  I4B d   1       0.199  -0.146  -0.619  0.00  0.00    -0.075 A 
ATOM      2  C2  I4B d   1      -0.819  -0.749   0.078  0.00  0.00     0.003 A 
ATOM      3  C3  I4B d   1      -0.771  -0.819   1.491  0.00  0.00     0.002 A 
ATOM      4  C4  I4B d   1       0.329  -0.323   2.159  0.00  0.00    -0.004 A 
ATOM      5  C5  I4B d   1       1.349   0.309   1.453  0.00  0.00     0.002 A 
ATOM      6  C6  I4B d   1       1.278   0.409   0.056  0.00  0.00     0.003 A 
ENDROOT
BRANCH   1   7
ATOM      7  C1' I4B d   1       0.132  -0.119  -2.113  0.00  0.00     0.060 C 
BRANCH   7   8
ATOM      8  C2' I4B d   1      -0.683   1.092  -2.522  0.00  0.00    -0.013 C 
ATOM      9  C4' I4B d   1       0.036   1.906  -3.565  0.00  0.00     0.013 C 
ATOM     10  C3' I4B d   1      -2.008   0.608  -3.031  0.00  0.00     0.013 C 
ENDBRANCH   7   8
ENDBRANCH   1   7
TORSDOF 2
ENDMDL
