MODEL 1
REMARK minimizedAffinity 4.40799236
REMARK minimizedRMSD -1
REMARK  2 active torsions:
REMARK  status: ('A' for Active; 'I' for Inactive)
REMARK    1  A    between atoms: C2'_3  and  C1'_4 
REMARK    2  A    between atoms: C1'_4  and  C1_5 
ROOT
ATOM      1  C1  I4B d   1       3.519  -4.181   0.257  0.00  0.00    -0.075 A 
ATOM      2  C2  I4B d   1       4.679  -3.815  -0.380  0.00  0.00     0.003 A 
ATOM      3  C3  I4B d   1       5.935  -4.128   0.193  0.00  0.00     0.002 A 
ATOM      4  C4  I4B d   1       5.985  -4.758   1.420  0.00  0.00    -0.004 A 
ATOM      5  C5  I4B d   1       4.809  -5.148   2.053  0.00  0.00     0.002 A 
ATOM      6  C6  I4B d   1       3.568  -4.869   1.462  0.00  0.00     0.003 A 
ENDROOT
BRANCH   1   7
ATOM      7  C1' I4B d   1       2.209  -3.806  -0.360  0.00  0.00     0.060 C 
BRANCH   7   8
ATOM      8  C2' I4B d   1       1.516  -2.832   0.571  0.00  0.00    -0.013 C 
ATOM      9  C4' I4B d   1       2.061  -1.438   0.406  0.00  0.00     0.013 C 
ATOM     10  C3' I4B d   1       0.046  -2.878   0.279  0.00  0.00     0.013 C 
ENDBRANCH   7   8
ENDBRANCH   1   7
TORSDOF 2
ENDMDL
