MODEL 1
REMARK minimizedAffinity 4.0321188
REMARK minimizedRMSD -1
REMARK  2 active torsions:
REMARK  status: ('A' for Active; 'I' for Inactive)
REMARK    1  A    between atoms: C2'_3  and  C1'_4 
REMARK    2  A    between atoms: C1'_4  and  C1_5 
ROOT
ATOM      1  C1  I4B d   1       1.939  -1.482   0.671  0.00  0.00    -0.075 A 
ATOM      2  C2  I4B d   1       1.236  -1.294   1.835  0.00  0.00     0.003 A 
ATOM      3  C3  I4B d   1       1.256  -0.036   2.485  0.00  0.00     0.002 A 
ATOM      4  C4  I4B d   1       2.028   0.984   1.967  0.00  0.00    -0.004 A 
ATOM      5  C5  I4B d   1       2.722   0.799   0.775  0.00  0.00     0.002 A 
ATOM      6  C6  I4B d   1       2.668  -0.438   0.116  0.00  0.00     0.003 A 
ENDROOT
BRANCH   1   7
ATOM      7  C1' I4B d   1       1.922  -2.833   0.029  0.00  0.00     0.060 C 
BRANCH   7   8
ATOM      8  C2' I4B d   1       2.699  -3.782   0.918  0.00  0.00    -0.013 C 
ATOM      9  C4' I4B d   1       2.077  -5.154   0.926  0.00  0.00     0.013 C 
ATOM     10  C3' I4B d   1       4.112  -3.831   0.419  0.00  0.00     0.013 C 
ENDBRANCH   7   8
ENDBRANCH   1   7
TORSDOF 2
ENDMDL
