MODEL 1
REMARK minimizedAffinity 4.28734922
REMARK minimizedRMSD -1
REMARK  2 active torsions:
REMARK  status: ('A' for Active; 'I' for Inactive)
REMARK    1  A    between atoms: C2'_3  and  C1'_4 
REMARK    2  A    between atoms: C1'_4  and  C1_5 
ROOT
ATOM      1  C1  I4B d   1      -3.895   0.934  -4.717  0.00  0.00    -0.075 A 
ATOM      2  C2  I4B d   1      -3.207  -0.081  -5.333  0.00  0.00     0.003 A 
ATOM      3  C3  I4B d   1      -3.156  -1.368  -4.745  0.00  0.00     0.002 A 
ATOM      4  C4  I4B d   1      -3.760  -1.580  -3.522  0.00  0.00    -0.004 A 
ATOM      5  C5  I4B d   1      -4.476  -0.556  -2.910  0.00  0.00     0.002 A 
ATOM      6  C6  I4B d   1      -4.555   0.706  -3.516  0.00  0.00     0.003 A 
ENDROOT
BRANCH   1   7
ATOM      7  C1' I4B d   1      -3.901   2.289  -5.350  0.00  0.00     0.060 C 
BRANCH   7   8
ATOM      8  C2' I4B d   1      -4.704   3.217  -4.461  0.00  0.00    -0.013 C 
ATOM      9  C4' I4B d   1      -3.855   4.348  -3.945  0.00  0.00     0.013 C 
ATOM     10  C3' I4B d   1      -5.865   3.731  -5.258  0.00  0.00     0.013 C 
ENDBRANCH   7   8
ENDBRANCH   1   7
TORSDOF 2
ENDMDL
