MODEL 1
REMARK minimizedAffinity -2.10779595
REMARK minimizedRMSD -1
REMARK  2 active torsions:
REMARK  status: ('A' for Active; 'I' for Inactive)
REMARK    1  A    between atoms: C2'_3  and  C1'_4 
REMARK    2  A    between atoms: C1'_4  and  C1_5 
ROOT
ATOM      1  C1  I4B d   1       2.632  -1.685  -0.383  0.00  0.00    -0.075 A 
ATOM      2  C2  I4B d   1       1.730  -1.396   0.611  0.00  0.00     0.003 A 
ATOM      3  C3  I4B d   1       1.709  -2.165   1.800  0.00  0.00     0.002 A 
ATOM      4  C4  I4B d   1       2.566  -3.238   1.931  0.00  0.00    -0.004 A 
ATOM      5  C5  I4B d   1       3.496  -3.515   0.933  0.00  0.00     0.002 A 
ATOM      6  C6  I4B d   1       3.538  -2.726  -0.226  0.00  0.00     0.003 A 
ENDROOT
BRANCH   1   7
ATOM      7  C1' I4B d   1       2.606  -0.873  -1.639  0.00  0.00     0.060 C 
BRANCH   7   8
ATOM      8  C2' I4B d   1       3.882  -0.059  -1.695  0.00  0.00    -0.013 C 
ATOM      9  C4' I4B d   1       4.222   0.324  -3.112  0.00  0.00     0.013 C 
ATOM     10  C3' I4B d   1       3.694   1.156  -0.837  0.00  0.00     0.013 C 
ENDBRANCH   7   8
ENDBRANCH   1   7
TORSDOF 2
ENDMDL
