MODEL 1
REMARK minimizedAffinity 0.448340625
REMARK minimizedRMSD -1
REMARK  2 active torsions:
REMARK  status: ('A' for Active; 'I' for Inactive)
REMARK    1  A    between atoms: C2'_3  and  C1'_4 
REMARK    2  A    between atoms: C1'_4  and  C1_5 
ROOT
ATOM      1  C1  I4B d   1      -0.910  -0.309  -0.112  0.00  0.00    -0.075 A 
ATOM      2  C2  I4B d   1      -1.658  -0.522  -1.242  0.00  0.00     0.003 A 
ATOM      3  C3  I4B d   1      -1.125  -1.271  -2.319  0.00  0.00     0.002 A 
ATOM      4  C4  I4B d   1       0.169  -1.743  -2.244  0.00  0.00    -0.004 A 
ATOM      5  C5  I4B d   1       0.918  -1.546  -1.087  0.00  0.00     0.002 A 
ATOM      6  C6  I4B d   1       0.372  -0.835  -0.009  0.00  0.00     0.003 A 
ENDROOT
BRANCH   1   7
ATOM      7  C1' I4B d   1      -1.491   0.515   0.993  0.00  0.00     0.060 C 
BRANCH   7   8
ATOM      8  C2' I4B d   1      -2.430  -0.368   1.790  0.00  0.00    -0.013 C 
ATOM      9  C4' I4B d   1      -1.754  -0.909   3.022  0.00  0.00     0.013 C 
ATOM     10  C3' I4B d   1      -3.638   0.444   2.147  0.00  0.00     0.013 C 
ENDBRANCH   7   8
ENDBRANCH   1   7
TORSDOF 2
ENDMDL
