MODEL 1
REMARK minimizedAffinity 7.4374485
REMARK minimizedRMSD -1
REMARK  0 active torsions:
REMARK  status: ('A' for Active; 'I' for Inactive)
ROOT
ATOM      1  C2' OXE d   1      -0.890  -0.551  -0.644  0.00  0.00     0.078 C 
ATOM      2  C1' OXE d   1      -3.022   1.275  -0.695  0.00  0.00     0.078 C 
ATOM      3  C1  OXE d   1      -2.706   0.599   0.616  0.00  0.00    -0.078 A 
ATOM      4  C2  OXE d   1      -1.691  -0.328   0.620  0.00  0.00    -0.078 A 
ATOM      5  C3  OXE d   1      -1.323  -0.941   1.815  0.00  0.00     0.003 A 
ATOM      6  C4  OXE d   1      -2.076  -0.737   2.978  0.00  0.00    -0.002 A 
ATOM      7  C5  OXE d   1      -3.138   0.173   2.985  0.00  0.00    -0.002 A 
ATOM      8  C6  OXE d   1      -3.439   0.879   1.826  0.00  0.00     0.003 A 
ENDROOT
TORSDOF 0
ENDMDL
