MODEL 1
REMARK minimizedAffinity 0.945374787
REMARK minimizedRMSD -1
REMARK  0 active torsions:
REMARK  status: ('A' for Active; 'I' for Inactive)
ROOT
ATOM      1  C2' OXE d   1      -3.601  -0.929  -0.575  0.00  0.00     0.078 C 
ATOM      2  C1' OXE d   1      -2.883   0.152   1.914  0.00  0.00     0.078 C 
ATOM      3  C1  OXE d   1      -1.778  -0.146   0.932  0.00  0.00    -0.078 A 
ATOM      4  C2  OXE d   1      -2.134  -0.719  -0.265  0.00  0.00    -0.078 A 
ATOM      5  C3  OXE d   1      -1.160  -0.964  -1.229  0.00  0.00     0.003 A 
ATOM      6  C4  OXE d   1       0.195  -0.775  -0.931  0.00  0.00    -0.002 A 
ATOM      7  C5  OXE d   1       0.583  -0.230   0.298  0.00  0.00    -0.002 A 
ATOM      8  C6  OXE d   1      -0.392   0.129   1.222  0.00  0.00     0.003 A 
ENDROOT
TORSDOF 0
ENDMDL
