MODEL 1
REMARK minimizedAffinity 0.922548711
REMARK minimizedRMSD -1
REMARK  0 active torsions:
REMARK  status: ('A' for Active; 'I' for Inactive)
ROOT
ATOM      1  C2' OXE d   1       4.027  -0.407  -1.063  0.00  0.00     0.078 C 
ATOM      2  C1' OXE d   1       1.233  -0.138  -1.069  0.00  0.00     0.078 C 
ATOM      3  C1  OXE d   1       2.014   0.606  -2.124  0.00  0.00    -0.078 A 
ATOM      4  C2  OXE d   1       3.384   0.506  -2.085  0.00  0.00    -0.078 A 
ATOM      5  C3  OXE d   1       4.149   1.127  -3.067  0.00  0.00     0.003 A 
ATOM      6  C4  OXE d   1       3.546   1.977  -4.003  0.00  0.00    -0.002 A 
ATOM      7  C5  OXE d   1       2.155   2.125  -4.035  0.00  0.00    -0.002 A 
ATOM      8  C6  OXE d   1       1.373   1.414  -3.132  0.00  0.00     0.003 A 
ENDROOT
TORSDOF 0
ENDMDL
