MODEL 1
REMARK minimizedAffinity -0.679943562
REMARK minimizedRMSD -1
REMARK  0 active torsions:
REMARK  status: ('A' for Active; 'I' for Inactive)
ROOT
ATOM      1  C2' OXE d   1       3.202   2.383   0.738  0.00  0.00     0.078 C 
ATOM      2  C1' OXE d   1       3.875   3.747  -1.622  0.00  0.00     0.078 C 
ATOM      3  C1  OXE d   1       3.940   2.240  -1.637  0.00  0.00    -0.078 A 
ATOM      4  C2  OXE d   1       3.654   1.583  -0.465  0.00  0.00    -0.078 A 
ATOM      5  C3  OXE d   1       3.646   0.191  -0.439  0.00  0.00     0.003 A 
ATOM      6  C4  OXE d   1       4.076  -0.541  -1.552  0.00  0.00    -0.002 A 
ATOM      7  C5  OXE d   1       4.409   0.111  -2.744  0.00  0.00    -0.002 A 
ATOM      8  C6  OXE d   1       4.306   1.495  -2.816  0.00  0.00     0.003 A 
ENDROOT
TORSDOF 0
ENDMDL
