MODEL 1
REMARK minimizedAffinity -0.733359039
REMARK minimizedRMSD -1
REMARK  0 active torsions:
REMARK  status: ('A' for Active; 'I' for Inactive)
ROOT
ATOM      1  C2' OXE d   1      -0.655   0.067   3.140  0.00  0.00     0.078 C 
ATOM      2  C1' OXE d   1       0.662   0.743   0.755  0.00  0.00     0.078 C 
ATOM      3  C1  OXE d   1      -0.770   0.282   0.661  0.00  0.00    -0.078 A 
ATOM      4  C2  OXE d   1      -1.393  -0.091   1.828  0.00  0.00    -0.078 A 
ATOM      5  C3  OXE d   1      -2.731  -0.473   1.804  0.00  0.00     0.003 A 
ATOM      6  C4  OXE d   1      -3.403  -0.627   0.585  0.00  0.00    -0.002 A 
ATOM      7  C5  OXE d   1      -2.775  -0.290  -0.619  0.00  0.00    -0.002 A 
ATOM      8  C6  OXE d   1      -1.476   0.205  -0.595  0.00  0.00     0.003 A 
ENDROOT
TORSDOF 0
ENDMDL
