MODEL 1
REMARK minimizedAffinity -1.32976353
REMARK minimizedRMSD -1
REMARK  0 active torsions:
REMARK  status: ('A' for Active; 'I' for Inactive)
ROOT
ATOM      1  C2' OXE d   1      -0.515  -0.494  -1.156  0.00  0.00     0.078 C 
ATOM      2  C1' OXE d   1      -3.086   0.474  -0.578  0.00  0.00     0.078 C 
ATOM      3  C1  OXE d   1      -2.153   0.219   0.580  0.00  0.00    -0.078 A 
ATOM      4  C2  OXE d   1      -0.914  -0.299   0.291  0.00  0.00    -0.078 A 
ATOM      5  C3  OXE d   1       0.005  -0.502   1.317  0.00  0.00     0.003 A 
ATOM      6  C4  OXE d   1      -0.375  -0.328   2.654  0.00  0.00    -0.002 A 
ATOM      7  C5  OXE d   1      -1.647   0.160   2.972  0.00  0.00    -0.002 A 
ATOM      8  C6  OXE d   1      -2.531   0.479   1.947  0.00  0.00     0.003 A 
ENDROOT
TORSDOF 0
ENDMDL
