MODEL 1
REMARK minimizedAffinity 10.4545307
REMARK minimizedRMSD -1
REMARK  0 active torsions:
REMARK  status: ('A' for Active; 'I' for Inactive)
ROOT
ATOM      1  C2' OXE d   1       3.791   5.045   1.280  0.00  0.00     0.078 C 
ATOM      2  C1' OXE d   1       2.066   2.970   2.052  0.00  0.00     0.078 C 
ATOM      3  C1  OXE d   1       3.302   3.203   2.885  0.00  0.00    -0.078 A 
ATOM      4  C2  OXE d   1       4.164   4.190   2.473  0.00  0.00    -0.078 A 
ATOM      5  C3  OXE d   1       5.291   4.484   3.235  0.00  0.00     0.003 A 
ATOM      6  C4  OXE d   1       5.634   3.682   4.331  0.00  0.00    -0.002 A 
ATOM      7  C5  OXE d   1       4.790   2.646   4.744  0.00  0.00    -0.002 A 
ATOM      8  C6  OXE d   1       3.601   2.422   4.059  0.00  0.00     0.003 A 
ENDROOT
TORSDOF 0
ENDMDL
