MODEL 1
REMARK minimizedAffinity -1.90081739
REMARK minimizedRMSD -1
REMARK  0 active torsions:
REMARK  status: ('A' for Active; 'I' for Inactive)
ROOT
ATOM      1  C2' OXE d   1      -1.891   0.304   1.995  0.00  0.00     0.078 C 
ATOM      2  C1' OXE d   1      -2.745  -0.664  -0.498  0.00  0.00     0.078 C 
ATOM      3  C1  OXE d   1      -1.286  -0.816  -0.147  0.00  0.00    -0.078 A 
ATOM      4  C2  OXE d   1      -0.868  -0.298   1.055  0.00  0.00    -0.078 A 
ATOM      5  C3  OXE d   1       0.456  -0.460   1.452  0.00  0.00     0.003 A 
ATOM      6  C4  OXE d   1       1.398  -1.008   0.573  0.00  0.00    -0.002 A 
ATOM      7  C5  OXE d   1       1.001  -1.507  -0.672  0.00  0.00    -0.002 A 
ATOM      8  C6  OXE d   1      -0.342  -1.457  -1.029  0.00  0.00     0.003 A 
ENDROOT
TORSDOF 0
ENDMDL
