MODEL 1
REMARK minimizedAffinity -2.10622573
REMARK minimizedRMSD -1
REMARK  0 active torsions:
REMARK  status: ('A' for Active; 'I' for Inactive)
ROOT
ATOM      1  C2' OXE d   1      -0.368  -0.561  -1.333  0.00  0.00     0.078 C 
ATOM      2  C1' OXE d   1       1.891   0.058   0.215  0.00  0.00     0.078 C 
ATOM      3  C1  OXE d   1       0.575  -0.120   0.930  0.00  0.00    -0.078 A 
ATOM      4  C2  OXE d   1      -0.534  -0.377   0.160  0.00  0.00    -0.078 A 
ATOM      5  C3  OXE d   1      -1.762  -0.604   0.774  0.00  0.00     0.003 A 
ATOM      6  C4  OXE d   1      -1.909  -0.423   2.154  0.00  0.00    -0.002 A 
ATOM      7  C5  OXE d   1      -0.800  -0.122   2.953  0.00  0.00    -0.002 A 
ATOM      8  C6  OXE d   1       0.454  -0.010   2.363  0.00  0.00     0.003 A 
ENDROOT
TORSDOF 0
ENDMDL
