MODEL 1
REMARK minimizedAffinity 6.14559937
REMARK minimizedRMSD -1
REMARK  0 active torsions:
REMARK  status: ('A' for Active; 'I' for Inactive)
ROOT
ATOM      1  C4' PXY d   1       5.998  -1.306   5.138  0.00  0.00     0.077 C 
ATOM      2  C1' PXY d   1       4.272   3.689   2.798  0.00  0.00     0.077 C 
ATOM      3  C1  PXY d   1       4.734   2.385   3.417  0.00  0.00    -0.082 A 
ATOM      4  C2  PXY d   1       4.396   1.237   2.854  0.00  0.00     0.003 A 
ATOM      5  C3  PXY d   1       4.779   0.048   3.419  0.00  0.00     0.003 A 
ATOM      6  C4  PXY d   1       5.561   0.035   4.542  0.00  0.00    -0.082 A 
ATOM      7  C5  PXY d   1       5.920   1.202   5.117  0.00  0.00     0.003 A 
ATOM      8  C6  PXY d   1       5.486   2.398   4.551  0.00  0.00     0.003 A 
ENDROOT
TORSDOF 0
ENDMDL
