MODEL 1
REMARK minimizedAffinity 5.65748739
REMARK minimizedRMSD -1
REMARK  0 active torsions:
REMARK  status: ('A' for Active; 'I' for Inactive)
ROOT
ATOM      1  C4' PXY d   1       0.242   0.945  -1.577  0.00  0.00     0.077 C 
ATOM      2  C1' PXY d   1      -3.649   4.782   0.310  0.00  0.00     0.077 C 
ATOM      3  C1  PXY d   1      -2.620   3.786  -0.188  0.00  0.00    -0.082 A 
ATOM      4  C2  PXY d   1      -3.015   2.600  -0.623  0.00  0.00     0.003 A 
ATOM      5  C3  PXY d   1      -2.096   1.675  -1.047  0.00  0.00     0.003 A 
ATOM      6  C4  PXY d   1      -0.763   1.986  -1.074  0.00  0.00    -0.082 A 
ATOM      7  C5  PXY d   1      -0.353   3.198  -0.642  0.00  0.00     0.003 A 
ATOM      8  C6  PXY d   1      -1.298   4.107  -0.177  0.00  0.00     0.003 A 
ENDROOT
TORSDOF 0
ENDMDL
