MODEL 1
REMARK minimizedAffinity 4.26450586
REMARK minimizedRMSD -1
REMARK  0 active torsions:
REMARK  status: ('A' for Active; 'I' for Inactive)
ROOT
ATOM      1  C4' PXY d   1       5.668   4.523   3.899  0.00  0.00     0.077 C 
ATOM      2  C1' PXY d   1       5.588  -1.226   4.498  0.00  0.00     0.077 C 
ATOM      3  C1  PXY d   1       5.610   0.280   4.328  0.00  0.00    -0.082 A 
ATOM      4  C2  PXY d   1       6.000   1.047   5.334  0.00  0.00     0.003 A 
ATOM      5  C3  PXY d   1       5.995   2.412   5.208  0.00  0.00     0.003 A 
ATOM      6  C4  PXY d   1       5.639   2.997   4.022  0.00  0.00    -0.082 A 
ATOM      7  C5  PXY d   1       5.250   2.222   2.988  0.00  0.00     0.003 A 
ATOM      8  C6  PXY d   1       5.222   0.840   3.149  0.00  0.00     0.003 A 
ENDROOT
TORSDOF 0
ENDMDL
