MODEL 1
REMARK minimizedAffinity 3.54159641
REMARK minimizedRMSD -1
REMARK  0 active torsions:
REMARK  status: ('A' for Active; 'I' for Inactive)
ROOT
ATOM      1  C4' PXY d   1      -4.818  -1.080  -1.109  0.00  0.00     0.077 C 
ATOM      2  C1' PXY d   1      -2.869  -1.109   4.333  0.00  0.00     0.077 C 
ATOM      3  C1  PXY d   1      -3.368  -1.098   2.902  0.00  0.00    -0.082 A 
ATOM      4  C2  PXY d   1      -4.661  -0.953   2.661  0.00  0.00     0.003 A 
ATOM      5  C3  PXY d   1      -5.134  -0.973   1.374  0.00  0.00     0.003 A 
ATOM      6  C4  PXY d   1      -4.268  -1.088   0.320  0.00  0.00    -0.082 A 
ATOM      7  C5  PXY d   1      -2.946  -1.225   0.557  0.00  0.00     0.003 A 
ATOM      8  C6  PXY d   1      -2.491  -1.244   1.872  0.00  0.00     0.003 A 
ENDROOT
TORSDOF 0
ENDMDL
