MODEL 1
REMARK minimizedAffinity 5.6580658
REMARK minimizedRMSD -1
REMARK  0 active torsions:
REMARK  status: ('A' for Active; 'I' for Inactive)
ROOT
ATOM      1  C4' PXY d   1       3.748   0.347   0.970  0.00  0.00     0.077 C 
ATOM      2  C1' PXY d   1       5.998   2.121   5.990  0.00  0.00     0.077 C 
ATOM      3  C1  PXY d   1       5.401   1.667   4.673  0.00  0.00    -0.082 A 
ATOM      4  C2  PXY d   1       5.400   0.380   4.364  0.00  0.00     0.003 A 
ATOM      5  C3  PXY d   1       4.893  -0.045   3.163  0.00  0.00     0.003 A 
ATOM      6  C4  PXY d   1       4.332   0.850   2.292  0.00  0.00    -0.082 A 
ATOM      7  C5  PXY d   1       4.319   2.163   2.605  0.00  0.00     0.003 A 
ATOM      8  C6  PXY d   1       4.876   2.579   3.810  0.00  0.00     0.003 A 
ENDROOT
TORSDOF 0
ENDMDL
