MODEL 1
REMARK minimizedAffinity 5.08336878
REMARK minimizedRMSD -1
REMARK  0 active torsions:
REMARK  status: ('A' for Active; 'I' for Inactive)
ROOT
ATOM      1  C4' PXY d   1       5.999  -1.735   5.249  0.00  0.00     0.077 C 
ATOM      2  C1' PXY d   1       4.552   3.359   2.932  0.00  0.00     0.077 C 
ATOM      3  C1  PXY d   1       4.941   2.029   3.546  0.00  0.00    -0.082 A 
ATOM      4  C2  PXY d   1       4.599   0.904   2.940  0.00  0.00     0.003 A 
ATOM      5  C3  PXY d   1       4.915  -0.308   3.498  0.00  0.00     0.003 A 
ATOM      6  C4  PXY d   1       5.635  -0.369   4.661  0.00  0.00    -0.082 A 
ATOM      7  C5  PXY d   1       5.997   0.774   5.280  0.00  0.00     0.003 A 
ATOM      8  C6  PXY d   1       5.631   1.994   4.719  0.00  0.00     0.003 A 
ENDROOT
TORSDOF 0
ENDMDL
