MODEL 1
REMARK minimizedAffinity 8.5406971
REMARK minimizedRMSD -1
REMARK  0 active torsions:
REMARK  status: ('A' for Active; 'I' for Inactive)
ROOT
ATOM      1  C4' PXY d   1       3.433   3.383   1.128  0.00  0.00     0.077 C 
ATOM      2  C1' PXY d   1       6.000   0.483   5.420  0.00  0.00     0.077 C 
ATOM      3  C1  PXY d   1       5.328   1.255   4.301  0.00  0.00    -0.082 A 
ATOM      4  C2  PXY d   1       4.526   0.622   3.460  0.00  0.00     0.003 A 
ATOM      5  C3  PXY d   1       3.935   1.298   2.423  0.00  0.00     0.003 A 
ATOM      6  C4  PXY d   1       4.126   2.646   2.278  0.00  0.00    -0.082 A 
ATOM      7  C5  PXY d   1       4.934   3.301   3.138  0.00  0.00     0.003 A 
ATOM      8  C6  PXY d   1       5.557   2.589   4.159  0.00  0.00     0.003 A 
ENDROOT
TORSDOF 0
ENDMDL
