MODEL 1
REMARK minimizedAffinity 3.5338316
REMARK minimizedRMSD -1
REMARK  0 active torsions:
REMARK  status: ('A' for Active; 'I' for Inactive)
ROOT
ATOM      1  C4' PXY d   1       5.208  -0.973   3.384  0.00  0.00     0.077 C 
ATOM      2  C1' PXY d   1       5.368   4.788   3.834  0.00  0.00     0.077 C 
ATOM      3  C1  PXY d   1       5.337   3.276   3.722  0.00  0.00    -0.082 A 
ATOM      4  C2  PXY d   1       4.662   2.706   2.738  0.00  0.00     0.003 A 
ATOM      5  C3  PXY d   1       4.597   1.340   2.641  0.00  0.00     0.003 A 
ATOM      6  C4  PXY d   1       5.274   0.550   3.530  0.00  0.00    -0.082 A 
ATOM      7  C5  PXY d   1       5.975   1.124   4.531  0.00  0.00     0.003 A 
ATOM      8  C6  PXY d   1       5.994   2.512   4.636  0.00  0.00     0.003 A 
ENDROOT
TORSDOF 0
ENDMDL
