MODEL 1
REMARK minimizedAffinity -0.340748578
REMARK minimizedRMSD -1
REMARK  0 active torsions:
REMARK  status: ('A' for Active; 'I' for Inactive)
ROOT
ATOM      1  C4' PXY d   1       0.824   1.966  -2.650  0.00  0.00     0.077 C 
ATOM      2  C1' PXY d   1       5.686   0.118  -5.172  0.00  0.00     0.077 C 
ATOM      3  C1  PXY d   1       4.408   0.590  -4.508  0.00  0.00    -0.082 A 
ATOM      4  C2  PXY d   1       3.865   1.739  -4.877  0.00  0.00     0.003 A 
ATOM      5  C3  PXY d   1       2.727   2.197  -4.264  0.00  0.00     0.003 A 
ATOM      6  C4  PXY d   1       2.109   1.445  -3.301  0.00  0.00    -0.082 A 
ATOM      7  C5  PXY d   1       2.651   0.267  -2.926  0.00  0.00     0.003 A 
ATOM      8  C6  PXY d   1       3.829  -0.160  -3.531  0.00  0.00     0.003 A 
ENDROOT
TORSDOF 0
ENDMDL
