MODEL 1
REMARK minimizedAffinity 4.59606314
REMARK minimizedRMSD -1
REMARK  0 active torsions:
REMARK  status: ('A' for Active; 'I' for Inactive)
ROOT
ATOM      1  C4' PXY d   1       1.023   1.819  -3.128  0.00  0.00     0.077 C 
ATOM      2  C1' PXY d   1      -2.071  -1.630   0.328  0.00  0.00     0.077 C 
ATOM      3  C1  PXY d   1      -1.250  -0.735  -0.580  0.00  0.00    -0.082 A 
ATOM      4  C2  PXY d   1      -1.431   0.575  -0.543  0.00  0.00     0.003 A 
ATOM      5  C3  PXY d   1      -0.720   1.397  -1.379  0.00  0.00     0.003 A 
ATOM      6  C4  PXY d   1       0.224   0.877  -2.224  0.00  0.00    -0.082 A 
ATOM      7  C5  PXY d   1       0.422  -0.458  -2.259  0.00  0.00     0.003 A 
ATOM      8  C6  PXY d   1      -0.339  -1.278  -1.432  0.00  0.00     0.003 A 
ENDROOT
TORSDOF 0
ENDMDL
