MODEL 1
REMARK minimizedAffinity 5.53971577
REMARK minimizedRMSD -1
REMARK  0 active torsions:
REMARK  status: ('A' for Active; 'I' for Inactive)
ROOT
ATOM      1  C4' PXY d   1       5.608   5.258   4.432  0.00  0.00     0.077 C 
ATOM      2  C1' PXY d   1       4.748  -0.370   3.433  0.00  0.00     0.077 C 
ATOM      3  C1  PXY d   1       4.970   1.108   3.683  0.00  0.00    -0.082 A 
ATOM      4  C2  PXY d   1       5.810   1.493   4.629  0.00  0.00     0.003 A 
ATOM      5  C3  PXY d   1       5.999   2.826   4.890  0.00  0.00     0.003 A 
ATOM      6  C4  PXY d   1       5.360   3.776   4.138  0.00  0.00    -0.082 A 
ATOM      7  C5  PXY d   1       4.509   3.391   3.164  0.00  0.00     0.003 A 
ATOM      8  C6  PXY d   1       4.300   2.033   2.943  0.00  0.00     0.003 A 
ENDROOT
TORSDOF 0
ENDMDL
