MODEL 1
REMARK minimizedAffinity -5.58521032
REMARK minimizedRMSD -1
REMARK  0 active torsions:
REMARK  status: ('A' for Active; 'I' for Inactive)
ROOT
ATOM      1  C4' PXY d   1      -4.158   3.011   4.768  0.00  0.00     0.077 C 
ATOM      2  C1' PXY d   1      -2.969  -1.080   0.861  0.00  0.00     0.077 C 
ATOM      3  C1  PXY d   1      -3.269  -0.002   1.884  0.00  0.00    -0.082 A 
ATOM      4  C2  PXY d   1      -4.201  -0.211   2.800  0.00  0.00     0.003 A 
ATOM      5  C3  PXY d   1      -4.507   0.766   3.713  0.00  0.00     0.003 A 
ATOM      6  C4  PXY d   1      -3.815   1.947   3.722  0.00  0.00    -0.082 A 
ATOM      7  C5  PXY d   1      -2.855   2.163   2.797  0.00  0.00     0.003 A 
ATOM      8  C6  PXY d   1      -2.588   1.176   1.854  0.00  0.00     0.003 A 
ENDROOT
TORSDOF 0
ENDMDL
