MODEL 1
REMARK minimizedAffinity 6.65564632
REMARK minimizedRMSD -1
REMARK  0 active torsions:
REMARK  status: ('A' for Active; 'I' for Inactive)
ROOT
ATOM      1  C4' PXY d   1      -3.056   4.226   0.969  0.00  0.00     0.077 C 
ATOM      2  C1' PXY d   1       0.325   0.574  -1.971  0.00  0.00     0.077 C 
ATOM      3  C1  PXY d   1      -0.572   1.525  -1.204  0.00  0.00    -0.082 A 
ATOM      4  C2  PXY d   1      -0.121   2.724  -0.871  0.00  0.00     0.003 A 
ATOM      5  C3  PXY d   1      -0.908   3.585  -0.150  0.00  0.00     0.003 A 
ATOM      6  C4  PXY d   1      -2.188   3.236   0.187  0.00  0.00    -0.082 A 
ATOM      7  C5  PXY d   1      -2.659   2.019  -0.159  0.00  0.00     0.003 A 
ATOM      8  C6  PXY d   1      -1.830   1.144  -0.855  0.00  0.00     0.003 A 
ENDROOT
TORSDOF 0
ENDMDL
