MODEL 1
REMARK minimizedAffinity 4.53622484
REMARK minimizedRMSD -1
REMARK  0 active torsions:
REMARK  status: ('A' for Active; 'I' for Inactive)
ROOT
ATOM      1  C4' PXY d   1      -2.499  -0.055  -0.295  0.00  0.00     0.077 C 
ATOM      2  C1' PXY d   1      -3.141   5.688  -0.173  0.00  0.00     0.077 C 
ATOM      3  C1  PXY d   1      -2.960   4.183  -0.203  0.00  0.00    -0.082 A 
ATOM      4  C2  PXY d   1      -3.855   3.429  -0.821  0.00  0.00     0.003 A 
ATOM      5  C3  PXY d   1      -3.724   2.064  -0.830  0.00  0.00     0.003 A 
ATOM      6  C4  PXY d   1      -2.637   1.469  -0.248  0.00  0.00    -0.082 A 
ATOM      7  C5  PXY d   1      -1.714   2.232   0.375  0.00  0.00     0.003 A 
ATOM      8  C6  PXY d   1      -1.887   3.613   0.409  0.00  0.00     0.003 A 
ENDROOT
TORSDOF 0
ENDMDL
