MODEL 1
REMARK minimizedAffinity -5.67513466
REMARK minimizedRMSD -1
REMARK  0 active torsions:
REMARK  status: ('A' for Active; 'I' for Inactive)
ROOT
ATOM      1  C4' PXY d   1      -4.415   4.476   5.386  0.00  0.00     0.077 C 
ATOM      2  C1' PXY d   1      -3.026   1.563   0.591  0.00  0.00     0.077 C 
ATOM      3  C1  PXY d   1      -3.384   2.338   1.844  0.00  0.00    -0.082 A 
ATOM      4  C2  PXY d   1      -3.640   1.685   2.966  0.00  0.00     0.003 A 
ATOM      5  C3  PXY d   1      -3.996   2.368   4.100  0.00  0.00     0.003 A 
ATOM      6  C4  PXY d   1      -4.040   3.736   4.099  0.00  0.00    -0.082 A 
ATOM      7  C5  PXY d   1      -3.771   4.410   2.961  0.00  0.00     0.003 A 
ATOM      8  C6  PXY d   1      -3.451   3.696   1.810  0.00  0.00     0.003 A 
ENDROOT
TORSDOF 0
ENDMDL
