MODEL 1
REMARK minimizedAffinity 2.28547668
REMARK minimizedRMSD -1
REMARK  0 active torsions:
REMARK  status: ('A' for Active; 'I' for Inactive)
ROOT
ATOM      1  C4' PXY d   1       5.985   5.746   4.166  0.00  0.00     0.077 C 
ATOM      2  C1' PXY d   1       5.430   0.010   3.715  0.00  0.00     0.077 C 
ATOM      3  C1  PXY d   1       5.572   1.514   3.846  0.00  0.00    -0.082 A 
ATOM      4  C2  PXY d   1       5.408   2.282   2.781  0.00  0.00     0.003 A 
ATOM      5  C3  PXY d   1       5.565   3.641   2.875  0.00  0.00     0.003 A 
ATOM      6  C4  PXY d   1       5.841   4.224   4.083  0.00  0.00    -0.082 A 
ATOM      7  C5  PXY d   1       6.000   3.449   5.176  0.00  0.00     0.003 A 
ATOM      8  C6  PXY d   1       5.877   2.068   5.051  0.00  0.00     0.003 A 
ENDROOT
TORSDOF 0
ENDMDL
