MODEL 1
REMARK minimizedAffinity 3.60186529
REMARK minimizedRMSD -1
REMARK  0 active torsions:
REMARK  status: ('A' for Active; 'I' for Inactive)
ROOT
ATOM      1  C4' PXY d   1      -2.982  -0.202   2.910  0.00  0.00     0.077 C 
ATOM      2  C1' PXY d   1      -2.835   4.199  -0.835  0.00  0.00     0.077 C 
ATOM      3  C1  PXY d   1      -2.880   3.038   0.139  0.00  0.00    -0.082 A 
ATOM      4  C2  PXY d   1      -2.714   3.262   1.432  0.00  0.00     0.003 A 
ATOM      5  C3  PXY d   1      -2.721   2.219   2.323  0.00  0.00     0.003 A 
ATOM      6  C4  PXY d   1      -2.953   0.941   1.891  0.00  0.00    -0.082 A 
ATOM      7  C5  PXY d   1      -3.134   0.706   0.575  0.00  0.00     0.003 A 
ATOM      8  C6  PXY d   1      -3.082   1.772  -0.318  0.00  0.00     0.003 A 
ENDROOT
TORSDOF 0
ENDMDL
