MODEL 1
REMARK minimizedAffinity 3.9554472
REMARK minimizedRMSD -1
REMARK  0 active torsions:
REMARK  status: ('A' for Active; 'I' for Inactive)
ROOT
ATOM      1  C4' PXY d   1       2.546   4.917  -5.126  0.00  0.00     0.077 C 
ATOM      2  C1' PXY d   1       5.999   0.335  -5.834  0.00  0.00     0.077 C 
ATOM      3  C1  PXY d   1       5.086   1.532  -5.657  0.00  0.00    -0.082 A 
ATOM      4  C2  PXY d   1       5.572   2.659  -5.164  0.00  0.00     0.003 A 
ATOM      5  C3  PXY d   1       4.753   3.741  -4.968  0.00  0.00     0.003 A 
ATOM      6  C4  PXY d   1       3.434   3.686  -5.331  0.00  0.00    -0.082 A 
ATOM      7  C5  PXY d   1       2.933   2.543  -5.845  0.00  0.00     0.003 A 
ATOM      8  C6  PXY d   1       3.771   1.443  -5.997  0.00  0.00     0.003 A 
ENDROOT
TORSDOF 0
ENDMDL
