MODEL 1
REMARK minimizedAffinity 5.27915001
REMARK minimizedRMSD -1
REMARK  0 active torsions:
REMARK  status: ('A' for Active; 'I' for Inactive)
ROOT
ATOM      1  C4' PXY d   1      -3.062  -1.116   2.259  0.00  0.00     0.077 C 
ATOM      2  C1' PXY d   1      -2.788   3.978  -0.460  0.00  0.00     0.077 C 
ATOM      3  C1  PXY d   1      -2.870   2.639   0.245  0.00  0.00    -0.082 A 
ATOM      4  C2  PXY d   1      -2.394   2.517   1.474  0.00  0.00     0.003 A 
ATOM      5  C3  PXY d   1      -2.431   1.305   2.114  0.00  0.00     0.003 A 
ATOM      6  C4  PXY d   1      -3.010   0.220   1.512  0.00  0.00    -0.082 A 
ATOM      7  C5  PXY d   1      -3.507   0.339   0.262  0.00  0.00     0.003 A 
ATOM      8  C6  PXY d   1      -3.423   1.568  -0.386  0.00  0.00     0.003 A 
ENDROOT
TORSDOF 0
ENDMDL
