MODEL 1
REMARK minimizedAffinity 8.38629532
REMARK minimizedRMSD -1
REMARK  0 active torsions:
REMARK  status: ('A' for Active; 'I' for Inactive)
ROOT
ATOM      1  N1  IND d   1       0.441   2.213   1.253  0.00  0.00    -0.196 N 
ATOM      2  C2  IND d   1       1.630   2.888   1.281  0.00  0.00     0.054 A 
ATOM      3  C3  IND d   1       2.352   2.614   0.172  0.00  0.00    -0.031 A 
ATOM      4  C4  IND d   1       1.735   1.167  -1.867  0.00  0.00     0.051 A 
ATOM      5  C5  IND d   1       0.770   0.321  -2.334  0.00  0.00    -0.031 A 
ATOM      6  C6  IND d   1      -0.379   0.058  -1.616  0.00  0.00     0.015 A 
ATOM      7  C7  IND d   1      -0.612   0.644  -0.404  0.00  0.00    -0.016 A 
ATOM      8  C8  IND d   1       0.370   1.499   0.077  0.00  0.00    -0.047 A 
ATOM      9  C9  IND d   1       1.557   1.736  -0.628  0.00  0.00    -0.096 A 
ATOM     10  HN1 IND d   1      -0.161   2.231   1.866  0.00  0.00     0.298 HD
ENDROOT
TORSDOF 0
ENDMDL
