MODEL 1
REMARK minimizedAffinity 13.8590984
REMARK minimizedRMSD -1
REMARK  0 active torsions:
REMARK  status: ('A' for Active; 'I' for Inactive)
ROOT
ATOM      1  N1  IND d   1       2.230   3.746   1.857  0.00  0.00    -0.196 N 
ATOM      2  C2  IND d   1       2.007   2.397   1.853  0.00  0.00     0.054 A 
ATOM      3  C3  IND d   1       0.874   2.110   1.174  0.00  0.00    -0.031 A 
ATOM      4  C4  IND d   1      -0.715   3.686  -0.097  0.00  0.00     0.051 A 
ATOM      5  C5  IND d   1      -0.947   5.010  -0.348  0.00  0.00    -0.031 A 
ATOM      6  C6  IND d   1      -0.113   5.999   0.131  0.00  0.00     0.015 A 
ATOM      7  C7  IND d   1       0.995   5.700   0.872  0.00  0.00    -0.016 A 
ATOM      8  C8  IND d   1       1.229   4.358   1.135  0.00  0.00    -0.047 A 
ATOM      9  C9  IND d   1       0.363   3.352   0.687  0.00  0.00    -0.096 A 
ATOM     10  HN1 IND d   1       2.885   4.145   2.246  0.00  0.00     0.298 HD
ENDROOT
TORSDOF 0
ENDMDL
