MODEL 1
REMARK minimizedAffinity -0.864068866
REMARK minimizedRMSD -1
REMARK  0 active torsions:
REMARK  status: ('A' for Active; 'I' for Inactive)
ROOT
ATOM      1  N1  IND d   1       4.500   1.478  -4.536  0.00  0.00    -0.196 N 
ATOM      2  C2  IND d   1       5.600   1.134  -3.800  0.00  0.00     0.054 A 
ATOM      3  C3  IND d   1       6.000   2.176  -3.037  0.00  0.00    -0.031 A 
ATOM      4  C4  IND d   1       4.939   4.505  -2.762  0.00  0.00     0.051 A 
ATOM      5  C5  IND d   1       3.942   5.299  -3.255  0.00  0.00    -0.031 A 
ATOM      6  C6  IND d   1       3.061   4.851  -4.218  0.00  0.00     0.015 A 
ATOM      7  C7  IND d   1       3.137   3.581  -4.717  0.00  0.00    -0.016 A 
ATOM      8  C8  IND d   1       4.152   2.774  -4.224  0.00  0.00    -0.047 A 
ATOM      9  C9  IND d   1       5.076   3.238  -3.278  0.00  0.00    -0.096 A 
ATOM     10  HN1 IND d   1       4.094   0.971  -5.099  0.00  0.00     0.298 HD
ENDROOT
TORSDOF 0
ENDMDL
