MODEL 1
REMARK minimizedAffinity -3.14451098
REMARK minimizedRMSD -1
REMARK  0 active torsions:
REMARK  status: ('A' for Active; 'I' for Inactive)
ROOT
ATOM      1  N1  IND d   1      -0.824  -0.315  -1.217  0.00  0.00    -0.196 N 
ATOM      2  C2  IND d   1      -0.711  -0.991  -0.034  0.00  0.00     0.054 A 
ATOM      3  C3  IND d   1       0.532  -1.508   0.094  0.00  0.00    -0.031 A 
ATOM      4  C4  IND d   1       2.567  -1.281  -1.465  0.00  0.00     0.051 A 
ATOM      5  C5  IND d   1       2.941  -0.787  -2.684  0.00  0.00    -0.031 A 
ATOM      6  C6  IND d   1       2.062  -0.094  -3.490  0.00  0.00     0.015 A 
ATOM      7  C7  IND d   1       0.773   0.141  -3.102  0.00  0.00    -0.016 A 
ATOM      8  C8  IND d   1       0.388  -0.365  -1.869  0.00  0.00    -0.047 A 
ATOM      9  C9  IND d   1       1.264  -1.105  -1.064  0.00  0.00    -0.096 A 
ATOM     10  HN1 IND d   1      -1.534   0.076  -1.505  0.00  0.00     0.298 HD
ENDROOT
TORSDOF 0
ENDMDL
