MODEL 1
REMARK minimizedAffinity -3.38917303
REMARK minimizedRMSD -1
REMARK  0 active torsions:
REMARK  status: ('A' for Active; 'I' for Inactive)
ROOT
ATOM      1  N1  IND d   1      -1.605  -0.441   0.059  0.00  0.00    -0.196 N 
ATOM      2  C2  IND d   1      -1.602   0.825  -0.457  0.00  0.00     0.054 A 
ATOM      3  C3  IND d   1      -0.467   1.045  -1.157  0.00  0.00    -0.031 A 
ATOM      4  C4  IND d   1       1.475  -0.564  -1.672  0.00  0.00     0.051 A 
ATOM      5  C5  IND d   1       1.941  -1.817  -1.387  0.00  0.00    -0.031 A 
ATOM      6  C6  IND d   1       1.233  -2.694  -0.591  0.00  0.00     0.015 A 
ATOM      7  C7  IND d   1       0.022  -2.353  -0.058  0.00  0.00    -0.016 A 
ATOM      8  C8  IND d   1      -0.451  -1.079  -0.340  0.00  0.00    -0.047 A 
ATOM      9  C9  IND d   1       0.284  -0.169  -1.112  0.00  0.00    -0.096 A 
ATOM     10  HN1 IND d   1      -2.223  -0.781   0.550  0.00  0.00     0.298 HD
ENDROOT
TORSDOF 0
ENDMDL
