MODEL 1
REMARK minimizedAffinity -4.17087746
REMARK minimizedRMSD -1
REMARK  0 active torsions:
REMARK  status: ('A' for Active; 'I' for Inactive)
ROOT
ATOM      1  N1  IND d   1       5.248   1.371   2.563  0.00  0.00    -0.196 N 
ATOM      2  C2  IND d   1       5.249   2.641   3.069  0.00  0.00     0.054 A 
ATOM      3  C3  IND d   1       5.342   2.610   4.417  0.00  0.00    -0.031 A 
ATOM      4  C4  IND d   1       5.605   0.591   5.993  0.00  0.00     0.051 A 
ATOM      5  C5  IND d   1       5.619  -0.776   6.000  0.00  0.00    -0.031 A 
ATOM      6  C6  IND d   1       5.510  -1.511   4.837  0.00  0.00     0.015 A 
ATOM      7  C7  IND d   1       5.394  -0.905   3.619  0.00  0.00    -0.016 A 
ATOM      8  C8  IND d   1       5.373   0.482   3.609  0.00  0.00    -0.047 A 
ATOM      9  C9  IND d   1       5.440   1.234   4.789  0.00  0.00    -0.096 A 
ATOM     10  HN1 IND d   1       5.180   1.162   1.732  0.00  0.00     0.298 HD
ENDROOT
TORSDOF 0
ENDMDL
