MODEL 1
REMARK minimizedAffinity -3.79580808
REMARK minimizedRMSD -1
REMARK  0 active torsions:
REMARK  status: ('A' for Active; 'I' for Inactive)
ROOT
ATOM      1  N1  IND d   1       1.734  -3.513  -3.719  0.00  0.00    -0.196 N 
ATOM      2  C2  IND d   1       1.529  -3.383  -5.065  0.00  0.00     0.054 A 
ATOM      3  C3  IND d   1       1.338  -2.085  -5.389  0.00  0.00    -0.031 A 
ATOM      4  C4  IND d   1       1.421   0.005  -3.887  0.00  0.00     0.051 A 
ATOM      5  C5  IND d   1       1.541   0.388  -2.581  0.00  0.00    -0.031 A 
ATOM      6  C6  IND d   1       1.738  -0.527  -1.567  0.00  0.00     0.015 A 
ATOM      7  C7  IND d   1       1.834  -1.865  -1.825  0.00  0.00    -0.016 A 
ATOM      8  C8  IND d   1       1.706  -2.259  -3.149  0.00  0.00    -0.047 A 
ATOM      9  C9  IND d   1       1.464  -1.339  -4.177  0.00  0.00    -0.096 A 
ATOM     10  HN1 IND d   1       1.859  -4.253  -3.300  0.00  0.00     0.298 HD
ENDROOT
TORSDOF 0
ENDMDL
