MODEL 1
REMARK minimizedAffinity -2.48783064
REMARK minimizedRMSD -1
REMARK  0 active torsions:
REMARK  status: ('A' for Active; 'I' for Inactive)
ROOT
ATOM      1  N1  IND d   1       0.460   0.726  -0.730  0.00  0.00    -0.196 N 
ATOM      2  C2  IND d   1       0.241  -0.621  -0.638  0.00  0.00     0.054 A 
ATOM      3  C3  IND d   1      -0.235  -0.937   0.588  0.00  0.00    -0.031 A 
ATOM      4  C4  IND d   1      -0.826   0.607   2.561  0.00  0.00     0.051 A 
ATOM      5  C5  IND d   1      -0.764   1.911   2.964  0.00  0.00    -0.031 A 
ATOM      6  C6  IND d   1      -0.284   2.908   2.139  0.00  0.00     0.015 A 
ATOM      7  C7  IND d   1       0.144   2.637   0.870  0.00  0.00    -0.016 A 
ATOM      8  C8  IND d   1       0.089   1.313   0.459  0.00  0.00    -0.047 A 
ATOM      9  C9  IND d   1      -0.358   0.291   1.307  0.00  0.00    -0.096 A 
ATOM     10  HN1 IND d   1       0.776   1.137  -1.416  0.00  0.00     0.298 HD
ENDROOT
TORSDOF 0
ENDMDL
