MODEL 1
REMARK minimizedAffinity -1.57685494
REMARK minimizedRMSD -1
REMARK  0 active torsions:
REMARK  status: ('A' for Active; 'I' for Inactive)
ROOT
ATOM      1  N1  IND d   1      -0.792   2.273  -1.751  0.00  0.00    -0.196 N 
ATOM      2  C2  IND d   1      -0.646   1.018  -1.229  0.00  0.00     0.054 A 
ATOM      3  C3  IND d   1      -0.391   1.087   0.097  0.00  0.00    -0.031 A 
ATOM      4  C4  IND d   1      -0.272   3.148   1.634  0.00  0.00     0.051 A 
ATOM      5  C5  IND d   1      -0.303   4.514   1.609  0.00  0.00    -0.031 A 
ATOM      6  C6  IND d   1      -0.506   5.217   0.439  0.00  0.00     0.015 A 
ATOM      7  C7  IND d   1      -0.697   4.577  -0.753  0.00  0.00    -0.016 A 
ATOM      8  C8  IND d   1      -0.659   3.190  -0.732  0.00  0.00    -0.047 A 
ATOM      9  C9  IND d   1      -0.411   2.472   0.445  0.00  0.00    -0.096 A 
ATOM     10  HN1 IND d   1      -0.942   2.459  -2.577  0.00  0.00     0.298 HD
ENDROOT
TORSDOF 0
ENDMDL
