MODEL 1
REMARK minimizedAffinity 4.69593859
REMARK minimizedRMSD -1
REMARK  0 active torsions:
REMARK  status: ('A' for Active; 'I' for Inactive)
ROOT
ATOM      1  N1  IND d   1      -2.882   0.522   1.487  0.00  0.00    -0.196 N 
ATOM      2  C2  IND d   1      -2.791   0.290   2.831  0.00  0.00     0.054 A 
ATOM      3  C3  IND d   1      -1.788  -0.578   3.093  0.00  0.00    -0.031 A 
ATOM      4  C4  IND d   1      -0.103  -1.663   1.478  0.00  0.00     0.051 A 
ATOM      5  C5  IND d   1       0.192  -1.783   0.148  0.00  0.00    -0.031 A 
ATOM      6  C6  IND d   1      -0.536  -1.125  -0.822  0.00  0.00     0.015 A 
ATOM      7  C7  IND d   1      -1.583  -0.310  -0.497  0.00  0.00    -0.016 A 
ATOM      8  C8  IND d   1      -1.890  -0.192   0.852  0.00  0.00    -0.047 A 
ATOM      9  C9  IND d   1      -1.181  -0.890   1.838  0.00  0.00    -0.096 A 
ATOM     10  HN1 IND d   1      -3.461   1.029   1.103  0.00  0.00     0.298 HD
ENDROOT
TORSDOF 0
ENDMDL
