MODEL 1
REMARK minimizedAffinity -2.73548245
REMARK minimizedRMSD -1
REMARK  0 active torsions:
REMARK  status: ('A' for Active; 'I' for Inactive)
ROOT
ATOM      1  N1  IND d   1       0.355   1.093  -1.740  0.00  0.00    -0.196 N 
ATOM      2  C2  IND d   1      -0.440   1.616  -0.758  0.00  0.00     0.054 A 
ATOM      3  C3  IND d   1      -0.732   0.672   0.164  0.00  0.00    -0.031 A 
ATOM      4  C4  IND d   1       0.070  -1.770   0.315  0.00  0.00     0.051 A 
ATOM      5  C5  IND d   1       0.782  -2.714  -0.371  0.00  0.00    -0.031 A 
ATOM      6  C6  IND d   1       1.402  -2.431  -1.570  0.00  0.00     0.015 A 
ATOM      7  C7  IND d   1       1.343  -1.185  -2.126  0.00  0.00    -0.016 A 
ATOM      8  C8  IND d   1       0.616  -0.225  -1.436  0.00  0.00    -0.047 A 
ATOM      9  C9  IND d   1      -0.051  -0.518  -0.240  0.00  0.00    -0.096 A 
ATOM     10  HN1 IND d   1       0.643   1.516  -2.430  0.00  0.00     0.298 HD
ENDROOT
TORSDOF 0
ENDMDL
