MODEL 1
REMARK minimizedAffinity -3.61766982
REMARK minimizedRMSD -1
REMARK  0 active torsions:
REMARK  status: ('A' for Active; 'I' for Inactive)
ROOT
ATOM      1  N1  IND d   1       0.278   1.262  -2.292  0.00  0.00    -0.196 N 
ATOM      2  C2  IND d   1      -0.853   1.814  -1.758  0.00  0.00     0.054 A 
ATOM      3  C3  IND d   1      -1.390   0.985  -0.836  0.00  0.00    -0.031 A 
ATOM      4  C4  IND d   1      -0.526  -1.281   0.028  0.00  0.00     0.051 A 
ATOM      5  C5  IND d   1       0.449  -2.214  -0.185  0.00  0.00    -0.031 A 
ATOM      6  C6  IND d   1       1.439  -2.031  -1.129  0.00  0.00     0.015 A 
ATOM      7  C7  IND d   1       1.497  -0.898  -1.890  0.00  0.00    -0.016 A 
ATOM      8  C8  IND d   1       0.504   0.048  -1.681  0.00  0.00    -0.047 A 
ATOM      9  C9  IND d   1      -0.528  -0.151  -0.755  0.00  0.00    -0.096 A 
ATOM     10  HN1 IND d   1       0.766   1.613  -2.907  0.00  0.00     0.298 HD
ENDROOT
TORSDOF 0
ENDMDL
