MODEL 1
REMARK minimizedAffinity -3.51295543
REMARK minimizedRMSD -1
REMARK  0 active torsions:
REMARK  status: ('A' for Active; 'I' for Inactive)
ROOT
ATOM      1  N1  IND d   1      -0.927   0.634   0.071  0.00  0.00    -0.196 N 
ATOM      2  C2  IND d   1      -0.986  -0.505   0.825  0.00  0.00     0.054 A 
ATOM      3  C3  IND d   1      -0.128  -1.433   0.343  0.00  0.00    -0.031 A 
ATOM      4  C4  IND d   1       1.540  -1.260  -1.610  0.00  0.00     0.051 A 
ATOM      5  C5  IND d   1       1.932  -0.429  -2.621  0.00  0.00    -0.031 A 
ATOM      6  C6  IND d   1       1.382   0.825  -2.789  0.00  0.00     0.015 A 
ATOM      7  C7  IND d   1       0.423   1.302  -1.941  0.00  0.00    -0.016 A 
ATOM      8  C8  IND d   1       0.017   0.458  -0.917  0.00  0.00    -0.047 A 
ATOM      9  C9  IND d   1       0.542  -0.833  -0.767  0.00  0.00    -0.096 A 
ATOM     10  HN1 IND d   1      -1.401   1.341   0.192  0.00  0.00     0.298 HD
ENDROOT
TORSDOF 0
ENDMDL
