MODEL 1
REMARK minimizedAffinity -0.68722564
REMARK minimizedRMSD -1
REMARK  0 active torsions:
REMARK  status: ('A' for Active; 'I' for Inactive)
ROOT
ATOM      1  N1  IND d   1       0.488   1.296  -2.731  0.00  0.00    -0.196 N 
ATOM      2  C2  IND d   1       1.337   0.958  -3.747  0.00  0.00     0.054 A 
ATOM      3  C3  IND d   1       1.919  -0.236  -3.497  0.00  0.00    -0.031 A 
ATOM      4  C4  IND d   1       1.547  -1.856  -1.531  0.00  0.00     0.051 A 
ATOM      5  C5  IND d   1       0.893  -1.968  -0.336  0.00  0.00    -0.031 A 
ATOM      6  C6  IND d   1       0.052  -0.978   0.130  0.00  0.00     0.015 A 
ATOM      7  C7  IND d   1      -0.177   0.160  -0.591  0.00  0.00    -0.016 A 
ATOM      8  C8  IND d   1       0.491   0.280  -1.801  0.00  0.00    -0.047 A 
ATOM      9  C9  IND d   1       1.379  -0.702  -2.259  0.00  0.00    -0.096 A 
ATOM     10  HN1 IND d   1       0.029   2.022  -2.681  0.00  0.00     0.298 HD
ENDROOT
TORSDOF 0
ENDMDL
