MODEL 1
REMARK minimizedAffinity 0.020882532
REMARK minimizedRMSD -1
REMARK  0 active torsions:
REMARK  status: ('A' for Active; 'I' for Inactive)
ROOT
ATOM      1  N1  IND d   1      -0.551   1.348  -1.489  0.00  0.00    -0.196 N 
ATOM      2  C2  IND d   1      -1.273   1.138  -0.347  0.00  0.00     0.054 A 
ATOM      3  C3  IND d   1      -1.001  -0.084   0.163  0.00  0.00    -0.031 A 
ATOM      4  C4  IND d   1       0.668  -1.864  -0.657  0.00  0.00     0.051 A 
ATOM      5  C5  IND d   1       1.530  -2.142  -1.681  0.00  0.00    -0.031 A 
ATOM      6  C6  IND d   1       1.749  -1.252  -2.712  0.00  0.00     0.015 A 
ATOM      7  C7  IND d   1       1.119  -0.040  -2.753  0.00  0.00    -0.016 A 
ATOM      8  C8  IND d   1       0.238   0.243  -1.719  0.00  0.00    -0.047 A 
ATOM      9  C9  IND d   1      -0.020  -0.674  -0.692  0.00  0.00    -0.096 A 
ATOM     10  HN1 IND d   1      -0.585   2.052  -1.982  0.00  0.00     0.298 HD
ENDROOT
TORSDOF 0
ENDMDL
