MODEL 1
REMARK minimizedAffinity -2.33493304
REMARK minimizedRMSD -1
REMARK  0 active torsions:
REMARK  status: ('A' for Active; 'I' for Inactive)
ROOT
ATOM      1  N1  IND d   1      -0.909   1.468   2.384  0.00  0.00    -0.196 N 
ATOM      2  C2  IND d   1      -1.960   0.872   3.024  0.00  0.00     0.054 A 
ATOM      3  C3  IND d   1      -2.270  -0.301   2.428  0.00  0.00    -0.031 A 
ATOM      4  C4  IND d   1      -1.121  -1.485   0.452  0.00  0.00     0.051 A 
ATOM      5  C5  IND d   1      -0.141  -1.313  -0.484  0.00  0.00    -0.031 A 
ATOM      6  C6  IND d   1       0.652  -0.184  -0.511  0.00  0.00     0.015 A 
ATOM      7  C7  IND d   1       0.500   0.815   0.408  0.00  0.00    -0.016 A 
ATOM      8  C8  IND d   1      -0.500   0.647   1.356  0.00  0.00    -0.047 A 
ATOM      9  C9  IND d   1      -1.335  -0.477   1.363  0.00  0.00    -0.096 A 
ATOM     10  HN1 IND d   1      -0.562   2.228   2.589  0.00  0.00     0.298 HD
ENDROOT
TORSDOF 0
ENDMDL
