MODEL 1
REMARK minimizedAffinity 1.80553234
REMARK minimizedRMSD -1
REMARK  0 active torsions:
REMARK  status: ('A' for Active; 'I' for Inactive)
ROOT
ATOM      1  N1  IND d   1       0.637  -0.063  -1.129  0.00  0.00    -0.196 N 
ATOM      2  C2  IND d   1       0.011  -1.274  -1.034  0.00  0.00     0.054 A 
ATOM      3  C3  IND d   1      -0.676  -1.359   0.128  0.00  0.00    -0.031 A 
ATOM      4  C4  IND d   1      -0.993   0.409   1.972  0.00  0.00     0.051 A 
ATOM      5  C5  IND d   1      -0.585   1.657   2.349  0.00  0.00    -0.031 A 
ATOM      6  C6  IND d   1       0.266   2.413   1.569  0.00  0.00     0.015 A 
ATOM      7  C7  IND d   1       0.734   1.950   0.372  0.00  0.00    -0.016 A 
ATOM      8  C8  IND d   1       0.327   0.680  -0.011  0.00  0.00    -0.047 A 
ATOM      9  C9  IND d   1      -0.502  -0.109   0.797  0.00  0.00    -0.096 A 
ATOM     10  HN1 IND d   1       1.139   0.192  -1.778  0.00  0.00     0.298 HD
ENDROOT
TORSDOF 0
ENDMDL
