MODEL 1
REMARK minimizedAffinity 9.80894184
REMARK minimizedRMSD -1
REMARK  3 active torsions:
REMARK  status: ('A' for Active; 'I' for Inactive)
REMARK    1  A    between atoms: C3'_2  and  C2'_3 
REMARK    2  A    between atoms: C2'_3  and  C1'_4 
REMARK    3  A    between atoms: C1'_4  and  C1_5 
ROOT
ATOM      1  C1  N4B d   1      -5.025   4.544   3.457  0.00  0.00    -0.075 A 
ATOM      2  C2  N4B d   1      -3.937   5.388   3.772  0.00  0.00     0.002 A 
ATOM      3  C3  N4B d   1      -3.872   5.996   5.002  0.00  0.00     0.002 A 
ATOM      4  C4  N4B d   1      -4.889   5.791   5.922  0.00  0.00    -0.004 A 
ATOM      5  C5  N4B d   1      -5.924   4.955   5.620  0.00  0.00     0.002 A 
ATOM      6  C6  N4B d   1      -5.999   4.334   4.389  0.00  0.00     0.002 A 
ENDROOT
BRANCH   1   7
ATOM      7  C1' N4B d   1      -5.182   3.926   2.095  0.00  0.00     0.057 C 
BRANCH   7   8
ATOM      8  C2' N4B d   1      -4.467   2.579   2.071  0.00  0.00     0.009 C 
BRANCH   8   9
ATOM      9  C3' N4B d   1      -3.970   2.224   0.680  0.00  0.00     0.004 C 
ATOM     10  C4' N4B d   1      -4.065   0.756   0.386  0.00  0.00     0.003 C 
ENDBRANCH   8   9
ENDBRANCH   7   8
ENDBRANCH   1   7
TORSDOF 3
ENDMDL
