MODEL 1
REMARK minimizedAffinity 10.6506977
REMARK minimizedRMSD -1
REMARK  3 active torsions:
REMARK  status: ('A' for Active; 'I' for Inactive)
REMARK    1  A    between atoms: C3'_2  and  C2'_3 
REMARK    2  A    between atoms: C2'_3  and  C1'_4 
REMARK    3  A    between atoms: C1'_4  and  C1_5 
ROOT
ATOM      1  C1  N4B d   1      -5.113   4.561   3.275  0.00  0.00    -0.075 A 
ATOM      2  C2  N4B d   1      -5.998   5.298   4.091  0.00  0.00     0.002 A 
ATOM      3  C3  N4B d   1      -5.516   6.000   5.169  0.00  0.00     0.002 A 
ATOM      4  C4  N4B d   1      -4.160   5.964   5.460  0.00  0.00    -0.004 A 
ATOM      5  C5  N4B d   1      -3.308   5.270   4.651  0.00  0.00     0.002 A 
ATOM      6  C6  N4B d   1      -3.778   4.563   3.563  0.00  0.00     0.002 A 
ENDROOT
BRANCH   1   7
ATOM      7  C1' N4B d   1      -5.604   3.709   2.137  0.00  0.00     0.057 C 
BRANCH   7   8
ATOM      8  C2' N4B d   1      -4.512   2.719   1.744  0.00  0.00     0.009 C 
BRANCH   8   9
ATOM      9  C3' N4B d   1      -4.562   2.375   0.265  0.00  0.00     0.004 C 
ATOM     10  C4' N4B d   1      -4.475   0.900   0.008  0.00  0.00     0.003 C 
ENDBRANCH   8   9
ENDBRANCH   7   8
ENDBRANCH   1   7
TORSDOF 3
ENDMDL
