MODEL 1
REMARK minimizedAffinity 2.5822742
REMARK minimizedRMSD -1
REMARK  3 active torsions:
REMARK  status: ('A' for Active; 'I' for Inactive)
REMARK    1  A    between atoms: C3'_2  and  C2'_3 
REMARK    2  A    between atoms: C2'_3  and  C1'_4 
REMARK    3  A    between atoms: C1'_4  and  C1_5 
ROOT
ATOM      1  C1  N4B d   1      -4.917   4.406   3.356  0.00  0.00    -0.075 A 
ATOM      2  C2  N4B d   1      -3.809   5.224   3.669  0.00  0.00     0.002 A 
ATOM      3  C3  N4B d   1      -3.826   6.000   4.802  0.00  0.00     0.002 A 
ATOM      4  C4  N4B d   1      -4.944   5.989   5.624  0.00  0.00    -0.004 A 
ATOM      5  C5  N4B d   1      -6.000   5.178   5.328  0.00  0.00     0.002 A 
ATOM      6  C6  N4B d   1      -5.994   4.389   4.195  0.00  0.00     0.002 A 
ENDROOT
BRANCH   1   7
ATOM      7  C1' N4B d   1      -4.980   3.606   2.084  0.00  0.00     0.057 C 
BRANCH   7   8
ATOM      8  C2' N4B d   1      -4.495   2.186   2.361  0.00  0.00     0.009 C 
BRANCH   8   9
ATOM      9  C3' N4B d   1      -3.747   1.599   1.176  0.00  0.00     0.004 C 
ATOM     10  C4' N4B d   1      -4.505   0.495   0.501  0.00  0.00     0.003 C 
ENDBRANCH   8   9
ENDBRANCH   7   8
ENDBRANCH   1   7
TORSDOF 3
ENDMDL
