MODEL 1
REMARK minimizedAffinity 6.43561935
REMARK minimizedRMSD -1
REMARK  3 active torsions:
REMARK  status: ('A' for Active; 'I' for Inactive)
REMARK    1  A    between atoms: C3'_2  and  C2'_3 
REMARK    2  A    between atoms: C2'_3  and  C1'_4 
REMARK    3  A    between atoms: C1'_4  and  C1_5 
ROOT
ATOM      1  C1  N4B d   1      -5.494   4.611   3.400  0.00  0.00    -0.075 A 
ATOM      2  C2  N4B d   1      -4.628   5.695   3.662  0.00  0.00     0.002 A 
ATOM      3  C3  N4B d   1      -4.281   6.000   4.956  0.00  0.00     0.002 A 
ATOM      4  C4  N4B d   1      -4.802   5.250   6.000  0.00  0.00    -0.004 A 
ATOM      5  C5  N4B d   1      -5.618   4.189   5.737  0.00  0.00     0.002 A 
ATOM      6  C6  N4B d   1      -5.971   3.869   4.441  0.00  0.00     0.002 A 
ENDROOT
BRANCH   1   7
ATOM      7  C1' N4B d   1      -5.969   4.293   2.009  0.00  0.00     0.057 C 
BRANCH   7   8
ATOM      8  C2' N4B d   1      -5.535   5.409   1.064  0.00  0.00     0.009 C 
BRANCH   8   9
ATOM      9  C3' N4B d   1      -4.638   4.895  -0.050  0.00  0.00     0.004 C 
ATOM     10  C4' N4B d   1      -3.943   5.997  -0.792  0.00  0.00     0.003 C 
ENDBRANCH   8   9
ENDBRANCH   7   8
ENDBRANCH   1   7
TORSDOF 3
ENDMDL
