MODEL 1
REMARK minimizedAffinity 8.44681931
REMARK minimizedRMSD -1
REMARK  3 active torsions:
REMARK  status: ('A' for Active; 'I' for Inactive)
REMARK    1  A    between atoms: C3'_2  and  C2'_3 
REMARK    2  A    between atoms: C2'_3  and  C1'_4 
REMARK    3  A    between atoms: C1'_4  and  C1_5 
ROOT
ATOM      1  C1  N4B d   1      -4.879   4.523   3.014  0.00  0.00    -0.075 A 
ATOM      2  C2  N4B d   1      -3.746   5.263   3.420  0.00  0.00     0.002 A 
ATOM      3  C3  N4B d   1      -3.770   5.962   4.602  0.00  0.00     0.002 A 
ATOM      4  C4  N4B d   1      -4.917   5.950   5.382  0.00  0.00    -0.004 A 
ATOM      5  C5  N4B d   1      -5.997   5.212   4.995  0.00  0.00     0.002 A 
ATOM      6  C6  N4B d   1      -5.986   4.502   3.812  0.00  0.00     0.002 A 
ENDROOT
BRANCH   1   7
ATOM      7  C1' N4B d   1      -4.930   3.814   1.688  0.00  0.00     0.057 C 
BRANCH   7   8
ATOM      8  C2' N4B d   1      -4.416   2.388   1.863  0.00  0.00     0.009 C 
BRANCH   8   9
ATOM      9  C3' N4B d   1      -3.681   1.894   0.629  0.00  0.00     0.004 C 
ATOM     10  C4' N4B d   1      -4.368   0.737  -0.032  0.00  0.00     0.003 C 
ENDBRANCH   8   9
ENDBRANCH   7   8
ENDBRANCH   1   7
TORSDOF 3
ENDMDL
