MODEL 1
REMARK minimizedAffinity 7.91796398
REMARK minimizedRMSD -1
REMARK  3 active torsions:
REMARK  status: ('A' for Active; 'I' for Inactive)
REMARK    1  A    between atoms: C3'_2  and  C2'_3 
REMARK    2  A    between atoms: C2'_3  and  C1'_4 
REMARK    3  A    between atoms: C1'_4  and  C1_5 
ROOT
ATOM      1  C1  N4B d   1       3.019   0.315   0.249  0.00  0.00    -0.075 A 
ATOM      2  C2  N4B d   1       2.442   0.075  -1.017  0.00  0.00     0.002 A 
ATOM      3  C3  N4B d   1       1.877  -1.146  -1.293  0.00  0.00     0.002 A 
ATOM      4  C4  N4B d   1       1.893  -2.143  -0.329  0.00  0.00    -0.004 A 
ATOM      5  C5  N4B d   1       2.429  -1.894   0.900  0.00  0.00     0.002 A 
ATOM      6  C6  N4B d   1       2.997  -0.671   1.193  0.00  0.00     0.002 A 
ENDROOT
BRANCH   1   7
ATOM      7  C1' N4B d   1       3.725   1.605   0.568  0.00  0.00     0.057 C 
BRANCH   7   8
ATOM      8  C2' N4B d   1       3.696   1.832   2.077  0.00  0.00     0.009 C 
BRANCH   8   9
ATOM      9  C3' N4B d   1       3.757   3.308   2.431  0.00  0.00     0.004 C 
ATOM     10  C4' N4B d   1       3.443   3.573   3.873  0.00  0.00     0.003 C 
ENDBRANCH   8   9
ENDBRANCH   7   8
ENDBRANCH   1   7
TORSDOF 3
ENDMDL
