MODEL 1
REMARK minimizedAffinity 14.5069714
REMARK minimizedRMSD -1
REMARK  3 active torsions:
REMARK  status: ('A' for Active; 'I' for Inactive)
REMARK    1  A    between atoms: C3'_2  and  C2'_3 
REMARK    2  A    between atoms: C2'_3  and  C1'_4 
REMARK    3  A    between atoms: C1'_4  and  C1_5 
ROOT
ATOM      1  C1  N4B d   1      -4.850   4.705   3.479  0.00  0.00    -0.075 A 
ATOM      2  C2  N4B d   1      -5.992   4.606   4.304  0.00  0.00     0.002 A 
ATOM      3  C3  N4B d   1      -6.000   5.205   5.540  0.00  0.00     0.002 A 
ATOM      4  C4  N4B d   1      -4.875   5.888   5.978  0.00  0.00    -0.004 A 
ATOM      5  C5  N4B d   1      -3.786   6.000   5.165  0.00  0.00     0.002 A 
ATOM      6  C6  N4B d   1      -3.766   5.407   3.919  0.00  0.00     0.002 A 
ENDROOT
BRANCH   1   7
ATOM      7  C1' N4B d   1      -4.763   3.995   2.156  0.00  0.00     0.057 C 
BRANCH   7   8
ATOM      8  C2' N4B d   1      -4.520   2.508   2.400  0.00  0.00     0.009 C 
BRANCH   8   9
ATOM      9  C3' N4B d   1      -3.889   1.831   1.196  0.00  0.00     0.004 C 
ATOM     10  C4' N4B d   1      -4.762   0.765   0.605  0.00  0.00     0.003 C 
ENDBRANCH   8   9
ENDBRANCH   7   8
ENDBRANCH   1   7
TORSDOF 3
ENDMDL
