MODEL 1
REMARK minimizedAffinity 3.63270569
REMARK minimizedRMSD -1
REMARK  3 active torsions:
REMARK  status: ('A' for Active; 'I' for Inactive)
REMARK    1  A    between atoms: C3'_2  and  C2'_3 
REMARK    2  A    between atoms: C2'_3  and  C1'_4 
REMARK    3  A    between atoms: C1'_4  and  C1_5 
ROOT
ATOM      1  C1  N4B d   1      -5.241   4.371   3.631  0.00  0.00    -0.075 A 
ATOM      2  C2  N4B d   1      -4.134   5.247   3.613  0.00  0.00     0.002 A 
ATOM      3  C3  N4B d   1      -3.834   5.997   4.724  0.00  0.00     0.002 A 
ATOM      4  C4  N4B d   1      -4.635   5.901   5.853  0.00  0.00    -0.004 A 
ATOM      5  C5  N4B d   1      -5.687   5.033   5.870  0.00  0.00     0.002 A 
ATOM      6  C6  N4B d   1      -5.998   4.271   4.762  0.00  0.00     0.002 A 
ENDROOT
BRANCH   1   7
ATOM      7  C1' N4B d   1      -5.659   3.595   2.412  0.00  0.00     0.057 C 
BRANCH   7   8
ATOM      8  C2' N4B d   1      -4.917   2.262   2.388  0.00  0.00     0.009 C 
BRANCH   8   9
ATOM      9  C3' N4B d   1      -4.210   2.029   1.063  0.00  0.00     0.004 C 
ATOM     10  C4' N4B d   1      -4.571   0.716   0.436  0.00  0.00     0.003 C 
ENDBRANCH   8   9
ENDBRANCH   7   8
ENDBRANCH   1   7
TORSDOF 3
ENDMDL
