MODEL 1
REMARK minimizedAffinity 8.33318806
REMARK minimizedRMSD -1
REMARK  3 active torsions:
REMARK  status: ('A' for Active; 'I' for Inactive)
REMARK    1  A    between atoms: C3'_2  and  C2'_3 
REMARK    2  A    between atoms: C2'_3  and  C1'_4 
REMARK    3  A    between atoms: C1'_4  and  C1_5 
ROOT
ATOM      1  C1  N4B d   1      -4.907   4.866   3.304  0.00  0.00    -0.075 A 
ATOM      2  C2  N4B d   1      -5.983   4.488   4.137  0.00  0.00     0.002 A 
ATOM      3  C3  N4B d   1      -5.998   4.873   5.456  0.00  0.00     0.002 A 
ATOM      4  C4  N4B d   1      -4.945   5.617   5.966  0.00  0.00    -0.004 A 
ATOM      5  C5  N4B d   1      -3.922   5.999   5.148  0.00  0.00     0.002 A 
ATOM      6  C6  N4B d   1      -3.895   5.623   3.820  0.00  0.00     0.002 A 
ENDROOT
BRANCH   1   7
ATOM      7  C1' N4B d   1      -4.804   4.397   1.879  0.00  0.00     0.057 C 
BRANCH   7   8
ATOM      8  C2' N4B d   1      -4.596   2.885   1.863  0.00  0.00     0.009 C 
BRANCH   8   9
ATOM      9  C3' N4B d   1      -4.034   2.403   0.537  0.00  0.00     0.004 C 
ATOM     10  C4' N4B d   1      -4.241   0.934   0.318  0.00  0.00     0.003 C 
ENDBRANCH   8   9
ENDBRANCH   7   8
ENDBRANCH   1   7
TORSDOF 3
ENDMDL
