MODEL 1
REMARK minimizedAffinity 9.18711185
REMARK minimizedRMSD -1
REMARK  3 active torsions:
REMARK  status: ('A' for Active; 'I' for Inactive)
REMARK    1  A    between atoms: C3'_2  and  C2'_3 
REMARK    2  A    between atoms: C2'_3  and  C1'_4 
REMARK    3  A    between atoms: C1'_4  and  C1_5 
ROOT
ATOM      1  C1  N4B d   1      -4.128   4.452   3.172  0.00  0.00    -0.075 A 
ATOM      2  C2  N4B d   1      -5.472   4.238   3.550  0.00  0.00     0.002 A 
ATOM      3  C3  N4B d   1      -5.998   4.908   4.628  0.00  0.00     0.002 A 
ATOM      4  C4  N4B d   1      -5.197   5.779   5.351  0.00  0.00    -0.004 A 
ATOM      5  C5  N4B d   1      -3.907   6.000   4.964  0.00  0.00     0.002 A 
ATOM      6  C6  N4B d   1      -3.367   5.336   3.881  0.00  0.00     0.002 A 
ENDROOT
BRANCH   1   7
ATOM      7  C1' N4B d   1      -3.485   3.679   2.054  0.00  0.00     0.057 C 
BRANCH   7   8
ATOM      8  C2' N4B d   1      -4.498   2.694   1.479  0.00  0.00     0.009 C 
BRANCH   8   9
ATOM      9  C3' N4B d   1      -3.945   1.947   0.277  0.00  0.00     0.004 C 
ATOM     10  C4' N4B d   1      -4.211   0.473   0.336  0.00  0.00     0.003 C 
ENDBRANCH   8   9
ENDBRANCH   7   8
ENDBRANCH   1   7
TORSDOF 3
ENDMDL
