MODEL 1
REMARK minimizedAffinity 4.9399066
REMARK minimizedRMSD -1
REMARK  1 active torsions:
REMARK  status: ('A' for Active; 'I' for Inactive)
REMARK    1  A    between atoms: C3_4  and  O_7 
ROOT
ATOM      1  C   UNL d   1       3.586   4.842   0.969  0.00  0.00    -0.033 A 
ATOM      2  C1  UNL d   1       3.765   6.000   0.211  0.00  0.00     0.039 A 
ATOM      3  C2  UNL d   1       4.163   5.907  -1.124  0.00  0.00    -0.080 A 
ATOM      4  C3  UNL d   1       4.376   4.653  -1.688  0.00  0.00     0.150 A 
ATOM      5  C4  UNL d   1       4.196   3.495  -0.940  0.00  0.00    -0.007 A 
ATOM      6  C5  UNL d   1       3.800   3.589   0.394  0.00  0.00     0.039 A 
ENDROOT
BRANCH   4   7
ATOM      7  O   UNL d   1       4.770   4.512  -2.986  0.00  0.00    -0.526 OA
ATOM      8  H5  UNL d   1       4.882   5.398  -3.371  0.00  0.00     0.418 HD
ENDBRANCH   4   7
TORSDOF 1
ENDMDL
