MODEL 1
REMARK minimizedAffinity 1.9032979
REMARK minimizedRMSD -1
REMARK  1 active torsions:
REMARK  status: ('A' for Active; 'I' for Inactive)
REMARK    1  A    between atoms: C3_4  and  O_7 
ROOT
ATOM      1  C   UNL d   1       3.439   4.012  -0.579  0.00  0.00    -0.033 A 
ATOM      2  C1  UNL d   1       3.954   5.309  -0.617  0.00  0.00     0.039 A 
ATOM      3  C2  UNL d   1       4.215   5.993   0.572  0.00  0.00    -0.080 A 
ATOM      4  C3  UNL d   1       3.958   5.370   1.790  0.00  0.00     0.150 A 
ATOM      5  C4  UNL d   1       3.448   4.076   1.835  0.00  0.00    -0.007 A 
ATOM      6  C5  UNL d   1       3.187   3.395   0.646  0.00  0.00     0.039 A 
ENDROOT
BRANCH   4   7
ATOM      7  O   UNL d   1       4.192   5.999   2.976  0.00  0.00    -0.526 OA
ATOM      8  H5  UNL d   1       4.516   6.896   2.790  0.00  0.00     0.418 HD
ENDBRANCH   4   7
TORSDOF 1
ENDMDL
