MODEL 1
REMARK minimizedAffinity 3.489362
REMARK minimizedRMSD -1
REMARK  1 active torsions:
REMARK  status: ('A' for Active; 'I' for Inactive)
REMARK    1  A    between atoms: C3_4  and  O_7 
ROOT
ATOM      1  C   UNL d   1      -3.005  -4.629   0.044  0.00  0.00    -0.033 A 
ATOM      2  C1  UNL d   1      -1.652  -4.813   0.338  0.00  0.00     0.039 A 
ATOM      3  C2  UNL d   1      -0.783  -3.721   0.345  0.00  0.00    -0.080 A 
ATOM      4  C3  UNL d   1      -1.278  -2.452   0.057  0.00  0.00     0.150 A 
ATOM      5  C4  UNL d   1      -2.625  -2.261  -0.233  0.00  0.00    -0.007 A 
ATOM      6  C5  UNL d   1      -3.491  -3.353  -0.240  0.00  0.00     0.039 A 
ENDROOT
BRANCH   4   7
ATOM      7  O   UNL d   1      -0.466  -1.356   0.047  0.00  0.00    -0.526 OA
ATOM      8  H5  UNL d   1       0.442  -1.644   0.237  0.00  0.00     0.418 HD
ENDBRANCH   4   7
TORSDOF 1
ENDMDL
