MODEL 1
REMARK minimizedAffinity -0.37610352
REMARK minimizedRMSD -1
REMARK  1 active torsions:
REMARK  status: ('A' for Active; 'I' for Inactive)
REMARK    1  A    between atoms: C3_4  and  O_7 
ROOT
ATOM      1  C   UNL d   1       1.673  -1.608  -2.961  0.00  0.00    -0.033 A 
ATOM      2  C1  UNL d   1       1.300  -2.442  -1.904  0.00  0.00     0.039 A 
ATOM      3  C2  UNL d   1       0.510  -1.945  -0.866  0.00  0.00    -0.080 A 
ATOM      4  C3  UNL d   1       0.098  -0.615  -0.897  0.00  0.00     0.150 A 
ATOM      5  C4  UNL d   1       0.462   0.219  -1.948  0.00  0.00    -0.007 A 
ATOM      6  C5  UNL d   1       1.252  -0.278  -2.983  0.00  0.00     0.039 A 
ENDROOT
BRANCH   4   7
ATOM      7  O   UNL d   1      -0.670  -0.084   0.096  0.00  0.00    -0.526 OA
ATOM      8  H5  UNL d   1      -0.819  -0.769   0.770  0.00  0.00     0.418 HD
ENDBRANCH   4   7
TORSDOF 1
ENDMDL
