MODEL 1
REMARK minimizedAffinity 0.346683711
REMARK minimizedRMSD -1
REMARK  1 active torsions:
REMARK  status: ('A' for Active; 'I' for Inactive)
REMARK    1  A    between atoms: C3_4  and  O_7 
ROOT
ATOM      1  C   UNL d   1       2.468  -1.846  -3.503  0.00  0.00    -0.033 A 
ATOM      2  C1  UNL d   1       2.310  -0.466  -3.367  0.00  0.00     0.039 A 
ATOM      3  C2  UNL d   1       1.391   0.046  -2.449  0.00  0.00    -0.080 A 
ATOM      4  C3  UNL d   1       0.639  -0.831  -1.674  0.00  0.00     0.150 A 
ATOM      5  C4  UNL d   1       0.794  -2.208  -1.801  0.00  0.00    -0.007 A 
ATOM      6  C5  UNL d   1       1.711  -2.717  -2.719  0.00  0.00     0.039 A 
ENDROOT
BRANCH   4   7
ATOM      7  O   UNL d   1      -0.274  -0.378  -0.768  0.00  0.00    -0.526 OA
ATOM      8  H5  UNL d   1      -0.293   0.592  -0.809  0.00  0.00     0.418 HD
ENDBRANCH   4   7
TORSDOF 1
ENDMDL
