MODEL 1
REMARK minimizedAffinity 0.977108538
REMARK minimizedRMSD -1
REMARK  1 active torsions:
REMARK  status: ('A' for Active; 'I' for Inactive)
REMARK    1  A    between atoms: C3_4  and  O_7 
ROOT
ATOM      1  C   UNL d   1       5.535  -1.700   4.963  0.00  0.00    -0.033 A 
ATOM      2  C1  UNL d   1       5.999  -0.889   6.000  0.00  0.00     0.039 A 
ATOM      3  C2  UNL d   1       5.839   0.497   5.931  0.00  0.00    -0.080 A 
ATOM      4  C3  UNL d   1       5.212   1.057   4.821  0.00  0.00     0.150 A 
ATOM      5  C4  UNL d   1       4.744   0.255   3.786  0.00  0.00    -0.007 A 
ATOM      6  C5  UNL d   1       4.905  -1.128   3.857  0.00  0.00     0.039 A 
ENDROOT
BRANCH   4   7
ATOM      7  O   UNL d   1       5.037   2.404   4.706  0.00  0.00    -0.526 OA
ATOM      8  H5  UNL d   1       5.436   2.833   5.482  0.00  0.00     0.418 HD
ENDBRANCH   4   7
TORSDOF 1
ENDMDL
