MODEL 1
REMARK minimizedAffinity -2.2057333
REMARK minimizedRMSD -1
REMARK  1 active torsions:
REMARK  status: ('A' for Active; 'I' for Inactive)
REMARK    1  A    between atoms: C3_4  and  O_7 
ROOT
ATOM      1  C   UNL d   1       5.255  -3.378   4.777  0.00  0.00    -0.033 A 
ATOM      2  C1  UNL d   1       5.752  -2.800   5.946  0.00  0.00     0.039 A 
ATOM      3  C2  UNL d   1       6.000  -1.426   5.998  0.00  0.00    -0.080 A 
ATOM      4  C3  UNL d   1       5.745  -0.644   4.875  0.00  0.00     0.150 A 
ATOM      5  C4  UNL d   1       5.246  -1.213   3.708  0.00  0.00    -0.007 A 
ATOM      6  C5  UNL d   1       5.000  -2.584   3.658  0.00  0.00     0.039 A 
ENDROOT
BRANCH   4   7
ATOM      7  O   UNL d   1       5.975   0.700   4.876  0.00  0.00    -0.526 OA
ATOM      8  H5  UNL d   1       6.346   0.948   5.739  0.00  0.00     0.418 HD
ENDBRANCH   4   7
TORSDOF 1
ENDMDL
