MODEL 1
REMARK minimizedAffinity -2.63421488
REMARK minimizedRMSD -1
REMARK  1 active torsions:
REMARK  status: ('A' for Active; 'I' for Inactive)
REMARK    1  A    between atoms: C3_4  and  O_7 
ROOT
ATOM      1  C   UNL d   1       5.641   4.864   3.686  0.00  0.00    -0.033 A 
ATOM      2  C1  UNL d   1       5.007   6.000   3.180  0.00  0.00     0.039 A 
ATOM      3  C2  UNL d   1       4.507   5.999   1.876  0.00  0.00    -0.080 A 
ATOM      4  C3  UNL d   1       4.647   4.858   1.091  0.00  0.00     0.150 A 
ATOM      5  C4  UNL d   1       5.274   3.722   1.591  0.00  0.00    -0.007 A 
ATOM      6  C5  UNL d   1       5.774   3.724   2.892  0.00  0.00     0.039 A 
ENDROOT
BRANCH   4   7
ATOM      7  O   UNL d   1       4.179   4.812  -0.189  0.00  0.00    -0.526 OA
ATOM      8  H5  UNL d   1       3.796   5.677  -0.408  0.00  0.00     0.418 HD
ENDBRANCH   4   7
TORSDOF 1
ENDMDL
