MODEL 1
REMARK minimizedAffinity 1.0115658
REMARK minimizedRMSD -1
REMARK  1 active torsions:
REMARK  status: ('A' for Active; 'I' for Inactive)
REMARK    1  A    between atoms: C3_4  and  O_7 
ROOT
ATOM      1  C   UNL d   1      -3.318  -4.489  -1.086  0.00  0.00    -0.033 A 
ATOM      2  C1  UNL d   1      -3.123  -3.139  -1.383  0.00  0.00     0.039 A 
ATOM      3  C2  UNL d   1      -1.886  -2.539  -1.138  0.00  0.00    -0.080 A 
ATOM      4  C3  UNL d   1      -0.853  -3.300  -0.597  0.00  0.00     0.150 A 
ATOM      5  C4  UNL d   1      -1.039  -4.647  -0.302  0.00  0.00    -0.007 A 
ATOM      6  C5  UNL d   1      -2.275  -5.243  -0.547  0.00  0.00     0.039 A 
ENDROOT
BRANCH   4   7
ATOM      7  O   UNL d   1       0.370  -2.758  -0.337  0.00  0.00    -0.526 OA
ATOM      8  H5  UNL d   1       0.343  -1.814  -0.564  0.00  0.00     0.418 HD
ENDBRANCH   4   7
TORSDOF 1
ENDMDL
