MODEL 1
REMARK minimizedAffinity 3.30822396
REMARK minimizedRMSD -1
REMARK  1 active torsions:
REMARK  status: ('A' for Active; 'I' for Inactive)
REMARK    1  A    between atoms: C3_4  and  O_7 
ROOT
ATOM      1  C   UNL d   1       5.358   5.105   4.954  0.00  0.00    -0.033 A 
ATOM      2  C1  UNL d   1       5.999   5.987   4.082  0.00  0.00     0.039 A 
ATOM      3  C2  UNL d   1       5.706   5.960   2.718  0.00  0.00    -0.080 A 
ATOM      4  C3  UNL d   1       4.770   5.048   2.238  0.00  0.00     0.150 A 
ATOM      5  C4  UNL d   1       4.125   4.168   3.101  0.00  0.00    -0.007 A 
ATOM      6  C5  UNL d   1       4.420   4.196   4.463  0.00  0.00     0.039 A 
ENDROOT
BRANCH   4   7
ATOM      7  O   UNL d   1       4.455   4.981   0.913  0.00  0.00    -0.526 OA
ATOM      8  H5  UNL d   1       4.999   5.627   0.434  0.00  0.00     0.418 HD
ENDBRANCH   4   7
TORSDOF 1
ENDMDL
