MODEL 1
REMARK minimizedAffinity -0.0162631627
REMARK minimizedRMSD -1
REMARK  1 active torsions:
REMARK  status: ('A' for Active; 'I' for Inactive)
REMARK    1  A    between atoms: C3_4  and  O_7 
ROOT
ATOM      1  C   UNL d   1       5.979   0.078   5.995  0.00  0.00    -0.033 A 
ATOM      2  C1  UNL d   1       5.727  -0.754   4.903  0.00  0.00     0.039 A 
ATOM      3  C2  UNL d   1       5.491  -0.202   3.642  0.00  0.00    -0.080 A 
ATOM      4  C3  UNL d   1       5.512   1.181   3.487  0.00  0.00     0.150 A 
ATOM      5  C4  UNL d   1       5.766   2.016   4.570  0.00  0.00    -0.007 A 
ATOM      6  C5  UNL d   1       6.000   1.463   5.828  0.00  0.00     0.039 A 
ENDROOT
BRANCH   4   7
ATOM      7  O   UNL d   1       5.283   1.766   2.277  0.00  0.00    -0.526 OA
ATOM      8  H5  UNL d   1       5.094   1.067   1.628  0.00  0.00     0.418 HD
ENDBRANCH   4   7
TORSDOF 1
ENDMDL
