MODEL 1
REMARK minimizedAffinity -3.69732213
REMARK minimizedRMSD -1
REMARK  1 active torsions:
REMARK  status: ('A' for Active; 'I' for Inactive)
REMARK    1  A    between atoms: C3_4  and  O_7 
ROOT
ATOM      1  C   UNL d   1       5.455   4.473   1.513  0.00  0.00    -0.033 A 
ATOM      2  C1  UNL d   1       4.954   4.893   2.747  0.00  0.00     0.039 A 
ATOM      3  C2  UNL d   1       4.861   3.990   3.808  0.00  0.00    -0.080 A 
ATOM      4  C3  UNL d   1       5.272   2.673   3.623  0.00  0.00     0.150 A 
ATOM      5  C4  UNL d   1       5.775   2.249   2.397  0.00  0.00    -0.007 A 
ATOM      6  C5  UNL d   1       5.867   3.151   1.339  0.00  0.00     0.039 A 
ENDROOT
BRANCH   4   7
ATOM      7  O   UNL d   1       5.196   1.755   4.628  0.00  0.00    -0.526 OA
ATOM      8  H5  UNL d   1       4.802   2.183   5.406  0.00  0.00     0.418 HD
ENDBRANCH   4   7
TORSDOF 1
ENDMDL
