MODEL 1
REMARK minimizedAffinity 1.68827307
REMARK minimizedRMSD -1
REMARK  1 active torsions:
REMARK  status: ('A' for Active; 'I' for Inactive)
REMARK    1  A    between atoms: C3_4  and  O_7 
ROOT
ATOM      1  C   UNL d   1      -3.395  -2.982  -1.433  0.00  0.00    -0.033 A 
ATOM      2  C1  UNL d   1      -3.071  -1.647  -1.181  0.00  0.00     0.039 A 
ATOM      3  C2  UNL d   1      -1.771  -1.302  -0.807  0.00  0.00    -0.080 A 
ATOM      4  C3  UNL d   1      -0.806  -2.298  -0.689  0.00  0.00     0.150 A 
ATOM      5  C4  UNL d   1      -1.121  -3.629  -0.941  0.00  0.00    -0.007 A 
ATOM      6  C5  UNL d   1      -2.420  -3.973  -1.314  0.00  0.00     0.039 A 
ENDROOT
BRANCH   4   7
ATOM      7  O   UNL d   1       0.475  -2.010  -0.321  0.00  0.00    -0.526 OA
ATOM      8  H5  UNL d   1       0.539  -1.056  -0.152  0.00  0.00     0.418 HD
ENDBRANCH   4   7
TORSDOF 1
ENDMDL
