MODEL 1
REMARK minimizedAffinity 0.0941187516
REMARK minimizedRMSD -1
REMARK  1 active torsions:
REMARK  status: ('A' for Active; 'I' for Inactive)
REMARK    1  A    between atoms: C3_4  and  O_7 
ROOT
ATOM      1  C   UNL d   1      -3.296  -4.691  -1.169  0.00  0.00    -0.033 A 
ATOM      2  C1  UNL d   1      -2.204  -5.272  -0.522  0.00  0.00     0.039 A 
ATOM      3  C2  UNL d   1      -1.107  -4.488  -0.158  0.00  0.00    -0.080 A 
ATOM      4  C3  UNL d   1      -1.115  -3.127  -0.447  0.00  0.00     0.150 A 
ATOM      5  C4  UNL d   1      -2.201  -2.540  -1.088  0.00  0.00    -0.007 A 
ATOM      6  C5  UNL d   1      -3.295  -3.324  -1.451  0.00  0.00     0.039 A 
ENDROOT
BRANCH   4   7
ATOM      7  O   UNL d   1      -0.066  -2.322  -0.116  0.00  0.00    -0.526 OA
ATOM      8  H5  UNL d   1       0.624  -2.869   0.295  0.00  0.00     0.418 HD
ENDBRANCH   4   7
TORSDOF 1
ENDMDL
