MODEL 1
REMARK minimizedAffinity 1.28113735
REMARK minimizedRMSD -1
REMARK  1 active torsions:
REMARK  status: ('A' for Active; 'I' for Inactive)
REMARK    1  A    between atoms: C3_4  and  O_7 
ROOT
ATOM      1  C   UNL d   1       4.395   4.877  -0.349  0.00  0.00    -0.033 A 
ATOM      2  C1  UNL d   1       4.900   3.753   0.308  0.00  0.00     0.039 A 
ATOM      3  C2  UNL d   1       5.023   3.751   1.699  0.00  0.00    -0.080 A 
ATOM      4  C3  UNL d   1       4.637   4.877   2.420  0.00  0.00     0.150 A 
ATOM      5  C4  UNL d   1       4.129   5.999   1.773  0.00  0.00    -0.007 A 
ATOM      6  C5  UNL d   1       4.008   5.999   0.384  0.00  0.00     0.039 A 
ENDROOT
BRANCH   4   7
ATOM      7  O   UNL d   1       4.742   4.924   3.779  0.00  0.00    -0.526 OA
ATOM      8  H5  UNL d   1       5.135   4.089   4.085  0.00  0.00     0.418 HD
ENDBRANCH   4   7
TORSDOF 1
ENDMDL
