MODEL 1
REMARK minimizedAffinity 1.29437435
REMARK minimizedRMSD -1
REMARK  1 active torsions:
REMARK  status: ('A' for Active; 'I' for Inactive)
REMARK    1  A    between atoms: C3_4  and  O_7 
ROOT
ATOM      1  C   UNL d   1      -1.882  -0.794  -0.119  0.00  0.00    -0.033 A 
ATOM      2  C1  UNL d   1      -0.741  -0.891   0.680  0.00  0.00     0.039 A 
ATOM      3  C2  UNL d   1      -0.866  -1.046   2.062  0.00  0.00    -0.080 A 
ATOM      4  C3  UNL d   1      -2.135  -1.103   2.631  0.00  0.00     0.150 A 
ATOM      5  C4  UNL d   1      -3.276  -1.010   1.841  0.00  0.00    -0.007 A 
ATOM      6  C5  UNL d   1      -3.149  -0.855   0.461  0.00  0.00     0.039 A 
ENDROOT
BRANCH   4   7
ATOM      7  O   UNL d   1      -2.307  -1.248   3.976  0.00  0.00    -0.526 OA
ATOM      8  H5  UNL d   1      -1.432  -1.269   4.397  0.00  0.00     0.418 HD
ENDBRANCH   4   7
TORSDOF 1
ENDMDL
