MODEL 1
REMARK minimizedAffinity 0.667426884
REMARK minimizedRMSD -1
REMARK  1 active torsions:
REMARK  status: ('A' for Active; 'I' for Inactive)
REMARK    1  A    between atoms: C3_4  and  O_7 
ROOT
ATOM      1  C   UNL d   1       5.291   5.294   3.446  0.00  0.00    -0.033 A 
ATOM      2  C1  UNL d   1       4.390   4.346   2.959  0.00  0.00     0.039 A 
ATOM      3  C2  UNL d   1       4.162   3.166   3.671  0.00  0.00    -0.080 A 
ATOM      4  C3  UNL d   1       4.841   2.948   4.867  0.00  0.00     0.150 A 
ATOM      5  C4  UNL d   1       5.737   3.891   5.360  0.00  0.00    -0.007 A 
ATOM      6  C5  UNL d   1       5.963   5.068   4.647  0.00  0.00     0.039 A 
ENDROOT
BRANCH   4   7
ATOM      7  O   UNL d   1       4.655   1.810   5.594  0.00  0.00    -0.526 OA
ATOM      8  H5  UNL d   1       4.031   1.239   5.117  0.00  0.00     0.418 HD
ENDBRANCH   4   7
TORSDOF 1
ENDMDL
