MODEL 1
REMARK minimizedAffinity 7.58744001
REMARK minimizedRMSD -1
REMARK  0 active torsions:
REMARK  status: ('A' for Active; 'I' for Inactive)
ROOT
ATOM      1  N1  IND d   1      -3.024  -0.260   2.108  0.00  0.00    -0.196 N 
ATOM      2  C2  IND d   1      -3.389  -0.671   0.856  0.00  0.00     0.054 A 
ATOM      3  C3  IND d   1      -2.317  -1.151   0.187  0.00  0.00    -0.031 A 
ATOM      4  C4  IND d   1       0.111  -1.452   0.989  0.00  0.00     0.051 A 
ATOM      5  C5  IND d   1       0.937  -1.188   2.045  0.00  0.00    -0.031 A 
ATOM      6  C6  IND d   1       0.476  -0.592   3.201  0.00  0.00     0.015 A 
ATOM      7  C7  IND d   1      -0.838  -0.246   3.348  0.00  0.00    -0.016 A 
ATOM      8  C8  IND d   1      -1.678  -0.506   2.275  0.00  0.00    -0.047 A 
ATOM      9  C9  IND d   1      -1.207  -1.072   1.083  0.00  0.00    -0.096 A 
ATOM     10  HN1 IND d   1      -3.546   0.092   2.693  0.00  0.00     0.298 HD
ENDROOT
TORSDOF 0
ENDMDL
