MODEL 1
REMARK minimizedAffinity 2.72898722
REMARK minimizedRMSD -1
REMARK  0 active torsions:
REMARK  status: ('A' for Active; 'I' for Inactive)
ROOT
ATOM      1  N1  IND d   1       2.238   5.486   3.705  0.00  0.00    -0.196 N 
ATOM      2  C2  IND d   1       1.497   5.688   4.836  0.00  0.00     0.054 A 
ATOM      3  C3  IND d   1       2.308   5.878   5.901  0.00  0.00    -0.031 A 
ATOM      4  C4  IND d   1       4.878   5.999   6.000  0.00  0.00     0.051 A 
ATOM      5  C5  IND d   1       5.994   5.839   5.228  0.00  0.00    -0.031 A 
ATOM      6  C6  IND d   1       5.914   5.549   3.881  0.00  0.00     0.015 A 
ATOM      7  C7  IND d   1       4.708   5.420   3.251  0.00  0.00    -0.016 A 
ATOM      8  C8  IND d   1       3.573   5.575   4.033  0.00  0.00    -0.047 A 
ATOM      9  C9  IND d   1       3.648   5.827   5.409  0.00  0.00    -0.096 A 
ATOM     10  HN1 IND d   1       1.923   5.329   2.920  0.00  0.00     0.298 HD
ENDROOT
TORSDOF 0
ENDMDL
