MODEL 1
REMARK minimizedAffinity -2.77432442
REMARK minimizedRMSD -1
REMARK  0 active torsions:
REMARK  status: ('A' for Active; 'I' for Inactive)
ROOT
ATOM      1  N1  IND d   1       4.983   5.966   5.980  0.00  0.00    -0.196 N 
ATOM      2  C2  IND d   1       5.908   5.407   5.143  0.00  0.00     0.054 A 
ATOM      3  C3  IND d   1       5.292   4.740   4.141  0.00  0.00    -0.031 A 
ATOM      4  C4  IND d   1       2.780   4.521   3.623  0.00  0.00     0.051 A 
ATOM      5  C5  IND d   1       1.546   4.829   4.123  0.00  0.00    -0.031 A 
ATOM      6  C6  IND d   1       1.392   5.549   5.290  0.00  0.00     0.015 A 
ATOM      7  C7  IND d   1       2.470   5.999   5.997  0.00  0.00    -0.016 A 
ATOM      8  C8  IND d   1       3.725   5.682   5.496  0.00  0.00    -0.047 A 
ATOM      9  C9  IND d   1       3.888   4.916   4.335  0.00  0.00    -0.096 A 
ATOM     10  HN1 IND d   1       5.158   6.419   6.690  0.00  0.00     0.298 HD
ENDROOT
TORSDOF 0
ENDMDL
