MODEL 1
REMARK minimizedAffinity -3.8859942
REMARK minimizedRMSD -1
REMARK  0 active torsions:
REMARK  status: ('A' for Active; 'I' for Inactive)
ROOT
ATOM      1  N1  IND d   1       3.177   6.000   5.999  0.00  0.00    -0.196 N 
ATOM      2  C2  IND d   1       4.320   5.606   5.362  0.00  0.00     0.054 A 
ATOM      3  C3  IND d   1       4.020   4.954   4.216  0.00  0.00    -0.031 A 
ATOM      4  C4  IND d   1       1.723   4.509   3.142  0.00  0.00     0.051 A 
ATOM      5  C5  IND d   1       0.383   4.647   3.369  0.00  0.00    -0.031 A 
ATOM      6  C6  IND d   1      -0.105   5.257   4.507  0.00  0.00     0.015 A 
ATOM      7  C7  IND d   1       0.734   5.765   5.458  0.00  0.00    -0.016 A 
ATOM      8  C8  IND d   1       2.096   5.621   5.233  0.00  0.00    -0.047 A 
ATOM      9  C9  IND d   1       2.596   4.965   4.101  0.00  0.00    -0.096 A 
ATOM     10  HN1 IND d   1       3.139   6.415   6.751  0.00  0.00     0.298 HD
ENDROOT
TORSDOF 0
ENDMDL
