MODEL 1
REMARK minimizedAffinity 3.78894901
REMARK minimizedRMSD -1
REMARK  0 active torsions:
REMARK  status: ('A' for Active; 'I' for Inactive)
ROOT
ATOM      1  N1  IND d   1       5.431   5.439   3.863  0.00  0.00    -0.196 N 
ATOM      2  C2  IND d   1       6.000   5.934   5.004  0.00  0.00     0.054 A 
ATOM      3  C3  IND d   1       5.084   6.000   5.996  0.00  0.00    -0.031 A 
ATOM      4  C4  IND d   1       2.620   5.253   5.999  0.00  0.00     0.051 A 
ATOM      5  C5  IND d   1       1.639   4.773   5.178  0.00  0.00    -0.031 A 
ATOM      6  C6  IND d   1       1.877   4.481   3.850  0.00  0.00     0.015 A 
ATOM      7  C7  IND d   1       3.114   4.650   3.295  0.00  0.00    -0.016 A 
ATOM      8  C8  IND d   1       4.111   5.144   4.124  0.00  0.00    -0.047 A 
ATOM      9  C9  IND d   1       3.865   5.482   5.461  0.00  0.00    -0.096 A 
ATOM     10  HN1 IND d   1       5.831   5.331   3.110  0.00  0.00     0.298 HD
ENDROOT
TORSDOF 0
ENDMDL
