MODEL 1
REMARK minimizedAffinity 12.0588255
REMARK minimizedRMSD -1
REMARK  0 active torsions:
REMARK  status: ('A' for Active; 'I' for Inactive)
ROOT
ATOM      1  N1  IND d   1      -0.937   3.588  -4.872  0.00  0.00    -0.196 N 
ATOM      2  C2  IND d   1      -0.859   2.256  -4.576  0.00  0.00     0.054 A 
ATOM      3  C3  IND d   1       0.400   1.804  -4.772  0.00  0.00    -0.031 A 
ATOM      4  C4  IND d   1       2.511   3.099  -5.476  0.00  0.00     0.051 A 
ATOM      5  C5  IND d   1       2.931   4.331  -5.890  0.00  0.00    -0.031 A 
ATOM      6  C6  IND d   1       2.065   5.402  -5.986  0.00  0.00     0.015 A 
ATOM      7  C7  IND d   1       0.745   5.282  -5.658  0.00  0.00    -0.016 A 
ATOM      8  C8  IND d   1       0.314   4.030  -5.243  0.00  0.00    -0.047 A 
ATOM      9  C9  IND d   1       1.178   2.929  -5.185  0.00  0.00    -0.096 A 
ATOM     10  HN1 IND d   1      -1.649   4.070  -4.832  0.00  0.00     0.298 HD
ENDROOT
TORSDOF 0
ENDMDL
