MODEL 1
REMARK minimizedAffinity 5.20337915
REMARK minimizedRMSD -1
REMARK  0 active torsions:
REMARK  status: ('A' for Active; 'I' for Inactive)
ROOT
ATOM      1  N1  IND d   1       5.302   4.915   5.527  0.00  0.00    -0.196 N 
ATOM      2  C2  IND d   1       5.990   5.466   4.482  0.00  0.00     0.054 A 
ATOM      3  C3  IND d   1       5.133   5.902   3.533  0.00  0.00    -0.031 A 
ATOM      4  C4  IND d   1       2.558   5.906   3.530  0.00  0.00     0.051 A 
ATOM      5  C5  IND d   1       1.480   5.475   4.250  0.00  0.00    -0.031 A 
ATOM      6  C6  IND d   1       1.623   4.824   5.459  0.00  0.00     0.015 A 
ATOM      7  C7  IND d   1       2.855   4.590   6.000  0.00  0.00    -0.016 A 
ATOM      8  C8  IND d   1       3.953   5.020   5.268  0.00  0.00    -0.047 A 
ATOM      9  C9  IND d   1       3.815   5.643   4.021  0.00  0.00    -0.096 A 
ATOM     10  HN1 IND d   1       5.653   4.562   6.228  0.00  0.00     0.298 HD
ENDROOT
TORSDOF 0
ENDMDL
