MODEL 1
REMARK minimizedAffinity 11.6889839
REMARK minimizedRMSD -1
REMARK  0 active torsions:
REMARK  status: ('A' for Active; 'I' for Inactive)
ROOT
ATOM      1  N1  IND d   1       5.341   5.620   3.756  0.00  0.00    -0.196 N 
ATOM      2  C2  IND d   1       5.987   5.961   4.911  0.00  0.00     0.054 A 
ATOM      3  C3  IND d   1       5.117   5.992   5.945  0.00  0.00    -0.031 A 
ATOM      4  C4  IND d   1       2.607   5.419   5.989  0.00  0.00     0.051 A 
ATOM      5  C5  IND d   1       1.563   5.090   5.171  0.00  0.00    -0.031 A 
ATOM      6  C6  IND d   1       1.729   4.914   3.813  0.00  0.00     0.015 A 
ATOM      7  C7  IND d   1       2.952   5.051   3.220  0.00  0.00    -0.016 A 
ATOM      8  C8  IND d   1       4.013   5.392   4.047  0.00  0.00    -0.047 A 
ATOM      9  C9  IND d   1       3.844   5.614   5.420  0.00  0.00    -0.096 A 
ATOM     10  HN1 IND d   1       5.702   5.559   2.978  0.00  0.00     0.298 HD
ENDROOT
TORSDOF 0
ENDMDL
