MODEL 1
REMARK minimizedAffinity -0.366166443
REMARK minimizedRMSD -1
REMARK  0 active torsions:
REMARK  status: ('A' for Active; 'I' for Inactive)
ROOT
ATOM      1  C   UNL d   1       2.381  -4.657   3.527  0.00  0.00     0.172 C 
ATOM      2  N   UNL d   1       1.904  -3.331   3.211  0.00  0.00    -0.070 N 
ATOM      3  C1  UNL d   1       1.833  -2.279   4.085  0.00  0.00    -0.004 A 
ATOM      4  C2  UNL d   1       1.327  -1.195   3.400  0.00  0.00    -0.047 A 
ATOM      5  C3  UNL d   1       1.085  -1.611   2.069  0.00  0.00    -0.047 A 
ATOM      6  C4  UNL d   1       1.450  -2.937   1.980  0.00  0.00    -0.004 A 
ENDROOT
TORSDOF 0
ENDMDL
