MODEL 1
REMARK minimizedAffinity 4.95171404
REMARK minimizedRMSD -1
REMARK  0 active torsions:
REMARK  status: ('A' for Active; 'I' for Inactive)
ROOT
ATOM      1  C   UNL d   1      -5.205  -5.982  -5.991  0.00  0.00     0.172 C 
ATOM      2  N   UNL d   1      -5.271  -4.642  -5.455  0.00  0.00    -0.070 N 
ATOM      3  C1  UNL d   1      -4.621  -4.198  -4.334  0.00  0.00    -0.004 A 
ATOM      4  C2  UNL d   1      -4.940  -2.869  -4.160  0.00  0.00    -0.047 A 
ATOM      5  C3  UNL d   1      -5.812  -2.501  -5.213  0.00  0.00    -0.047 A 
ATOM      6  C4  UNL d   1      -6.000  -3.618  -5.999  0.00  0.00    -0.004 A 
ENDROOT
TORSDOF 0
ENDMDL
