MODEL 1
REMARK minimizedAffinity 9.51814842
REMARK minimizedRMSD -1
REMARK  0 active torsions:
REMARK  status: ('A' for Active; 'I' for Inactive)
ROOT
ATOM      1  C   UNL d   1       0.695   4.870  -0.476  0.00  0.00     0.172 C 
ATOM      2  N   UNL d   1      -0.123   3.708  -0.222  0.00  0.00    -0.070 N 
ATOM      3  C1  UNL d   1      -0.920   3.076  -1.139  0.00  0.00    -0.004 A 
ATOM      4  C2  UNL d   1      -1.533   2.016  -0.507  0.00  0.00    -0.047 A 
ATOM      5  C3  UNL d   1      -1.090   2.010   0.836  0.00  0.00    -0.047 A 
ATOM      6  C4  UNL d   1      -0.218   3.068   0.986  0.00  0.00    -0.004 A 
ENDROOT
TORSDOF 0
ENDMDL
