MODEL 1
REMARK minimizedAffinity -2.05855083
REMARK minimizedRMSD -1
REMARK  0 active torsions:
REMARK  status: ('A' for Active; 'I' for Inactive)
ROOT
ATOM      1  C   UNL d   1      -5.976  -5.998  -5.986  0.00  0.00     0.172 C 
ATOM      2  N   UNL d   1      -5.665  -4.836  -5.187  0.00  0.00    -0.070 N 
ATOM      3  C1  UNL d   1      -5.038  -4.849  -3.970  0.00  0.00    -0.004 A 
ATOM      4  C2  UNL d   1      -4.928  -3.545  -3.538  0.00  0.00    -0.047 A 
ATOM      5  C3  UNL d   1      -5.509  -2.719  -4.530  0.00  0.00    -0.047 A 
ATOM      6  C4  UNL d   1      -5.958  -3.545  -5.539  0.00  0.00    -0.004 A 
ENDROOT
TORSDOF 0
ENDMDL
