MODEL 1
REMARK minimizedAffinity 2.27450871
REMARK minimizedRMSD -1
REMARK  0 active torsions:
REMARK  status: ('A' for Active; 'I' for Inactive)
ROOT
ATOM      1  C   UNL d   1      -5.256  -2.510  -4.025  0.00  0.00     0.172 C 
ATOM      2  N   UNL d   1      -5.547  -3.820  -4.557  0.00  0.00    -0.070 N 
ATOM      3  C1  UNL d   1      -5.664  -4.971  -3.825  0.00  0.00    -0.004 A 
ATOM      4  C2  UNL d   1      -5.945  -6.000  -4.697  0.00  0.00    -0.047 A 
ATOM      5  C3  UNL d   1      -5.999  -5.448  -6.000  0.00  0.00    -0.047 A 
ATOM      6  C4  UNL d   1      -5.748  -4.097  -5.884  0.00  0.00    -0.004 A 
ENDROOT
TORSDOF 0
ENDMDL
