MODEL 1
REMARK minimizedAffinity -3.16985059
REMARK minimizedRMSD -1
REMARK  0 active torsions:
REMARK  status: ('A' for Active; 'I' for Inactive)
ROOT
ATOM      1  C   UNL d   1       1.278  -1.865   2.397  0.00  0.00     0.172 C 
ATOM      2  N   UNL d   1       2.039  -2.349   3.524  0.00  0.00    -0.070 N 
ATOM      3  C1  UNL d   1       3.361  -2.708   3.500  0.00  0.00    -0.004 A 
ATOM      4  C2  UNL d   1       3.711  -3.113   4.770  0.00  0.00    -0.047 A 
ATOM      5  C3  UNL d   1       2.561  -2.994   5.585  0.00  0.00    -0.047 A 
ATOM      6  C4  UNL d   1       1.540  -2.519   4.788  0.00  0.00    -0.004 A 
ENDROOT
TORSDOF 0
ENDMDL
