MODEL 1
REMARK minimizedAffinity 0.279782593
REMARK minimizedRMSD -1
REMARK  0 active torsions:
REMARK  status: ('A' for Active; 'I' for Inactive)
ROOT
ATOM      1  C   UNL d   1      -4.646  -2.529  -3.924  0.00  0.00     0.172 C 
ATOM      2  N   UNL d   1      -5.021  -3.748  -4.600  0.00  0.00    -0.070 N 
ATOM      3  C1  UNL d   1      -5.920  -3.847  -5.628  0.00  0.00    -0.004 A 
ATOM      4  C2  UNL d   1      -5.998  -5.173  -5.995  0.00  0.00    -0.047 A 
ATOM      5  C3  UNL d   1      -5.116  -5.897  -5.157  0.00  0.00    -0.047 A 
ATOM      6  C4  UNL d   1      -4.524  -4.990  -4.303  0.00  0.00    -0.004 A 
ENDROOT
TORSDOF 0
ENDMDL
