MODEL 1
REMARK minimizedAffinity 7.43959951
REMARK minimizedRMSD -1
REMARK  0 active torsions:
REMARK  status: ('A' for Active; 'I' for Inactive)
ROOT
ATOM      1  C   UNL d   1       1.142  -0.374   1.282  0.00  0.00     0.172 C 
ATOM      2  N   UNL d   1       1.112  -1.462   2.231  0.00  0.00    -0.070 N 
ATOM      3  C1  UNL d   1       0.773  -2.758   1.948  0.00  0.00    -0.004 A 
ATOM      4  C2  UNL d   1       0.867  -3.483   3.116  0.00  0.00    -0.047 A 
ATOM      5  C3  UNL d   1       1.276  -2.592   4.136  0.00  0.00    -0.047 A 
ATOM      6  C4  UNL d   1       1.420  -1.347   3.561  0.00  0.00    -0.004 A 
ENDROOT
TORSDOF 0
ENDMDL
