MODEL 1
REMARK minimizedAffinity 0.958281755
REMARK minimizedRMSD -1
REMARK  0 active torsions:
REMARK  status: ('A' for Active; 'I' for Inactive)
ROOT
ATOM      1  C   UNL d   1      -5.921  -2.464  -5.775  0.00  0.00     0.172 C 
ATOM      2  N   UNL d   1      -5.359  -3.788  -5.646  0.00  0.00    -0.070 N 
ATOM      3  C1  UNL d   1      -4.115  -4.083  -5.156  0.00  0.00    -0.004 A 
ATOM      4  C2  UNL d   1      -3.958  -5.451  -5.197  0.00  0.00    -0.047 A 
ATOM      5  C3  UNL d   1      -5.150  -5.998  -5.731  0.00  0.00    -0.047 A 
ATOM      6  C4  UNL d   1      -6.000  -4.946  -6.000  0.00  0.00    -0.004 A 
ENDROOT
TORSDOF 0
ENDMDL
