MODEL 1
REMARK minimizedAffinity 1.79821122
REMARK minimizedRMSD -1
REMARK  0 active torsions:
REMARK  status: ('A' for Active; 'I' for Inactive)
ROOT
ATOM      1  C   UNL d   1      -3.985  -6.000  -5.974  0.00  0.00     0.172 C 
ATOM      2  N   UNL d   1      -4.588  -4.779  -5.493  0.00  0.00    -0.070 N 
ATOM      3  C1  UNL d   1      -4.114  -4.004  -4.468  0.00  0.00    -0.004 A 
ATOM      4  C2  UNL d   1      -4.969  -2.934  -4.319  0.00  0.00    -0.047 A 
ATOM      5  C3  UNL d   1      -5.993  -3.070  -5.286  0.00  0.00    -0.047 A 
ATOM      6  C4  UNL d   1      -5.732  -4.222  -5.999  0.00  0.00    -0.004 A 
ENDROOT
TORSDOF 0
ENDMDL
