MODEL 1
REMARK minimizedAffinity 6.64790678
REMARK minimizedRMSD -1
REMARK  1 active torsions:
REMARK  status: ('A' for Active; 'I' for Inactive)
REMARK    1  A    between atoms: C1_2  and  C2_3 
ROOT
ATOM      1  C2  UNL d   1      -3.104   3.509  -2.376  0.00  0.00    -0.081 A 
ATOM      2  C3  UNL d   1      -3.298   2.271  -1.751  0.00  0.00     0.006 A 
ATOM      3  C4  UNL d   1      -2.291   1.303  -1.770  0.00  0.00     0.002 A 
ATOM      4  C5  UNL d   1      -1.072   1.559  -2.405  0.00  0.00    -0.080 A 
ATOM      5  C6  UNL d   1       0.029   0.540  -2.406  0.00  0.00     0.076 C 
ATOM      6  C7  UNL d   1      -0.884   2.789  -3.044  0.00  0.00     0.002 A 
ATOM      7  C8  UNL d   1      -1.890   3.757  -3.027  0.00  0.00     0.006 A 
ENDROOT
BRANCH   1   8
ATOM      8  C1  UNL d   1      -4.163   4.579  -2.302  0.00  0.00     0.054 C 
ATOM      9  C   UNL d   1      -4.188   5.421  -3.570  0.00  0.00     0.018 C 
ENDBRANCH   1   8
TORSDOF 1
ENDMDL
