MODEL 1
REMARK minimizedAffinity 7.83075428
REMARK minimizedRMSD -1
REMARK  1 active torsions:
REMARK  status: ('A' for Active; 'I' for Inactive)
REMARK    1  A    between atoms: C1_2  and  C2_3 
ROOT
ATOM      1  C2  UNL d   1       0.606   0.790   1.692  0.00  0.00    -0.081 A 
ATOM      2  C3  UNL d   1       0.329   1.248   0.399  0.00  0.00     0.006 A 
ATOM      3  C4  UNL d   1       0.495   2.597   0.075  0.00  0.00     0.002 A 
ATOM      4  C5  UNL d   1       0.948   3.507   1.036  0.00  0.00    -0.080 A 
ATOM      5  C6  UNL d   1       1.159   4.952   0.693  0.00  0.00     0.076 C 
ATOM      6  C7  UNL d   1       1.207   3.052   2.333  0.00  0.00     0.002 A 
ATOM      7  C8  UNL d   1       1.041   1.704   2.658  0.00  0.00     0.006 A 
ENDROOT
BRANCH   1   8
ATOM      8  C1  UNL d   1       0.490  -0.675   2.027  0.00  0.00     0.054 C 
ATOM      9  C   UNL d   1       1.210  -1.537   1.000  0.00  0.00     0.018 C 
ENDBRANCH   1   8
TORSDOF 1
ENDMDL
