MODEL 1
REMARK minimizedAffinity -3.39846015
REMARK minimizedRMSD -1
REMARK  1 active torsions:
REMARK  status: ('A' for Active; 'I' for Inactive)
REMARK    1  A    between atoms: N_2  and  C1_3 
ROOT
ATOM      1  C1  UNL d   1      -0.290   0.187  -0.236  0.00  0.00     0.143 A 
ATOM      2  C2  UNL d   1      -0.276   1.516   0.201  0.00  0.00    -0.057 A 
ATOM      3  C3  UNL d   1       0.864   2.075   0.790  0.00  0.00     0.033 A 
ATOM      4  C4  UNL d   1       2.006   1.304   0.979  0.00  0.00    -0.042 A 
ATOM      5  C5  UNL d   1       2.007  -0.026   0.576  0.00  0.00     0.033 A 
ATOM      6  C6  UNL d   1       0.867  -0.577  -0.018  0.00  0.00    -0.057 A 
ENDROOT
BRANCH   1   7
ATOM      7  N   UNL d   1      -1.424  -0.455  -0.738  0.00  0.00    -0.732 N 
ATOM      8  C   UNL d   1      -1.881  -0.195  -2.086  0.00  0.00     0.284 C 
ATOM      9  H3  UNL d   1      -1.469  -1.435  -0.466  0.00  0.00     0.395 HD
ENDBRANCH   1   7
TORSDOF 1
ENDMDL
