MODEL 1
REMARK minimizedAffinity -3.54506755
REMARK minimizedRMSD -1
REMARK  1 active torsions:
REMARK  status: ('A' for Active; 'I' for Inactive)
REMARK    1  A    between atoms: N_2  and  C1_3 
ROOT
ATOM      1  C1  UNL d   1       0.488  -0.210  -0.570  0.00  0.00     0.143 A 
ATOM      2  C2  UNL d   1       0.744  -0.887   0.627  0.00  0.00    -0.057 A 
ATOM      3  C3  UNL d   1       1.990  -0.797   1.260  0.00  0.00     0.033 A 
ATOM      4  C4  UNL d   1       3.014  -0.049   0.688  0.00  0.00    -0.042 A 
ATOM      5  C5  UNL d   1       2.790   0.612  -0.514  0.00  0.00     0.033 A 
ATOM      6  C6  UNL d   1       1.541   0.523  -1.137  0.00  0.00    -0.057 A 
ENDROOT
BRANCH   1   7
ATOM      7  N   UNL d   1      -0.698  -0.339  -1.298  0.00  0.00    -0.732 N 
ATOM      8  C   UNL d   1      -0.665  -0.633  -2.714  0.00  0.00     0.284 C 
ATOM      9  H3  UNL d   1      -1.415  -0.846  -0.785  0.00  0.00     0.395 HD
ENDBRANCH   1   7
TORSDOF 1
ENDMDL
