MODEL 1
REMARK minimizedAffinity -2.83527684
REMARK minimizedRMSD -1
REMARK  1 active torsions:
REMARK  status: ('A' for Active; 'I' for Inactive)
REMARK    1  A    between atoms: N_2  and  C1_3 
ROOT
ATOM      1  C1  UNL d   1      -0.044   0.148   0.250  0.00  0.00     0.143 A 
ATOM      2  C2  UNL d   1       0.345   1.210   1.074  0.00  0.00    -0.057 A 
ATOM      3  C3  UNL d   1       1.669   1.344   1.510  0.00  0.00     0.033 A 
ATOM      4  C4  UNL d   1       2.624   0.399   1.151  0.00  0.00    -0.042 A 
ATOM      5  C5  UNL d   1       2.255  -0.679   0.353  0.00  0.00     0.033 A 
ATOM      6  C6  UNL d   1       0.933  -0.803  -0.084  0.00  0.00    -0.057 A 
ENDROOT
BRANCH   1   7
ATOM      7  N   UNL d   1      -1.365  -0.094  -0.135  0.00  0.00    -0.732 N 
ATOM      8  C   UNL d   1      -1.716  -0.207  -1.534  0.00  0.00     0.284 C 
ATOM      9  H3  UNL d   1      -1.826  -0.774   0.466  0.00  0.00     0.395 HD
ENDBRANCH   1   7
TORSDOF 1
ENDMDL
