MODEL 1
REMARK minimizedAffinity -4.46666193
REMARK minimizedRMSD -1
REMARK  1 active torsions:
REMARK  status: ('A' for Active; 'I' for Inactive)
REMARK    1  A    between atoms: N_2  and  C1_3 
ROOT
ATOM      1  C1  UNL d   1      -0.167   0.489   0.232  0.00  0.00     0.143 A 
ATOM      2  C2  UNL d   1       0.774  -0.529   0.420  0.00  0.00    -0.057 A 
ATOM      3  C3  UNL d   1       2.135  -0.240   0.576  0.00  0.00     0.033 A 
ATOM      4  C4  UNL d   1       2.584   1.075   0.518  0.00  0.00    -0.042 A 
ATOM      5  C5  UNL d   1       1.670   2.101   0.307  0.00  0.00     0.033 A 
ATOM      6  C6  UNL d   1       0.312   1.807   0.159  0.00  0.00    -0.057 A 
ENDROOT
BRANCH   1   7
ATOM      7  N   UNL d   1      -1.520   0.259  -0.027  0.00  0.00    -0.732 N 
ATOM      8  C   UNL d   1      -2.018   0.246  -1.386  0.00  0.00     0.284 C 
ATOM      9  H3  UNL d   1      -1.911  -0.469   0.566  0.00  0.00     0.395 HD
ENDBRANCH   1   7
TORSDOF 1
ENDMDL
