MODEL 1
REMARK minimizedAffinity -5.71963644
REMARK minimizedRMSD -1
REMARK  1 active torsions:
REMARK  status: ('A' for Active; 'I' for Inactive)
REMARK    1  A    between atoms: N_2  and  C1_3 
ROOT
ATOM      1  C1  UNL d   1       0.257  -0.118   0.633  0.00  0.00     0.143 A 
ATOM      2  C2  UNL d   1       1.332   0.767   0.495  0.00  0.00    -0.057 A 
ATOM      3  C3  UNL d   1       2.643   0.366   0.779  0.00  0.00     0.033 A 
ATOM      4  C4  UNL d   1       2.900  -0.923   1.235  0.00  0.00    -0.042 A 
ATOM      5  C5  UNL d   1       1.844  -1.812   1.403  0.00  0.00     0.033 A 
ATOM      6  C6  UNL d   1       0.537  -1.408   1.111  0.00  0.00    -0.057 A 
ENDROOT
BRANCH   1   7
ATOM      7  N   UNL d   1      -1.080   0.250   0.461  0.00  0.00    -0.732 N 
ATOM      8  C   UNL d   1      -1.807  -0.148  -0.725  0.00  0.00     0.284 C 
ATOM      9  H3  UNL d   1      -1.617   0.175   1.322  0.00  0.00     0.395 HD
ENDBRANCH   1   7
TORSDOF 1
ENDMDL
