MODEL 1
REMARK minimizedAffinity -5.01448107
REMARK minimizedRMSD -1
REMARK  1 active torsions:
REMARK  status: ('A' for Active; 'I' for Inactive)
REMARK    1  A    between atoms: N_2  and  C1_3 
ROOT
ATOM      1  C1  UNL d   1       0.967  -0.684   0.417  0.00  0.00     0.143 A 
ATOM      2  C2  UNL d   1       1.923   0.309   0.176  0.00  0.00    -0.057 A 
ATOM      3  C3  UNL d   1       3.153   0.310   0.843  0.00  0.00     0.033 A 
ATOM      4  C4  UNL d   1       3.439  -0.669   1.789  0.00  0.00    -0.042 A 
ATOM      5  C5  UNL d   1       2.494  -1.651   2.064  0.00  0.00     0.033 A 
ATOM      6  C6  UNL d   1       1.270  -1.651   1.389  0.00  0.00    -0.057 A 
ENDROOT
BRANCH   1   7
ATOM      7  N   UNL d   1      -0.313  -0.683  -0.142  0.00  0.00    -0.732 N 
ATOM      8  C   UNL d   1      -1.050   0.552  -0.295  0.00  0.00     0.284 C 
ATOM      9  H3  UNL d   1      -0.390  -1.315  -0.936  0.00  0.00     0.395 HD
ENDBRANCH   1   7
TORSDOF 1
ENDMDL
