MODEL 1
REMARK minimizedAffinity 0.812430561
REMARK minimizedRMSD -1
REMARK  1 active torsions:
REMARK  status: ('A' for Active; 'I' for Inactive)
REMARK    1  A    between atoms: N_2  and  C1_3 
ROOT
ATOM      1  C1  UNL d   1       1.332  -1.065   1.310  0.00  0.00     0.143 A 
ATOM      2  C2  UNL d   1       0.570  -0.372   0.363  0.00  0.00    -0.057 A 
ATOM      3  C3  UNL d   1      -0.680  -0.847  -0.053  0.00  0.00     0.033 A 
ATOM      4  C4  UNL d   1      -1.178  -2.045   0.451  0.00  0.00    -0.042 A 
ATOM      5  C5  UNL d   1      -0.426  -2.764   1.373  0.00  0.00     0.033 A 
ATOM      6  C6  UNL d   1       0.818  -2.280   1.790  0.00  0.00    -0.057 A 
ENDROOT
BRANCH   1   7
ATOM      7  N   UNL d   1       2.624  -0.696   1.690  0.00  0.00    -0.732 N 
ATOM      8  C   UNL d   1       2.838   0.170   2.830  0.00  0.00     0.284 C 
ATOM      9  H3  UNL d   1       3.284  -1.467   1.625  0.00  0.00     0.395 HD
ENDBRANCH   1   7
TORSDOF 1
ENDMDL
