MODEL 1
REMARK minimizedAffinity -0.243456602
REMARK minimizedRMSD -1
REMARK  1 active torsions:
REMARK  status: ('A' for Active; 'I' for Inactive)
REMARK    1  A    between atoms: N_2  and  C1_3 
ROOT
ATOM      1  C1  UNL d   1       4.459   1.193  -5.479  0.00  0.00     0.143 A 
ATOM      2  C2  UNL d   1       4.536   2.491  -5.994  0.00  0.00    -0.057 A 
ATOM      3  C3  UNL d   1       5.310   3.476  -5.369  0.00  0.00     0.033 A 
ATOM      4  C4  UNL d   1       6.000   3.186  -4.196  0.00  0.00    -0.042 A 
ATOM      5  C5  UNL d   1       5.917   1.909  -3.652  0.00  0.00     0.033 A 
ATOM      6  C6  UNL d   1       5.148   0.928  -4.285  0.00  0.00    -0.057 A 
ENDROOT
BRANCH   1   7
ATOM      7  N   UNL d   1       3.628   0.198  -6.000  0.00  0.00    -0.732 N 
ATOM      8  C   UNL d   1       4.027  -1.193  -5.956  0.00  0.00     0.284 C 
ATOM      9  H3  UNL d   1       2.647   0.356  -5.781  0.00  0.00     0.395 HD
ENDBRANCH   1   7
TORSDOF 1
ENDMDL
