MODEL 1
REMARK minimizedAffinity 0.322828799
REMARK minimizedRMSD -1
REMARK  0 active torsions:
REMARK  status: ('A' for Active; 'I' for Inactive)
ROOT
ATOM      1  C   UNL d   1      -1.016   2.381  -0.786  0.00  0.00     0.023 A 
ATOM      2  C1  UNL d   1       0.031   1.529  -1.139  0.00  0.00     0.003 A 
ATOM      3  C2  UNL d   1       0.087   0.236  -0.614  0.00  0.00     0.048 A 
ATOM      4  C3  UNL d   1      -0.907  -0.199   0.262  0.00  0.00     0.023 A 
ATOM      5  C4  UNL d   1      -1.956   0.650   0.617  0.00  0.00     0.048 A 
ATOM      6  C5  UNL d   1      -2.008   1.942   0.091  0.00  0.00     0.003 A 
ATOM      7  I   UNL d   1      -0.825  -2.123   1.044  0.00  0.00    -0.146 I 
ENDROOT
TORSDOF 0
ENDMDL
