MODEL 1
REMARK minimizedAffinity 4.736516
REMARK minimizedRMSD -1
REMARK  0 active torsions:
REMARK  status: ('A' for Active; 'I' for Inactive)
ROOT
ATOM      1  C   UNL d   1       3.519   4.010   0.430  0.00  0.00     0.023 A 
ATOM      2  C1  UNL d   1       3.938   2.738   0.043  0.00  0.00     0.003 A 
ATOM      3  C2  UNL d   1       2.997   1.743  -0.229  0.00  0.00     0.048 A 
ATOM      4  C3  UNL d   1       1.637   2.029  -0.114  0.00  0.00     0.023 A 
ATOM      5  C4  UNL d   1       1.212   3.301   0.272  0.00  0.00     0.048 A 
ATOM      6  C5  UNL d   1       2.157   4.292   0.544  0.00  0.00     0.003 A 
ATOM      7  I   UNL d   1       0.233   0.551  -0.519  0.00  0.00    -0.146 I 
ENDROOT
TORSDOF 0
ENDMDL
