MODEL 1
REMARK minimizedAffinity -0.0110036414
REMARK minimizedRMSD -1
REMARK  0 active torsions:
REMARK  status: ('A' for Active; 'I' for Inactive)
ROOT
ATOM      1  C   UNL d   1      -0.467  -1.078  -0.126  0.00  0.00     0.023 A 
ATOM      2  C1  UNL d   1      -1.187   0.106  -0.286  0.00  0.00     0.003 A 
ATOM      3  C2  UNL d   1      -0.525   1.335  -0.264  0.00  0.00     0.048 A 
ATOM      4  C3  UNL d   1       0.857   1.373  -0.081  0.00  0.00     0.023 A 
ATOM      5  C4  UNL d   1       1.581   0.191   0.079  0.00  0.00     0.048 A 
ATOM      6  C5  UNL d   1       0.915  -1.036   0.057  0.00  0.00     0.003 A 
ATOM      7  I   UNL d   1       1.845   3.202  -0.047  0.00  0.00    -0.146 I 
ENDROOT
TORSDOF 0
ENDMDL
