MODEL 1
REMARK minimizedAffinity -0.236158386
REMARK minimizedRMSD -1
REMARK  0 active torsions:
REMARK  status: ('A' for Active; 'I' for Inactive)
ROOT
ATOM      1  C   UNL d   1       1.781  -2.351   1.155  0.00  0.00     0.023 A 
ATOM      2  C1  UNL d   1       2.336  -1.134   0.759  0.00  0.00     0.003 A 
ATOM      3  C2  UNL d   1       1.533  -0.159   0.165  0.00  0.00     0.048 A 
ATOM      4  C3  UNL d   1       0.175  -0.407  -0.030  0.00  0.00     0.023 A 
ATOM      5  C4  UNL d   1      -0.386  -1.623   0.366  0.00  0.00     0.048 A 
ATOM      6  C5  UNL d   1       0.422  -2.595   0.959  0.00  0.00     0.003 A 
ATOM      7  I   UNL d   1      -1.024   1.043  -0.914  0.00  0.00    -0.146 I 
ENDROOT
TORSDOF 0
ENDMDL
