MODEL 1
REMARK minimizedAffinity -1.89115655
REMARK minimizedRMSD -1
REMARK  0 active torsions:
REMARK  status: ('A' for Active; 'I' for Inactive)
ROOT
ATOM      1  C   UNL d   1      -1.763   3.356  -4.516  0.00  0.00     0.023 A 
ATOM      2  C1  UNL d   1      -2.404   2.143  -4.261  0.00  0.00     0.003 A 
ATOM      3  C2  UNL d   1      -2.222   1.501  -3.034  0.00  0.00     0.048 A 
ATOM      4  C3  UNL d   1      -1.399   2.077  -2.067  0.00  0.00     0.023 A 
ATOM      5  C4  UNL d   1      -0.757   3.291  -2.318  0.00  0.00     0.048 A 
ATOM      6  C5  UNL d   1      -0.941   3.929  -3.546  0.00  0.00     0.003 A 
ATOM      7  I   UNL d   1      -1.128   1.123  -0.241  0.00  0.00    -0.146 I 
ENDROOT
TORSDOF 0
ENDMDL
