MODEL 1
REMARK minimizedAffinity -2.09340549
REMARK minimizedRMSD -1
REMARK  0 active torsions:
REMARK  status: ('A' for Active; 'I' for Inactive)
ROOT
ATOM      1  C   UNL d   1      -2.162   3.136  -4.417  0.00  0.00     0.023 A 
ATOM      2  C1  UNL d   1      -2.714   1.950  -3.931  0.00  0.00     0.003 A 
ATOM      3  C2  UNL d   1      -2.247   1.400  -2.736  0.00  0.00     0.048 A 
ATOM      4  C3  UNL d   1      -1.229   2.041  -2.031  0.00  0.00     0.023 A 
ATOM      5  C4  UNL d   1      -0.674   3.227  -2.513  0.00  0.00     0.048 A 
ATOM      6  C5  UNL d   1      -1.144   3.773  -3.709  0.00  0.00     0.003 A 
ATOM      7  I   UNL d   1      -0.532   1.224  -0.251  0.00  0.00    -0.146 I 
ENDROOT
TORSDOF 0
ENDMDL
