MODEL 1
REMARK minimizedAffinity -3.2312324
REMARK minimizedRMSD -1
REMARK  0 active torsions:
REMARK  status: ('A' for Active; 'I' for Inactive)
ROOT
ATOM      1  C   UNL d   1      -2.612   1.500  -3.187  0.00  0.00     0.023 A 
ATOM      2  C1  UNL d   1      -2.561   1.218  -1.822  0.00  0.00     0.003 A 
ATOM      3  C2  UNL d   1      -1.718   1.952  -0.986  0.00  0.00     0.048 A 
ATOM      4  C3  UNL d   1      -0.928   2.969  -1.521  0.00  0.00     0.023 A 
ATOM      5  C4  UNL d   1      -0.976   3.256  -2.887  0.00  0.00     0.048 A 
ATOM      6  C5  UNL d   1      -1.820   2.518  -3.718  0.00  0.00     0.003 A 
ATOM      7  I   UNL d   1       0.328   4.064  -0.279  0.00  0.00    -0.146 I 
ENDROOT
TORSDOF 0
ENDMDL
