MODEL 1
REMARK minimizedAffinity -2.41377997
REMARK minimizedRMSD -1
REMARK  0 active torsions:
REMARK  status: ('A' for Active; 'I' for Inactive)
ROOT
ATOM      1  C   UNL d   1      -1.137   3.605  -4.125  0.00  0.00     0.023 A 
ATOM      2  C1  UNL d   1      -1.784   2.376  -3.997  0.00  0.00     0.003 A 
ATOM      3  C2  UNL d   1      -1.699   1.662  -2.800  0.00  0.00     0.048 A 
ATOM      4  C3  UNL d   1      -0.965   2.184  -1.734  0.00  0.00     0.023 A 
ATOM      5  C4  UNL d   1      -0.317   3.414  -1.858  0.00  0.00     0.048 A 
ATOM      6  C5  UNL d   1      -0.404   4.123  -3.057  0.00  0.00     0.003 A 
ATOM      7  I   UNL d   1      -0.837   1.123   0.048  0.00  0.00    -0.146 I 
ENDROOT
TORSDOF 0
ENDMDL
