MODEL 1
REMARK minimizedAffinity -4.14902115
REMARK minimizedRMSD -1
REMARK  0 active torsions:
REMARK  status: ('A' for Active; 'I' for Inactive)
ROOT
ATOM      1  C   UNL d   1       2.469   4.514   0.229  0.00  0.00     0.023 A 
ATOM      2  C1  UNL d   1       3.212   3.463  -0.308  0.00  0.00     0.003 A 
ATOM      3  C2  UNL d   1       2.614   2.219  -0.519  0.00  0.00     0.048 A 
ATOM      4  C3  UNL d   1       1.271   2.034  -0.192  0.00  0.00     0.023 A 
ATOM      5  C4  UNL d   1       0.523   3.083   0.345  0.00  0.00     0.048 A 
ATOM      6  C5  UNL d   1       1.126   4.324   0.555  0.00  0.00     0.003 A 
ATOM      7  I   UNL d   1       0.378   0.183  -0.506  0.00  0.00    -0.146 I 
ENDROOT
TORSDOF 0
ENDMDL
