MODEL 1
REMARK minimizedAffinity -3.13055873
REMARK minimizedRMSD -1
REMARK  0 active torsions:
REMARK  status: ('A' for Active; 'I' for Inactive)
ROOT
ATOM      1  C   UNL d   1      -1.138   0.433  -0.996  0.00  0.00     0.023 A 
ATOM      2  C1  UNL d   1      -0.272  -0.393  -1.711  0.00  0.00     0.003 A 
ATOM      3  C2  UNL d   1       0.586  -1.262  -1.033  0.00  0.00     0.048 A 
ATOM      4  C3  UNL d   1       0.571  -1.299   0.361  0.00  0.00     0.023 A 
ATOM      5  C4  UNL d   1      -0.296  -0.475   1.081  0.00  0.00     0.048 A 
ATOM      6  C5  UNL d   1      -1.150   0.393   0.398  0.00  0.00     0.003 A 
ATOM      7  I   UNL d   1       1.846  -2.591   1.373  0.00  0.00    -0.146 I 
ENDROOT
TORSDOF 0
ENDMDL
