MODEL 1
REMARK minimizedAffinity -3.1113658
REMARK minimizedRMSD -1
REMARK  0 active torsions:
REMARK  status: ('A' for Active; 'I' for Inactive)
ROOT
ATOM      1  C   UNL d   1       1.450  -2.201   1.078  0.00  0.00     0.023 A 
ATOM      2  C1  UNL d   1       0.290  -2.595   0.411  0.00  0.00     0.003 A 
ATOM      3  C2  UNL d   1      -0.400  -1.683  -0.391  0.00  0.00     0.048 A 
ATOM      4  C3  UNL d   1       0.077  -0.379  -0.522  0.00  0.00     0.023 A 
ATOM      5  C4  UNL d   1       1.238   0.019   0.143  0.00  0.00     0.048 A 
ATOM      6  C5  UNL d   1       1.923  -0.895   0.944  0.00  0.00     0.003 A 
ATOM      7  I   UNL d   1      -0.948   0.979  -1.716  0.00  0.00    -0.146 I 
ENDROOT
TORSDOF 0
ENDMDL
