MODEL 1
REMARK minimizedAffinity -0.973445475
REMARK minimizedRMSD -1
REMARK  0 active torsions:
REMARK  status: ('A' for Active; 'I' for Inactive)
ROOT
ATOM      1  C   UNL d   1      -2.735   2.381  -3.682  0.00  0.00     0.023 A 
ATOM      2  C1  UNL d   1      -3.089   1.054  -3.436  0.00  0.00     0.003 A 
ATOM      3  C2  UNL d   1      -2.391   0.310  -2.482  0.00  0.00     0.048 A 
ATOM      4  C3  UNL d   1      -1.342   0.899  -1.777  0.00  0.00     0.023 A 
ATOM      5  C4  UNL d   1      -0.986   2.227  -2.020  0.00  0.00     0.048 A 
ATOM      6  C5  UNL d   1      -1.685   2.966  -2.975  0.00  0.00     0.003 A 
ATOM      7  I   UNL d   1      -0.303  -0.206  -0.356  0.00  0.00    -0.146 I 
ENDROOT
TORSDOF 0
ENDMDL
