MODEL 1
REMARK minimizedAffinity -4.04360151
REMARK minimizedRMSD -1
REMARK  0 active torsions:
REMARK  status: ('A' for Active; 'I' for Inactive)
ROOT
ATOM      1  C   UNL d   1       1.174  -2.793   0.903  0.00  0.00     0.023 A 
ATOM      2  C1  UNL d   1      -0.122  -2.285   0.988  0.00  0.00     0.003 A 
ATOM      3  C2  UNL d   1      -0.373  -0.950   0.668  0.00  0.00     0.048 A 
ATOM      4  C3  UNL d   1       0.677  -0.127   0.262  0.00  0.00     0.023 A 
ATOM      5  C4  UNL d   1       1.976  -0.630   0.174  0.00  0.00     0.048 A 
ATOM      6  C5  UNL d   1       2.222  -1.966   0.496  0.00  0.00     0.003 A 
ATOM      7  I   UNL d   1       0.306   1.862  -0.215  0.00  0.00    -0.146 I 
ENDROOT
TORSDOF 0
ENDMDL
