MODEL 1
REMARK minimizedAffinity -3.50183034
REMARK minimizedRMSD -1
REMARK  0 active torsions:
REMARK  status: ('A' for Active; 'I' for Inactive)
ROOT
ATOM      1  C   UNL d   1      -0.152  -1.014   0.281  0.00  0.00     0.023 A 
ATOM      2  C1  UNL d   1       1.234  -1.170   0.263  0.00  0.00     0.003 A 
ATOM      3  C2  UNL d   1       2.064  -0.049   0.202  0.00  0.00     0.048 A 
ATOM      4  C3  UNL d   1       1.501   1.226   0.162  0.00  0.00     0.023 A 
ATOM      5  C4  UNL d   1       0.115   1.388   0.181  0.00  0.00     0.048 A 
ATOM      6  C5  UNL d   1      -0.711   0.264   0.240  0.00  0.00     0.003 A 
ATOM      7  I   UNL d   1       2.734   2.897   0.073  0.00  0.00    -0.146 I 
ENDROOT
TORSDOF 0
ENDMDL
