MODEL 1
REMARK minimizedAffinity 1.89283991
REMARK minimizedRMSD -1
REMARK  1 active torsions:
REMARK  status: ('A' for Active; 'I' for Inactive)
REMARK    1  A    between atoms: C1_2  and  C2_3 
ROOT
ATOM      1  C2  UNL d   1      -5.891   0.417  -3.899  0.00  0.00    -0.077 A 
ATOM      2  C3  UNL d   1      -5.999   0.804  -5.242  0.00  0.00     0.002 A 
ATOM      3  C4  UNL d   1      -5.855   2.144  -5.606  0.00  0.00     0.002 A 
ATOM      4  C5  UNL d   1      -5.598   3.108  -4.633  0.00  0.00    -0.004 A 
ATOM      5  C6  UNL d   1      -5.491   2.734  -3.294  0.00  0.00     0.002 A 
ATOM      6  C7  UNL d   1      -5.636   1.395  -2.929  0.00  0.00     0.002 A 
ENDROOT
BRANCH   1   7
ATOM      7  C1  UNL d   1      -5.997  -1.034  -3.511  0.00  0.00     0.055 C 
ATOM      8  C   UNL d   1      -5.998  -1.936  -4.737  0.00  0.00     0.019 C 
ENDBRANCH   1   7
TORSDOF 1
ENDMDL
