MODEL 1
REMARK minimizedAffinity 11.4881659
REMARK minimizedRMSD -1
REMARK  1 active torsions:
REMARK  status: ('A' for Active; 'I' for Inactive)
REMARK    1  A    between atoms: C1_2  and  C2_3 
ROOT
ATOM      1  C2  UNL d   1       2.271  -0.010   2.346  0.00  0.00    -0.077 A 
ATOM      2  C3  UNL d   1       2.147   1.235   2.979  0.00  0.00     0.002 A 
ATOM      3  C4  UNL d   1       2.689   2.382   2.395  0.00  0.00     0.002 A 
ATOM      4  C5  UNL d   1       3.355   2.295   1.174  0.00  0.00    -0.004 A 
ATOM      5  C6  UNL d   1       3.486   1.062   0.538  0.00  0.00     0.002 A 
ATOM      6  C7  UNL d   1       2.946  -0.086   1.121  0.00  0.00     0.002 A 
ENDROOT
BRANCH   1   7
ATOM      7  C1  UNL d   1       1.644  -1.239   2.950  0.00  0.00     0.055 C 
ATOM      8  C   UNL d   1       2.488  -1.786   4.092  0.00  0.00     0.019 C 
ENDBRANCH   1   7
TORSDOF 1
ENDMDL
