MODEL 1
REMARK minimizedAffinity 7.89943933
REMARK minimizedRMSD -1
REMARK  1 active torsions:
REMARK  status: ('A' for Active; 'I' for Inactive)
REMARK    1  A    between atoms: C1_2  and  C2_3 
ROOT
ATOM      1  C2  UNL d   1       2.564  -1.684   3.780  0.00  0.00    -0.077 A 
ATOM      2  C3  UNL d   1       1.970  -2.897   4.158  0.00  0.00     0.002 A 
ATOM      3  C4  UNL d   1       2.714  -3.867   4.832  0.00  0.00     0.002 A 
ATOM      4  C5  UNL d   1       4.053  -3.633   5.138  0.00  0.00    -0.004 A 
ATOM      5  C6  UNL d   1       4.653  -2.431   4.765  0.00  0.00     0.002 A 
ATOM      6  C7  UNL d   1       3.911  -1.461   4.089  0.00  0.00     0.002 A 
ENDROOT
BRANCH   1   7
ATOM      7  C1  UNL d   1       1.750  -0.617   3.096  0.00  0.00     0.055 C 
ATOM      8  C   UNL d   1       2.636   0.504   2.572  0.00  0.00     0.019 C 
ENDBRANCH   1   7
TORSDOF 1
ENDMDL
