MODEL 1
REMARK minimizedAffinity 6.57093477
REMARK minimizedRMSD -1
REMARK  1 active torsions:
REMARK  status: ('A' for Active; 'I' for Inactive)
REMARK    1  A    between atoms: C1_2  and  C2_3 
ROOT
ATOM      1  C2  UNL d   1       2.136  -2.386   4.470  0.00  0.00    -0.077 A 
ATOM      2  C3  UNL d   1       3.444  -2.802   4.181  0.00  0.00     0.002 A 
ATOM      3  C4  UNL d   1       3.881  -4.073   4.559  0.00  0.00     0.002 A 
ATOM      4  C5  UNL d   1       3.016  -4.939   5.224  0.00  0.00    -0.004 A 
ATOM      5  C6  UNL d   1       1.714  -4.534   5.518  0.00  0.00     0.002 A 
ATOM      6  C7  UNL d   1       1.276  -3.264   5.141  0.00  0.00     0.002 A 
ENDROOT
BRANCH   1   7
ATOM      7  C1  UNL d   1       1.648  -1.034   4.019  0.00  0.00     0.055 C 
ATOM      8  C   UNL d   1       1.937  -0.805   2.542  0.00  0.00     0.019 C 
ENDBRANCH   1   7
TORSDOF 1
ENDMDL
