MODEL 1
REMARK minimizedAffinity 18.8228378
REMARK minimizedRMSD -1
REMARK  0 active torsions:
REMARK  status: ('A' for Active; 'I' for Inactive)
ROOT
ATOM      1  C   UNL d   1       1.151  -2.451   2.471  0.00  0.00     0.124 A 
ATOM      2  C1  UNL d   1       0.534  -2.015   3.635  0.00  0.00     0.062 A 
ATOM      3  C2  UNL d   1       0.220  -2.922   4.643  0.00  0.00     0.162 A 
ATOM      4  C3  UNL d   1       0.525  -4.275   4.492  0.00  0.00    -0.034 A 
ATOM      5  C4  UNL d   1       1.145  -4.706   3.318  0.00  0.00     0.162 A 
ATOM      6  C5  UNL d   1       1.456  -3.796   2.314  0.00  0.00     0.062 A 
ATOM      7  F   UNL d   1       2.052  -4.219   1.190  0.00  0.00    -0.097 F 
ATOM      8  F1  UNL d   1       1.451  -6.000   3.141  0.00  0.00    -0.096 F 
ATOM      9  I   UNL d   1       0.058  -5.634   5.998  0.00  0.00    -0.060 I 
ATOM     10  F2  UNL d   1      -0.376  -2.472   5.757  0.00  0.00    -0.096 F 
ATOM     11  F3  UNL d   1       0.237  -0.717   3.788  0.00  0.00    -0.097 F 
ATOM     12  F4  UNL d   1       1.451  -1.577   1.502  0.00  0.00    -0.092 F 
ENDROOT
TORSDOF 0
ENDMDL
