MODEL 1
REMARK minimizedAffinity 28.1059532
REMARK minimizedRMSD -1
REMARK  0 active torsions:
REMARK  status: ('A' for Active; 'I' for Inactive)
ROOT
ATOM      1  C   UNL d   1       2.577  -5.826   1.015  0.00  0.00     0.124 A 
ATOM      2  C1  UNL d   1       3.834  -5.825   0.427  0.00  0.00     0.062 A 
ATOM      3  C2  UNL d   1       3.965  -5.645  -0.947  0.00  0.00     0.162 A 
ATOM      4  C3  UNL d   1       2.834  -5.465  -1.743  0.00  0.00    -0.034 A 
ATOM      5  C4  UNL d   1       1.573  -5.469  -1.145  0.00  0.00     0.162 A 
ATOM      6  C5  UNL d   1       1.448  -5.648   0.229  0.00  0.00     0.062 A 
ATOM      7  F   UNL d   1       0.232  -5.649   0.795  0.00  0.00    -0.097 F 
ATOM      8  F1  UNL d   1       0.464  -5.298  -1.881  0.00  0.00    -0.096 F 
ATOM      9  I   UNL d   1       3.024  -5.197  -3.798  0.00  0.00    -0.060 I 
ATOM     10  F2  UNL d   1       5.192  -5.648  -1.488  0.00  0.00    -0.096 F 
ATOM     11  F3  UNL d   1       4.927  -5.997   1.185  0.00  0.00    -0.097 F 
ATOM     12  F4  UNL d   1       2.454  -6.000   2.337  0.00  0.00    -0.092 F 
ENDROOT
TORSDOF 0
ENDMDL
