MODEL 1
REMARK minimizedAffinity 21.7669659
REMARK minimizedRMSD -1
REMARK  0 active torsions:
REMARK  status: ('A' for Active; 'I' for Inactive)
ROOT
ATOM      1  C   UNL d   1      -2.220   1.089  -1.432  0.00  0.00     0.124 A 
ATOM      2  C1  UNL d   1      -2.899   1.285  -2.627  0.00  0.00     0.062 A 
ATOM      3  C2  UNL d   1      -3.976   2.166  -2.684  0.00  0.00     0.162 A 
ATOM      4  C3  UNL d   1      -4.380   2.858  -1.542  0.00  0.00    -0.034 A 
ATOM      5  C4  UNL d   1      -3.693   2.655  -0.344  0.00  0.00     0.162 A 
ATOM      6  C5  UNL d   1      -2.617   1.774  -0.292  0.00  0.00     0.062 A 
ATOM      7  F   UNL d   1      -1.963   1.586   0.863  0.00  0.00    -0.097 F 
ATOM      8  F1  UNL d   1      -4.055   3.305   0.772  0.00  0.00    -0.096 F 
ATOM      9  I   UNL d   1      -5.989   4.176  -1.623  0.00  0.00    -0.060 I 
ATOM     10  F2  UNL d   1      -4.613   2.336  -3.851  0.00  0.00    -0.096 F 
ATOM     11  F3  UNL d   1      -2.518   0.624  -3.729  0.00  0.00    -0.097 F 
ATOM     12  F4  UNL d   1      -1.186   0.241  -1.380  0.00  0.00    -0.092 F 
ENDROOT
TORSDOF 0
ENDMDL
