MODEL 1
REMARK minimizedAffinity 16.3622589
REMARK minimizedRMSD -1
REMARK  0 active torsions:
REMARK  status: ('A' for Active; 'I' for Inactive)
ROOT
ATOM      1  C   UNL d   1       1.212  -3.708   2.131  0.00  0.00     0.124 A 
ATOM      2  C1  UNL d   1       1.927  -2.550   1.859  0.00  0.00     0.062 A 
ATOM      3  C2  UNL d   1       1.259  -1.347   1.652  0.00  0.00     0.162 A 
ATOM      4  C3  UNL d   1      -0.133  -1.295   1.717  0.00  0.00    -0.034 A 
ATOM      5  C4  UNL d   1      -0.846  -2.464   1.989  0.00  0.00     0.162 A 
ATOM      6  C5  UNL d   1      -0.174  -3.664   2.195  0.00  0.00     0.062 A 
ATOM      7  F   UNL d   1      -0.867  -4.782   2.457  0.00  0.00    -0.097 F 
ATOM      8  F1  UNL d   1      -2.186  -2.450   2.058  0.00  0.00    -0.096 F 
ATOM      9  I   UNL d   1      -1.136   0.502   1.407  0.00  0.00    -0.060 I 
ATOM     10  F2  UNL d   1       1.976  -0.243   1.392  0.00  0.00    -0.096 F 
ATOM     11  F3  UNL d   1       3.266  -2.590   1.795  0.00  0.00    -0.097 F 
ATOM     12  F4  UNL d   1       1.857  -4.865   2.328  0.00  0.00    -0.092 F 
ENDROOT
TORSDOF 0
ENDMDL
