MODEL 1
REMARK minimizedAffinity 19.6765957
REMARK minimizedRMSD -1
REMARK  0 active torsions:
REMARK  status: ('A' for Active; 'I' for Inactive)
ROOT
ATOM      1  C   UNL d   1      -5.474   3.442  -3.822  0.00  0.00     0.124 A 
ATOM      2  C1  UNL d   1      -5.707   3.447  -2.454  0.00  0.00     0.062 A 
ATOM      3  C2  UNL d   1      -5.640   2.261  -1.728  0.00  0.00     0.162 A 
ATOM      4  C3  UNL d   1      -5.336   1.060  -2.370  0.00  0.00    -0.034 A 
ATOM      5  C4  UNL d   1      -5.104   1.063  -3.746  0.00  0.00     0.162 A 
ATOM      6  C5  UNL d   1      -5.172   2.251  -4.467  0.00  0.00     0.062 A 
ATOM      7  F   UNL d   1      -4.947   2.245  -5.789  0.00  0.00    -0.097 F 
ATOM      8  F1  UNL d   1      -4.809  -0.074  -4.394  0.00  0.00    -0.096 F 
ATOM      9  I   UNL d   1      -5.234  -0.716  -1.289  0.00  0.00    -0.060 I 
ATOM     10  F2  UNL d   1      -5.870   2.294  -0.407  0.00  0.00    -0.096 F 
ATOM     11  F3  UNL d   1      -6.000   4.596  -1.828  0.00  0.00    -0.097 F 
ATOM     12  F4  UNL d   1      -5.541   4.585  -4.518  0.00  0.00    -0.092 F 
ENDROOT
TORSDOF 0
ENDMDL
