MODEL 1
REMARK minimizedAffinity 14.6853971
REMARK minimizedRMSD -1
REMARK  0 active torsions:
REMARK  status: ('A' for Active; 'I' for Inactive)
ROOT
ATOM      1  C   UNL d   1       1.885  -1.897   2.818  0.00  0.00     0.124 A 
ATOM      2  C1  UNL d   1       3.112  -1.501   2.305  0.00  0.00     0.062 A 
ATOM      3  C2  UNL d   1       4.288  -1.823   2.976  0.00  0.00     0.162 A 
ATOM      4  C3  UNL d   1       4.243  -2.546   4.168  0.00  0.00    -0.034 A 
ATOM      5  C4  UNL d   1       3.005  -2.940   4.678  0.00  0.00     0.162 A 
ATOM      6  C5  UNL d   1       1.833  -2.616   4.004  0.00  0.00     0.062 A 
ATOM      7  F   UNL d   1       0.648  -3.000   4.502  0.00  0.00    -0.097 F 
ATOM      8  F1  UNL d   1       2.926  -3.636   5.822  0.00  0.00    -0.096 F 
ATOM      9  I   UNL d   1       6.000  -3.029   5.174  0.00  0.00    -0.060 I 
ATOM     10  F2  UNL d   1       5.460  -1.427   2.456  0.00  0.00    -0.096 F 
ATOM     11  F3  UNL d   1       3.165  -0.806   1.160  0.00  0.00    -0.097 F 
ATOM     12  F4  UNL d   1       0.754  -1.586   2.171  0.00  0.00    -0.092 F 
ENDROOT
TORSDOF 0
ENDMDL
