MODEL 1
REMARK minimizedAffinity 2.27102137
REMARK minimizedRMSD -1
REMARK  0 active torsions:
REMARK  status: ('A' for Active; 'I' for Inactive)
ROOT
ATOM      1  C   UNL d   1      -0.233  -0.265   3.733  0.00  0.00    -0.002 A 
ATOM      2  C1  UNL d   1      -1.506  -0.652   3.338  0.00  0.00     0.010 A 
ATOM      3  C2  UNL d   1      -1.930  -0.461   2.022  0.00  0.00     0.041 A 
ATOM      4  C3  UNL d   1      -1.044   0.130   1.099  0.00  0.00    -0.075 A 
ATOM      5  S   UNL d   1      -1.345   0.462  -0.565  0.00  0.00     0.015 SA
ATOM      6  C4  UNL d   1       0.209   1.124  -0.792  0.00  0.00     0.022 A 
ATOM      7  C5  UNL d   1       0.953   1.101   0.364  0.00  0.00     0.026 A 
ATOM      8  C6  UNL d   1       0.243   0.528   1.473  0.00  0.00    -0.082 A 
ATOM      9  C7  UNL d   1       0.643   0.321   2.816  0.00  0.00     0.045 A 
ENDROOT
TORSDOF 0
ENDMDL
