MODEL 1
REMARK minimizedAffinity 4.9303937
REMARK minimizedRMSD -1
REMARK  0 active torsions:
REMARK  status: ('A' for Active; 'I' for Inactive)
ROOT
ATOM      1  C   UNL d   1      -0.131  -1.207   3.555  0.00  0.00    -0.002 A 
ATOM      2  C1  UNL d   1       0.836  -0.407   2.962  0.00  0.00     0.010 A 
ATOM      3  C2  UNL d   1       0.540   0.335   1.817  0.00  0.00     0.041 A 
ATOM      4  C3  UNL d   1      -0.758   0.262   1.275  0.00  0.00    -0.075 A 
ATOM      5  S   UNL d   1      -1.350   1.084  -0.120  0.00  0.00     0.015 SA
ATOM      6  C4  UNL d   1      -2.900   0.395   0.038  0.00  0.00     0.022 A 
ATOM      7  C5  UNL d   1      -2.982  -0.445   1.124  0.00  0.00     0.026 A 
ATOM      8  C6  UNL d   1      -1.749  -0.535   1.854  0.00  0.00    -0.082 A 
ATOM      9  C7  UNL d   1      -1.417  -1.277   3.014  0.00  0.00     0.045 A 
ENDROOT
TORSDOF 0
ENDMDL
