MODEL 1
REMARK minimizedAffinity 11.0344057
REMARK minimizedRMSD -1
REMARK  0 active torsions:
REMARK  status: ('A' for Active; 'I' for Inactive)
ROOT
ATOM      1  C   UNL d   1      -0.971  -1.157   4.029  0.00  0.00    -0.002 A 
ATOM      2  C1  UNL d   1       0.054  -0.230   3.912  0.00  0.00     0.010 A 
ATOM      3  C2  UNL d   1       0.278   0.434   2.704  0.00  0.00     0.041 A 
ATOM      4  C3  UNL d   1      -0.555   0.148   1.605  0.00  0.00    -0.075 A 
ATOM      5  S   UNL d   1      -0.469   0.838   0.028  0.00  0.00     0.015 SA
ATOM      6  C4  UNL d   1      -1.792  -0.081  -0.528  0.00  0.00     0.022 A 
ATOM      7  C5  UNL d   1      -2.299  -0.901   0.452  0.00  0.00     0.026 A 
ATOM      8  C6  UNL d   1      -1.595  -0.782   1.698  0.00  0.00    -0.082 A 
ATOM      9  C7  UNL d   1      -1.796  -1.438   2.936  0.00  0.00     0.045 A 
ENDROOT
TORSDOF 0
ENDMDL
