MODEL 1
REMARK minimizedAffinity -3.18314838
REMARK minimizedRMSD -1
REMARK  0 active torsions:
REMARK  status: ('A' for Active; 'I' for Inactive)
ROOT
ATOM      1  C   UNL d   1       5.519  -5.616   3.541  0.00  0.00    -0.002 A 
ATOM      2  C1  UNL d   1       5.551  -5.468   4.920  0.00  0.00     0.010 A 
ATOM      3  C2  UNL d   1       5.687  -4.204   5.496  0.00  0.00     0.041 A 
ATOM      4  C3  UNL d   1       5.791  -3.079   4.654  0.00  0.00    -0.075 A 
ATOM      5  S   UNL d   1       5.964  -1.433   5.136  0.00  0.00     0.015 SA
ATOM      6  C4  UNL d   1       6.000  -0.886   3.522  0.00  0.00     0.022 A 
ATOM      7  C5  UNL d   1       5.884  -1.921   2.625  0.00  0.00     0.026 A 
ATOM      8  C6  UNL d   1       5.761  -3.202   3.262  0.00  0.00    -0.082 A 
ATOM      9  C7  UNL d   1       5.622  -4.498   2.709  0.00  0.00     0.045 A 
ENDROOT
TORSDOF 0
ENDMDL
