MODEL 1
REMARK minimizedAffinity 3.31514549
REMARK minimizedRMSD -1
REMARK  0 active torsions:
REMARK  status: ('A' for Active; 'I' for Inactive)
ROOT
ATOM      1  C   UNL d   1      -1.139  -0.468   3.437  0.00  0.00    -0.002 A 
ATOM      2  C1  UNL d   1      -0.042   0.378   3.346  0.00  0.00     0.010 A 
ATOM      3  C2  UNL d   1       0.272   1.006   2.140  0.00  0.00     0.041 A 
ATOM      4  C3  UNL d   1      -0.544   0.770   1.016  0.00  0.00    -0.075 A 
ATOM      5  S   UNL d   1      -0.352   1.431  -0.565  0.00  0.00     0.015 SA
ATOM      6  C4  UNL d   1      -1.722   0.608  -1.157  0.00  0.00     0.022 A 
ATOM      7  C5  UNL d   1      -2.323  -0.158  -0.186  0.00  0.00     0.026 A 
ATOM      8  C6  UNL d   1      -1.654  -0.077   1.083  0.00  0.00    -0.082 A 
ATOM      9  C7  UNL d   1      -1.946  -0.700   2.320  0.00  0.00     0.045 A 
ENDROOT
TORSDOF 0
ENDMDL
