MODEL 1
REMARK minimizedAffinity 11.1448755
REMARK minimizedRMSD -1
REMARK  0 active torsions:
REMARK  status: ('A' for Active; 'I' for Inactive)
ROOT
ATOM      1  C   UNL d   1      -1.801   0.749   2.482  0.00  0.00    -0.002 A 
ATOM      2  C1  UNL d   1      -3.150   1.000   2.273  0.00  0.00     0.010 A 
ATOM      3  C2  UNL d   1      -3.747   0.696   1.048  0.00  0.00     0.041 A 
ATOM      4  C3  UNL d   1      -2.959   0.129   0.028  0.00  0.00    -0.075 A 
ATOM      5  S   UNL d   1      -3.475  -0.326  -1.553  0.00  0.00     0.015 SA
ATOM      6  C4  UNL d   1      -1.918  -0.865  -1.988  0.00  0.00     0.022 A 
ATOM      7  C5  UNL d   1      -1.014  -0.709  -0.964  0.00  0.00     0.026 A 
ATOM      8  C6  UNL d   1      -1.599  -0.134   0.215  0.00  0.00    -0.082 A 
ATOM      9  C7  UNL d   1      -1.022   0.186   1.468  0.00  0.00     0.045 A 
ENDROOT
TORSDOF 0
ENDMDL
