MODEL 1
REMARK minimizedAffinity 3.17759466
REMARK minimizedRMSD -1
REMARK  0 active torsions:
REMARK  status: ('A' for Active; 'I' for Inactive)
ROOT
ATOM      1  C   UNL d   1       3.839   4.966  -4.886  0.00  0.00    -0.002 A 
ATOM      2  C1  UNL d   1       4.861   4.031  -4.791  0.00  0.00     0.010 A 
ATOM      3  C2  UNL d   1       4.880   3.103  -3.748  0.00  0.00     0.041 A 
ATOM      4  C3  UNL d   1       3.844   3.129  -2.794  0.00  0.00    -0.075 A 
ATOM      5  S   UNL d   1       3.660   2.089  -1.432  0.00  0.00     0.015 SA
ATOM      6  C4  UNL d   1       2.220   2.860  -0.943  0.00  0.00     0.022 A 
ATOM      7  C5  UNL d   1       1.874   3.888  -1.788  0.00  0.00     0.026 A 
ATOM      8  C6  UNL d   1       2.804   4.060  -2.869  0.00  0.00    -0.082 A 
ATOM      9  C7  UNL d   1       2.813   4.989  -3.937  0.00  0.00     0.045 A 
ENDROOT
TORSDOF 0
ENDMDL
