MODEL 1
REMARK minimizedAffinity 8.49923229
REMARK minimizedRMSD -1
REMARK  0 active torsions:
REMARK  status: ('A' for Active; 'I' for Inactive)
ROOT
ATOM      1  C   UNL d   1      -0.619   2.452   5.031  0.00  0.00    -0.002 A 
ATOM      2  C1  UNL d   1      -1.573   2.879   4.119  0.00  0.00     0.010 A 
ATOM      3  C2  UNL d   1      -2.054   2.012   3.135  0.00  0.00     0.041 A 
ATOM      4  C3  UNL d   1      -1.556   0.695   3.085  0.00  0.00    -0.075 A 
ATOM      5  S   UNL d   1      -1.999  -0.542   1.969  0.00  0.00     0.015 SA
ATOM      6  C4  UNL d   1      -0.933  -1.667   2.678  0.00  0.00     0.022 A 
ATOM      7  C5  UNL d   1      -0.247  -1.129   3.741  0.00  0.00     0.026 A 
ATOM      8  C6  UNL d   1      -0.596   0.241   3.994  0.00  0.00    -0.082 A 
ATOM      9  C7  UNL d   1      -0.128   1.144   4.979  0.00  0.00     0.045 A 
ENDROOT
TORSDOF 0
ENDMDL
