MODEL 1
REMARK minimizedAffinity 23.8279133
REMARK minimizedRMSD -1
REMARK  0 active torsions:
REMARK  status: ('A' for Active; 'I' for Inactive)
ROOT
ATOM      1  C   UNL d   1       3.566   2.197  -5.999  0.00  0.00    -0.002 A 
ATOM      2  C1  UNL d   1       4.491   2.931  -5.270  0.00  0.00     0.010 A 
ATOM      3  C2  UNL d   1       4.089   4.045  -4.529  0.00  0.00     0.041 A 
ATOM      4  C3  UNL d   1       2.729   4.411  -4.533  0.00  0.00    -0.075 A 
ATOM      5  S   UNL d   1       2.007   5.737  -3.700  0.00  0.00     0.015 SA
ATOM      6  C4  UNL d   1       0.454   5.360  -4.291  0.00  0.00     0.022 A 
ATOM      7  C5  UNL d   1       0.467   4.253  -5.106  0.00  0.00     0.026 A 
ATOM      8  C6  UNL d   1       1.779   3.687  -5.259  0.00  0.00    -0.082 A 
ATOM      9  C7  UNL d   1       2.217   2.564  -6.000  0.00  0.00     0.045 A 
ENDROOT
TORSDOF 0
ENDMDL
