MODEL 1
REMARK minimizedAffinity 2.96005321
REMARK minimizedRMSD -1
REMARK  0 active torsions:
REMARK  status: ('A' for Active; 'I' for Inactive)
ROOT
ATOM      1  C   UNL d   1       5.891  -1.259   3.136  0.00  0.00    -0.002 A 
ATOM      2  C1  UNL d   1       5.886  -0.958   4.490  0.00  0.00     0.010 A 
ATOM      3  C2  UNL d   1       5.910  -1.978   5.444  0.00  0.00     0.041 A 
ATOM      4  C3  UNL d   1       5.940  -3.317   5.010  0.00  0.00    -0.075 A 
ATOM      5  S   UNL d   1       5.973  -4.730   5.997  0.00  0.00     0.015 SA
ATOM      6  C4  UNL d   1       5.995  -5.766   4.644  0.00  0.00     0.022 A 
ATOM      7  C5  UNL d   1       5.978  -5.068   3.460  0.00  0.00     0.026 A 
ATOM      8  C6  UNL d   1       5.946  -3.645   3.651  0.00  0.00    -0.082 A 
ATOM      9  C7  UNL d   1       5.921  -2.589   2.708  0.00  0.00     0.045 A 
ENDROOT
TORSDOF 0
ENDMDL
