MODEL 1
REMARK minimizedAffinity 6.62024689
REMARK minimizedRMSD -1
REMARK  0 active torsions:
REMARK  status: ('A' for Active; 'I' for Inactive)
ROOT
ATOM      1  C   UNL d   1      -0.857  -1.241   3.951  0.00  0.00    -0.002 A 
ATOM      2  C1  UNL d   1       0.293  -0.593   3.522  0.00  0.00     0.010 A 
ATOM      3  C2  UNL d   1       0.341   0.011   2.265  0.00  0.00     0.041 A 
ATOM      4  C3  UNL d   1      -0.798  -0.045   1.438  0.00  0.00    -0.075 A 
ATOM      5  S   UNL d   1      -0.970   0.625  -0.141  0.00  0.00     0.015 SA
ATOM      6  C4  UNL d   1      -2.574   0.068  -0.284  0.00  0.00     0.022 A 
ATOM      7  C5  UNL d   1      -2.985  -0.614   0.836  0.00  0.00     0.026 A 
ATOM      8  C6  UNL d   1      -1.968  -0.690   1.848  0.00  0.00    -0.082 A 
ATOM      9  C7  UNL d   1      -1.985  -1.295   3.128  0.00  0.00     0.045 A 
ENDROOT
TORSDOF 0
ENDMDL
