MODEL 1
REMARK minimizedAffinity -4.23677206
REMARK minimizedRMSD -1
REMARK  1 active torsions:
REMARK  status: ('A' for Active; 'I' for Inactive)
REMARK    1  A    between atoms: C3_4  and  O_7 
ROOT
ATOM      1  C   UNL d   1      -0.170   3.456  -1.793  0.00  0.00    -0.033 A 
ATOM      2  C1  UNL d   1      -0.191   3.736  -3.161  0.00  0.00     0.039 A 
ATOM      3  C2  UNL d   1      -0.813   2.855  -4.046  0.00  0.00    -0.080 A 
ATOM      4  C3  UNL d   1      -1.411   1.699  -3.553  0.00  0.00     0.150 A 
ATOM      5  C4  UNL d   1      -1.398   1.415  -2.191  0.00  0.00    -0.007 A 
ATOM      6  C5  UNL d   1      -0.775   2.296  -1.308  0.00  0.00     0.039 A 
ENDROOT
BRANCH   4   7
ATOM      7  O   UNL d   1      -2.027   0.806  -4.379  0.00  0.00    -0.526 OA
ATOM      8  H5  UNL d   1      -1.933   1.119  -5.294  0.00  0.00     0.418 HD
ENDBRANCH   4   7
TORSDOF 1
ENDMDL
