MODEL 1
REMARK minimizedAffinity -1.99181092
REMARK minimizedRMSD -1
REMARK  1 active torsions:
REMARK  status: ('A' for Active; 'I' for Inactive)
REMARK    1  A    between atoms: C3_4  and  O_7 
ROOT
ATOM      1  C   UNL d   1       0.295  -0.334  -2.166  0.00  0.00    -0.033 A 
ATOM      2  C1  UNL d   1      -1.072  -0.058  -2.093  0.00  0.00     0.039 A 
ATOM      3  C2  UNL d   1      -1.712  -0.014  -0.853  0.00  0.00    -0.080 A 
ATOM      4  C3  UNL d   1      -0.975  -0.247   0.305  0.00  0.00     0.150 A 
ATOM      5  C4  UNL d   1       0.388  -0.519   0.240  0.00  0.00    -0.007 A 
ATOM      6  C5  UNL d   1       1.025  -0.563  -0.999  0.00  0.00     0.039 A 
ENDROOT
BRANCH   4   7
ATOM      7  O   UNL d   1      -1.557  -0.220   1.538  0.00  0.00    -0.526 OA
ATOM      8  H5  UNL d   1      -2.507  -0.049   1.426  0.00  0.00     0.418 HD
ENDBRANCH   4   7
TORSDOF 1
ENDMDL
