MODEL 1
REMARK minimizedAffinity -3.19319963
REMARK minimizedRMSD -1
REMARK  1 active torsions:
REMARK  status: ('A' for Active; 'I' for Inactive)
REMARK    1  A    between atoms: C3_4  and  O_7 
ROOT
ATOM      1  C   UNL d   1      -0.432  -0.076  -0.089  0.00  0.00    -0.033 A 
ATOM      2  C1  UNL d   1      -0.738  -1.280  -0.728  0.00  0.00     0.039 A 
ATOM      3  C2  UNL d   1      -1.564  -1.284  -1.854  0.00  0.00    -0.080 A 
ATOM      4  C3  UNL d   1      -2.075  -0.080  -2.331  0.00  0.00     0.150 A 
ATOM      5  C4  UNL d   1      -1.771   1.123  -1.701  0.00  0.00    -0.007 A 
ATOM      6  C5  UNL d   1      -0.947   1.125  -0.577  0.00  0.00     0.039 A 
ENDROOT
BRANCH   4   7
ATOM      7  O   UNL d   1      -2.889  -0.034  -3.423  0.00  0.00    -0.526 OA
ATOM      8  H5  UNL d   1      -3.035  -0.943  -3.736  0.00  0.00     0.418 HD
ENDBRANCH   4   7
TORSDOF 1
ENDMDL
