MODEL 1
REMARK minimizedAffinity -2.45954251
REMARK minimizedRMSD -1
REMARK  1 active torsions:
REMARK  status: ('A' for Active; 'I' for Inactive)
REMARK    1  A    between atoms: C3_4  and  O_7 
ROOT
ATOM      1  C   UNL d   1       2.437   4.321   0.490  0.00  0.00    -0.033 A 
ATOM      2  C1  UNL d   1       1.094   4.587   0.765  0.00  0.00     0.039 A 
ATOM      3  C2  UNL d   1       0.133   3.589   0.593  0.00  0.00    -0.080 A 
ATOM      4  C3  UNL d   1       0.527   2.331   0.146  0.00  0.00     0.150 A 
ATOM      5  C4  UNL d   1       1.863   2.058  -0.127  0.00  0.00    -0.007 A 
ATOM      6  C5  UNL d   1       2.821   3.056   0.045  0.00  0.00     0.039 A 
ENDROOT
BRANCH   4   7
ATOM      7  O   UNL d   1      -0.376   1.327  -0.042  0.00  0.00    -0.526 OA
ATOM      8  H5  UNL d   1      -1.263   1.669   0.159  0.00  0.00     0.418 HD
ENDBRANCH   4   7
TORSDOF 1
ENDMDL
