MODEL 1
REMARK minimizedAffinity -1.80787063
REMARK minimizedRMSD -1
REMARK  1 active torsions:
REMARK  status: ('A' for Active; 'I' for Inactive)
REMARK    1  A    between atoms: C3_4  and  O_7 
ROOT
ATOM      1  C   UNL d   1      -0.988  -0.725   0.343  0.00  0.00    -0.033 A 
ATOM      2  C1  UNL d   1       0.099   0.071  -0.022  0.00  0.00     0.039 A 
ATOM      3  C2  UNL d   1       1.388  -0.271   0.392  0.00  0.00    -0.080 A 
ATOM      4  C3  UNL d   1       1.576  -1.411   1.169  0.00  0.00     0.150 A 
ATOM      5  C4  UNL d   1       0.498  -2.211   1.533  0.00  0.00    -0.007 A 
ATOM      6  C5  UNL d   1      -0.788  -1.867   1.120  0.00  0.00     0.039 A 
ENDROOT
BRANCH   4   7
ATOM      7  O   UNL d   1       2.815  -1.782   1.601  0.00  0.00    -0.526 OA
ATOM      8  H5  UNL d   1       3.458  -1.120   1.297  0.00  0.00     0.418 HD
ENDBRANCH   4   7
TORSDOF 1
ENDMDL
