MODEL 1
REMARK minimizedAffinity -3.58598042
REMARK minimizedRMSD -1
REMARK  1 active torsions:
REMARK  status: ('A' for Active; 'I' for Inactive)
REMARK    1  A    between atoms: C3_4  and  O_7 
ROOT
ATOM      1  C   UNL d   1      -2.415   2.647  -3.866  0.00  0.00    -0.033 A 
ATOM      2  C1  UNL d   1      -3.527   1.841  -3.619  0.00  0.00     0.039 A 
ATOM      3  C2  UNL d   1      -3.356   0.531  -3.168  0.00  0.00    -0.080 A 
ATOM      4  C3  UNL d   1      -2.069   0.040  -2.968  0.00  0.00     0.150 A 
ATOM      5  C4  UNL d   1      -0.956   0.839  -3.208  0.00  0.00    -0.007 A 
ATOM      6  C5  UNL d   1      -1.129   2.147  -3.659  0.00  0.00     0.039 A 
ENDROOT
BRANCH   4   7
ATOM      7  O   UNL d   1      -1.852  -1.234  -2.533  0.00  0.00    -0.526 OA
ATOM      8  H5  UNL d   1      -2.711  -1.677  -2.437  0.00  0.00     0.418 HD
ENDBRANCH   4   7
TORSDOF 1
ENDMDL
