MODEL 1
REMARK minimizedAffinity -3.62481928
REMARK minimizedRMSD -1
REMARK  1 active torsions:
REMARK  status: ('A' for Active; 'I' for Inactive)
REMARK    1  A    between atoms: C3_4  and  O_7 
ROOT
ATOM      1  C   UNL d   1      -2.688   1.187  -4.556  0.00  0.00    -0.033 A 
ATOM      2  C1  UNL d   1      -1.978   2.329  -4.178  0.00  0.00     0.039 A 
ATOM      3  C2  UNL d   1      -1.587   2.502  -2.849  0.00  0.00    -0.080 A 
ATOM      4  C3  UNL d   1      -1.911   1.527  -1.909  0.00  0.00     0.150 A 
ATOM      5  C4  UNL d   1      -2.614   0.385  -2.279  0.00  0.00    -0.007 A 
ATOM      6  C5  UNL d   1      -3.005   0.215  -3.607  0.00  0.00     0.039 A 
ENDROOT
BRANCH   4   7
ATOM      7  O   UNL d   1      -1.555   1.654  -0.599  0.00  0.00    -0.526 OA
ATOM      8  H5  UNL d   1      -1.100   2.505  -0.485  0.00  0.00     0.418 HD
ENDBRANCH   4   7
TORSDOF 1
ENDMDL
