MODEL 1
REMARK minimizedAffinity 0.325488508
REMARK minimizedRMSD -1
REMARK  1 active torsions:
REMARK  status: ('A' for Active; 'I' for Inactive)
REMARK    1  A    between atoms: C3_4  and  O_7 
ROOT
ATOM      1  C   UNL d   1      -2.844   1.287  -4.123  0.00  0.00    -0.033 A 
ATOM      2  C1  UNL d   1      -3.641   0.944  -3.029  0.00  0.00     0.039 A 
ATOM      3  C2  UNL d   1      -3.067   0.788  -1.766  0.00  0.00    -0.080 A 
ATOM      4  C3  UNL d   1      -1.697   0.978  -1.610  0.00  0.00     0.150 A 
ATOM      5  C4  UNL d   1      -0.897   1.323  -2.694  0.00  0.00    -0.007 A 
ATOM      6  C5  UNL d   1      -1.472   1.478  -3.955  0.00  0.00     0.039 A 
ENDROOT
BRANCH   4   7
ATOM      7  O   UNL d   1      -1.091   0.832  -0.397  0.00  0.00    -0.526 OA
ATOM      8  H5  UNL d   1      -1.762   0.564   0.252  0.00  0.00     0.418 HD
ENDBRANCH   4   7
TORSDOF 1
ENDMDL
