MODEL 1
REMARK minimizedAffinity -3.89246249
REMARK minimizedRMSD -1
REMARK  1 active torsions:
REMARK  status: ('A' for Active; 'I' for Inactive)
REMARK    1  A    between atoms: C3_4  and  O_7 
ROOT
ATOM      1  C   UNL d   1       0.065   2.492   0.043  0.00  0.00    -0.033 A 
ATOM      2  C1  UNL d   1       0.248   3.828   0.407  0.00  0.00     0.039 A 
ATOM      3  C2  UNL d   1       1.536   4.329   0.606  0.00  0.00    -0.080 A 
ATOM      4  C3  UNL d   1       2.630   3.485   0.438  0.00  0.00     0.150 A 
ATOM      5  C4  UNL d   1       2.455   2.155   0.073  0.00  0.00    -0.007 A 
ATOM      6  C5  UNL d   1       1.169   1.656  -0.125  0.00  0.00     0.039 A 
ENDROOT
BRANCH   4   7
ATOM      7  O   UNL d   1       3.906   3.927   0.626  0.00  0.00    -0.526 OA
ATOM      8  H5  UNL d   1       3.871   4.858   0.904  0.00  0.00     0.418 HD
ENDBRANCH   4   7
TORSDOF 1
ENDMDL
