MODEL 1
REMARK minimizedAffinity -3.02188706
REMARK minimizedRMSD -1
REMARK  1 active torsions:
REMARK  status: ('A' for Active; 'I' for Inactive)
REMARK    1  A    between atoms: C3_4  and  O_7 
ROOT
ATOM      1  C   UNL d   1       0.546  -1.362  -0.546  0.00  0.00    -0.033 A 
ATOM      2  C1  UNL d   1       0.328  -0.005  -0.794  0.00  0.00     0.039 A 
ATOM      3  C2  UNL d   1      -0.436   0.755   0.094  0.00  0.00    -0.080 A 
ATOM      4  C3  UNL d   1      -0.974   0.147   1.226  0.00  0.00     0.150 A 
ATOM      5  C4  UNL d   1      -0.757  -1.203   1.481  0.00  0.00    -0.007 A 
ATOM      6  C5  UNL d   1       0.005  -1.960   0.593  0.00  0.00     0.039 A 
ENDROOT
BRANCH   4   7
ATOM      7  O   UNL d   1      -1.730   0.847   2.119  0.00  0.00    -0.526 OA
ATOM      8  H5  UNL d   1      -1.819   1.760   1.798  0.00  0.00     0.418 HD
ENDBRANCH   4   7
TORSDOF 1
ENDMDL
