MODEL 1
REMARK minimizedAffinity -4.83791542
REMARK minimizedRMSD -1
REMARK  1 active torsions:
REMARK  status: ('A' for Active; 'I' for Inactive)
REMARK    1  A    between atoms: C3_4  and  O_7 
ROOT
ATOM      1  C   UNL d   1       2.083   2.947   0.283  0.00  0.00    -0.033 A 
ATOM      2  C1  UNL d   1       2.646   1.695   0.029  0.00  0.00     0.039 A 
ATOM      3  C2  UNL d   1       1.825   0.603  -0.259  0.00  0.00    -0.080 A 
ATOM      4  C3  UNL d   1       0.444   0.777  -0.290  0.00  0.00     0.150 A 
ATOM      5  C4  UNL d   1      -0.124   2.022  -0.041  0.00  0.00    -0.007 A 
ATOM      6  C5  UNL d   1       0.698   3.110   0.247  0.00  0.00     0.039 A 
ENDROOT
BRANCH   4   7
ATOM      7  O   UNL d   1      -0.399  -0.260  -0.562  0.00  0.00    -0.526 OA
ATOM      8  H5  UNL d   1       0.133  -1.065  -0.684  0.00  0.00     0.418 HD
ENDBRANCH   4   7
TORSDOF 1
ENDMDL
