MODEL 1
REMARK minimizedAffinity -4.63743019
REMARK minimizedRMSD -1
REMARK  1 active torsions:
REMARK  status: ('A' for Active; 'I' for Inactive)
REMARK    1  A    between atoms: C3_4  and  O_7 
ROOT
ATOM      1  C   UNL d   1       1.588  -2.551   1.123  0.00  0.00    -0.033 A 
ATOM      2  C1  UNL d   1       2.179  -1.798   0.107  0.00  0.00     0.039 A 
ATOM      3  C2  UNL d   1       1.490  -0.722  -0.458  0.00  0.00    -0.080 A 
ATOM      4  C3  UNL d   1       0.214  -0.410   0.003  0.00  0.00     0.150 A 
ATOM      5  C4  UNL d   1      -0.379  -1.154   1.017  0.00  0.00    -0.007 A 
ATOM      6  C5  UNL d   1       0.309  -2.228   1.579  0.00  0.00     0.039 A 
ENDROOT
BRANCH   4   7
ATOM      7  O   UNL d   1      -0.499   0.627  -0.521  0.00  0.00    -0.526 OA
ATOM      8  H5  UNL d   1       0.025   1.032  -1.233  0.00  0.00     0.418 HD
ENDBRANCH   4   7
TORSDOF 1
ENDMDL
