MODEL 1
REMARK minimizedAffinity -4.31548834
REMARK minimizedRMSD -1
REMARK  1 active torsions:
REMARK  status: ('A' for Active; 'I' for Inactive)
REMARK    1  A    between atoms: C3_4  and  O_7 
ROOT
ATOM      1  C   UNL d   1       2.127  -2.892   0.420  0.00  0.00    -0.033 A 
ATOM      2  C1  UNL d   1       0.964  -2.702   1.170  0.00  0.00     0.039 A 
ATOM      3  C2  UNL d   1       0.173  -1.571   0.960  0.00  0.00    -0.080 A 
ATOM      4  C3  UNL d   1       0.555  -0.639  -0.002  0.00  0.00     0.150 A 
ATOM      5  C4  UNL d   1       1.710  -0.824  -0.755  0.00  0.00    -0.007 A 
ATOM      6  C5  UNL d   1       2.499  -1.954  -0.543  0.00  0.00     0.039 A 
ENDROOT
BRANCH   4   7
ATOM      7  O   UNL d   1      -0.183   0.483  -0.239  0.00  0.00    -0.526 OA
ATOM      8  H5  UNL d   1      -0.936   0.491   0.374  0.00  0.00     0.418 HD
ENDBRANCH   4   7
TORSDOF 1
ENDMDL
