MODEL 1
REMARK minimizedAffinity -3.15667295
REMARK minimizedRMSD -1
REMARK  1 active torsions:
REMARK  status: ('A' for Active; 'I' for Inactive)
REMARK    1  A    between atoms: C3_4  and  O_7 
ROOT
ATOM      1  C   UNL d   1      -1.588   0.181   0.674  0.00  0.00    -0.033 A 
ATOM      2  C1  UNL d   1      -1.694  -0.643   1.796  0.00  0.00     0.039 A 
ATOM      3  C2  UNL d   1      -0.755  -1.653   2.014  0.00  0.00    -0.080 A 
ATOM      4  C3  UNL d   1       0.284  -1.828   1.104  0.00  0.00     0.150 A 
ATOM      5  C4  UNL d   1       0.398  -1.008  -0.014  0.00  0.00    -0.007 A 
ATOM      6  C5  UNL d   1      -0.541  -0.001  -0.231  0.00  0.00     0.039 A 
ENDROOT
BRANCH   4   7
ATOM      7  O   UNL d   1       1.221  -2.803   1.272  0.00  0.00    -0.526 OA
ATOM      8  H5  UNL d   1       0.999  -3.309   2.071  0.00  0.00     0.418 HD
ENDBRANCH   4   7
TORSDOF 1
ENDMDL
