MODEL 1
REMARK minimizedAffinity -5.26586294
REMARK minimizedRMSD -1
REMARK  2 active torsions:
REMARK  status: ('A' for Active; 'I' for Inactive)
REMARK    1  A    between atoms: C1_2  and  C2_3 
REMARK    2  A    between atoms: C2_3  and  C3_4 
ROOT
ATOM      1  C3  UNL d   1       0.037   0.140  -0.052  0.00  0.00    -0.075 A 
ATOM      2  C4  UNL d   1       0.067  -1.210  -0.432  0.00  0.00     0.002 A 
ATOM      3  C5  UNL d   1       1.258  -1.934  -0.381  0.00  0.00     0.002 A 
ATOM      4  C6  UNL d   1       2.434  -1.317   0.040  0.00  0.00    -0.004 A 
ATOM      5  C7  UNL d   1       2.419   0.027   0.405  0.00  0.00     0.002 A 
ATOM      6  C8  UNL d   1       1.228   0.753   0.359  0.00  0.00     0.002 A 
ENDROOT
BRANCH   1   7
ATOM      7  C2  UNL d   1      -1.255   0.921  -0.077  0.00  0.00     0.056 C 
BRANCH   7   8
ATOM      8  C1  UNL d   1      -2.453   0.164   0.507  0.00  0.00     0.007 C 
ATOM      9  C   UNL d   1      -3.449   1.072   1.217  0.00  0.00     0.009 C 
ENDBRANCH   7   8
ENDBRANCH   1   7
TORSDOF 2
ENDMDL
