MODEL 1
REMARK minimizedAffinity -4.42251968
REMARK minimizedRMSD -1
REMARK  2 active torsions:
REMARK  status: ('A' for Active; 'I' for Inactive)
REMARK    1  A    between atoms: C1_2  and  C2_3 
REMARK    2  A    between atoms: C2_3  and  C3_4 
ROOT
ATOM      1  C3  UNL d   1       0.169  -0.190  -0.804  0.00  0.00    -0.075 A 
ATOM      2  C4  UNL d   1       1.056   0.475   0.055  0.00  0.00     0.002 A 
ATOM      3  C5  UNL d   1       2.166  -0.189   0.578  0.00  0.00     0.002 A 
ATOM      4  C6  UNL d   1       2.398  -1.525   0.259  0.00  0.00    -0.004 A 
ATOM      5  C7  UNL d   1       1.514  -2.200  -0.581  0.00  0.00     0.002 A 
ATOM      6  C8  UNL d   1       0.405  -1.537  -1.109  0.00  0.00     0.002 A 
ENDROOT
BRANCH   1   7
ATOM      7  C2  UNL d   1      -1.018   0.530  -1.397  0.00  0.00     0.056 C 
BRANCH   7   8
ATOM      8  C1  UNL d   1      -2.101   0.894  -0.376  0.00  0.00     0.007 C 
ATOM      9  C   UNL d   1      -3.502   0.495  -0.819  0.00  0.00     0.009 C 
ENDBRANCH   7   8
ENDBRANCH   1   7
TORSDOF 2
ENDMDL
