MODEL 1
REMARK minimizedAffinity -5.14360523
REMARK minimizedRMSD -1
REMARK  1 active torsions:
REMARK  status: ('A' for Active; 'I' for Inactive)
REMARK    1  A    between atoms: C1_2  and  C2_3 
ROOT
ATOM      1  C2  UNL d   1       0.147   0.007  -0.409  0.00  0.00    -0.077 A 
ATOM      2  C3  UNL d   1       0.595  -1.318  -0.493  0.00  0.00     0.002 A 
ATOM      3  C4  UNL d   1       1.922  -1.595  -0.826  0.00  0.00     0.002 A 
ATOM      4  C5  UNL d   1       2.812  -0.552  -1.073  0.00  0.00    -0.004 A 
ATOM      5  C6  UNL d   1       2.376   0.769  -0.994  0.00  0.00     0.002 A 
ATOM      6  C7  UNL d   1       1.049   1.048  -0.662  0.00  0.00     0.002 A 
ENDROOT
BRANCH   1   7
ATOM      7  C1  UNL d   1      -1.272   0.309  -0.001  0.00  0.00     0.055 C 
ATOM      8  C   UNL d   1      -1.362   0.653   1.478  0.00  0.00     0.019 C 
ENDBRANCH   1   7
TORSDOF 1
ENDMDL
