MODEL 1
REMARK minimizedAffinity -1.39965904
REMARK minimizedRMSD -1
REMARK  1 active torsions:
REMARK  status: ('A' for Active; 'I' for Inactive)
REMARK    1  A    between atoms: C1_2  and  C2_3 
ROOT
ATOM      1  C2  UNL d   1       1.005   0.261  -0.553  0.00  0.00    -0.077 A 
ATOM      2  C3  UNL d   1       2.209   0.008  -1.225  0.00  0.00     0.002 A 
ATOM      3  C4  UNL d   1       2.601  -1.303  -1.502  0.00  0.00     0.002 A 
ATOM      4  C5  UNL d   1       1.794  -2.370  -1.114  0.00  0.00    -0.004 A 
ATOM      5  C6  UNL d   1       0.596  -2.129  -0.443  0.00  0.00     0.002 A 
ATOM      6  C7  UNL d   1       0.203  -0.819  -0.164  0.00  0.00     0.002 A 
ENDROOT
BRANCH   1   7
ATOM      7  C1  UNL d   1       0.556   1.676  -0.297  0.00  0.00     0.055 C 
ATOM      8  C   UNL d   1       0.374   2.443  -1.598  0.00  0.00     0.019 C 
ENDBRANCH   1   7
TORSDOF 1
ENDMDL
