MODEL 1
REMARK minimizedAffinity -4.257864
REMARK minimizedRMSD -1
REMARK  1 active torsions:
REMARK  status: ('A' for Active; 'I' for Inactive)
REMARK    1  A    between atoms: C1_2  and  C2_3 
ROOT
ATOM      1  C2  UNL d   1      -0.047  -0.187  -0.128  0.00  0.00    -0.077 A 
ATOM      2  C3  UNL d   1       0.366  -1.517  -0.288  0.00  0.00     0.002 A 
ATOM      3  C4  UNL d   1       1.636  -1.807  -0.789  0.00  0.00     0.002 A 
ATOM      4  C5  UNL d   1       2.505  -0.773  -1.131  0.00  0.00    -0.004 A 
ATOM      5  C6  UNL d   1       2.103   0.553  -0.978  0.00  0.00     0.002 A 
ATOM      6  C7  UNL d   1       0.833   0.845  -0.478  0.00  0.00     0.002 A 
ENDROOT
BRANCH   1   7
ATOM      7  C1  UNL d   1      -1.398   0.127   0.458  0.00  0.00     0.055 C 
ATOM      8  C   UNL d   1      -1.276   0.644   1.885  0.00  0.00     0.019 C 
ENDBRANCH   1   7
TORSDOF 1
ENDMDL
