MODEL 1
REMARK minimizedAffinity -5.82631207
REMARK minimizedRMSD -1
REMARK  1 active torsions:
REMARK  status: ('A' for Active; 'I' for Inactive)
REMARK    1  A    between atoms: C1_2  and  C2_3 
ROOT
ATOM      1  C2  UNL d   1       0.212  -0.037   0.351  0.00  0.00    -0.077 A 
ATOM      2  C3  UNL d   1       0.886   0.983  -0.336  0.00  0.00     0.002 A 
ATOM      3  C4  UNL d   1       2.015   0.690  -1.104  0.00  0.00     0.002 A 
ATOM      4  C5  UNL d   1       2.477  -0.621  -1.195  0.00  0.00    -0.004 A 
ATOM      5  C6  UNL d   1       1.815  -1.641  -0.514  0.00  0.00     0.002 A 
ATOM      6  C7  UNL d   1       0.687  -1.351   0.255  0.00  0.00     0.002 A 
ENDROOT
BRANCH   1   7
ATOM      7  C1  UNL d   1      -1.035   0.269   1.139  0.00  0.00     0.055 C 
ATOM      8  C   UNL d   1      -0.709   1.017   2.423  0.00  0.00     0.019 C 
ENDBRANCH   1   7
TORSDOF 1
ENDMDL
