MODEL 1
REMARK minimizedAffinity -4.07604361
REMARK minimizedRMSD -1
REMARK  1 active torsions:
REMARK  status: ('A' for Active; 'I' for Inactive)
REMARK    1  A    between atoms: C1_2  and  C2_3 
ROOT
ATOM      1  C2  UNL d   1      -0.360   0.086  -0.028  0.00  0.00    -0.077 A 
ATOM      2  C3  UNL d   1      -0.472  -1.294  -0.244  0.00  0.00     0.002 A 
ATOM      3  C4  UNL d   1       0.640  -2.041  -0.639  0.00  0.00     0.002 A 
ATOM      4  C5  UNL d   1       1.873  -1.416  -0.816  0.00  0.00    -0.004 A 
ATOM      5  C6  UNL d   1       1.995  -0.043  -0.605  0.00  0.00     0.002 A 
ATOM      6  C7  UNL d   1       0.884   0.704  -0.212  0.00  0.00     0.002 A 
ENDROOT
BRANCH   1   7
ATOM      7  C1  UNL d   1      -1.546   0.884   0.445  0.00  0.00     0.055 C 
ATOM      8  C   UNL d   1      -2.012   0.423   1.818  0.00  0.00     0.019 C 
ENDBRANCH   1   7
TORSDOF 1
ENDMDL
