MODEL 1
REMARK minimizedAffinity -5.38135433
REMARK minimizedRMSD -1
REMARK  1 active torsions:
REMARK  status: ('A' for Active; 'I' for Inactive)
REMARK    1  A    between atoms: C1_2  and  C2_3 
ROOT
ATOM      1  C2  UNL d   1       0.340  -0.162  -0.310  0.00  0.00    -0.077 A 
ATOM      2  C3  UNL d   1       0.883  -1.429  -0.570  0.00  0.00     0.002 A 
ATOM      3  C4  UNL d   1       2.215  -1.557  -0.969  0.00  0.00     0.002 A 
ATOM      4  C5  UNL d   1       3.016  -0.425  -1.106  0.00  0.00    -0.004 A 
ATOM      5  C6  UNL d   1       2.484   0.838  -0.852  0.00  0.00     0.002 A 
ATOM      6  C7  UNL d   1       1.153   0.969  -0.455  0.00  0.00     0.002 A 
ENDROOT
BRANCH   1   7
ATOM      7  C1  UNL d   1      -1.082  -0.025   0.167  0.00  0.00     0.055 C 
ATOM      8  C   UNL d   1      -1.138   0.483   1.601  0.00  0.00     0.019 C 
ENDBRANCH   1   7
TORSDOF 1
ENDMDL
