MODEL 1
REMARK minimizedAffinity -4.8685379
REMARK minimizedRMSD -1
REMARK  1 active torsions:
REMARK  status: ('A' for Active; 'I' for Inactive)
REMARK    1  A    between atoms: C1_2  and  C2_3 
ROOT
ATOM      1  C2  UNL d   1       0.491   0.097  -0.075  0.00  0.00    -0.077 A 
ATOM      2  C3  UNL d   1       1.717   0.747   0.132  0.00  0.00     0.002 A 
ATOM      3  C4  UNL d   1       2.907   0.165  -0.307  0.00  0.00     0.002 A 
ATOM      4  C5  UNL d   1       2.885  -1.066  -0.959  0.00  0.00    -0.004 A 
ATOM      5  C6  UNL d   1       1.671  -1.721  -1.169  0.00  0.00     0.002 A 
ATOM      6  C7  UNL d   1       0.480  -1.141  -0.729  0.00  0.00     0.002 A 
ENDROOT
BRANCH   1   7
ATOM      7  C1  UNL d   1      -0.799   0.746   0.354  0.00  0.00     0.055 C 
ATOM      8  C   UNL d   1      -0.770   1.112   1.831  0.00  0.00     0.019 C 
ENDBRANCH   1   7
TORSDOF 1
ENDMDL
