MODEL 1
REMARK minimizedAffinity -4.97352457
REMARK minimizedRMSD -1
REMARK  1 active torsions:
REMARK  status: ('A' for Active; 'I' for Inactive)
REMARK    1  A    between atoms: C1_2  and  C2_3 
ROOT
ATOM      1  C2  UNL d   1       0.403  -0.777  -0.657  0.00  0.00    -0.077 A 
ATOM      2  C3  UNL d   1       1.688  -1.205  -1.020  0.00  0.00     0.002 A 
ATOM      3  C4  UNL d   1       2.688  -0.274  -1.307  0.00  0.00     0.002 A 
ATOM      4  C5  UNL d   1       2.415   1.090  -1.230  0.00  0.00    -0.004 A 
ATOM      5  C6  UNL d   1       1.141   1.526  -0.872  0.00  0.00     0.002 A 
ATOM      6  C7  UNL d   1       0.139   0.597  -0.585  0.00  0.00     0.002 A 
ENDROOT
BRANCH   1   7
ATOM      7  C1  UNL d   1      -0.663  -1.779  -0.299  0.00  0.00     0.055 C 
ATOM      8  C   UNL d   1      -0.068  -3.159  -0.063  0.00  0.00     0.019 C 
ENDBRANCH   1   7
TORSDOF 1
ENDMDL
