MODEL 1
REMARK minimizedAffinity -5.61405373
REMARK minimizedRMSD -1
REMARK  1 active torsions:
REMARK  status: ('A' for Active; 'I' for Inactive)
REMARK    1  A    between atoms: C1_2  and  C2_3 
ROOT
ATOM      1  C2  UNL d   1       0.771  -0.131  -0.629  0.00  0.00    -0.077 A 
ATOM      2  C3  UNL d   1       0.406   1.115  -1.157  0.00  0.00     0.002 A 
ATOM      3  C4  UNL d   1       1.183   1.717  -2.148  0.00  0.00     0.002 A 
ATOM      4  C5  UNL d   1       2.327   1.078  -2.623  0.00  0.00    -0.004 A 
ATOM      5  C6  UNL d   1       2.699  -0.161  -2.102  0.00  0.00     0.002 A 
ATOM      6  C7  UNL d   1       1.925  -0.763  -1.110  0.00  0.00     0.002 A 
ENDROOT
BRANCH   1   7
ATOM      7  C1  UNL d   1      -0.093  -0.805   0.406  0.00  0.00     0.055 C 
ATOM      8  C   UNL d   1      -1.268   0.076   0.805  0.00  0.00     0.019 C 
ENDBRANCH   1   7
TORSDOF 1
ENDMDL
