MODEL 1
REMARK minimizedAffinity -4.67790318
REMARK minimizedRMSD -1
REMARK  1 active torsions:
REMARK  status: ('A' for Active; 'I' for Inactive)
REMARK    1  A    between atoms: C1_2  and  C2_3 
ROOT
ATOM      1  C2  UNL d   1       0.249  -0.071  -0.409  0.00  0.00    -0.077 A 
ATOM      2  C3  UNL d   1       0.465  -1.439  -0.627  0.00  0.00     0.002 A 
ATOM      3  C4  UNL d   1       1.752  -1.920  -0.872  0.00  0.00     0.002 A 
ATOM      4  C5  UNL d   1       2.833  -1.041  -0.897  0.00  0.00    -0.004 A 
ATOM      5  C6  UNL d   1       2.628   0.321  -0.683  0.00  0.00     0.002 A 
ATOM      6  C7  UNL d   1       1.342   0.804  -0.439  0.00  0.00     0.002 A 
ENDROOT
BRANCH   1   7
ATOM      7  C1  UNL d   1      -1.132   0.444  -0.096  0.00  0.00     0.055 C 
ATOM      8  C   UNL d   1      -1.259   0.832   1.370  0.00  0.00     0.019 C 
ENDBRANCH   1   7
TORSDOF 1
ENDMDL
