MODEL 1
REMARK minimizedAffinity -2.93226194
REMARK minimizedRMSD -1
REMARK  1 active torsions:
REMARK  status: ('A' for Active; 'I' for Inactive)
REMARK    1  A    between atoms: C1_2  and  C2_3 
ROOT
ATOM      1  C2  UNL d   1      -0.904   0.494   1.717  0.00  0.00    -0.077 A 
ATOM      2  C3  UNL d   1      -0.063   1.222   2.571  0.00  0.00     0.002 A 
ATOM      3  C4  UNL d   1      -0.540   1.701   3.793  0.00  0.00     0.002 A 
ATOM      4  C5  UNL d   1      -1.857   1.452   4.174  0.00  0.00    -0.004 A 
ATOM      5  C6  UNL d   1      -2.701   0.731   3.332  0.00  0.00     0.002 A 
ATOM      6  C7  UNL d   1      -2.227   0.253   2.109  0.00  0.00     0.002 A 
ENDROOT
BRANCH   1   7
ATOM      7  C1  UNL d   1      -0.378  -0.065   0.421  0.00  0.00     0.055 C 
ATOM      8  C   UNL d   1       0.809   0.740  -0.088  0.00  0.00     0.019 C 
ENDBRANCH   1   7
TORSDOF 1
ENDMDL
