MODEL 1
REMARK minimizedAffinity -3.52359009
REMARK minimizedRMSD -1
REMARK  1 active torsions:
REMARK  status: ('A' for Active; 'I' for Inactive)
REMARK    1  A    between atoms: C1_2  and  C2_3 
ROOT
ATOM      1  C2  UNL d   1      -0.126   0.035  -0.197  0.00  0.00    -0.077 A 
ATOM      2  C3  UNL d   1      -0.064  -1.363  -0.117  0.00  0.00     0.002 A 
ATOM      3  C4  UNL d   1       1.110  -2.038  -0.458  0.00  0.00     0.002 A 
ATOM      4  C5  UNL d   1       2.230  -1.324  -0.877  0.00  0.00    -0.004 A 
ATOM      5  C6  UNL d   1       2.178   0.067  -0.961  0.00  0.00     0.002 A 
ATOM      6  C7  UNL d   1       1.005   0.743  -0.622  0.00  0.00     0.002 A 
ENDROOT
BRANCH   1   7
ATOM      7  C1  UNL d   1      -1.375   0.769   0.218  0.00  0.00     0.055 C 
ATOM      8  C   UNL d   1      -1.622   0.640   1.714  0.00  0.00     0.019 C 
ENDBRANCH   1   7
TORSDOF 1
ENDMDL
