MODEL 1
REMARK minimizedAffinity -5.69646072
REMARK minimizedRMSD -1
REMARK  1 active torsions:
REMARK  status: ('A' for Active; 'I' for Inactive)
REMARK    1  A    between atoms: C1_2  and  C2_3 
ROOT
ATOM      1  C2  UNL d   1       0.273   0.009  -0.314  0.00  0.00    -0.077 A 
ATOM      2  C3  UNL d   1       1.252   0.979  -0.571  0.00  0.00     0.002 A 
ATOM      3  C4  UNL d   1       2.523   0.601  -1.008  0.00  0.00     0.002 A 
ATOM      4  C5  UNL d   1       2.825  -0.746  -1.197  0.00  0.00    -0.004 A 
ATOM      5  C6  UNL d   1       1.859  -1.718  -0.942  0.00  0.00     0.002 A 
ATOM      6  C7  UNL d   1       0.588  -1.342  -0.504  0.00  0.00     0.002 A 
ENDROOT
BRANCH   1   7
ATOM      7  C1  UNL d   1      -1.113   0.418   0.110  0.00  0.00     0.055 C 
ATOM      8  C   UNL d   1      -1.230   0.489   1.626  0.00  0.00     0.019 C 
ENDBRANCH   1   7
TORSDOF 1
ENDMDL
