MODEL 1
REMARK minimizedAffinity -2.97341609
REMARK minimizedRMSD -1
REMARK  1 active torsions:
REMARK  status: ('A' for Active; 'I' for Inactive)
REMARK    1  A    between atoms: C1_2  and  C2_3 
ROOT
ATOM      1  C2  UNL d   1       1.223  -0.482  -0.702  0.00  0.00    -0.077 A 
ATOM      2  C3  UNL d   1       0.357  -1.194   0.140  0.00  0.00     0.002 A 
ATOM      3  C4  UNL d   1      -0.806  -0.594   0.628  0.00  0.00     0.002 A 
ATOM      4  C5  UNL d   1      -1.115   0.718   0.277  0.00  0.00    -0.004 A 
ATOM      5  C6  UNL d   1      -0.258   1.436  -0.558  0.00  0.00     0.002 A 
ATOM      6  C7  UNL d   1       0.904   0.838  -1.046  0.00  0.00     0.002 A 
ENDROOT
BRANCH   1   7
ATOM      7  C1  UNL d   1       2.451  -1.144  -1.269  0.00  0.00     0.055 C 
ATOM      8  C   UNL d   1       2.088  -2.160  -2.342  0.00  0.00     0.019 C 
ENDBRANCH   1   7
TORSDOF 1
ENDMDL
