MODEL 1
REMARK minimizedAffinity 9.03360939
REMARK minimizedRMSD -1
REMARK  2 active torsions:
REMARK  status: ('A' for Active; 'I' for Inactive)
REMARK    1  A    between atoms: C2'_3  and  C1'_4 
REMARK    2  A    between atoms: C1'_4  and  C1_5 
ROOT
ATOM      1  C1  I4B d   1       3.802   0.546   0.251  0.00  0.00    -0.075 A 
ATOM      2  C2  I4B d   1       4.839   1.273  -0.279  0.00  0.00     0.003 A 
ATOM      3  C3  I4B d   1       5.022   1.335  -1.682  0.00  0.00     0.002 A 
ATOM      4  C4  I4B d   1       4.181   0.619  -2.509  0.00  0.00    -0.004 A 
ATOM      5  C5  I4B d   1       3.116  -0.098  -1.971  0.00  0.00     0.002 A 
ATOM      6  C6  I4B d   1       2.918  -0.126  -0.583  0.00  0.00     0.003 A 
ENDROOT
BRANCH   1   7
ATOM      7  C1' I4B d   1       3.658   0.475   1.739  0.00  0.00     0.060 C 
BRANCH   7   8
ATOM      8  C2' I4B d   1       3.943  -0.949   2.168  0.00  0.00    -0.013 C 
ATOM      9  C4' I4B d   1       5.151  -1.017   3.065  0.00  0.00     0.013 C 
ATOM     10  C3' I4B d   1       2.723  -1.477   2.862  0.00  0.00     0.013 C 
ENDBRANCH   7   8
ENDBRANCH   1   7
TORSDOF 2
ENDMDL
