MODEL 1
REMARK minimizedAffinity 7.27547169
REMARK minimizedRMSD -1
REMARK  2 active torsions:
REMARK  status: ('A' for Active; 'I' for Inactive)
REMARK    1  A    between atoms: C2'_3  and  C1'_4 
REMARK    2  A    between atoms: C1'_4  and  C1_5 
ROOT
ATOM      1  C1  I4B d   1       4.394   1.406   0.046  0.00  0.00    -0.075 A 
ATOM      2  C2  I4B d   1       4.709   1.721  -1.252  0.00  0.00     0.003 A 
ATOM      3  C3  I4B d   1       4.000   1.123  -2.322  0.00  0.00     0.002 A 
ATOM      4  C4  I4B d   1       3.026   0.184  -2.051  0.00  0.00    -0.004 A 
ATOM      5  C5  I4B d   1       2.693  -0.117  -0.734  0.00  0.00     0.002 A 
ATOM      6  C6  I4B d   1       3.372   0.507   0.322  0.00  0.00     0.003 A 
ENDROOT
BRANCH   1   7
ATOM      7  C1' I4B d   1       5.185   2.032   1.151  0.00  0.00     0.060 C 
BRANCH   7   8
ATOM      8  C2' I4B d   1       4.383   3.195   1.699  0.00  0.00    -0.013 C 
ATOM      9  C4' I4B d   1       3.140   2.717   2.401  0.00  0.00     0.013 C 
ATOM     10  C3' I4B d   1       5.267   3.969   2.630  0.00  0.00     0.013 C 
ENDBRANCH   7   8
ENDBRANCH   1   7
TORSDOF 2
ENDMDL
