MODEL 1
REMARK minimizedAffinity 1.82003367
REMARK minimizedRMSD -1
REMARK  2 active torsions:
REMARK  status: ('A' for Active; 'I' for Inactive)
REMARK    1  A    between atoms: C2'_3  and  C1'_4 
REMARK    2  A    between atoms: C1'_4  and  C1_5 
ROOT
ATOM      1  C1  I4B d   1       4.330   1.761  -1.178  0.00  0.00    -0.075 A 
ATOM      2  C2  I4B d   1       3.458   1.109  -2.013  0.00  0.00     0.003 A 
ATOM      3  C3  I4B d   1       2.351   0.405  -1.479  0.00  0.00     0.002 A 
ATOM      4  C4  I4B d   1       2.185   0.337  -0.111  0.00  0.00    -0.004 A 
ATOM      5  C5  I4B d   1       3.057   1.018   0.733  0.00  0.00     0.002 A 
ATOM      6  C6  I4B d   1       4.130   1.745   0.196  0.00  0.00     0.003 A 
ENDROOT
BRANCH   1   7
ATOM      7  C1' I4B d   1       5.507   2.467  -1.774  0.00  0.00     0.060 C 
BRANCH   7   8
ATOM      8  C2' I4B d   1       5.143   2.868  -3.189  0.00  0.00    -0.013 C 
ATOM      9  C4' I4B d   1       5.339   4.346  -3.404  0.00  0.00     0.013 C 
ATOM     10  C3' I4B d   1       5.992   2.066  -4.130  0.00  0.00     0.013 C 
ENDBRANCH   7   8
ENDBRANCH   1   7
TORSDOF 2
ENDMDL
