MODEL 1
REMARK minimizedAffinity 7.25803804
REMARK minimizedRMSD -1
REMARK  2 active torsions:
REMARK  status: ('A' for Active; 'I' for Inactive)
REMARK    1  A    between atoms: C2'_3  and  C1'_4 
REMARK    2  A    between atoms: C1'_4  and  C1_5 
ROOT
ATOM      1  C1  I4B d   1       1.061   2.540   0.393  0.00  0.00    -0.075 A 
ATOM      2  C2  I4B d   1       0.190   2.002  -0.521  0.00  0.00     0.003 A 
ATOM      3  C3  I4B d   1      -1.053   2.630  -0.776  0.00  0.00     0.002 A 
ATOM      4  C4  I4B d   1      -1.404   3.758  -0.063  0.00  0.00    -0.004 A 
ATOM      5  C5  I4B d   1      -0.510   4.315   0.847  0.00  0.00     0.002 A 
ATOM      6  C6  I4B d   1       0.735   3.710   1.068  0.00  0.00     0.003 A 
ENDROOT
BRANCH   1   7
ATOM      7  C1' I4B d   1       2.351   1.833   0.663  0.00  0.00     0.060 C 
BRANCH   7   8
ATOM      8  C2' I4B d   1       2.130   0.353   0.426  0.00  0.00    -0.013 C 
ATOM      9  C4' I4B d   1       2.596  -0.055  -0.947  0.00  0.00     0.013 C 
ATOM     10  C3' I4B d   1       2.866  -0.401   1.494  0.00  0.00     0.013 C 
ENDBRANCH   7   8
ENDBRANCH   1   7
TORSDOF 2
ENDMDL
