MODEL 1
REMARK minimizedAffinity 4.37804317
REMARK minimizedRMSD -1
REMARK  2 active torsions:
REMARK  status: ('A' for Active; 'I' for Inactive)
REMARK    1  A    between atoms: C2'_3  and  C1'_4 
REMARK    2  A    between atoms: C1'_4  and  C1_5 
ROOT
ATOM      1  C1  I4B d   1       4.692   1.732  -1.307  0.00  0.00    -0.075 A 
ATOM      2  C2  I4B d   1       4.481   1.478   0.025  0.00  0.00     0.003 A 
ATOM      3  C3  I4B d   1       3.407   0.649   0.432  0.00  0.00     0.002 A 
ATOM      4  C4  I4B d   1       2.545   0.139  -0.518  0.00  0.00    -0.004 A 
ATOM      5  C5  I4B d   1       2.774   0.379  -1.870  0.00  0.00     0.002 A 
ATOM      6  C6  I4B d   1       3.861   1.170  -2.268  0.00  0.00     0.003 A 
ENDROOT
BRANCH   1   7
ATOM      7  C1' I4B d   1       5.815   2.638  -1.699  0.00  0.00     0.060 C 
BRANCH   7   8
ATOM      8  C2' I4B d   1       5.333   3.514  -2.838  0.00  0.00    -0.013 C 
ATOM      9  C4' I4B d   1       5.630   4.966  -2.572  0.00  0.00     0.013 C 
ATOM     10  C3' I4B d   1       6.000   3.046  -4.097  0.00  0.00     0.013 C 
ENDBRANCH   7   8
ENDBRANCH   1   7
TORSDOF 2
ENDMDL
