MODEL 1
REMARK minimizedAffinity 4.86549807
REMARK minimizedRMSD -1
REMARK  2 active torsions:
REMARK  status: ('A' for Active; 'I' for Inactive)
REMARK    1  A    between atoms: C2'_3  and  C1'_4 
REMARK    2  A    between atoms: C1'_4  and  C1_5 
ROOT
ATOM      1  C1  I4B d   1       1.647  -1.488  -2.721  0.00  0.00    -0.075 A 
ATOM      2  C2  I4B d   1       2.447  -1.178  -3.792  0.00  0.00     0.003 A 
ATOM      3  C3  I4B d   1       3.363  -0.101  -3.710  0.00  0.00     0.002 A 
ATOM      4  C4  I4B d   1       3.409   0.665  -2.564  0.00  0.00    -0.004 A 
ATOM      5  C5  I4B d   1       2.613   0.336  -1.470  0.00  0.00     0.002 A 
ATOM      6  C6  I4B d   1       1.735  -0.755  -1.545  0.00  0.00     0.003 A 
ENDROOT
BRANCH   1   7
ATOM      7  C1' I4B d   1       0.668  -2.611  -2.854  0.00  0.00     0.060 C 
BRANCH   7   8
ATOM      8  C2' I4B d   1      -0.466  -2.359  -1.881  0.00  0.00    -0.013 C 
ATOM      9  C4' I4B d   1      -1.511  -1.457  -2.484  0.00  0.00     0.013 C 
ATOM     10  C3' I4B d   1      -1.052  -3.686  -1.499  0.00  0.00     0.013 C 
ENDBRANCH   7   8
ENDBRANCH   1   7
TORSDOF 2
ENDMDL
