MODEL 1
REMARK minimizedAffinity 16.7348671
REMARK minimizedRMSD -1
REMARK  2 active torsions:
REMARK  status: ('A' for Active; 'I' for Inactive)
REMARK    1  A    between atoms: C2'_3  and  C1'_4 
REMARK    2  A    between atoms: C1'_4  and  C1_5 
ROOT
ATOM      1  C1  I4B d   1      -5.591  -0.041  -2.917  0.00  0.00    -0.075 A 
ATOM      2  C2  I4B d   1      -5.491  -1.041  -3.853  0.00  0.00     0.003 A 
ATOM      3  C3  I4B d   1      -5.632  -0.744  -5.230  0.00  0.00     0.002 A 
ATOM      4  C4  I4B d   1      -5.921   0.547  -5.621  0.00  0.00    -0.004 A 
ATOM      5  C5  I4B d   1      -6.000   1.563  -4.673  0.00  0.00     0.002 A 
ATOM      6  C6  I4B d   1      -5.822   1.270  -3.313  0.00  0.00     0.003 A 
ENDROOT
BRANCH   1   7
ATOM      7  C1' I4B d   1      -5.470  -0.395  -1.469  0.00  0.00     0.060 C 
BRANCH   7   8
ATOM      8  C2' I4B d   1      -4.617   0.664  -0.799  0.00  0.00    -0.013 C 
ATOM      9  C4' I4B d   1      -5.333   1.279   0.374  0.00  0.00     0.013 C 
ATOM     10  C3' I4B d   1      -3.331   0.021  -0.372  0.00  0.00     0.013 C 
ENDBRANCH   7   8
ENDBRANCH   1   7
TORSDOF 2
ENDMDL
