MODEL 1
REMARK minimizedAffinity 12.0903769
REMARK minimizedRMSD -1
REMARK  2 active torsions:
REMARK  status: ('A' for Active; 'I' for Inactive)
REMARK    1  A    between atoms: C2'_3  and  C1'_4 
REMARK    2  A    between atoms: C1'_4  and  C1_5 
ROOT
ATOM      1  C1  I4B d   1       3.876   1.275  -2.247  0.00  0.00    -0.075 A 
ATOM      2  C2  I4B d   1       3.880   0.329  -3.242  0.00  0.00     0.003 A 
ATOM      3  C3  I4B d   1       4.964   0.253  -4.149  0.00  0.00     0.002 A 
ATOM      4  C4  I4B d   1       5.993   1.168  -4.057  0.00  0.00    -0.004 A 
ATOM      5  C5  I4B d   1       5.998   2.112  -3.034  0.00  0.00     0.002 A 
ATOM      6  C6  I4B d   1       4.939   2.158  -2.115  0.00  0.00     0.003 A 
ENDROOT
BRANCH   1   7
ATOM      7  C1' I4B d   1       2.699   1.348  -1.327  0.00  0.00     0.060 C 
BRANCH   7   8
ATOM      8  C2' I4B d   1       2.531  -0.009  -0.675  0.00  0.00    -0.013 C 
ATOM      9  C4' I4B d   1       3.008   0.011   0.754  0.00  0.00     0.013 C 
ATOM     10  C3' I4B d   1       1.082  -0.386  -0.756  0.00  0.00     0.013 C 
ENDBRANCH   7   8
ENDBRANCH   1   7
TORSDOF 2
ENDMDL
