MODEL 1
REMARK minimizedAffinity -5.06250954
REMARK minimizedRMSD -1
REMARK  1 active torsions:
REMARK  status: ('A' for Active; 'I' for Inactive)
REMARK    1  A    between atoms: C1_2  and  C2_3 
ROOT
ATOM      1  C2  UNL d   1      -0.061   0.004   0.420  0.00  0.00    -0.077 A 
ATOM      2  C3  UNL d   1       0.570   0.742   1.431  0.00  0.00     0.002 A 
ATOM      3  C4  UNL d   1       0.347   0.435   2.775  0.00  0.00     0.002 A 
ATOM      4  C5  UNL d   1      -0.504  -0.613   3.119  0.00  0.00    -0.004 A 
ATOM      5  C6  UNL d   1      -1.138  -1.352   2.121  0.00  0.00     0.002 A 
ATOM      6  C7  UNL d   1      -0.917  -1.045   0.778  0.00  0.00     0.002 A 
ENDROOT
BRANCH   1   7
ATOM      7  C1  UNL d   1       0.217   0.302  -1.030  0.00  0.00     0.055 C 
ATOM      8  C   UNL d   1       0.243  -0.972  -1.862  0.00  0.00     0.019 C 
ENDBRANCH   1   7
TORSDOF 1
ENDMDL
