MODEL 1
REMARK minimizedAffinity -4.91585112
REMARK minimizedRMSD -1
REMARK  1 active torsions:
REMARK  status: ('A' for Active; 'I' for Inactive)
REMARK    1  A    between atoms: C1_2  and  C2_3 
ROOT
ATOM      1  C2  UNL d   1       0.842   0.867   1.054  0.00  0.00    -0.077 A 
ATOM      2  C3  UNL d   1       0.295  -0.202   0.331  0.00  0.00     0.002 A 
ATOM      3  C4  UNL d   1      -0.566  -1.109   0.953  0.00  0.00     0.002 A 
ATOM      4  C5  UNL d   1      -0.890  -0.952   2.299  0.00  0.00    -0.004 A 
ATOM      5  C6  UNL d   1      -0.349   0.107   3.027  0.00  0.00     0.002 A 
ATOM      6  C7  UNL d   1       0.512   1.013   2.407  0.00  0.00     0.002 A 
ENDROOT
BRANCH   1   7
ATOM      7  C1  UNL d   1       1.732   1.873   0.372  0.00  0.00     0.055 C 
ATOM      8  C   UNL d   1       3.001   2.124   1.174  0.00  0.00     0.019 C 
ENDBRANCH   1   7
TORSDOF 1
ENDMDL
