MODEL 1
REMARK minimizedAffinity -5.51579762
REMARK minimizedRMSD -1
REMARK  1 active torsions:
REMARK  status: ('A' for Active; 'I' for Inactive)
REMARK    1  A    between atoms: C1_2  and  C2_3 
ROOT
ATOM      1  C2  UNL d   1       2.468  -0.654  -3.717  0.00  0.00    -0.077 A 
ATOM      2  C3  UNL d   1       1.802   0.358  -3.011  0.00  0.00     0.002 A 
ATOM      3  C4  UNL d   1       0.497   0.161  -2.557  0.00  0.00     0.002 A 
ATOM      4  C5  UNL d   1      -0.152  -1.048  -2.800  0.00  0.00    -0.004 A 
ATOM      5  C6  UNL d   1       0.500  -2.059  -3.503  0.00  0.00     0.002 A 
ATOM      6  C7  UNL d   1       1.805  -1.864  -3.959  0.00  0.00     0.002 A 
ENDROOT
BRANCH   1   7
ATOM      7  C1  UNL d   1       3.893  -0.462  -4.165  0.00  0.00     0.055 C 
ATOM      8  C   UNL d   1       4.299   1.003  -4.105  0.00  0.00     0.019 C 
ENDBRANCH   1   7
TORSDOF 1
ENDMDL
