MODEL 1
REMARK minimizedAffinity -5.5267067
REMARK minimizedRMSD -1
REMARK  1 active torsions:
REMARK  status: ('A' for Active; 'I' for Inactive)
REMARK    1  A    between atoms: C1_2  and  C2_3 
ROOT
ATOM      1  C2  UNL d   1       0.307   0.070   0.711  0.00  0.00    -0.077 A 
ATOM      2  C3  UNL d   1       1.295   0.573   1.570  0.00  0.00     0.002 A 
ATOM      3  C4  UNL d   1       1.105   0.554   2.953  0.00  0.00     0.002 A 
ATOM      4  C5  UNL d   1      -0.070   0.030   3.489  0.00  0.00    -0.004 A 
ATOM      5  C6  UNL d   1      -1.059  -0.470   2.643  0.00  0.00     0.002 A 
ATOM      6  C7  UNL d   1      -0.871  -0.451   1.261  0.00  0.00     0.002 A 
ENDROOT
BRANCH   1   7
ATOM      7  C1  UNL d   1       0.531   0.045  -0.778  0.00  0.00     0.055 C 
ATOM      8  C   UNL d   1      -0.378   1.035  -1.492  0.00  0.00     0.019 C 
ENDBRANCH   1   7
TORSDOF 1
ENDMDL
