MODEL 1
REMARK minimizedAffinity -5.23980236
REMARK minimizedRMSD -1
REMARK  1 active torsions:
REMARK  status: ('A' for Active; 'I' for Inactive)
REMARK    1  A    between atoms: C1_2  and  C2_3 
ROOT
ATOM      1  C2  UNL d   1       0.265   0.148  -0.362  0.00  0.00    -0.077 A 
ATOM      2  C3  UNL d   1      -1.060  -0.168  -0.031  0.00  0.00     0.002 A 
ATOM      3  C4  UNL d   1      -1.403  -0.487   1.284  0.00  0.00     0.002 A 
ATOM      4  C5  UNL d   1      -0.427  -0.490   2.279  0.00  0.00    -0.004 A 
ATOM      5  C6  UNL d   1       0.894  -0.180   1.959  0.00  0.00     0.002 A 
ATOM      6  C7  UNL d   1       1.239   0.139   0.645  0.00  0.00     0.002 A 
ENDROOT
BRANCH   1   7
ATOM      7  C1  UNL d   1       0.628   0.541  -1.771  0.00  0.00     0.055 C 
ATOM      8  C   UNL d   1       0.801  -0.682  -2.660  0.00  0.00     0.019 C 
ENDBRANCH   1   7
TORSDOF 1
ENDMDL
