MODEL 1
REMARK minimizedAffinity -4.98707104
REMARK minimizedRMSD -1
REMARK  1 active torsions:
REMARK  status: ('A' for Active; 'I' for Inactive)
REMARK    1  A    between atoms: C1_2  and  C2_3 
ROOT
ATOM      1  C2  UNL d   1       0.229   0.061   0.247  0.00  0.00    -0.077 A 
ATOM      2  C3  UNL d   1      -0.857  -0.196   1.095  0.00  0.00     0.002 A 
ATOM      3  C4  UNL d   1      -0.661  -0.337   2.470  0.00  0.00     0.002 A 
ATOM      4  C5  UNL d   1       0.618  -0.219   3.009  0.00  0.00    -0.004 A 
ATOM      5  C6  UNL d   1       1.705   0.034   2.173  0.00  0.00     0.002 A 
ATOM      6  C7  UNL d   1       1.511   0.174   0.799  0.00  0.00     0.002 A 
ENDROOT
BRANCH   1   7
ATOM      7  C1  UNL d   1       0.013   0.262  -1.231  0.00  0.00     0.055 C 
ATOM      8  C   UNL d   1       0.818  -0.737  -2.049  0.00  0.00     0.019 C 
ENDBRANCH   1   7
TORSDOF 1
ENDMDL
