MODEL 1
REMARK minimizedAffinity -4.46666241
REMARK minimizedRMSD -1
REMARK  1 active torsions:
REMARK  status: ('A' for Active; 'I' for Inactive)
REMARK    1  A    between atoms: C1_2  and  C2_3 
ROOT
ATOM      1  C2  UNL d   1       0.055   0.138   0.441  0.00  0.00    -0.077 A 
ATOM      2  C3  UNL d   1      -1.236  -0.133   0.913  0.00  0.00     0.002 A 
ATOM      3  C4  UNL d   1      -1.451  -0.401   2.267  0.00  0.00     0.002 A 
ATOM      4  C5  UNL d   1      -0.381  -0.397   3.158  0.00  0.00    -0.004 A 
ATOM      5  C6  UNL d   1       0.908  -0.131   2.697  0.00  0.00     0.002 A 
ATOM      6  C7  UNL d   1       1.125   0.136   1.345  0.00  0.00     0.002 A 
ENDROOT
BRANCH   1   7
ATOM      7  C1  UNL d   1       0.282   0.476  -1.010  0.00  0.00     0.055 C 
ATOM      8  C   UNL d   1       0.619  -0.767  -1.822  0.00  0.00     0.019 C 
ENDBRANCH   1   7
TORSDOF 1
ENDMDL
