MODEL 1
REMARK minimizedAffinity -2.3065486
REMARK minimizedRMSD -1
REMARK  1 active torsions:
REMARK  status: ('A' for Active; 'I' for Inactive)
REMARK    1  A    between atoms: C1_2  and  C2_3 
ROOT
ATOM      1  C2  UNL d   1      -0.178   0.277   2.042  0.00  0.00    -0.077 A 
ATOM      2  C3  UNL d   1      -1.273   0.056   1.195  0.00  0.00     0.002 A 
ATOM      3  C4  UNL d   1      -1.087  -0.061  -0.183  0.00  0.00     0.002 A 
ATOM      4  C5  UNL d   1       0.192   0.036  -0.726  0.00  0.00    -0.004 A 
ATOM      5  C6  UNL d   1       1.287   0.257   0.107  0.00  0.00     0.002 A 
ATOM      6  C7  UNL d   1       1.103   0.376   1.485  0.00  0.00     0.002 A 
ENDROOT
BRANCH   1   7
ATOM      7  C1  UNL d   1      -0.370   0.355   3.534  0.00  0.00     0.055 C 
ATOM      8  C   UNL d   1      -1.666  -0.319   3.962  0.00  0.00     0.019 C 
ENDBRANCH   1   7
TORSDOF 1
ENDMDL
