MODEL 1
REMARK minimizedAffinity -3.91821218
REMARK minimizedRMSD -1
REMARK  1 active torsions:
REMARK  status: ('A' for Active; 'I' for Inactive)
REMARK    1  A    between atoms: C1_2  and  C2_3 
ROOT
ATOM      1  C2  UNL d   1       0.260   0.193   1.738  0.00  0.00    -0.077 A 
ATOM      2  C3  UNL d   1       1.413   0.582   1.041  0.00  0.00     0.002 A 
ATOM      3  C4  UNL d   1       1.401   0.664  -0.353  0.00  0.00     0.002 A 
ATOM      4  C5  UNL d   1       0.239   0.363  -1.060  0.00  0.00    -0.004 A 
ATOM      5  C6  UNL d   1      -0.911  -0.027  -0.376  0.00  0.00     0.002 A 
ATOM      6  C7  UNL d   1      -0.901  -0.110   1.017  0.00  0.00     0.002 A 
ENDROOT
BRANCH   1   7
ATOM      7  C1  UNL d   1       0.257   0.151   3.244  0.00  0.00     0.055 C 
ATOM      8  C   UNL d   1      -1.087  -0.320   3.781  0.00  0.00     0.019 C 
ENDBRANCH   1   7
TORSDOF 1
ENDMDL
