MODEL 1
REMARK minimizedAffinity -1.21297336
REMARK minimizedRMSD -1
REMARK  0 active torsions:
REMARK  status: ('A' for Active; 'I' for Inactive)
ROOT
ATOM      1  C   UNL d   1      -0.820  -1.012   1.905  0.00  0.00     0.078 C 
ATOM      2  C1  UNL d   1      -0.408  -2.025   2.930  0.00  0.00    -0.077 A 
ATOM      3  C2  UNL d   1      -1.363  -2.766   3.637  0.00  0.00    -0.001 A 
ATOM      4  C3  UNL d   1      -0.965  -3.699   4.595  0.00  0.00     0.003 A 
ATOM      5  C4  UNL d   1       0.389  -3.899   4.857  0.00  0.00    -0.005 A 
ATOM      6  C5  UNL d   1       1.347  -3.165   4.161  0.00  0.00     0.003 A 
ATOM      7  C6  UNL d   1       0.950  -2.232   3.202  0.00  0.00    -0.001 A 
ENDROOT
TORSDOF 0
ENDMDL
