MODEL 1
REMARK minimizedAffinity -0.794766784
REMARK minimizedRMSD -1
REMARK  0 active torsions:
REMARK  status: ('A' for Active; 'I' for Inactive)
ROOT
ATOM      1  C   UNL d   1       0.696  -3.209   2.841  0.00  0.00     0.078 C 
ATOM      2  C1  UNL d   1       0.680  -2.202   1.731  0.00  0.00    -0.077 A 
ATOM      3  C2  UNL d   1      -0.347  -1.256   1.630  0.00  0.00    -0.001 A 
ATOM      4  C3  UNL d   1      -0.355  -0.330   0.585  0.00  0.00     0.003 A 
ATOM      5  C4  UNL d   1       0.662  -0.342  -0.368  0.00  0.00    -0.005 A 
ATOM      6  C5  UNL d   1       1.688  -1.281  -0.277  0.00  0.00     0.003 A 
ATOM      7  C6  UNL d   1       1.697  -2.207   0.767  0.00  0.00    -0.001 A 
ENDROOT
TORSDOF 0
ENDMDL
