MODEL 1
REMARK minimizedAffinity 1.7069943
REMARK minimizedRMSD -1
REMARK  0 active torsions:
REMARK  status: ('A' for Active; 'I' for Inactive)
ROOT
ATOM      1  C   UNL d   1       5.678  -1.389   1.514  0.00  0.00     0.078 C 
ATOM      2  C1  UNL d   1       4.224  -1.240   1.176  0.00  0.00    -0.077 A 
ATOM      3  C2  UNL d   1       3.427  -2.360   0.913  0.00  0.00    -0.001 A 
ATOM      4  C3  UNL d   1       2.078  -2.206   0.590  0.00  0.00     0.003 A 
ATOM      5  C4  UNL d   1       1.515  -0.932   0.525  0.00  0.00    -0.005 A 
ATOM      6  C5  UNL d   1       2.301   0.188   0.782  0.00  0.00     0.003 A 
ATOM      7  C6  UNL d   1       3.651   0.036   1.106  0.00  0.00    -0.001 A 
ENDROOT
TORSDOF 0
ENDMDL
