MODEL 1
REMARK minimizedAffinity 0.658145189
REMARK minimizedRMSD -1
REMARK  0 active torsions:
REMARK  status: ('A' for Active; 'I' for Inactive)
ROOT
ATOM      1  C   UNL d   1      -1.116   0.587   0.306  0.00  0.00     0.078 C 
ATOM      2  C1  UNL d   1      -0.203  -0.513   0.759  0.00  0.00    -0.077 A 
ATOM      3  C2  UNL d   1       1.068  -0.675   0.193  0.00  0.00    -0.001 A 
ATOM      4  C3  UNL d   1       1.903  -1.709   0.618  0.00  0.00     0.003 A 
ATOM      5  C4  UNL d   1       1.477  -2.590   1.610  0.00  0.00    -0.005 A 
ATOM      6  C5  UNL d   1       0.214  -2.438   2.178  0.00  0.00     0.003 A 
ATOM      7  C6  UNL d   1      -0.623  -1.404   1.754  0.00  0.00    -0.001 A 
ENDROOT
TORSDOF 0
ENDMDL
