MODEL 1
REMARK minimizedAffinity 0.476420224
REMARK minimizedRMSD -1
REMARK  0 active torsions:
REMARK  status: ('A' for Active; 'I' for Inactive)
ROOT
ATOM      1  C   UNL d   1       0.669  -0.863   0.241  0.00  0.00     0.078 C 
ATOM      2  C1  UNL d   1      -0.737  -0.884  -0.280  0.00  0.00    -0.077 A 
ATOM      3  C2  UNL d   1      -1.236  -1.998  -0.965  0.00  0.00    -0.001 A 
ATOM      4  C3  UNL d   1      -2.544  -1.999  -1.453  0.00  0.00     0.003 A 
ATOM      5  C4  UNL d   1      -3.363  -0.888  -1.262  0.00  0.00    -0.005 A 
ATOM      6  C5  UNL d   1      -2.875   0.226  -0.583  0.00  0.00     0.003 A 
ATOM      7  C6  UNL d   1      -1.568   0.229  -0.094  0.00  0.00    -0.001 A 
ENDROOT
TORSDOF 0
ENDMDL
