MODEL 1
REMARK minimizedAffinity 5.79897499
REMARK minimizedRMSD -1
REMARK  0 active torsions:
REMARK  status: ('A' for Active; 'I' for Inactive)
ROOT
ATOM      1  C   UNL d   1       0.318  -2.809   3.514  0.00  0.00     0.078 C 
ATOM      2  C1  UNL d   1      -0.089  -2.238   2.189  0.00  0.00    -0.077 A 
ATOM      3  C2  UNL d   1       0.690  -1.264   1.552  0.00  0.00    -0.001 A 
ATOM      4  C3  UNL d   1       0.294  -0.735   0.323  0.00  0.00     0.003 A 
ATOM      5  C4  UNL d   1      -0.884  -1.172  -0.279  0.00  0.00    -0.005 A 
ATOM      6  C5  UNL d   1      -1.667  -2.139   0.347  0.00  0.00     0.003 A 
ATOM      7  C6  UNL d   1      -1.272  -2.670   1.576  0.00  0.00    -0.001 A 
ENDROOT
TORSDOF 0
ENDMDL
