MODEL 1
REMARK minimizedAffinity 4.18535328
REMARK minimizedRMSD -1
REMARK  0 active torsions:
REMARK  status: ('A' for Active; 'I' for Inactive)
ROOT
ATOM      1  C   UNL d   1      -0.189  -1.095   1.026  0.00  0.00     0.078 C 
ATOM      2  C1  UNL d   1       0.077  -1.874   2.279  0.00  0.00    -0.077 A 
ATOM      3  C2  UNL d   1      -0.814  -1.830   3.359  0.00  0.00    -0.001 A 
ATOM      4  C3  UNL d   1      -0.548  -2.552   4.523  0.00  0.00     0.003 A 
ATOM      5  C4  UNL d   1       0.609  -3.323   4.620  0.00  0.00    -0.005 A 
ATOM      6  C5  UNL d   1       1.502  -3.371   3.552  0.00  0.00     0.003 A 
ATOM      7  C6  UNL d   1       1.239  -2.649   2.387  0.00  0.00    -0.001 A 
ENDROOT
TORSDOF 0
ENDMDL
