MODEL 1
REMARK minimizedAffinity -0.541183531
REMARK minimizedRMSD -1
REMARK  0 active torsions:
REMARK  status: ('A' for Active; 'I' for Inactive)
ROOT
ATOM      1  C   UNL d   1      -3.940  -2.197  -5.992  0.00  0.00     0.078 C 
ATOM      2  C1  UNL d   1      -3.246  -3.526  -6.000  0.00  0.00    -0.077 A 
ATOM      3  C2  UNL d   1      -3.976  -4.721  -5.999  0.00  0.00    -0.001 A 
ATOM      4  C3  UNL d   1      -3.317  -5.951  -5.996  0.00  0.00     0.003 A 
ATOM      5  C4  UNL d   1      -1.924  -5.999  -5.994  0.00  0.00    -0.005 A 
ATOM      6  C5  UNL d   1      -1.189  -4.815  -5.993  0.00  0.00     0.003 A 
ATOM      7  C6  UNL d   1      -1.847  -3.584  -5.995  0.00  0.00    -0.001 A 
ENDROOT
TORSDOF 0
ENDMDL
