MODEL 1
REMARK minimizedAffinity 0.956003249
REMARK minimizedRMSD -1
REMARK  0 active torsions:
REMARK  status: ('A' for Active; 'I' for Inactive)
ROOT
ATOM      1  C   UNL d   1      -3.402  -1.165  -0.651  0.00  0.00     0.078 C 
ATOM      2  C1  UNL d   1      -1.967  -1.182  -0.216  0.00  0.00    -0.077 A 
ATOM      3  C2  UNL d   1      -1.418  -0.111   0.501  0.00  0.00    -0.001 A 
ATOM      4  C3  UNL d   1      -0.078  -0.136   0.891  0.00  0.00     0.003 A 
ATOM      5  C4  UNL d   1       0.724  -1.229   0.568  0.00  0.00    -0.005 A 
ATOM      6  C5  UNL d   1       0.187  -2.298  -0.147  0.00  0.00     0.003 A 
ATOM      7  C6  UNL d   1      -1.152  -2.274  -0.538  0.00  0.00    -0.001 A 
ENDROOT
TORSDOF 0
ENDMDL
