MODEL 1
REMARK minimizedAffinity 3.50652981
REMARK minimizedRMSD -1
REMARK  0 active torsions:
REMARK  status: ('A' for Active; 'I' for Inactive)
ROOT
ATOM      1  C   UNL d   1       1.382   2.344  -3.382  0.00  0.00     0.078 C 
ATOM      2  C1  UNL d   1      -0.089   2.442  -3.105  0.00  0.00    -0.077 A 
ATOM      3  C2  UNL d   1      -0.581   2.388  -1.795  0.00  0.00    -0.001 A 
ATOM      4  C3  UNL d   1      -1.953   2.471  -1.553  0.00  0.00     0.003 A 
ATOM      5  C4  UNL d   1      -2.845   2.607  -2.615  0.00  0.00    -0.005 A 
ATOM      6  C5  UNL d   1      -2.364   2.658  -3.922  0.00  0.00     0.003 A 
ATOM      7  C6  UNL d   1      -0.992   2.576  -4.166  0.00  0.00    -0.001 A 
ENDROOT
TORSDOF 0
ENDMDL
