MODEL 1
REMARK minimizedAffinity 6.45895386
REMARK minimizedRMSD -1
REMARK  0 active torsions:
REMARK  status: ('A' for Active; 'I' for Inactive)
ROOT
ATOM      1  C   UNL d   1      -0.381  -1.620   1.219  0.00  0.00     0.078 C 
ATOM      2  C1  UNL d   1       0.048  -2.282   2.494  0.00  0.00    -0.077 A 
ATOM      3  C2  UNL d   1      -0.806  -2.333   3.602  0.00  0.00    -0.001 A 
ATOM      4  C3  UNL d   1      -0.391  -2.944   4.786  0.00  0.00     0.003 A 
ATOM      5  C4  UNL d   1       0.881  -3.508   4.874  0.00  0.00    -0.005 A 
ATOM      6  C5  UNL d   1       1.738  -3.460   3.776  0.00  0.00     0.003 A 
ATOM      7  C6  UNL d   1       1.324  -2.849   2.592  0.00  0.00    -0.001 A 
ENDROOT
TORSDOF 0
ENDMDL
