MODEL 1
REMARK minimizedAffinity -5.66722965
REMARK minimizedRMSD -1
REMARK  0 active torsions:
REMARK  status: ('A' for Active; 'I' for Inactive)
ROOT
ATOM      1  C   UNL d   1      -3.693  -2.205   4.035  0.00  0.00     0.078 C 
ATOM      2  C1  UNL d   1      -2.639  -2.182   2.968  0.00  0.00    -0.077 A 
ATOM      3  C2  UNL d   1      -2.984  -2.252   1.612  0.00  0.00    -0.001 A 
ATOM      4  C3  UNL d   1      -1.993  -2.239   0.630  0.00  0.00     0.003 A 
ATOM      5  C4  UNL d   1      -0.650  -2.158   0.993  0.00  0.00    -0.005 A 
ATOM      6  C5  UNL d   1      -0.297  -2.090   2.339  0.00  0.00     0.003 A 
ATOM      7  C6  UNL d   1      -1.287  -2.102   3.323  0.00  0.00    -0.001 A 
ENDROOT
TORSDOF 0
ENDMDL
