MODEL 1
REMARK minimizedAffinity 5.83129978
REMARK minimizedRMSD -1
REMARK  0 active torsions:
REMARK  status: ('A' for Active; 'I' for Inactive)
ROOT
ATOM      1  C   UNL d   1       3.380   1.165  -2.459  0.00  0.00     0.078 C 
ATOM      2  C1  UNL d   1       2.485   0.790  -1.316  0.00  0.00    -0.077 A 
ATOM      3  C2  UNL d   1       1.509  -0.204  -1.460  0.00  0.00    -0.001 A 
ATOM      4  C3  UNL d   1       0.677  -0.537  -0.390  0.00  0.00     0.003 A 
ATOM      5  C4  UNL d   1       0.811   0.120   0.831  0.00  0.00    -0.005 A 
ATOM      6  C5  UNL d   1       1.778   1.112   0.984  0.00  0.00     0.003 A 
ATOM      7  C6  UNL d   1       2.611   1.446  -0.085  0.00  0.00    -0.001 A 
ENDROOT
TORSDOF 0
ENDMDL
