MODEL 1
REMARK minimizedAffinity 7.47316408
REMARK minimizedRMSD -1
REMARK  0 active torsions:
REMARK  status: ('A' for Active; 'I' for Inactive)
ROOT
ATOM      1  C   UNL d   1      -4.500   4.429  -1.304  0.00  0.00     0.078 C 
ATOM      2  C1  UNL d   1      -3.435   3.855  -2.190  0.00  0.00    -0.077 A 
ATOM      3  C2  UNL d   1      -3.483   4.025  -3.579  0.00  0.00    -0.001 A 
ATOM      4  C3  UNL d   1      -2.490   3.477  -4.392  0.00  0.00     0.003 A 
ATOM      5  C4  UNL d   1      -1.442   2.754  -3.825  0.00  0.00    -0.005 A 
ATOM      6  C5  UNL d   1      -1.387   2.578  -2.444  0.00  0.00     0.003 A 
ATOM      7  C6  UNL d   1      -2.379   3.125  -1.630  0.00  0.00    -0.001 A 
ENDROOT
TORSDOF 0
ENDMDL
