MODEL 1
REMARK minimizedAffinity -1.4529686
REMARK minimizedRMSD -1
REMARK  0 active torsions:
REMARK  status: ('A' for Active; 'I' for Inactive)
ROOT
ATOM      1  C   UNL d   1       0.133   3.200  -4.041  0.00  0.00     0.078 C 
ATOM      2  C1  UNL d   1       1.429   2.610  -3.570  0.00  0.00    -0.077 A 
ATOM      3  C2  UNL d   1       1.454   1.418  -2.836  0.00  0.00    -0.001 A 
ATOM      4  C3  UNL d   1       2.667   0.886  -2.395  0.00  0.00     0.003 A 
ATOM      5  C4  UNL d   1       3.863   1.539  -2.684  0.00  0.00    -0.005 A 
ATOM      6  C5  UNL d   1       3.848   2.727  -3.412  0.00  0.00     0.003 A 
ATOM      7  C6  UNL d   1       2.636   3.261  -3.853  0.00  0.00    -0.001 A 
ENDROOT
TORSDOF 0
ENDMDL
