MODEL 1
REMARK minimizedAffinity -1.48889661
REMARK minimizedRMSD -1
REMARK  0 active torsions:
REMARK  status: ('A' for Active; 'I' for Inactive)
ROOT
ATOM      1  C   UNL d   1       0.372  -1.111   0.573  0.00  0.00     0.078 C 
ATOM      2  C1  UNL d   1       0.403  -1.805   1.902  0.00  0.00    -0.077 A 
ATOM      3  C2  UNL d   1      -0.642  -1.651   2.821  0.00  0.00    -0.001 A 
ATOM      4  C3  UNL d   1      -0.595  -2.295   4.058  0.00  0.00     0.003 A 
ATOM      5  C4  UNL d   1       0.496  -3.096   4.389  0.00  0.00    -0.005 A 
ATOM      6  C5  UNL d   1       1.543  -3.253   3.482  0.00  0.00     0.003 A 
ATOM      7  C6  UNL d   1       1.497  -2.610   2.244  0.00  0.00    -0.001 A 
ENDROOT
TORSDOF 0
ENDMDL
