MODEL 1
REMARK minimizedAffinity -3.23885036
REMARK minimizedRMSD -1
REMARK  0 active torsions:
REMARK  status: ('A' for Active; 'I' for Inactive)
ROOT
ATOM      1  C   UNL d   1      -4.117  -1.825  -5.929  0.00  0.00     0.078 C 
ATOM      2  C1  UNL d   1      -3.754  -3.280  -5.943  0.00  0.00    -0.077 A 
ATOM      3  C2  UNL d   1      -4.744  -4.270  -5.997  0.00  0.00    -0.001 A 
ATOM      4  C3  UNL d   1      -4.392  -5.620  -6.000  0.00  0.00     0.003 A 
ATOM      5  C4  UNL d   1      -3.051  -5.994  -5.947  0.00  0.00    -0.005 A 
ATOM      6  C5  UNL d   1      -2.059  -5.017  -5.890  0.00  0.00     0.003 A 
ATOM      7  C6  UNL d   1      -2.409  -3.666  -5.888  0.00  0.00    -0.001 A 
ENDROOT
TORSDOF 0
ENDMDL
