MODEL 1
REMARK minimizedAffinity -1.79135239
REMARK minimizedRMSD -1
REMARK  0 active torsions:
REMARK  status: ('A' for Active; 'I' for Inactive)
ROOT
ATOM      1  C   UNL d   1      -4.612  -2.307  -5.394  0.00  0.00     0.078 C 
ATOM      2  C1  UNL d   1      -3.874  -3.595  -5.613  0.00  0.00    -0.077 A 
ATOM      3  C2  UNL d   1      -4.565  -4.799  -5.797  0.00  0.00    -0.001 A 
ATOM      4  C3  UNL d   1      -3.865  -5.991  -5.990  0.00  0.00     0.003 A 
ATOM      5  C4  UNL d   1      -2.472  -5.991  -6.000  0.00  0.00    -0.005 A 
ATOM      6  C5  UNL d   1      -1.776  -4.798  -5.816  0.00  0.00     0.003 A 
ATOM      7  C6  UNL d   1      -2.474  -3.605  -5.623  0.00  0.00    -0.001 A 
ENDROOT
TORSDOF 0
ENDMDL
