MODEL 1
REMARK minimizedAffinity -4.79544353
REMARK minimizedRMSD -1
REMARK  0 active torsions:
REMARK  status: ('A' for Active; 'I' for Inactive)
ROOT
ATOM      1  O1  BZF d   1       0.353  -0.308  -0.721  0.00  0.00    -0.204 OA
ATOM      2  C2  BZF d   1      -0.805   0.328  -0.316  0.00  0.00     0.174 A 
ATOM      3  C3  BZF d   1      -0.991   0.182   1.011  0.00  0.00    -0.012 A 
ATOM      4  C3A BZF d   1       0.167  -0.514   1.480  0.00  0.00    -0.107 A 
ATOM      5  C4  BZF d   1       0.573  -0.938   2.714  0.00  0.00     0.055 A 
ATOM      6  C5  BZF d   1       1.723  -1.655   2.821  0.00  0.00    -0.016 A 
ATOM      7  C6  BZF d   1       2.487  -1.970   1.716  0.00  0.00     0.022 A 
ATOM      8  C7  BZF d   1       2.128  -1.567   0.473  0.00  0.00     0.029 A 
ATOM      9  C7A BZF d   1       0.984  -0.815   0.366  0.00  0.00     0.058 A 
ENDROOT
TORSDOF 0
ENDMDL
