MODEL 1
REMARK minimizedAffinity -4.50988674
REMARK minimizedRMSD -1
REMARK  0 active torsions:
REMARK  status: ('A' for Active; 'I' for Inactive)
ROOT
ATOM      1  O1  BZF d   1       0.985  -0.669  -1.144  0.00  0.00    -0.204 OA
ATOM      2  C2  BZF d   1      -0.155   0.111  -1.184  0.00  0.00     0.174 A 
ATOM      3  C3  BZF d   1      -0.652   0.295   0.056  0.00  0.00    -0.012 A 
ATOM      4  C3A BZF d   1       0.285  -0.337   0.935  0.00  0.00    -0.107 A 
ATOM      5  C4  BZF d   1       0.351  -0.479   2.291  0.00  0.00     0.055 A 
ATOM      6  C5  BZF d   1       1.358  -1.216   2.829  0.00  0.00    -0.016 A 
ATOM      7  C6  BZF d   1       2.311  -1.828   2.042  0.00  0.00     0.022 A 
ATOM      8  C7  BZF d   1       2.290  -1.711   0.692  0.00  0.00     0.029 A 
ATOM      9  C7A BZF d   1       1.292  -0.940   0.147  0.00  0.00     0.058 A 
ENDROOT
TORSDOF 0
ENDMDL
