MODEL 1
REMARK minimizedAffinity -5.55155516
REMARK minimizedRMSD -1
REMARK  0 active torsions:
REMARK  status: ('A' for Active; 'I' for Inactive)
ROOT
ATOM      1  O1  BZF d   1       0.475  -0.323  -0.966  0.00  0.00    -0.204 OA
ATOM      2  C2  BZF d   1      -0.666   0.314  -0.520  0.00  0.00     0.174 A 
ATOM      3  C3  BZF d   1      -0.768   0.228   0.822  0.00  0.00    -0.012 A 
ATOM      4  C3A BZF d   1       0.429  -0.429   1.250  0.00  0.00    -0.107 A 
ATOM      5  C4  BZF d   1       0.917  -0.788   2.473  0.00  0.00     0.055 A 
ATOM      6  C5  BZF d   1       2.084  -1.482   2.541  0.00  0.00    -0.016 A 
ATOM      7  C6  BZF d   1       2.784  -1.837   1.407  0.00  0.00     0.022 A 
ATOM      8  C7  BZF d   1       2.342  -1.499   0.171  0.00  0.00     0.029 A 
ATOM      9  C7A BZF d   1       1.181  -0.769   0.101  0.00  0.00     0.058 A 
ENDROOT
TORSDOF 0
ENDMDL
