MODEL 1
REMARK minimizedAffinity -5.726717
REMARK minimizedRMSD -1
REMARK  0 active torsions:
REMARK  status: ('A' for Active; 'I' for Inactive)
ROOT
ATOM      1  O1  BZF d   1       0.585  -0.476  -0.786  0.00  0.00    -0.204 OA
ATOM      2  C2  BZF d   1      -0.517   0.342  -0.628  0.00  0.00     0.174 A 
ATOM      3  C3  BZF d   1      -0.742   0.594   0.678  0.00  0.00    -0.012 A 
ATOM      4  C3A BZF d   1       0.337  -0.036   1.374  0.00  0.00    -0.107 A 
ATOM      5  C4  BZF d   1       0.678  -0.126   2.694  0.00  0.00     0.055 A 
ATOM      6  C5  BZF d   1       1.754  -0.876   3.048  0.00  0.00    -0.016 A 
ATOM      7  C6  BZF d   1       2.507  -1.553   2.112  0.00  0.00     0.022 A 
ATOM      8  C7  BZF d   1       2.211  -1.490   0.791  0.00  0.00     0.029 A 
ATOM      9  C7A BZF d   1       1.144  -0.706   0.426  0.00  0.00     0.058 A 
ENDROOT
TORSDOF 0
ENDMDL
