MODEL 1
REMARK minimizedAffinity -3.66182613
REMARK minimizedRMSD -1
REMARK  0 active torsions:
REMARK  status: ('A' for Active; 'I' for Inactive)
ROOT
ATOM      1  O1  BZF d   1       0.785  -0.545  -1.083  0.00  0.00    -0.204 OA
ATOM      2  C2  BZF d   1      -0.379   0.196  -1.007  0.00  0.00     0.174 A 
ATOM      3  C3  BZF d   1      -0.793   0.306   0.271  0.00  0.00    -0.012 A 
ATOM      4  C3A BZF d   1       0.221  -0.332   1.053  0.00  0.00    -0.107 A 
ATOM      5  C4  BZF d   1       0.386  -0.533   2.393  0.00  0.00     0.055 A 
ATOM      6  C5  BZF d   1       1.451  -1.257   2.826  0.00  0.00    -0.016 A 
ATOM      7  C6  BZF d   1       2.366  -1.800   1.948  0.00  0.00     0.022 A 
ATOM      8  C7  BZF d   1       2.247  -1.623   0.609  0.00  0.00     0.029 A 
ATOM      9  C7A BZF d   1       1.190  -0.863   0.170  0.00  0.00     0.058 A 
ENDROOT
TORSDOF 0
ENDMDL
