MODEL 1
REMARK minimizedAffinity -6.19346285
REMARK minimizedRMSD -1
REMARK  0 active torsions:
REMARK  status: ('A' for Active; 'I' for Inactive)
ROOT
ATOM      1  O1  BZF d   1       0.523  -0.525  -1.395  0.00  0.00    -0.204 OA
ATOM      2  C2  BZF d   1      -0.771  -0.077  -1.212  0.00  0.00     0.174 A 
ATOM      3  C3  BZF d   1      -1.090  -0.059   0.098  0.00  0.00    -0.012 A 
ATOM      4  C3A BZF d   1       0.108  -0.438   0.782  0.00  0.00    -0.107 A 
ATOM      5  C4  BZF d   1       0.429  -0.587   2.101  0.00  0.00     0.055 A 
ATOM      6  C5  BZF d   1       1.666  -1.040   2.433  0.00  0.00    -0.016 A 
ATOM      7  C6  BZF d   1       2.605  -1.358   1.473  0.00  0.00     0.022 A 
ATOM      8  C7  BZF d   1       2.334  -1.221   0.152  0.00  0.00     0.029 A 
ATOM      9  C7A BZF d   1       1.096  -0.732  -0.186  0.00  0.00     0.058 A 
ENDROOT
TORSDOF 0
ENDMDL
