MODEL 1
REMARK minimizedAffinity -3.58021617
REMARK minimizedRMSD -1
REMARK  0 active torsions:
REMARK  status: ('A' for Active; 'I' for Inactive)
ROOT
ATOM      1  O1  BZF d   1       0.440  -0.094  -0.876  0.00  0.00    -0.204 OA
ATOM      2  C2  BZF d   1      -0.755   0.441  -0.434  0.00  0.00     0.174 A 
ATOM      3  C3  BZF d   1      -0.902   0.251   0.893  0.00  0.00    -0.012 A 
ATOM      4  C3A BZF d   1       0.316  -0.365   1.322  0.00  0.00    -0.107 A 
ATOM      5  C4  BZF d   1       0.778  -0.784   2.537  0.00  0.00     0.055 A 
ATOM      6  C5  BZF d   1       1.982  -1.412   2.605  0.00  0.00    -0.016 A 
ATOM      7  C6  BZF d   1       2.745  -1.641   1.479  0.00  0.00     0.022 A 
ATOM      8  C7  BZF d   1       2.330  -1.239   0.253  0.00  0.00     0.029 A 
ATOM      9  C7A BZF d   1       1.130  -0.575   0.186  0.00  0.00     0.058 A 
ENDROOT
TORSDOF 0
ENDMDL
