MODEL 1
REMARK minimizedAffinity -5.54634476
REMARK minimizedRMSD -1
REMARK  0 active torsions:
REMARK  status: ('A' for Active; 'I' for Inactive)
ROOT
ATOM      1  O1  BZF d   1       1.110  -0.737  -1.235  0.00  0.00    -0.204 OA
ATOM      2  C2  BZF d   1       0.019   0.091  -1.049  0.00  0.00     0.174 A 
ATOM      3  C3  BZF d   1      -0.250   0.241   0.264  0.00  0.00    -0.012 A 
ATOM      4  C3A BZF d   1       0.790  -0.468   0.944  0.00  0.00    -0.107 A 
ATOM      5  C4  BZF d   1       1.080  -0.673   2.263  0.00  0.00     0.055 A 
ATOM      6  C5  BZF d   1       2.126  -1.474   2.593  0.00  0.00    -0.016 A 
ATOM      7  C6  BZF d   1       2.901  -2.090   1.632  0.00  0.00     0.022 A 
ATOM      8  C7  BZF d   1       2.656  -1.913   0.311  0.00  0.00     0.029 A 
ATOM      9  C7A BZF d   1       1.619  -1.077  -0.026  0.00  0.00     0.058 A 
ENDROOT
TORSDOF 0
ENDMDL
