MODEL 1
REMARK minimizedAffinity -5.80782795
REMARK minimizedRMSD -1
REMARK  0 active torsions:
REMARK  status: ('A' for Active; 'I' for Inactive)
ROOT
ATOM      1  O1  BZF d   1      -0.012  -1.060   2.610  0.00  0.00    -0.204 OA
ATOM      2  C2  BZF d   1       1.141  -1.617   3.129  0.00  0.00     0.174 A 
ATOM      3  C3  BZF d   1       2.064  -1.793   2.162  0.00  0.00    -0.012 A 
ATOM      4  C3A BZF d   1       1.484  -1.231   0.981  0.00  0.00    -0.107 A 
ATOM      5  C4  BZF d   1       1.922  -1.089  -0.305  0.00  0.00     0.055 A 
ATOM      6  C5  BZF d   1       1.083  -0.562  -1.235  0.00  0.00    -0.016 A 
ATOM      7  C6  BZF d   1      -0.201  -0.172  -0.916  0.00  0.00     0.022 A 
ATOM      8  C7  BZF d   1      -0.679  -0.289   0.347  0.00  0.00     0.029 A 
ATOM      9  C7A BZF d   1       0.178  -0.790   1.296  0.00  0.00     0.058 A 
ENDROOT
TORSDOF 0
ENDMDL
