MODEL 1
REMARK minimizedAffinity -5.07508755
REMARK minimizedRMSD -1
REMARK  0 active torsions:
REMARK  status: ('A' for Active; 'I' for Inactive)
ROOT
ATOM      1  O1  BZF d   1       2.024  -1.291   0.512  0.00  0.00    -0.204 OA
ATOM      2  C2  BZF d   1       2.631  -1.592   1.715  0.00  0.00     0.174 A 
ATOM      3  C3  BZF d   1       1.887  -1.153   2.750  0.00  0.00    -0.012 A 
ATOM      4  C3A BZF d   1       0.697  -0.621   2.159  0.00  0.00    -0.107 A 
ATOM      5  C4  BZF d   1      -0.432  -0.050   2.673  0.00  0.00     0.055 A 
ATOM      6  C5  BZF d   1      -1.375   0.432   1.821  0.00  0.00    -0.016 A 
ATOM      7  C6  BZF d   1      -1.218   0.365   0.452  0.00  0.00     0.022 A 
ATOM      8  C7  BZF d   1      -0.117  -0.196  -0.105  0.00  0.00     0.029 A 
ATOM      9  C7A BZF d   1       0.822  -0.714   0.754  0.00  0.00     0.058 A 
ENDROOT
TORSDOF 0
ENDMDL
