MODEL 1
REMARK minimizedAffinity -4.30046129
REMARK minimizedRMSD -1
REMARK  1 active torsions:
REMARK  status: ('A' for Active; 'I' for Inactive)
REMARK    1  A    between atoms: C1_2  and  C2_3 
ROOT
ATOM      1  C2  UNL d   1      -0.828   0.964   0.145  0.00  0.00    -0.077 A 
ATOM      2  C3  UNL d   1       0.041   0.883  -0.952  0.00  0.00     0.002 A 
ATOM      3  C4  UNL d   1       1.006  -0.125  -1.015  0.00  0.00     0.002 A 
ATOM      4  C5  UNL d   1       1.108  -1.060   0.013  0.00  0.00    -0.004 A 
ATOM      5  C6  UNL d   1       0.249  -0.986   1.109  0.00  0.00     0.002 A 
ATOM      6  C7  UNL d   1      -0.715   0.021   1.174  0.00  0.00     0.002 A 
ENDROOT
BRANCH   1   7
ATOM      7  C1  UNL d   1      -1.902   2.020   0.191  0.00  0.00     0.055 C 
ATOM      8  C   UNL d   1      -2.480   2.161   1.591  0.00  0.00     0.019 C 
ENDBRANCH   1   7
TORSDOF 1
ENDMDL
