MODEL 1
REMARK minimizedAffinity -2.97895193
REMARK minimizedRMSD -1
REMARK  1 active torsions:
REMARK  status: ('A' for Active; 'I' for Inactive)
REMARK    1  A    between atoms: C1_2  and  C2_3 
ROOT
ATOM      1  C2  UNL d   1       0.473  -0.655  -0.236  0.00  0.00    -0.077 A 
ATOM      2  C3  UNL d   1      -0.166  -0.499   1.002  0.00  0.00     0.002 A 
ATOM      3  C4  UNL d   1      -0.888   0.662   1.283  0.00  0.00     0.002 A 
ATOM      4  C5  UNL d   1      -0.981   1.675   0.331  0.00  0.00    -0.004 A 
ATOM      5  C6  UNL d   1      -0.347   1.530  -0.903  0.00  0.00     0.002 A 
ATOM      6  C7  UNL d   1       0.376   0.371  -1.186  0.00  0.00     0.002 A 
ENDROOT
BRANCH   1   7
ATOM      7  C1  UNL d   1       1.211  -1.928  -0.560  0.00  0.00     0.055 C 
ATOM      8  C   UNL d   1       0.519  -2.701  -1.673  0.00  0.00     0.019 C 
ENDBRANCH   1   7
TORSDOF 1
ENDMDL
