MODEL 1
REMARK minimizedAffinity -4.06080723
REMARK minimizedRMSD -1
REMARK  1 active torsions:
REMARK  status: ('A' for Active; 'I' for Inactive)
REMARK    1  A    between atoms: C1_2  and  C2_3 
ROOT
ATOM      1  C2  UNL d   1      -0.959   1.059   0.230  0.00  0.00    -0.077 A 
ATOM      2  C3  UNL d   1      -0.471  -0.201   0.606  0.00  0.00     0.002 A 
ATOM      3  C4  UNL d   1       0.595  -0.780  -0.084  0.00  0.00     0.002 A 
ATOM      4  C5  UNL d   1       1.185  -0.106  -1.151  0.00  0.00    -0.004 A 
ATOM      5  C6  UNL d   1       0.706   1.147  -1.534  0.00  0.00     0.002 A 
ATOM      6  C7  UNL d   1      -0.361   1.726  -0.846  0.00  0.00     0.002 A 
ENDROOT
BRANCH   1   7
ATOM      7  C1  UNL d   1      -2.077   1.707   1.004  0.00  0.00     0.055 C 
ATOM      8  C   UNL d   1      -1.591   2.224   2.350  0.00  0.00     0.019 C 
ENDBRANCH   1   7
TORSDOF 1
ENDMDL
