MODEL 1
REMARK minimizedAffinity -4.81296492
REMARK minimizedRMSD -1
REMARK  1 active torsions:
REMARK  status: ('A' for Active; 'I' for Inactive)
REMARK    1  A    between atoms: C1_2  and  C2_3 
ROOT
ATOM      1  C2  UNL d   1      -0.792   1.075   1.335  0.00  0.00    -0.077 A 
ATOM      2  C3  UNL d   1      -0.172  -0.095   1.797  0.00  0.00     0.002 A 
ATOM      3  C4  UNL d   1       0.607  -0.869   0.935  0.00  0.00     0.002 A 
ATOM      4  C5  UNL d   1       0.778  -0.479  -0.391  0.00  0.00    -0.004 A 
ATOM      5  C6  UNL d   1       0.164   0.681  -0.861  0.00  0.00     0.002 A 
ATOM      6  C7  UNL d   1      -0.616   1.455  -0.001  0.00  0.00     0.002 A 
ENDROOT
BRANCH   1   7
ATOM      7  C1  UNL d   1      -1.592   1.937   2.276  0.00  0.00     0.055 C 
ATOM      8  C   UNL d   1      -2.330   3.037   1.526  0.00  0.00     0.019 C 
ENDBRANCH   1   7
TORSDOF 1
ENDMDL
