MODEL 1
REMARK minimizedAffinity -3.56529522
REMARK minimizedRMSD -1
REMARK  1 active torsions:
REMARK  status: ('A' for Active; 'I' for Inactive)
REMARK    1  A    between atoms: C1_2  and  C2_3 
ROOT
ATOM      1  C2  UNL d   1       0.250   0.002  -0.506  0.00  0.00    -0.077 A 
ATOM      2  C3  UNL d   1      -0.312  -0.216   0.760  0.00  0.00     0.002 A 
ATOM      3  C4  UNL d   1      -1.256   0.673   1.276  0.00  0.00     0.002 A 
ATOM      4  C5  UNL d   1      -1.650   1.783   0.531  0.00  0.00    -0.004 A 
ATOM      5  C6  UNL d   1      -1.096   2.010  -0.728  0.00  0.00     0.002 A 
ATOM      6  C7  UNL d   1      -0.151   1.123  -1.244  0.00  0.00     0.002 A 
ENDROOT
BRANCH   1   7
ATOM      7  C1  UNL d   1       1.233  -0.982  -1.085  0.00  0.00     0.055 C 
ATOM      8  C   UNL d   1       0.539  -1.990  -1.990  0.00  0.00     0.019 C 
ENDBRANCH   1   7
TORSDOF 1
ENDMDL
