MODEL 1
REMARK minimizedAffinity -4.14099026
REMARK minimizedRMSD -1
REMARK  1 active torsions:
REMARK  status: ('A' for Active; 'I' for Inactive)
REMARK    1  A    between atoms: C1_2  and  C2_3 
ROOT
ATOM      1  C2  UNL d   1       0.131  -0.316  -0.098  0.00  0.00    -0.077 A 
ATOM      2  C3  UNL d   1      -0.411   0.905  -0.522  0.00  0.00     0.002 A 
ATOM      3  C4  UNL d   1      -1.365   1.563   0.256  0.00  0.00     0.002 A 
ATOM      4  C5  UNL d   1      -1.783   1.009   1.465  0.00  0.00    -0.004 A 
ATOM      5  C6  UNL d   1      -1.251  -0.206   1.894  0.00  0.00     0.002 A 
ATOM      6  C7  UNL d   1      -0.298  -0.865   1.117  0.00  0.00     0.002 A 
ENDROOT
BRANCH   1   7
ATOM      7  C1  UNL d   1       1.196  -1.002  -0.913  0.00  0.00     0.055 C 
ATOM      8  C   UNL d   1       0.644  -2.226  -1.628  0.00  0.00     0.019 C 
ENDBRANCH   1   7
TORSDOF 1
ENDMDL
