MODEL 1
REMARK minimizedAffinity -3.98144746
REMARK minimizedRMSD -1
REMARK  1 active torsions:
REMARK  status: ('A' for Active; 'I' for Inactive)
REMARK    1  A    between atoms: C1_2  and  C2_3 
ROOT
ATOM      1  C2  UNL d   1      -0.376   0.640   0.350  0.00  0.00    -0.077 A 
ATOM      2  C3  UNL d   1      -0.168   1.799  -0.412  0.00  0.00     0.002 A 
ATOM      3  C4  UNL d   1      -0.823   2.987  -0.083  0.00  0.00     0.002 A 
ATOM      4  C5  UNL d   1      -1.685   3.030   1.011  0.00  0.00    -0.004 A 
ATOM      5  C6  UNL d   1      -1.899   1.883   1.773  0.00  0.00     0.002 A 
ATOM      6  C7  UNL d   1      -1.247   0.693   1.445  0.00  0.00     0.002 A 
ENDROOT
BRANCH   1   7
ATOM      7  C1  UNL d   1       0.367  -0.630   0.026  0.00  0.00     0.055 C 
ATOM      8  C   UNL d   1       1.413  -0.399  -1.056  0.00  0.00     0.019 C 
ENDBRANCH   1   7
TORSDOF 1
ENDMDL
