MODEL 1
REMARK minimizedAffinity -5.94244623
REMARK minimizedRMSD -1
REMARK  1 active torsions:
REMARK  status: ('A' for Active; 'I' for Inactive)
REMARK    1  A    between atoms: C1_2  and  C2_3 
ROOT
ATOM      1  C2  UNL d   1      -0.204   1.709  -0.220  0.00  0.00    -0.077 A 
ATOM      2  C3  UNL d   1      -0.065   0.788   0.828  0.00  0.00     0.002 A 
ATOM      3  C4  UNL d   1       0.624  -0.410   0.629  0.00  0.00     0.002 A 
ATOM      4  C5  UNL d   1       1.183  -0.695  -0.615  0.00  0.00    -0.004 A 
ATOM      5  C6  UNL d   1       1.049   0.213  -1.664  0.00  0.00     0.002 A 
ATOM      6  C7  UNL d   1       0.359   1.410  -1.467  0.00  0.00     0.002 A 
ENDROOT
BRANCH   1   7
ATOM      7  C1  UNL d   1      -0.905   3.023   0.007  0.00  0.00     0.055 C 
ATOM      8  C   UNL d   1      -1.742   2.992   1.277  0.00  0.00     0.019 C 
ENDBRANCH   1   7
TORSDOF 1
ENDMDL
