MODEL 1
REMARK minimizedAffinity -3.5544951
REMARK minimizedRMSD -1
REMARK  1 active torsions:
REMARK  status: ('A' for Active; 'I' for Inactive)
REMARK    1  A    between atoms: C1_2  and  C2_3 
ROOT
ATOM      1  C2  UNL d   1       0.157   0.084   0.162  0.00  0.00    -0.077 A 
ATOM      2  C3  UNL d   1      -0.531   1.289  -0.043  0.00  0.00     0.002 A 
ATOM      3  C4  UNL d   1      -1.143   1.943   1.028  0.00  0.00     0.002 A 
ATOM      4  C5  UNL d   1      -1.070   1.403   2.310  0.00  0.00    -0.004 A 
ATOM      5  C6  UNL d   1      -0.390   0.205   2.524  0.00  0.00     0.002 A 
ATOM      6  C7  UNL d   1       0.221  -0.452   1.454  0.00  0.00     0.002 A 
ENDROOT
BRANCH   1   7
ATOM      7  C1  UNL d   1       0.860  -0.598  -0.983  0.00  0.00     0.055 C 
ATOM      8  C   UNL d   1       0.747  -2.112  -0.879  0.00  0.00     0.019 C 
ENDBRANCH   1   7
TORSDOF 1
ENDMDL
