MODEL 1
REMARK minimizedAffinity -4.048491
REMARK minimizedRMSD -1
REMARK  1 active torsions:
REMARK  status: ('A' for Active; 'I' for Inactive)
REMARK    1  A    between atoms: C1_2  and  C2_3 
ROOT
ATOM      1  C2  UNL d   1      -0.863   1.308   0.091  0.00  0.00    -0.077 A 
ATOM      2  C3  UNL d   1      -0.358   0.049   0.445  0.00  0.00     0.002 A 
ATOM      3  C4  UNL d   1       0.792  -0.449  -0.170  0.00  0.00     0.002 A 
ATOM      4  C5  UNL d   1       1.448   0.306  -1.140  0.00  0.00    -0.004 A 
ATOM      5  C6  UNL d   1       0.952   1.558  -1.501  0.00  0.00     0.002 A 
ATOM      6  C7  UNL d   1      -0.198   2.057  -0.888  0.00  0.00     0.002 A 
ENDROOT
BRANCH   1   7
ATOM      7  C1  UNL d   1      -2.075   1.868   0.789  0.00  0.00     0.055 C 
ATOM      8  C   UNL d   1      -1.710   2.457   2.144  0.00  0.00     0.019 C 
ENDBRANCH   1   7
TORSDOF 1
ENDMDL
