MODEL 1
REMARK minimizedAffinity -4.45729637
REMARK minimizedRMSD -1
REMARK  1 active torsions:
REMARK  status: ('A' for Active; 'I' for Inactive)
REMARK    1  A    between atoms: C1_2  and  C2_3 
ROOT
ATOM      1  C2  UNL d   1      -0.148  -0.005  -0.012  0.00  0.00    -0.077 A 
ATOM      2  C3  UNL d   1      -0.584   1.034  -0.847  0.00  0.00     0.002 A 
ATOM      3  C4  UNL d   1      -1.444   2.019  -0.357  0.00  0.00     0.002 A 
ATOM      4  C5  UNL d   1      -1.871   1.977   0.968  0.00  0.00    -0.004 A 
ATOM      5  C6  UNL d   1      -1.444   0.947   1.805  0.00  0.00     0.002 A 
ATOM      6  C7  UNL d   1      -0.586  -0.039   1.318  0.00  0.00     0.002 A 
ENDROOT
BRANCH   1   7
ATOM      7  C1  UNL d   1       0.819  -1.041  -0.525  0.00  0.00     0.055 C 
ATOM      8  C   UNL d   1       0.182  -1.908  -1.601  0.00  0.00     0.019 C 
ENDBRANCH   1   7
TORSDOF 1
ENDMDL
