MODEL 1
REMARK minimizedAffinity 21.0501308
REMARK minimizedRMSD -1
REMARK  0 active torsions:
REMARK  status: ('A' for Active; 'I' for Inactive)
ROOT
ATOM      1  C1  DEN d   1      -3.858  -3.630   1.004  0.00  0.00     0.130 A 
ATOM      2  C2  DEN d   1      -2.423  -3.520   0.757  0.00  0.00    -0.031 A 
ATOM      3  C3  DEN d   1      -2.100  -2.092   0.569  0.00  0.00     0.027 A 
ATOM      4  C4  DEN d   1      -3.674  -0.049   0.643  0.00  0.00     0.027 A 
ATOM      5  C5  DEN d   1      -4.979   0.356   0.810  0.00  0.00    -0.003 A 
ATOM      6  C6  DEN d   1      -6.000  -0.533   1.017  0.00  0.00     0.001 A 
ATOM      7  C7  DEN d   1      -5.724  -1.872   1.109  0.00  0.00     0.017 A 
ATOM      8  C8  DEN d   1      -4.411  -2.290   0.934  0.00  0.00    -0.094 A 
ATOM      9  C9  DEN d   1      -3.392  -1.373   0.737  0.00  0.00    -0.072 A 
ENDROOT
TORSDOF 0
ENDMDL
