MODEL 1
REMARK minimizedAffinity 5.99737072
REMARK minimizedRMSD -1
REMARK  0 active torsions:
REMARK  status: ('A' for Active; 'I' for Inactive)
ROOT
ATOM      1  C1  DEN d   1      -0.183  -2.102   2.252  0.00  0.00     0.130 A 
ATOM      2  C2  DEN d   1      -0.338  -0.658   2.094  0.00  0.00    -0.031 A 
ATOM      3  C3  DEN d   1       0.572  -0.217   1.018  0.00  0.00     0.027 A 
ATOM      4  C4  DEN d   1       2.193  -1.621  -0.414  0.00  0.00     0.027 A 
ATOM      5  C5  DEN d   1       2.683  -2.889  -0.638  0.00  0.00    -0.003 A 
ATOM      6  C6  DEN d   1       2.280  -3.969   0.102  0.00  0.00     0.001 A 
ATOM      7  C7  DEN d   1       1.326  -3.809   1.072  0.00  0.00     0.017 A 
ATOM      8  C8  DEN d   1       0.834  -2.532   1.309  0.00  0.00    -0.094 A 
ATOM      9  C9  DEN d   1       1.245  -1.455   0.542  0.00  0.00    -0.072 A 
ENDROOT
TORSDOF 0
ENDMDL
