MODEL 1
REMARK minimizedAffinity -2.949224
REMARK minimizedRMSD -1
REMARK  0 active torsions:
REMARK  status: ('A' for Active; 'I' for Inactive)
ROOT
ATOM      1  C1  DEN d   1       0.049  -1.163   1.643  0.00  0.00     0.130 A 
ATOM      2  C2  DEN d   1       1.128  -0.463   0.952  0.00  0.00    -0.031 A 
ATOM      3  C3  DEN d   1       2.079  -1.474   0.448  0.00  0.00     0.027 A 
ATOM      4  C4  DEN d   1       1.982  -4.042   0.663  0.00  0.00     0.027 A 
ATOM      5  C5  DEN d   1       1.263  -5.099   1.174  0.00  0.00    -0.003 A 
ATOM      6  C6  DEN d   1       0.115  -4.918   1.901  0.00  0.00     0.001 A 
ATOM      7  C7  DEN d   1      -0.371  -3.653   2.098  0.00  0.00     0.017 A 
ATOM      8  C8  DEN d   1       0.354  -2.582   1.592  0.00  0.00    -0.094 A 
ATOM      9  C9  DEN d   1       1.505  -2.786   0.850  0.00  0.00    -0.072 A 
ENDROOT
TORSDOF 0
ENDMDL
