MODEL 1
REMARK minimizedAffinity 2.15930104
REMARK minimizedRMSD -1
REMARK  0 active torsions:
REMARK  status: ('A' for Active; 'I' for Inactive)
ROOT
ATOM      1  C1  DEN d   1      -0.455  -1.408   1.777  0.00  0.00     0.130 A 
ATOM      2  C2  DEN d   1      -0.251   0.037   1.752  0.00  0.00    -0.031 A 
ATOM      3  C3  DEN d   1       0.974   0.312   0.975  0.00  0.00     0.027 A 
ATOM      4  C4  DEN d   1       2.564  -1.351  -0.190  0.00  0.00     0.027 A 
ATOM      5  C5  DEN d   1       2.810  -2.684  -0.437  0.00  0.00    -0.003 A 
ATOM      6  C6  DEN d   1       2.010  -3.678   0.061  0.00  0.00     0.001 A 
ATOM      7  C7  DEN d   1       0.900  -3.353   0.795  0.00  0.00     0.017 A 
ATOM      8  C8  DEN d   1       0.650  -2.012   1.054  0.00  0.00    -0.094 A 
ATOM      9  C9  DEN d   1       1.463  -1.021   0.531  0.00  0.00    -0.072 A 
ENDROOT
TORSDOF 0
ENDMDL
