MODEL 1
REMARK minimizedAffinity 9.66218281
REMARK minimizedRMSD -1
REMARK  0 active torsions:
REMARK  status: ('A' for Active; 'I' for Inactive)
ROOT
ATOM      1  C1  DEN d   1       1.158  -3.210  -0.007  0.00  0.00     0.130 A 
ATOM      2  C2  DEN d   1       2.485  -2.881  -0.519  0.00  0.00    -0.031 A 
ATOM      3  C3  DEN d   1       2.829  -1.522  -0.057  0.00  0.00     0.027 A 
ATOM      4  C4  DEN d   1       1.444   0.096   1.398  0.00  0.00     0.027 A 
ATOM      5  C5  DEN d   1       0.250   0.266   2.062  0.00  0.00    -0.003 A 
ATOM      6  C6  DEN d   1      -0.731  -0.690   2.056  0.00  0.00     0.001 A 
ATOM      7  C7  DEN d   1      -0.518  -1.878   1.408  0.00  0.00     0.017 A 
ATOM      8  C8  DEN d   1       0.681  -2.053   0.729  0.00  0.00    -0.094 A 
ATOM      9  C9  DEN d   1       1.666  -1.080   0.758  0.00  0.00    -0.072 A 
ENDROOT
TORSDOF 0
ENDMDL
