MODEL 1
REMARK minimizedAffinity 4.48708725
REMARK minimizedRMSD -1
REMARK  0 active torsions:
REMARK  status: ('A' for Active; 'I' for Inactive)
ROOT
ATOM      1  C1  DEN d   1       1.555  -4.261   0.364  0.00  0.00     0.130 A 
ATOM      2  C2  DEN d   1       2.641  -3.476  -0.216  0.00  0.00    -0.031 A 
ATOM      3  C3  DEN d   1       2.360  -2.049   0.040  0.00  0.00     0.027 A 
ATOM      4  C4  DEN d   1       0.362  -0.985   1.276  0.00  0.00     0.027 A 
ATOM      5  C5  DEN d   1      -0.820  -1.246   1.933  0.00  0.00    -0.003 A 
ATOM      6  C6  DEN d   1      -1.306  -2.518   2.082  0.00  0.00     0.001 A 
ATOM      7  C7  DEN d   1      -0.585  -3.581   1.607  0.00  0.00     0.017 A 
ATOM      8  C8  DEN d   1       0.604  -3.325   0.937  0.00  0.00    -0.094 A 
ATOM      9  C9  DEN d   1       1.085  -2.033   0.807  0.00  0.00    -0.072 A 
ENDROOT
TORSDOF 0
ENDMDL
