MODEL 1
REMARK minimizedAffinity -2.66098976
REMARK minimizedRMSD -1
REMARK  0 active torsions:
REMARK  status: ('A' for Active; 'I' for Inactive)
ROOT
ATOM      1  C1  DEN d   1      -0.140  -2.156   2.301  0.00  0.00     0.130 A 
ATOM      2  C2  DEN d   1      -0.555  -0.801   1.947  0.00  0.00    -0.031 A 
ATOM      3  C3  DEN d   1       0.186  -0.398   0.736  0.00  0.00     0.027 A 
ATOM      4  C4  DEN d   1       1.924  -1.735  -0.623  0.00  0.00     0.027 A 
ATOM      5  C5  DEN d   1       2.611  -2.926  -0.703  0.00  0.00    -0.003 A 
ATOM      6  C6  DEN d   1       2.455  -3.923   0.224  0.00  0.00     0.001 A 
ATOM      7  C7  DEN d   1       1.559  -3.764   1.247  0.00  0.00     0.017 A 
ATOM      8  C8  DEN d   1       0.868  -2.563   1.339  0.00  0.00    -0.094 A 
ATOM      9  C9  DEN d   1       1.030  -1.572   0.385  0.00  0.00    -0.072 A 
ENDROOT
TORSDOF 0
ENDMDL
