MODEL 1
REMARK minimizedAffinity 1.98709738
REMARK minimizedRMSD -1
REMARK  0 active torsions:
REMARK  status: ('A' for Active; 'I' for Inactive)
ROOT
ATOM      1  C1  DEN d   1       2.560  -3.062   0.208  0.00  0.00     0.130 A 
ATOM      2  C2  DEN d   1       2.920  -4.027   1.244  0.00  0.00    -0.031 A 
ATOM      3  C3  DEN d   1       1.955  -3.888   2.352  0.00  0.00     0.027 A 
ATOM      4  C4  DEN d   1      -0.054  -2.284   2.562  0.00  0.00     0.027 A 
ATOM      5  C5  DEN d   1      -0.752  -1.272   1.942  0.00  0.00    -0.003 A 
ATOM      6  C6  DEN d   1      -0.378  -0.766   0.725  0.00  0.00     0.001 A 
ATOM      7  C7  DEN d   1       0.698  -1.303   0.069  0.00  0.00     0.017 A 
ATOM      8  C8  DEN d   1       1.411  -2.319   0.692  0.00  0.00    -0.094 A 
ATOM      9  C9  DEN d   1       1.009  -2.825   1.916  0.00  0.00    -0.072 A 
ENDROOT
TORSDOF 0
ENDMDL
