MODEL 1
REMARK minimizedAffinity 3.98783207
REMARK minimizedRMSD -1
REMARK  0 active torsions:
REMARK  status: ('A' for Active; 'I' for Inactive)
ROOT
ATOM      1  C1  DEN d   1       2.252  -3.446   0.411  0.00  0.00     0.130 A 
ATOM      2  C2  DEN d   1       2.273  -4.885   0.658  0.00  0.00    -0.031 A 
ATOM      3  C3  DEN d   1       1.097  -5.223   1.485  0.00  0.00     0.027 A 
ATOM      4  C4  DEN d   1      -0.746  -3.667   2.399  0.00  0.00     0.027 A 
ATOM      5  C5  DEN d   1      -1.184  -2.363   2.462  0.00  0.00    -0.003 A 
ATOM      6  C6  DEN d   1      -0.496  -1.332   1.879  0.00  0.00     0.001 A 
ATOM      7  C7  DEN d   1       0.645  -1.594   1.169  0.00  0.00     0.017 A 
ATOM      8  C8  DEN d   1       1.098  -2.906   1.107  0.00  0.00    -0.094 A 
ATOM      9  C9  DEN d   1       0.381  -3.935   1.693  0.00  0.00    -0.072 A 
ENDROOT
TORSDOF 0
ENDMDL
