MODEL 1
REMARK minimizedAffinity -4.14143229
REMARK minimizedRMSD -1
REMARK  1 active torsions:
REMARK  status: ('A' for Active; 'I' for Inactive)
REMARK    1  A    between atoms: N_2  and  C1_3 
ROOT
ATOM      1  C1  UNL d   1      -0.123  -0.490   0.469  0.00  0.00     0.143 A 
ATOM      2  C2  UNL d   1      -1.167  -1.203   1.067  0.00  0.00    -0.057 A 
ATOM      3  C3  UNL d   1      -1.254  -2.596   0.952  0.00  0.00     0.033 A 
ATOM      4  C4  UNL d   1      -0.312  -3.299   0.210  0.00  0.00    -0.042 A 
ATOM      5  C5  UNL d   1       0.721  -2.608  -0.415  0.00  0.00     0.033 A 
ATOM      6  C6  UNL d   1       0.806  -1.218  -0.291  0.00  0.00    -0.057 A 
ENDROOT
BRANCH   1   7
ATOM      7  N   UNL d   1      -0.036   0.905   0.464  0.00  0.00    -0.732 N 
ATOM      8  C   UNL d   1       0.356   1.615  -0.734  0.00  0.00     0.284 C 
ATOM      9  H3  UNL d   1      -0.798   1.343   0.976  0.00  0.00     0.395 HD
ENDBRANCH   1   7
TORSDOF 1
ENDMDL
