MODEL 1
REMARK minimizedAffinity -2.60975552
REMARK minimizedRMSD -1
REMARK  1 active torsions:
REMARK  status: ('A' for Active; 'I' for Inactive)
REMARK    1  A    between atoms: N_2  and  C1_3 
ROOT
ATOM      1  C1  UNL d   1       0.511  -1.204  -0.118  0.00  0.00     0.143 A 
ATOM      2  C2  UNL d   1      -0.200  -0.409   0.787  0.00  0.00    -0.057 A 
ATOM      3  C3  UNL d   1      -0.566   0.904   0.468  0.00  0.00     0.033 A 
ATOM      4  C4  UNL d   1      -0.200   1.457  -0.755  0.00  0.00    -0.042 A 
ATOM      5  C5  UNL d   1       0.529   0.694  -1.659  0.00  0.00     0.033 A 
ATOM      6  C6  UNL d   1       0.886  -0.619  -1.338  0.00  0.00    -0.057 A 
ENDROOT
BRANCH   1   7
ATOM      7  N   UNL d   1       0.989  -2.483   0.179  0.00  0.00    -0.732 N 
ATOM      8  C   UNL d   1       0.074  -3.551   0.518  0.00  0.00     0.284 C 
ATOM      9  H3  UNL d   1       1.749  -2.766  -0.436  0.00  0.00     0.395 HD
ENDBRANCH   1   7
TORSDOF 1
ENDMDL
