MODEL 1
REMARK minimizedAffinity -4.17061806
REMARK minimizedRMSD -1
REMARK  1 active torsions:
REMARK  status: ('A' for Active; 'I' for Inactive)
REMARK    1  A    between atoms: N_2  and  C1_3 
ROOT
ATOM      1  C1  UNL d   1       0.750  -1.578  -0.553  0.00  0.00     0.143 A 
ATOM      2  C2  UNL d   1       1.054  -1.598  -1.919  0.00  0.00    -0.057 A 
ATOM      3  C3  UNL d   1       1.009  -0.429  -2.689  0.00  0.00     0.033 A 
ATOM      4  C4  UNL d   1       0.629   0.778  -2.111  0.00  0.00    -0.042 A 
ATOM      5  C5  UNL d   1       0.298   0.816  -0.762  0.00  0.00     0.033 A 
ATOM      6  C6  UNL d   1       0.352  -0.353   0.004  0.00  0.00    -0.057 A 
ENDROOT
BRANCH   1   7
ATOM      7  N   UNL d   1       0.680  -2.723   0.244  0.00  0.00    -0.732 N 
ATOM      8  C   UNL d   1      -0.599  -3.300   0.597  0.00  0.00     0.284 C 
ATOM      9  H3  UNL d   1       1.393  -3.408   0.003  0.00  0.00     0.395 HD
ENDBRANCH   1   7
TORSDOF 1
ENDMDL
