MODEL 1
REMARK minimizedAffinity -4.71357918
REMARK minimizedRMSD -1
REMARK  1 active torsions:
REMARK  status: ('A' for Active; 'I' for Inactive)
REMARK    1  A    between atoms: N_2  and  C1_3 
ROOT
ATOM      1  C1  UNL d   1       0.208   0.152   0.144  0.00  0.00     0.143 A 
ATOM      2  C2  UNL d   1      -0.381  -0.492   1.237  0.00  0.00    -0.057 A 
ATOM      3  C3  UNL d   1      -0.604  -1.874   1.233  0.00  0.00     0.033 A 
ATOM      4  C4  UNL d   1      -0.267  -2.635   0.118  0.00  0.00    -0.042 A 
ATOM      5  C5  UNL d   1       0.296  -2.013  -0.990  0.00  0.00     0.033 A 
ATOM      6  C6  UNL d   1       0.523  -0.633  -0.977  0.00  0.00    -0.057 A 
ENDROOT
BRANCH   1   7
ATOM      7  N   UNL d   1       0.365   1.537   0.048  0.00  0.00    -0.732 N 
ATOM      8  C   UNL d   1       1.685   2.128   0.011  0.00  0.00     0.284 C 
ATOM      9  H3  UNL d   1      -0.298   1.960  -0.597  0.00  0.00     0.395 HD
ENDBRANCH   1   7
TORSDOF 1
ENDMDL
