MODEL 1
REMARK minimizedAffinity 0.526830256
REMARK minimizedRMSD -1
REMARK  1 active torsions:
REMARK  status: ('A' for Active; 'I' for Inactive)
REMARK    1  A    between atoms: N_2  and  C1_3 
ROOT
ATOM      1  C1  UNL d   1       1.194   1.292   0.236  0.00  0.00     0.143 A 
ATOM      2  C2  UNL d   1      -0.086   1.319   0.801  0.00  0.00    -0.057 A 
ATOM      3  C3  UNL d   1      -0.982   0.259   0.620  0.00  0.00     0.033 A 
ATOM      4  C4  UNL d   1      -0.623  -0.838  -0.157  0.00  0.00    -0.042 A 
ATOM      5  C5  UNL d   1       0.634  -0.874  -0.749  0.00  0.00     0.033 A 
ATOM      6  C6  UNL d   1       1.527   0.184  -0.559  0.00  0.00    -0.057 A 
ENDROOT
BRANCH   1   7
ATOM      7  N   UNL d   1       2.094   2.359   0.298  0.00  0.00    -0.732 N 
ATOM      8  C   UNL d   1       1.935   3.401   1.290  0.00  0.00     0.284 C 
ATOM      9  H3  UNL d   1       3.057   2.063   0.156  0.00  0.00     0.395 HD
ENDBRANCH   1   7
TORSDOF 1
ENDMDL
