MODEL 1
REMARK minimizedAffinity -2.68588781
REMARK minimizedRMSD -1
REMARK  1 active torsions:
REMARK  status: ('A' for Active; 'I' for Inactive)
REMARK    1  A    between atoms: N_2  and  C1_3 
ROOT
ATOM      1  C1  UNL d   1      -0.150   0.240  -0.461  0.00  0.00     0.143 A 
ATOM      2  C2  UNL d   1       0.599  -0.789  -1.042  0.00  0.00    -0.057 A 
ATOM      3  C3  UNL d   1       0.473  -2.114  -0.607  0.00  0.00     0.033 A 
ATOM      4  C4  UNL d   1      -0.387  -2.430   0.439  0.00  0.00    -0.042 A 
ATOM      5  C5  UNL d   1      -1.123  -1.420   1.049  0.00  0.00     0.033 A 
ATOM      6  C6  UNL d   1      -0.997  -0.100   0.606  0.00  0.00    -0.057 A 
ENDROOT
BRANCH   1   7
ATOM      7  N   UNL d   1       0.003   1.591  -0.781  0.00  0.00    -0.732 N 
ATOM      8  C   UNL d   1       0.947   2.417  -0.060  0.00  0.00     0.284 C 
ATOM      9  H3  UNL d   1      -0.011   1.755  -1.785  0.00  0.00     0.395 HD
ENDBRANCH   1   7
TORSDOF 1
ENDMDL
