MODEL 1
REMARK minimizedAffinity -3.50686741
REMARK minimizedRMSD -1
REMARK  1 active torsions:
REMARK  status: ('A' for Active; 'I' for Inactive)
REMARK    1  A    between atoms: N_2  and  C1_3 
ROOT
ATOM      1  C1  UNL d   1      -0.450  -1.953   0.309  0.00  0.00     0.143 A 
ATOM      2  C2  UNL d   1      -0.605  -3.209  -0.288  0.00  0.00    -0.057 A 
ATOM      3  C3  UNL d   1      -0.393  -3.393  -1.660  0.00  0.00     0.033 A 
ATOM      4  C4  UNL d   1      -0.049  -2.313  -2.467  0.00  0.00    -0.042 A 
ATOM      5  C5  UNL d   1       0.086  -1.051  -1.900  0.00  0.00     0.033 A 
ATOM      6  C6  UNL d   1      -0.120  -0.876  -0.528  0.00  0.00    -0.057 A 
ENDROOT
BRANCH   1   7
ATOM      7  N   UNL d   1      -0.742  -1.688   1.649  0.00  0.00    -0.732 N 
ATOM      8  C   UNL d   1      -1.181  -0.372   2.060  0.00  0.00     0.284 C 
ATOM      9  H3  UNL d   1      -1.242  -2.452   2.096  0.00  0.00     0.395 HD
ENDBRANCH   1   7
TORSDOF 1
ENDMDL
