MODEL 1
REMARK minimizedAffinity -4.30523777
REMARK minimizedRMSD -1
REMARK  1 active torsions:
REMARK  status: ('A' for Active; 'I' for Inactive)
REMARK    1  A    between atoms: N_2  and  C1_3 
ROOT
ATOM      1  C1  UNL d   1      -0.031  -0.335  -0.052  0.00  0.00     0.143 A 
ATOM      2  C2  UNL d   1       0.879  -1.012  -0.872  0.00  0.00    -0.057 A 
ATOM      3  C3  UNL d   1       1.108  -2.385  -0.723  0.00  0.00     0.033 A 
ATOM      4  C4  UNL d   1       0.451  -3.102   0.271  0.00  0.00    -0.042 A 
ATOM      5  C5  UNL d   1      -0.438  -2.446   1.114  0.00  0.00     0.033 A 
ATOM      6  C6  UNL d   1      -0.668  -1.076   0.956  0.00  0.00    -0.057 A 
ENDROOT
BRANCH   1   7
ATOM      7  N   UNL d   1      -0.229   1.047  -0.086  0.00  0.00    -0.732 N 
ATOM      8  C   UNL d   1       0.843   1.955   0.263  0.00  0.00     0.284 C 
ATOM      9  H3  UNL d   1      -0.778   1.341  -0.890  0.00  0.00     0.395 HD
ENDBRANCH   1   7
TORSDOF 1
ENDMDL
