MODEL 1
REMARK minimizedAffinity -4.25278521
REMARK minimizedRMSD -1
REMARK  1 active torsions:
REMARK  status: ('A' for Active; 'I' for Inactive)
REMARK    1  A    between atoms: N_2  and  C1_3 
ROOT
ATOM      1  C1  UNL d   1       0.022   0.467   0.564  0.00  0.00     0.143 A 
ATOM      2  C2  UNL d   1      -1.076  -0.043   1.264  0.00  0.00    -0.057 A 
ATOM      3  C3  UNL d   1      -1.356  -1.415   1.277  0.00  0.00     0.033 A 
ATOM      4  C4  UNL d   1      -0.556  -2.301   0.563  0.00  0.00    -0.042 A 
ATOM      5  C5  UNL d   1       0.527  -1.814  -0.160  0.00  0.00     0.033 A 
ATOM      6  C6  UNL d   1       0.805  -0.443  -0.163  0.00  0.00    -0.057 A 
ENDROOT
BRANCH   1   7
ATOM      7  N   UNL d   1       0.296   1.830   0.432  0.00  0.00    -0.732 N 
ATOM      8  C   UNL d   1       1.659   2.315   0.463  0.00  0.00     0.284 C 
ATOM      9  H3  UNL d   1      -0.288   2.278  -0.271  0.00  0.00     0.395 HD
ENDBRANCH   1   7
TORSDOF 1
ENDMDL
