MODEL 1
REMARK minimizedAffinity -3.12913585
REMARK minimizedRMSD -1
REMARK  1 active torsions:
REMARK  status: ('A' for Active; 'I' for Inactive)
REMARK    1  A    between atoms: N_2  and  C1_3 
ROOT
ATOM      1  C1  UNL d   1      -0.269   0.203  -0.038  0.00  0.00     0.143 A 
ATOM      2  C2  UNL d   1      -1.387  -0.476   0.458  0.00  0.00    -0.057 A 
ATOM      3  C3  UNL d   1      -1.333  -1.843   0.758  0.00  0.00     0.033 A 
ATOM      4  C4  UNL d   1      -0.163  -2.562   0.539  0.00  0.00    -0.042 A 
ATOM      5  C5  UNL d   1       0.954  -1.913   0.024  0.00  0.00     0.033 A 
ATOM      6  C6  UNL d   1       0.894  -0.547  -0.268  0.00  0.00    -0.057 A 
ENDROOT
BRANCH   1   7
ATOM      7  N   UNL d   1      -0.289   1.539  -0.448  0.00  0.00    -0.732 N 
ATOM      8  C   UNL d   1       0.853   2.397  -0.219  0.00  0.00     0.284 C 
ATOM      9  H3  UNL d   1      -0.722   1.658  -1.361  0.00  0.00     0.395 HD
ENDBRANCH   1   7
TORSDOF 1
ENDMDL
