MODEL 1
REMARK minimizedAffinity -3.27141333
REMARK minimizedRMSD -1
REMARK  0 active torsions:
REMARK  status: ('A' for Active; 'I' for Inactive)
ROOT
ATOM      1  C   UNL d   1      -0.864  -0.522   3.469  0.00  0.00     0.023 A 
ATOM      2  C1  UNL d   1       0.443  -0.864   3.122  0.00  0.00     0.003 A 
ATOM      3  C2  UNL d   1       0.836  -0.856   1.783  0.00  0.00     0.048 A 
ATOM      4  C3  UNL d   1      -0.083  -0.504   0.795  0.00  0.00     0.023 A 
ATOM      5  C4  UNL d   1      -1.392  -0.160   1.137  0.00  0.00     0.048 A 
ATOM      6  C5  UNL d   1      -1.780  -0.171   2.478  0.00  0.00     0.003 A 
ATOM      7  I   UNL d   1       0.500  -0.491  -1.200  0.00  0.00    -0.146 I 
ENDROOT
TORSDOF 0
ENDMDL
