MODEL 1
REMARK minimizedAffinity -3.02620625
REMARK minimizedRMSD -1
REMARK  0 active torsions:
REMARK  status: ('A' for Active; 'I' for Inactive)
ROOT
ATOM      1  C   UNL d   1       0.062  -0.359   2.895  0.00  0.00     0.023 A 
ATOM      2  C1  UNL d   1      -1.040  -0.861   2.204  0.00  0.00     0.003 A 
ATOM      3  C2  UNL d   1      -1.008  -0.957   0.811  0.00  0.00     0.048 A 
ATOM      4  C3  UNL d   1       0.130  -0.550   0.116  0.00  0.00     0.023 A 
ATOM      5  C4  UNL d   1       1.236  -0.048   0.804  0.00  0.00     0.048 A 
ATOM      6  C5  UNL d   1       1.199   0.047   2.196  0.00  0.00     0.003 A 
ATOM      7  I   UNL d   1       0.181  -0.692  -1.957  0.00  0.00    -0.146 I 
ENDROOT
TORSDOF 0
ENDMDL
