MODEL 1
REMARK minimizedAffinity -2.96064615
REMARK minimizedRMSD -1
REMARK  0 active torsions:
REMARK  status: ('A' for Active; 'I' for Inactive)
ROOT
ATOM      1  C   UNL d   1      -0.587  -0.804   3.560  0.00  0.00     0.023 A 
ATOM      2  C1  UNL d   1      -1.271  -1.501   2.563  0.00  0.00     0.003 A 
ATOM      3  C2  UNL d   1      -1.265  -1.028   1.249  0.00  0.00     0.048 A 
ATOM      4  C3  UNL d   1      -0.572   0.142   0.938  0.00  0.00     0.023 A 
ATOM      5  C4  UNL d   1       0.114   0.841   1.932  0.00  0.00     0.048 A 
ATOM      6  C5  UNL d   1       0.105   0.366   3.244  0.00  0.00     0.003 A 
ATOM      7  I   UNL d   1      -0.561   0.847  -1.017  0.00  0.00    -0.146 I 
ENDROOT
TORSDOF 0
ENDMDL
