MODEL 1
REMARK minimizedAffinity 4.71563196
REMARK minimizedRMSD -1
REMARK  0 active torsions:
REMARK  status: ('A' for Active; 'I' for Inactive)
ROOT
ATOM      1  C   UNL d   1       1.853   1.291   0.220  0.00  0.00     0.023 A 
ATOM      2  C1  UNL d   1       0.656   0.632  -0.057  0.00  0.00     0.003 A 
ATOM      3  C2  UNL d   1      -0.209   0.285   0.982  0.00  0.00     0.048 A 
ATOM      4  C3  UNL d   1       0.128   0.602   2.298  0.00  0.00     0.023 A 
ATOM      5  C4  UNL d   1       1.325   1.263   2.580  0.00  0.00     0.048 A 
ATOM      6  C5  UNL d   1       2.187   1.607   1.537  0.00  0.00     0.003 A 
ATOM      7  I   UNL d   1      -1.158   0.088   3.847  0.00  0.00    -0.146 I 
ENDROOT
TORSDOF 0
ENDMDL
