MODEL 1
REMARK minimizedAffinity -1.97445643
REMARK minimizedRMSD -1
REMARK  0 active torsions:
REMARK  status: ('A' for Active; 'I' for Inactive)
ROOT
ATOM      1  C   UNL d   1      -1.836  -0.138   0.756  0.00  0.00     0.023 A 
ATOM      2  C1  UNL d   1      -1.786   0.657  -0.388  0.00  0.00     0.003 A 
ATOM      3  C2  UNL d   1      -0.875   0.364  -1.405  0.00  0.00     0.048 A 
ATOM      4  C3  UNL d   1      -0.018  -0.727  -1.271  0.00  0.00     0.023 A 
ATOM      5  C4  UNL d   1      -0.065  -1.527  -0.128  0.00  0.00     0.048 A 
ATOM      6  C5  UNL d   1      -0.977  -1.229   0.886  0.00  0.00     0.003 A 
ATOM      7  I   UNL d   1       1.339  -1.166  -2.783  0.00  0.00    -0.146 I 
ENDROOT
TORSDOF 0
ENDMDL
