MODEL 1
REMARK minimizedAffinity 0.671080768
REMARK minimizedRMSD -1
REMARK  0 active torsions:
REMARK  status: ('A' for Active; 'I' for Inactive)
ROOT
ATOM      1  C   UNL d   1      -0.977   0.197  -1.103  0.00  0.00     0.023 A 
ATOM      2  C1  UNL d   1      -2.072   0.488  -0.289  0.00  0.00     0.003 A 
ATOM      3  C2  UNL d   1      -1.887   0.729   1.074  0.00  0.00     0.048 A 
ATOM      4  C3  UNL d   1      -0.603   0.679   1.616  0.00  0.00     0.023 A 
ATOM      5  C4  UNL d   1       0.496   0.390   0.806  0.00  0.00     0.048 A 
ATOM      6  C5  UNL d   1       0.306   0.149  -0.556  0.00  0.00     0.003 A 
ATOM      7  I   UNL d   1      -0.325   1.038   3.645  0.00  0.00    -0.146 I 
ENDROOT
TORSDOF 0
ENDMDL
