MODEL 1
REMARK minimizedAffinity -2.6158824
REMARK minimizedRMSD -1
REMARK  0 active torsions:
REMARK  status: ('A' for Active; 'I' for Inactive)
ROOT
ATOM      1  C   UNL d   1       0.029  -0.009   2.979  0.00  0.00     0.023 A 
ATOM      2  C1  UNL d   1       1.112   0.557   2.307  0.00  0.00     0.003 A 
ATOM      3  C2  UNL d   1       1.164   0.525   0.912  0.00  0.00     0.048 A 
ATOM      4  C3  UNL d   1       0.129  -0.073   0.195  0.00  0.00     0.023 A 
ATOM      5  C4  UNL d   1      -0.958  -0.640   0.863  0.00  0.00     0.048 A 
ATOM      6  C5  UNL d   1      -1.005  -0.607   2.258  0.00  0.00     0.003 A 
ATOM      7  I   UNL d   1       0.203  -0.121  -1.881  0.00  0.00    -0.146 I 
ENDROOT
TORSDOF 0
ENDMDL
