MODEL 1
REMARK minimizedAffinity -2.3088479
REMARK minimizedRMSD -1
REMARK  0 active torsions:
REMARK  status: ('A' for Active; 'I' for Inactive)
ROOT
ATOM      1  C   UNL d   1      -0.040  -0.151   3.412  0.00  0.00     0.023 A 
ATOM      2  C1  UNL d   1      -0.645  -1.212   2.739  0.00  0.00     0.003 A 
ATOM      3  C2  UNL d   1      -0.543  -1.309   1.350  0.00  0.00     0.048 A 
ATOM      4  C3  UNL d   1       0.166  -0.341   0.640  0.00  0.00     0.023 A 
ATOM      5  C4  UNL d   1       0.775   0.723   1.309  0.00  0.00     0.048 A 
ATOM      6  C5  UNL d   1       0.669   0.815   2.698  0.00  0.00     0.003 A 
ATOM      7  I   UNL d   1       0.320  -0.482  -1.428  0.00  0.00    -0.146 I 
ENDROOT
TORSDOF 0
ENDMDL
