MODEL 1
REMARK minimizedAffinity 2.24035096
REMARK minimizedRMSD -1
REMARK  3 active torsions:
REMARK  status: ('A' for Active; 'I' for Inactive)
REMARK    1  A    between atoms: C3'_2  and  C2'_3 
REMARK    2  A    between atoms: C2'_3  and  C1'_4 
REMARK    3  A    between atoms: C1'_4  and  C1_5 
ROOT
ATOM      1  C1  N4B d   1       1.877  -0.678  -0.208  0.00  0.00    -0.075 A 
ATOM      2  C2  N4B d   1       1.336   0.045   0.878  0.00  0.00     0.002 A 
ATOM      3  C3  N4B d   1       0.168  -0.373   1.467  0.00  0.00     0.002 A 
ATOM      4  C4  N4B d   1      -0.484  -1.494   0.977  0.00  0.00    -0.004 A 
ATOM      5  C5  N4B d   1       0.058  -2.202  -0.056  0.00  0.00     0.002 A 
ATOM      6  C6  N4B d   1       1.234  -1.796  -0.655  0.00  0.00     0.002 A 
ENDROOT
BRANCH   1   7
ATOM      7  C1' N4B d   1       3.106  -0.211  -0.939  0.00  0.00     0.057 C 
BRANCH   7   8
ATOM      8  C2' N4B d   1       2.686   0.497  -2.223  0.00  0.00     0.009 C 
BRANCH   8   9
ATOM      9  C3' N4B d   1       3.808   1.345  -2.798  0.00  0.00     0.004 C 
ATOM     10  C4' N4B d   1       4.025   2.617  -2.034  0.00  0.00     0.003 C 
ENDBRANCH   8   9
ENDBRANCH   7   8
ENDBRANCH   1   7
TORSDOF 3
ENDMDL
