MODEL 1
REMARK minimizedAffinity -3.09643102
REMARK minimizedRMSD -1
REMARK  3 active torsions:
REMARK  status: ('A' for Active; 'I' for Inactive)
REMARK    1  A    between atoms: C3'_2  and  C2'_3 
REMARK    2  A    between atoms: C2'_3  and  C1'_4 
REMARK    3  A    between atoms: C1'_4  and  C1_5 
ROOT
ATOM      1  C1  N4B d   1       0.561  -1.988   0.441  0.00  0.00    -0.075 A 
ATOM      2  C2  N4B d   1       1.426  -0.883   0.603  0.00  0.00     0.002 A 
ATOM      3  C3  N4B d   1       2.762  -1.008   0.311  0.00  0.00     0.002 A 
ATOM      4  C4  N4B d   1       3.257  -2.228  -0.125  0.00  0.00    -0.004 A 
ATOM      5  C5  N4B d   1       2.411  -3.283  -0.304  0.00  0.00     0.002 A 
ATOM      6  C6  N4B d   1       1.065  -3.170  -0.017  0.00  0.00     0.002 A 
ENDROOT
BRANCH   1   7
ATOM      7  C1' N4B d   1      -0.891  -1.923   0.830  0.00  0.00     0.057 C 
BRANCH   7   8
ATOM      8  C2' N4B d   1      -1.135  -0.658   1.646  0.00  0.00     0.009 C 
BRANCH   8   9
ATOM      9  C3' N4B d   1      -2.234   0.202   1.045  0.00  0.00     0.004 C 
ATOM     10  C4' N4B d   1      -2.216   1.611   1.560  0.00  0.00     0.003 C 
ENDBRANCH   8   9
ENDBRANCH   7   8
ENDBRANCH   1   7
TORSDOF 3
ENDMDL
