MODEL 1
REMARK minimizedAffinity 3.10141826
REMARK minimizedRMSD -1
REMARK  3 active torsions:
REMARK  status: ('A' for Active; 'I' for Inactive)
REMARK    1  A    between atoms: C3'_2  and  C2'_3 
REMARK    2  A    between atoms: C2'_3  and  C1'_4 
REMARK    3  A    between atoms: C1'_4  and  C1_5 
ROOT
ATOM      1  C1  N4B d   1       1.145  -0.478   1.494  0.00  0.00    -0.075 A 
ATOM      2  C2  N4B d   1       1.040  -1.645   0.705  0.00  0.00     0.002 A 
ATOM      3  C3  N4B d   1      -0.183  -2.037   0.219  0.00  0.00     0.002 A 
ATOM      4  C4  N4B d   1      -1.313  -1.292   0.522  0.00  0.00    -0.004 A 
ATOM      5  C5  N4B d   1      -1.199  -0.152   1.264  0.00  0.00     0.002 A 
ATOM      6  C6  N4B d   1       0.024   0.256   1.756  0.00  0.00     0.002 A 
ENDROOT
BRANCH   1   7
ATOM      7  C1' N4B d   1       2.446  -0.057   2.119  0.00  0.00     0.057 C 
BRANCH   7   8
ATOM      8  C2' N4B d   1       2.936   1.220   1.444  0.00  0.00     0.009 C 
BRANCH   8   9
ATOM      9  C3' N4B d   1       3.459   2.231   2.450  0.00  0.00     0.004 C 
ATOM     10  C4' N4B d   1       3.337   3.646   1.969  0.00  0.00     0.003 C 
ENDBRANCH   8   9
ENDBRANCH   7   8
ENDBRANCH   1   7
TORSDOF 3
ENDMDL
