MODEL 1
REMARK minimizedAffinity 1.19151533
REMARK minimizedRMSD -1
REMARK  3 active torsions:
REMARK  status: ('A' for Active; 'I' for Inactive)
REMARK    1  A    between atoms: C3'_2  and  C2'_3 
REMARK    2  A    between atoms: C2'_3  and  C1'_4 
REMARK    3  A    between atoms: C1'_4  and  C1_5 
ROOT
ATOM      1  C1  N4B d   1       1.964   0.223   1.399  0.00  0.00    -0.075 A 
ATOM      2  C2  N4B d   1       0.631   0.244   1.865  0.00  0.00     0.002 A 
ATOM      3  C3  N4B d   1      -0.328  -0.512   1.237  0.00  0.00     0.002 A 
ATOM      4  C4  N4B d   1       0.017  -1.279   0.135  0.00  0.00    -0.004 A 
ATOM      5  C5  N4B d   1       1.312  -1.314  -0.294  0.00  0.00     0.002 A 
ATOM      6  C6  N4B d   1       2.287  -0.562   0.330  0.00  0.00     0.002 A 
ENDROOT
BRANCH   1   7
ATOM      7  C1' N4B d   1       3.030   1.099   1.999  0.00  0.00     0.057 C 
BRANCH   7   8
ATOM      8  C2' N4B d   1       3.106   2.405   1.214  0.00  0.00     0.009 C 
BRANCH   8   9
ATOM      9  C3' N4B d   1       3.731   3.523   2.030  0.00  0.00     0.004 C 
ATOM     10  C4' N4B d   1       3.572   4.869   1.388  0.00  0.00     0.003 C 
ENDBRANCH   8   9
ENDBRANCH   7   8
ENDBRANCH   1   7
TORSDOF 3
ENDMDL
