MODEL 1
REMARK minimizedAffinity 11.5699482
REMARK minimizedRMSD -1
REMARK  3 active torsions:
REMARK  status: ('A' for Active; 'I' for Inactive)
REMARK    1  A    between atoms: C3'_2  and  C2'_3 
REMARK    2  A    between atoms: C2'_3  and  C1'_4 
REMARK    3  A    between atoms: C1'_4  and  C1_5 
ROOT
ATOM      1  C1  N4B d   1      -0.931  -1.176   0.429  0.00  0.00    -0.075 A 
ATOM      2  C2  N4B d   1      -0.302  -0.259   1.299  0.00  0.00     0.002 A 
ATOM      3  C3  N4B d   1       1.054  -0.326   1.504  0.00  0.00     0.002 A 
ATOM      4  C4  N4B d   1       1.796  -1.309   0.867  0.00  0.00    -0.004 A 
ATOM      5  C5  N4B d   1       1.185  -2.176   0.008  0.00  0.00     0.002 A 
ATOM      6  C6  N4B d   1      -0.177  -2.117  -0.210  0.00  0.00     0.002 A 
ENDROOT
BRANCH   1   7
ATOM      7  C1' N4B d   1      -2.424  -1.197   0.240  0.00  0.00     0.057 C 
BRANCH   7   8
ATOM      8  C2' N4B d   1      -2.950  -2.591   0.564  0.00  0.00     0.009 C 
BRANCH   8   9
ATOM      9  C3' N4B d   1      -4.314  -2.543   1.232  0.00  0.00     0.004 C 
ATOM     10  C4' N4B d   1      -4.990  -3.881   1.271  0.00  0.00     0.003 C 
ENDBRANCH   8   9
ENDBRANCH   7   8
ENDBRANCH   1   7
TORSDOF 3
ENDMDL
