MODEL 1
REMARK minimizedAffinity -4.8042388
REMARK minimizedRMSD -1
REMARK  3 active torsions:
REMARK  status: ('A' for Active; 'I' for Inactive)
REMARK    1  A    between atoms: C3'_2  and  C2'_3 
REMARK    2  A    between atoms: C2'_3  and  C1'_4 
REMARK    3  A    between atoms: C1'_4  and  C1_5 
ROOT
ATOM      1  C1  N4B d   1       1.145  -0.368   0.834  0.00  0.00    -0.075 A 
ATOM      2  C2  N4B d   1       0.910  -1.420   1.746  0.00  0.00     0.002 A 
ATOM      3  C3  N4B d   1       1.968  -2.067   2.336  0.00  0.00     0.002 A 
ATOM      4  C4  N4B d   1       3.264  -1.694   2.015  0.00  0.00    -0.004 A 
ATOM      5  C5  N4B d   1       3.483  -0.660   1.152  0.00  0.00     0.002 A 
ATOM      6  C6  N4B d   1       2.429   0.002   0.556  0.00  0.00     0.002 A 
ENDROOT
BRANCH   1   7
ATOM      7  C1' N4B d   1       0.022   0.312   0.099  0.00  0.00     0.057 C 
BRANCH   7   8
ATOM      8  C2' N4B d   1      -0.047   1.773   0.532  0.00  0.00     0.009 C 
BRANCH   8   9
ATOM      9  C3' N4B d   1      -1.463   2.194   0.888  0.00  0.00     0.004 C 
ATOM     10  C4' N4B d   1      -1.518   3.524   1.578  0.00  0.00     0.003 C 
ENDBRANCH   8   9
ENDBRANCH   7   8
ENDBRANCH   1   7
TORSDOF 3
ENDMDL
