MODEL 1
REMARK minimizedAffinity -5.71635151
REMARK minimizedRMSD -1
REMARK  3 active torsions:
REMARK  status: ('A' for Active; 'I' for Inactive)
REMARK    1  A    between atoms: C3'_2  and  C2'_3 
REMARK    2  A    between atoms: C2'_3  and  C1'_4 
REMARK    3  A    between atoms: C1'_4  and  C1_5 
ROOT
ATOM      1  C1  N4B d   1      -1.748   0.563  -1.249  0.00  0.00    -0.075 A 
ATOM      2  C2  N4B d   1      -2.435   1.790  -1.117  0.00  0.00     0.002 A 
ATOM      3  C3  N4B d   1      -2.962   2.404  -2.227  0.00  0.00     0.002 A 
ATOM      4  C4  N4B d   1      -2.800   1.821  -3.475  0.00  0.00    -0.004 A 
ATOM      5  C5  N4B d   1      -2.158   0.623  -3.590  0.00  0.00     0.002 A 
ATOM      6  C6  N4B d   1      -1.626  -0.007  -2.483  0.00  0.00     0.002 A 
ENDROOT
BRANCH   1   7
ATOM      7  C1' N4B d   1      -1.080  -0.102  -0.076  0.00  0.00     0.057 C 
BRANCH   7   8
ATOM      8  C2' N4B d   1       0.357   0.398   0.031  0.00  0.00     0.009 C 
BRANCH   8   9
ATOM      9  C3' N4B d   1       1.362  -0.737  -0.067  0.00  0.00     0.004 C 
ATOM     10  C4' N4B d   1       2.782  -0.266   0.037  0.00  0.00     0.003 C 
ENDBRANCH   8   9
ENDBRANCH   7   8
ENDBRANCH   1   7
TORSDOF 3
ENDMDL
