MODEL 1
REMARK minimizedAffinity -0.221328959
REMARK minimizedRMSD -1
REMARK  3 active torsions:
REMARK  status: ('A' for Active; 'I' for Inactive)
REMARK    1  A    between atoms: C3'_2  and  C2'_3 
REMARK    2  A    between atoms: C2'_3  and  C1'_4 
REMARK    3  A    between atoms: C1'_4  and  C1_5 
ROOT
ATOM      1  C1  N4B d   1      -0.228   1.234   0.459  0.00  0.00    -0.075 A 
ATOM      2  C2  N4B d   1       1.060   0.697   0.245  0.00  0.00     0.002 A 
ATOM      3  C3  N4B d   1       1.230  -0.662   0.149  0.00  0.00     0.002 A 
ATOM      4  C4  N4B d   1       0.133  -1.501   0.280  0.00  0.00    -0.004 A 
ATOM      5  C5  N4B d   1      -1.111  -0.973   0.460  0.00  0.00     0.002 A 
ATOM      6  C6  N4B d   1      -1.297   0.391   0.556  0.00  0.00     0.002 A 
ENDROOT
BRANCH   1   7
ATOM      7  C1' N4B d   1      -0.451   2.709   0.657  0.00  0.00     0.057 C 
BRANCH   7   8
ATOM      8  C2' N4B d   1      -1.874   2.937   1.159  0.00  0.00     0.009 C 
BRANCH   8   9
ATOM      9  C3' N4B d   1      -1.935   4.023   2.219  0.00  0.00     0.004 C 
ATOM     10  C4' N4B d   1      -1.541   5.371   1.693  0.00  0.00     0.003 C 
ENDBRANCH   8   9
ENDBRANCH   7   8
ENDBRANCH   1   7
TORSDOF 3
ENDMDL
