MODEL 1
REMARK minimizedAffinity -5.20270061
REMARK minimizedRMSD -1
REMARK  3 active torsions:
REMARK  status: ('A' for Active; 'I' for Inactive)
REMARK    1  A    between atoms: C3'_2  and  C2'_3 
REMARK    2  A    between atoms: C2'_3  and  C1'_4 
REMARK    3  A    between atoms: C1'_4  and  C1_5 
ROOT
ATOM      1  C1  N4B d   1       1.070  -0.002   0.203  0.00  0.00    -0.075 A 
ATOM      2  C2  N4B d   1       1.609  -1.175  -0.368  0.00  0.00     0.002 A 
ATOM      3  C3  N4B d   1       2.835  -1.637   0.043  0.00  0.00     0.002 A 
ATOM      4  C4  N4B d   1       3.545  -0.936   1.006  0.00  0.00    -0.004 A 
ATOM      5  C5  N4B d   1       3.006   0.182   1.571  0.00  0.00     0.002 A 
ATOM      6  C6  N4B d   1       1.773   0.656   1.171  0.00  0.00     0.002 A 
ENDROOT
BRANCH   1   7
ATOM      7  C1' N4B d   1      -0.228   0.590  -0.275  0.00  0.00     0.057 C 
BRANCH   7   8
ATOM      8  C2' N4B d   1      -1.181  -0.538  -0.659  0.00  0.00     0.009 C 
BRANCH   8   9
ATOM      9  C3' N4B d   1      -2.196  -0.094  -1.699  0.00  0.00     0.004 C 
ATOM     10  C4' N4B d   1      -3.020  -1.230  -2.228  0.00  0.00     0.003 C 
ENDBRANCH   8   9
ENDBRANCH   7   8
ENDBRANCH   1   7
TORSDOF 3
ENDMDL
