MODEL 1
REMARK minimizedAffinity -3.52507758
REMARK minimizedRMSD -1
REMARK  3 active torsions:
REMARK  status: ('A' for Active; 'I' for Inactive)
REMARK    1  A    between atoms: C3'_2  and  C2'_3 
REMARK    2  A    between atoms: C2'_3  and  C1'_4 
REMARK    3  A    between atoms: C1'_4  and  C1_5 
ROOT
ATOM      1  C1  N4B d   1      -0.830  -0.341  -0.709  0.00  0.00    -0.075 A 
ATOM      2  C2  N4B d   1      -0.989  -1.388   0.225  0.00  0.00     0.002 A 
ATOM      3  C3  N4B d   1       0.115  -1.989   0.779  0.00  0.00     0.002 A 
ATOM      4  C4  N4B d   1       1.383  -1.573   0.401  0.00  0.00    -0.004 A 
ATOM      5  C5  N4B d   1       1.528  -0.544  -0.482  0.00  0.00     0.002 A 
ATOM      6  C6  N4B d   1       0.427   0.071  -1.044  0.00  0.00     0.002 A 
ENDROOT
BRANCH   1   7
ATOM      7  C1' N4B d   1      -2.006   0.288  -1.405  0.00  0.00     0.057 C 
BRANCH   7   8
ATOM      8  C2' N4B d   1      -2.776  -0.791  -2.160  0.00  0.00     0.009 C 
BRANCH   8   9
ATOM      9  C3' N4B d   1      -3.369  -0.265  -3.456  0.00  0.00     0.004 C 
ATOM     10  C4' N4B d   1      -3.326   1.231  -3.549  0.00  0.00     0.003 C 
ENDBRANCH   8   9
ENDBRANCH   7   8
ENDBRANCH   1   7
TORSDOF 3
ENDMDL
