MODEL 1
REMARK minimizedAffinity 5.0900054
REMARK minimizedRMSD -1
REMARK  0 active torsions:
REMARK  status: ('A' for Active; 'I' for Inactive)
ROOT
ATOM      1  C4' PXY d   1      -1.597   0.764   2.158  0.00  0.00     0.077 C 
ATOM      2  C1' PXY d   1       0.520   4.443  -1.767  0.00  0.00     0.077 C 
ATOM      3  C1  PXY d   1      -0.033   3.468  -0.746  0.00  0.00    -0.082 A 
ATOM      4  C2  PXY d   1      -0.887   3.895   0.171  0.00  0.00     0.003 A 
ATOM      5  C3  PXY d   1      -1.372   3.034   1.121  0.00  0.00     0.003 A 
ATOM      6  C4  PXY d   1      -1.021   1.710   1.101  0.00  0.00    -0.082 A 
ATOM      7  C5  PXY d   1      -0.159   1.265   0.163  0.00  0.00     0.003 A 
ATOM      8  C6  PXY d   1       0.354   2.164  -0.768  0.00  0.00     0.003 A 
ENDROOT
TORSDOF 0
ENDMDL
