MODEL 1
REMARK minimizedAffinity 4.06401062
REMARK minimizedRMSD -1
REMARK  0 active torsions:
REMARK  status: ('A' for Active; 'I' for Inactive)
ROOT
ATOM      1  C4' PXY d   1      -1.757   0.865   2.280  0.00  0.00     0.077 C 
ATOM      2  C1' PXY d   1       0.992   5.149  -0.460  0.00  0.00     0.077 C 
ATOM      3  C1  PXY d   1       0.283   4.022   0.264  0.00  0.00    -0.082 A 
ATOM      4  C2  PXY d   1      -0.845   3.536  -0.228  0.00  0.00     0.003 A 
ATOM      5  C3  PXY d   1      -1.517   2.539   0.431  0.00  0.00     0.003 A 
ATOM      6  C4  PXY d   1      -1.001   1.997   1.577  0.00  0.00    -0.082 A 
ATOM      7  C5  PXY d   1       0.155   2.479   2.080  0.00  0.00     0.003 A 
ATOM      8  C6  PXY d   1       0.800   3.520   1.418  0.00  0.00     0.003 A 
ENDROOT
TORSDOF 0
ENDMDL
