MODEL 1
REMARK minimizedAffinity -0.738950551
REMARK minimizedRMSD -1
REMARK  0 active torsions:
REMARK  status: ('A' for Active; 'I' for Inactive)
ROOT
ATOM      1  C4' PXY d   1      -1.471   0.901   1.837  0.00  0.00     0.077 C 
ATOM      2  C1' PXY d   1       0.362   4.766  -2.052  0.00  0.00     0.077 C 
ATOM      3  C1  PXY d   1      -0.118   3.743  -1.041  0.00  0.00    -0.082 A 
ATOM      4  C2  PXY d   1      -0.846   4.135  -0.009  0.00  0.00     0.003 A 
ATOM      5  C3  PXY d   1      -1.261   3.228   0.932  0.00  0.00     0.003 A 
ATOM      6  C4  PXY d   1      -0.973   1.898   0.786  0.00  0.00    -0.082 A 
ATOM      7  C5  PXY d   1      -0.239   1.488  -0.270  0.00  0.00     0.003 A 
ATOM      8  C6  PXY d   1       0.208   2.430  -1.192  0.00  0.00     0.003 A 
ENDROOT
TORSDOF 0
ENDMDL
