MODEL 1
REMARK minimizedAffinity -1.78215969
REMARK minimizedRMSD -1
REMARK  0 active torsions:
REMARK  status: ('A' for Active; 'I' for Inactive)
ROOT
ATOM      1  C4' PXY d   1      -1.825   0.155   2.107  0.00  0.00     0.077 C 
ATOM      2  C1' PXY d   1       0.126   4.682  -0.913  0.00  0.00     0.077 C 
ATOM      3  C1  PXY d   1      -0.382   3.486  -0.130  0.00  0.00    -0.082 A 
ATOM      4  C2  PXY d   1      -1.357   3.647   0.749  0.00  0.00     0.003 A 
ATOM      5  C3  PXY d   1      -1.806   2.583   1.488  0.00  0.00     0.003 A 
ATOM      6  C4  PXY d   1      -1.288   1.331   1.288  0.00  0.00    -0.082 A 
ATOM      7  C5  PXY d   1      -0.299   1.158   0.385  0.00  0.00     0.003 A 
ATOM      8  C6  PXY d   1       0.171   2.258  -0.326  0.00  0.00     0.003 A 
ENDROOT
TORSDOF 0
ENDMDL
