MODEL 1
REMARK minimizedAffinity 2.26146865
REMARK minimizedRMSD -1
REMARK  0 active torsions:
REMARK  status: ('A' for Active; 'I' for Inactive)
ROOT
ATOM      1  C4' PXY d   1      -1.990   1.647   1.564  0.00  0.00     0.077 C 
ATOM      2  C1' PXY d   1       0.296   5.416  -2.174  0.00  0.00     0.077 C 
ATOM      3  C1  PXY d   1      -0.304   4.419  -1.203  0.00  0.00    -0.082 A 
ATOM      4  C2  PXY d   1      -0.940   4.854  -0.128  0.00  0.00     0.003 A 
ATOM      5  C3  PXY d   1      -1.461   3.966   0.777  0.00  0.00     0.003 A 
ATOM      6  C4  PXY d   1      -1.377   2.618   0.552  0.00  0.00    -0.082 A 
ATOM      7  C5  PXY d   1      -0.739   2.166  -0.549  0.00  0.00     0.003 A 
ATOM      8  C6  PXY d   1      -0.181   3.083  -1.434  0.00  0.00     0.003 A 
ENDROOT
TORSDOF 0
ENDMDL
