MODEL 1
REMARK minimizedAffinity 2.38588452
REMARK minimizedRMSD -1
REMARK  0 active torsions:
REMARK  status: ('A' for Active; 'I' for Inactive)
ROOT
ATOM      1  C4' PXY d   1      -1.422  -1.411   3.049  0.00  0.00     0.077 C 
ATOM      2  C1' PXY d   1      -0.961   3.659   0.311  0.00  0.00     0.077 C 
ATOM      3  C1  PXY d   1      -1.094   2.333   1.033  0.00  0.00    -0.082 A 
ATOM      4  C2  PXY d   1      -0.006   1.688   1.422  0.00  0.00     0.003 A 
ATOM      5  C3  PXY d   1      -0.107   0.472   2.048  0.00  0.00     0.003 A 
ATOM      6  C4  PXY d   1      -1.336  -0.064   2.326  0.00  0.00    -0.082 A 
ATOM      7  C5  PXY d   1      -2.450   0.593   1.942  0.00  0.00     0.003 A 
ATOM      8  C6  PXY d   1      -2.325   1.806   1.271  0.00  0.00     0.003 A 
ENDROOT
TORSDOF 0
ENDMDL
