MODEL 1
REMARK minimizedAffinity 2.58635831
REMARK minimizedRMSD -1
REMARK  0 active torsions:
REMARK  status: ('A' for Active; 'I' for Inactive)
ROOT
ATOM      1  C4' PXY d   1      -2.210   1.125   2.781  0.00  0.00     0.077 C 
ATOM      2  C1' PXY d   1       1.857   1.605  -1.299  0.00  0.00     0.077 C 
ATOM      3  C1  PXY d   1       0.796   1.469  -0.224  0.00  0.00    -0.082 A 
ATOM      4  C2  PXY d   1      -0.417   1.950  -0.438  0.00  0.00     0.003 A 
ATOM      5  C3  PXY d   1      -1.379   1.864   0.536  0.00  0.00     0.003 A 
ATOM      6  C4  PXY d   1      -1.111   1.232   1.720  0.00  0.00    -0.082 A 
ATOM      7  C5  PXY d   1       0.122   0.729   1.942  0.00  0.00     0.003 A 
ATOM      8  C6  PXY d   1       1.096   0.863   0.957  0.00  0.00     0.003 A 
ENDROOT
TORSDOF 0
ENDMDL
