MODEL 1
REMARK minimizedAffinity 2.11593771
REMARK minimizedRMSD -1
REMARK  0 active torsions:
REMARK  status: ('A' for Active; 'I' for Inactive)
ROOT
ATOM      1  C4' PXY d   1      -0.050   3.862  -1.247  0.00  0.00     0.077 C 
ATOM      2  C1' PXY d   1      -2.688   0.859   2.928  0.00  0.00     0.077 C 
ATOM      3  C1  PXY d   1      -2.008   1.650   1.829  0.00  0.00    -0.082 A 
ATOM      4  C2  PXY d   1      -0.794   1.306   1.430  0.00  0.00     0.003 A 
ATOM      5  C3  PXY d   1      -0.152   2.030   0.460  0.00  0.00     0.003 A 
ATOM      6  C4  PXY d   1      -0.779   3.086  -0.147  0.00  0.00    -0.082 A 
ATOM      7  C5  PXY d   1      -2.021   3.436   0.247  0.00  0.00     0.003 A 
ATOM      8  C6  PXY d   1      -2.640   2.714   1.262  0.00  0.00     0.003 A 
ENDROOT
TORSDOF 0
ENDMDL
