MODEL 1
REMARK minimizedAffinity 0.499515057
REMARK minimizedRMSD -1
REMARK  0 active torsions:
REMARK  status: ('A' for Active; 'I' for Inactive)
ROOT
ATOM      1  C4' PXY d   1      -1.689  -0.853   3.135  0.00  0.00     0.077 C 
ATOM      2  C1' PXY d   1      -1.413   3.639  -0.493  0.00  0.00     0.077 C 
ATOM      3  C1  PXY d   1      -1.495   2.467   0.465  0.00  0.00    -0.082 A 
ATOM      4  C2  PXY d   1      -0.448   1.673   0.618  0.00  0.00     0.003 A 
ATOM      5  C3  PXY d   1      -0.516   0.590   1.456  0.00  0.00     0.003 A 
ATOM      6  C4  PXY d   1      -1.649   0.348   2.186  0.00  0.00    -0.082 A 
ATOM      7  C5  PXY d   1      -2.717   1.160   2.044  0.00  0.00     0.003 A 
ATOM      8  C6  PXY d   1      -2.643   2.230   1.157  0.00  0.00     0.003 A 
ENDROOT
TORSDOF 0
ENDMDL
