MODEL 1
REMARK minimizedAffinity -2.83950353
REMARK minimizedRMSD -1
REMARK  0 active torsions:
REMARK  status: ('A' for Active; 'I' for Inactive)
ROOT
ATOM      1  C4' PXY d   1      -2.025   0.254   2.388  0.00  0.00     0.077 C 
ATOM      2  C1' PXY d   1      -0.207   4.253  -1.369  0.00  0.00     0.077 C 
ATOM      3  C1  PXY d   1      -0.692   3.212  -0.379  0.00  0.00    -0.082 A 
ATOM      4  C2  PXY d   1       0.111   2.223  -0.023  0.00  0.00     0.003 A 
ATOM      5  C3  PXY d   1      -0.323   1.256   0.846  0.00  0.00     0.003 A 
ATOM      6  C4  PXY d   1      -1.574   1.332   1.398  0.00  0.00    -0.082 A 
ATOM      7  C5  PXY d   1      -2.396   2.344   1.048  0.00  0.00     0.003 A 
ATOM      8  C6  PXY d   1      -1.950   3.293   0.132  0.00  0.00     0.003 A 
ENDROOT
TORSDOF 0
ENDMDL
