MODEL 1
REMARK minimizedAffinity 6.72406101
REMARK minimizedRMSD -1
REMARK  0 active torsions:
REMARK  status: ('A' for Active; 'I' for Inactive)
ROOT
ATOM      1  C4' PXY d   1       0.341   4.792  -1.068  0.00  0.00     0.077 C 
ATOM      2  C1' PXY d   1      -2.226   0.555   1.912  0.00  0.00     0.077 C 
ATOM      3  C1  PXY d   1      -1.544   1.658   1.126  0.00  0.00    -0.082 A 
ATOM      4  C2  PXY d   1      -1.691   2.917   1.504  0.00  0.00     0.003 A 
ATOM      5  C3  PXY d   1      -1.107   3.929   0.786  0.00  0.00     0.003 A 
ATOM      6  C4  PXY d   1      -0.322   3.645  -0.299  0.00  0.00    -0.082 A 
ATOM      7  C5  PXY d   1      -0.159   2.362  -0.685  0.00  0.00     0.003 A 
ATOM      8  C6  PXY d   1      -0.793   1.352   0.033  0.00  0.00     0.003 A 
ENDROOT
TORSDOF 0
ENDMDL
