MODEL 1
REMARK minimizedAffinity 2.28946543
REMARK minimizedRMSD -1
REMARK  0 active torsions:
REMARK  status: ('A' for Active; 'I' for Inactive)
ROOT
ATOM      1  C4' PXY d   1       0.364   3.270  -1.459  0.00  0.00     0.077 C 
ATOM      2  C1' PXY d   1      -1.484  -0.247   2.740  0.00  0.00     0.077 C 
ATOM      3  C1  PXY d   1      -0.989   0.668   1.638  0.00  0.00    -0.082 A 
ATOM      4  C2  PXY d   1      -1.457   1.903   1.553  0.00  0.00     0.003 A 
ATOM      5  C3  PXY d   1      -1.043   2.733   0.543  0.00  0.00     0.003 A 
ATOM      6  C4  PXY d   1      -0.101   2.314  -0.357  0.00  0.00    -0.082 A 
ATOM      7  C5  PXY d   1       0.390   1.059  -0.271  0.00  0.00     0.003 A 
ATOM      8  C6  PXY d   1      -0.074   0.218   0.737  0.00  0.00     0.003 A 
ENDROOT
TORSDOF 0
ENDMDL
