MODEL 1
REMARK minimizedAffinity 5.68137836
REMARK minimizedRMSD -1
REMARK  0 active torsions:
REMARK  status: ('A' for Active; 'I' for Inactive)
ROOT
ATOM      1  C4' PXY d   1      -0.552  -4.956   6.000  0.00  0.00     0.077 C 
ATOM      2  C1' PXY d   1      -2.633  -0.698   2.691  0.00  0.00     0.077 C 
ATOM      3  C1  PXY d   1      -2.097  -1.812   3.567  0.00  0.00    -0.082 A 
ATOM      4  C2  PXY d   1      -0.827  -2.169   3.467  0.00  0.00     0.003 A 
ATOM      5  C3  PXY d   1      -0.333  -3.197   4.229  0.00  0.00     0.003 A 
ATOM      6  C4  PXY d   1      -1.134  -3.830   5.142  0.00  0.00    -0.082 A 
ATOM      7  C5  PXY d   1      -2.429  -3.464   5.257  0.00  0.00     0.003 A 
ATOM      8  C6  PXY d   1      -2.921  -2.447   4.445  0.00  0.00     0.003 A 
ENDROOT
TORSDOF 0
ENDMDL
