MODEL 1
REMARK minimizedAffinity 6.96198082
REMARK minimizedRMSD -1
REMARK  0 active torsions:
REMARK  status: ('A' for Active; 'I' for Inactive)
ROOT
ATOM      1  C4' PXY d   1      -0.006  -4.211   4.195  0.00  0.00     0.077 C 
ATOM      2  C1' PXY d   1      -5.130  -1.953   5.633  0.00  0.00     0.077 C 
ATOM      3  C1  PXY d   1      -3.788  -2.542   5.243  0.00  0.00    -0.082 A 
ATOM      4  C2  PXY d   1      -3.241  -3.480   6.000  0.00  0.00     0.003 A 
ATOM      5  C3  PXY d   1      -2.013  -4.000   5.680  0.00  0.00     0.003 A 
ATOM      6  C4  PXY d   1      -1.364  -3.595   4.545  0.00  0.00    -0.082 A 
ATOM      7  C5  PXY d   1      -1.921  -2.646   3.762  0.00  0.00     0.003 A 
ATOM      8  C6  PXY d   1      -3.148  -2.101   4.127  0.00  0.00     0.003 A 
ENDROOT
TORSDOF 0
ENDMDL
