MODEL 1
REMARK minimizedAffinity 5.75024223
REMARK minimizedRMSD -1
REMARK  0 active torsions:
REMARK  status: ('A' for Active; 'I' for Inactive)
ROOT
ATOM      1  C4' PXY d   1       0.737   0.525  -1.879  0.00  0.00     0.077 C 
ATOM      2  C1' PXY d   1      -0.459   2.786   3.305  0.00  0.00     0.077 C 
ATOM      3  C1  PXY d   1      -0.157   2.197   1.942  0.00  0.00    -0.082 A 
ATOM      4  C2  PXY d   1       0.762   1.252   1.826  0.00  0.00     0.003 A 
ATOM      5  C3  PXY d   1       1.070   0.731   0.596  0.00  0.00     0.003 A 
ATOM      6  C4  PXY d   1       0.393   1.143  -0.520  0.00  0.00    -0.082 A 
ATOM      7  C5  PXY d   1      -0.554   2.098  -0.409  0.00  0.00     0.003 A 
ATOM      8  C6  PXY d   1      -0.823   2.644   0.842  0.00  0.00     0.003 A 
ENDROOT
TORSDOF 0
ENDMDL
