MODEL 1
REMARK minimizedAffinity 7.40113354
REMARK minimizedRMSD -1
REMARK  0 active torsions:
REMARK  status: ('A' for Active; 'I' for Inactive)
ROOT
ATOM      1  C4' PXY d   1       0.072   1.969   3.664  0.00  0.00     0.077 C 
ATOM      2  C1' PXY d   1       0.583   0.962  -2.005  0.00  0.00     0.077 C 
ATOM      3  C1  PXY d   1       0.454   1.214  -0.516  0.00  0.00    -0.082 A 
ATOM      4  C2  PXY d   1      -0.392   2.133  -0.079  0.00  0.00     0.003 A 
ATOM      5  C3  PXY d   1      -0.498   2.396   1.262  0.00  0.00     0.003 A 
ATOM      6  C4  PXY d   1       0.229   1.674   2.170  0.00  0.00    -0.082 A 
ATOM      7  C5  PXY d   1       1.086   0.727   1.733  0.00  0.00     0.003 A 
ATOM      8  C6  PXY d   1       1.210   0.504   0.364  0.00  0.00     0.003 A 
ENDROOT
TORSDOF 0
ENDMDL
