MODEL 1
REMARK minimizedAffinity 6.83413839
REMARK minimizedRMSD -1
REMARK  0 active torsions:
REMARK  status: ('A' for Active; 'I' for Inactive)
ROOT
ATOM      1  C4' PXY d   1       0.215   0.252  -0.969  0.00  0.00     0.077 C 
ATOM      2  C1' PXY d   1      -0.144   2.541   4.327  0.00  0.00     0.077 C 
ATOM      3  C1  PXY d   1      -0.037   1.939   2.940  0.00  0.00    -0.082 A 
ATOM      4  C2  PXY d   1      -0.913   2.280   2.009  0.00  0.00     0.003 A 
ATOM      5  C3  PXY d   1      -0.850   1.721   0.759  0.00  0.00     0.003 A 
ATOM      6  C4  PXY d   1       0.151   0.842   0.443  0.00  0.00    -0.082 A 
ATOM      7  C5  PXY d   1       1.055   0.497   1.384  0.00  0.00     0.003 A 
ATOM      8  C6  PXY d   1       0.949   1.045   2.659  0.00  0.00     0.003 A 
ENDROOT
TORSDOF 0
ENDMDL
