MODEL 1
REMARK minimizedAffinity 13.2003202
REMARK minimizedRMSD -1
REMARK  0 active torsions:
REMARK  status: ('A' for Active; 'I' for Inactive)
ROOT
ATOM      1  C4' PXY d   1      -2.057   2.366   3.324  0.00  0.00     0.077 C 
ATOM      2  C1' PXY d   1       2.602  -0.047   0.899  0.00  0.00     0.077 C 
ATOM      3  C1  PXY d   1       1.388   0.595   1.540  0.00  0.00    -0.082 A 
ATOM      4  C2  PXY d   1       0.310  -0.135   1.776  0.00  0.00     0.003 A 
ATOM      5  C3  PXY d   1      -0.808   0.437   2.326  0.00  0.00     0.003 A 
ATOM      6  C4  PXY d   1      -0.805   1.758   2.687  0.00  0.00    -0.082 A 
ATOM      7  C5  PXY d   1       0.295   2.507   2.459  0.00  0.00     0.003 A 
ATOM      8  C6  PXY d   1       1.405   1.917   1.862  0.00  0.00     0.003 A 
ENDROOT
TORSDOF 0
ENDMDL
