MODEL 1
REMARK minimizedAffinity 9.91293812
REMARK minimizedRMSD -1
REMARK  1 active torsions:
REMARK  status: ('A' for Active; 'I' for Inactive)
REMARK    1  A    between atoms: N_2  and  C1_3 
ROOT
ATOM      1  C1  UNL d   1      -1.335   3.262  -1.872  0.00  0.00     0.143 A 
ATOM      2  C2  UNL d   1      -1.360   4.626  -2.179  0.00  0.00    -0.057 A 
ATOM      3  C3  UNL d   1      -2.420   5.188  -2.902  0.00  0.00     0.033 A 
ATOM      4  C4  UNL d   1      -3.462   4.387  -3.356  0.00  0.00    -0.042 A 
ATOM      5  C5  UNL d   1      -3.445   3.023  -3.084  0.00  0.00     0.033 A 
ATOM      6  C6  UNL d   1      -2.387   2.469  -2.357  0.00  0.00    -0.057 A 
ENDROOT
BRANCH   1   7
ATOM      7  N   UNL d   1      -0.261   2.626  -1.243  0.00  0.00    -0.732 N 
ATOM      8  C   UNL d   1      -0.172   2.586   0.201  0.00  0.00     0.284 C 
ATOM      9  H3  UNL d   1      -0.005   1.754  -1.700  0.00  0.00     0.395 HD
ENDBRANCH   1   7
TORSDOF 1
ENDMDL
