MODEL 1
REMARK minimizedAffinity 7.95011806
REMARK minimizedRMSD -1
REMARK  1 active torsions:
REMARK  status: ('A' for Active; 'I' for Inactive)
REMARK    1  A    between atoms: N_2  and  C1_3 
ROOT
ATOM      1  C1  UNL d   1      -0.768   3.626  -2.151  0.00  0.00     0.143 A 
ATOM      2  C2  UNL d   1      -1.941   2.901  -2.386  0.00  0.00    -0.057 A 
ATOM      3  C3  UNL d   1      -3.028   3.476  -3.055  0.00  0.00     0.033 A 
ATOM      4  C4  UNL d   1      -2.972   4.800  -3.478  0.00  0.00    -0.042 A 
ATOM      5  C5  UNL d   1      -1.825   5.547  -3.234  0.00  0.00     0.033 A 
ATOM      6  C6  UNL d   1      -0.740   4.966  -2.570  0.00  0.00    -0.057 A 
ENDROOT
BRANCH   1   7
ATOM      7  N   UNL d   1       0.309   3.143  -1.404  0.00  0.00    -0.732 N 
ATOM      8  C   UNL d   1       0.085   2.394  -0.186  0.00  0.00     0.284 C 
ATOM      9  H3  UNL d   1       1.052   2.769  -1.991  0.00  0.00     0.395 HD
ENDBRANCH   1   7
TORSDOF 1
ENDMDL
