MODEL 1
REMARK minimizedAffinity 9.97426319
REMARK minimizedRMSD -1
REMARK  1 active torsions:
REMARK  status: ('A' for Active; 'I' for Inactive)
REMARK    1  A    between atoms: N_2  and  C1_3 
ROOT
ATOM      1  C1  UNL d   1      -0.383   3.688  -2.038  0.00  0.00     0.143 A 
ATOM      2  C2  UNL d   1       0.064   4.061  -0.766  0.00  0.00    -0.057 A 
ATOM      3  C3  UNL d   1       0.334   3.103   0.218  0.00  0.00     0.033 A 
ATOM      4  C4  UNL d   1       0.133   1.752  -0.044  0.00  0.00    -0.042 A 
ATOM      5  C5  UNL d   1      -0.334   1.360  -1.294  0.00  0.00     0.033 A 
ATOM      6  C6  UNL d   1      -0.595   2.321  -2.275  0.00  0.00    -0.057 A 
ENDROOT
BRANCH   1   7
ATOM      7  N   UNL d   1      -0.762   4.599  -3.027  0.00  0.00    -0.732 N 
ATOM      8  C   UNL d   1      -0.032   4.680  -4.274  0.00  0.00     0.284 C 
ATOM      9  H3  UNL d   1      -1.772   4.660  -3.133  0.00  0.00     0.395 HD
ENDBRANCH   1   7
TORSDOF 1
ENDMDL
