MODEL 1
REMARK minimizedAffinity 0.270289153
REMARK minimizedRMSD -1
REMARK  1 active torsions:
REMARK  status: ('A' for Active; 'I' for Inactive)
REMARK    1  A    between atoms: N_2  and  C1_3 
ROOT
ATOM      1  C1  UNL d   1      -5.763  -2.942   4.970  0.00  0.00     0.143 A 
ATOM      2  C2  UNL d   1      -5.747  -1.617   5.419  0.00  0.00    -0.057 A 
ATOM      3  C3  UNL d   1      -5.878  -0.546   4.525  0.00  0.00     0.033 A 
ATOM      4  C4  UNL d   1      -5.999  -0.783   3.160  0.00  0.00    -0.042 A 
ATOM      5  C5  UNL d   1      -5.991  -2.091   2.689  0.00  0.00     0.033 A 
ATOM      6  C6  UNL d   1      -5.867  -3.156   3.587  0.00  0.00    -0.057 A 
ENDROOT
BRANCH   1   7
ATOM      7  N   UNL d   1      -5.538  -4.045   5.797  0.00  0.00    -0.732 N 
ATOM      8  C   UNL d   1      -4.198  -4.554   6.000  0.00  0.00     0.284 C 
ATOM      9  H3  UNL d   1      -6.105  -4.020   6.641  0.00  0.00     0.395 HD
ENDBRANCH   1   7
TORSDOF 1
ENDMDL
