MODEL 1
REMARK minimizedAffinity -0.274229407
REMARK minimizedRMSD -1
REMARK  1 active torsions:
REMARK  status: ('A' for Active; 'I' for Inactive)
REMARK    1  A    between atoms: N_2  and  C1_3 
ROOT
ATOM      1  C1  UNL d   1      -2.809  -4.968  -5.799  0.00  0.00     0.143 A 
ATOM      2  C2  UNL d   1      -1.432  -5.210  -5.852  0.00  0.00    -0.057 A 
ATOM      3  C3  UNL d   1      -0.512  -4.158  -5.937  0.00  0.00     0.033 A 
ATOM      4  C4  UNL d   1      -0.957  -2.841  -5.999  0.00  0.00    -0.042 A 
ATOM      5  C5  UNL d   1      -2.321  -2.578  -5.973  0.00  0.00     0.033 A 
ATOM      6  C6  UNL d   1      -3.235  -3.633  -5.882  0.00  0.00    -0.057 A 
ENDROOT
BRANCH   1   7
ATOM      7  N   UNL d   1      -3.777  -5.975  -5.814  0.00  0.00    -0.732 N 
ATOM      8  C   UNL d   1      -5.175  -5.650  -5.999  0.00  0.00     0.284 C 
ATOM      9  H3  UNL d   1      -3.471  -6.801  -6.324  0.00  0.00     0.395 HD
ENDBRANCH   1   7
TORSDOF 1
ENDMDL
