MODEL 1
REMARK minimizedAffinity 7.70187044
REMARK minimizedRMSD -1
REMARK  1 active torsions:
REMARK  status: ('A' for Active; 'I' for Inactive)
REMARK    1  A    between atoms: N_2  and  C1_3 
ROOT
ATOM      1  C1  UNL d   1      -1.108   4.164  -2.843  0.00  0.00     0.143 A 
ATOM      2  C2  UNL d   1      -1.354   5.397  -2.228  0.00  0.00    -0.057 A 
ATOM      3  C3  UNL d   1      -0.858   5.682  -0.950  0.00  0.00     0.033 A 
ATOM      4  C4  UNL d   1      -0.130   4.725  -0.250  0.00  0.00    -0.042 A 
ATOM      5  C5  UNL d   1       0.104   3.484  -0.832  0.00  0.00     0.033 A 
ATOM      6  C6  UNL d   1      -0.387   3.208  -2.111  0.00  0.00    -0.057 A 
ENDROOT
BRANCH   1   7
ATOM      7  N   UNL d   1      -1.657   3.785  -4.071  0.00  0.00    -0.732 N 
ATOM      8  C   UNL d   1      -3.045   3.388  -4.167  0.00  0.00     0.284 C 
ATOM      9  H3  UNL d   1      -1.339   4.374  -4.837  0.00  0.00     0.395 HD
ENDBRANCH   1   7
TORSDOF 1
ENDMDL
