MODEL 1
REMARK minimizedAffinity -3.91258669
REMARK minimizedRMSD -1
REMARK  1 active torsions:
REMARK  status: ('A' for Active; 'I' for Inactive)
REMARK    1  A    between atoms: N_2  and  C1_3 
ROOT
ATOM      1  C1  UNL d   1       0.320  -0.344   0.390  0.00  0.00     0.143 A 
ATOM      2  C2  UNL d   1       1.637  -0.790   0.546  0.00  0.00    -0.057 A 
ATOM      3  C3  UNL d   1       1.935  -1.919   1.318  0.00  0.00     0.033 A 
ATOM      4  C4  UNL d   1       0.920  -2.608   1.974  0.00  0.00    -0.042 A 
ATOM      5  C5  UNL d   1      -0.394  -2.168   1.854  0.00  0.00     0.033 A 
ATOM      6  C6  UNL d   1      -0.686  -1.044   1.076  0.00  0.00    -0.057 A 
ENDROOT
BRANCH   1   7
ATOM      7  N   UNL d   1      -0.030   0.829  -0.283  0.00  0.00    -0.732 N 
ATOM      8  C   UNL d   1       0.950   1.550  -1.066  0.00  0.00     0.284 C 
ATOM      9  H3  UNL d   1      -0.947   0.767  -0.720  0.00  0.00     0.395 HD
ENDBRANCH   1   7
TORSDOF 1
ENDMDL
