MODEL 1
REMARK minimizedAffinity -4.6934247
REMARK minimizedRMSD -1
REMARK  1 active torsions:
REMARK  status: ('A' for Active; 'I' for Inactive)
REMARK    1  A    between atoms: N_2  and  C1_3 
ROOT
ATOM      1  C1  UNL d   1      -1.231   0.148   0.447  0.00  0.00     0.143 A 
ATOM      2  C2  UNL d   1      -0.891  -1.196   0.629  0.00  0.00    -0.057 A 
ATOM      3  C3  UNL d   1      -1.659  -2.036   1.445  0.00  0.00     0.033 A 
ATOM      4  C4  UNL d   1      -2.769  -1.535   2.118  0.00  0.00    -0.042 A 
ATOM      5  C5  UNL d   1      -3.112  -0.196   1.971  0.00  0.00     0.033 A 
ATOM      6  C6  UNL d   1      -2.344   0.635   1.150  0.00  0.00    -0.057 A 
ENDROOT
BRANCH   1   7
ATOM      7  N   UNL d   1      -0.451   1.057  -0.272  0.00  0.00    -0.732 N 
ATOM      8  C   UNL d   1       0.962   0.820  -0.471  0.00  0.00     0.284 C 
ATOM      9  H3  UNL d   1      -0.932   1.417  -1.094  0.00  0.00     0.395 HD
ENDBRANCH   1   7
TORSDOF 1
ENDMDL
