MODEL 1
REMARK minimizedAffinity -2.39586067
REMARK minimizedRMSD -1
REMARK  1 active torsions:
REMARK  status: ('A' for Active; 'I' for Inactive)
REMARK    1  A    between atoms: N_2  and  C1_3 
ROOT
ATOM      1  C1  UNL d   1       0.407  -1.848   1.335  0.00  0.00     0.143 A 
ATOM      2  C2  UNL d   1      -0.936  -1.517   1.123  0.00  0.00    -0.057 A 
ATOM      3  C3  UNL d   1      -1.301  -0.489   0.246  0.00  0.00     0.033 A 
ATOM      4  C4  UNL d   1      -0.324   0.248  -0.416  0.00  0.00    -0.042 A 
ATOM      5  C5  UNL d   1       1.017  -0.047  -0.202  0.00  0.00     0.033 A 
ATOM      6  C6  UNL d   1       1.375  -1.079   0.671  0.00  0.00    -0.057 A 
ENDROOT
BRANCH   1   7
ATOM      7  N   UNL d   1       0.837  -2.794   2.269  0.00  0.00    -0.732 N 
ATOM      8  C   UNL d   1       0.501  -2.652   3.669  0.00  0.00     0.284 C 
ATOM      9  H3  UNL d   1       0.765  -3.746   1.919  0.00  0.00     0.395 HD
ENDBRANCH   1   7
TORSDOF 1
ENDMDL
