MODEL 1
REMARK minimizedAffinity -2.17030835
REMARK minimizedRMSD -1
REMARK  1 active torsions:
REMARK  status: ('A' for Active; 'I' for Inactive)
REMARK    1  A    between atoms: N_2  and  C1_3 
ROOT
ATOM      1  C1  UNL d   1      -1.805  -0.814   0.414  0.00  0.00     0.143 A 
ATOM      2  C2  UNL d   1      -2.514   0.304   0.867  0.00  0.00    -0.057 A 
ATOM      3  C3  UNL d   1      -2.115   1.603   0.530  0.00  0.00     0.033 A 
ATOM      4  C4  UNL d   1      -0.978   1.809  -0.245  0.00  0.00    -0.042 A 
ATOM      5  C5  UNL d   1      -0.244   0.714  -0.686  0.00  0.00     0.033 A 
ATOM      6  C6  UNL d   1      -0.651  -0.581  -0.352  0.00  0.00    -0.057 A 
ENDROOT
BRANCH   1   7
ATOM      7  N   UNL d   1      -2.095  -2.126   0.795  0.00  0.00    -0.732 N 
ATOM      8  C   UNL d   1      -1.485  -2.702   1.975  0.00  0.00     0.284 C 
ATOM      9  H3  UNL d   1      -3.079  -2.355   0.682  0.00  0.00     0.395 HD
ENDBRANCH   1   7
TORSDOF 1
ENDMDL
