MODEL 1
REMARK minimizedAffinity -2.22675705
REMARK minimizedRMSD -1
REMARK  1 active torsions:
REMARK  status: ('A' for Active; 'I' for Inactive)
REMARK    1  A    between atoms: N_2  and  C1_3 
ROOT
ATOM      1  C1  UNL d   1       0.177  -1.813   1.449  0.00  0.00     0.143 A 
ATOM      2  C2  UNL d   1       0.423  -0.617   0.767  0.00  0.00    -0.057 A 
ATOM      3  C3  UNL d   1      -0.385   0.510   0.962  0.00  0.00     0.033 A 
ATOM      4  C4  UNL d   1      -1.474   0.451   1.825  0.00  0.00    -0.042 A 
ATOM      5  C5  UNL d   1      -1.752  -0.735   2.496  0.00  0.00     0.033 A 
ATOM      6  C6  UNL d   1      -0.938  -1.855   2.301  0.00  0.00    -0.057 A 
ENDROOT
BRANCH   1   7
ATOM      7  N   UNL d   1       0.884  -2.997   1.224  0.00  0.00    -0.732 N 
ATOM      8  C   UNL d   1       2.126  -2.984   0.481  0.00  0.00     0.284 C 
ATOM      9  H3  UNL d   1       0.893  -3.605   2.039  0.00  0.00     0.395 HD
ENDBRANCH   1   7
TORSDOF 1
ENDMDL
