MODEL 1
REMARK minimizedAffinity -3.59723806
REMARK minimizedRMSD -1
REMARK  1 active torsions:
REMARK  status: ('A' for Active; 'I' for Inactive)
REMARK    1  A    between atoms: N_2  and  C1_3 
ROOT
ATOM      1  C1  UNL d   1       0.193   0.926  -0.861  0.00  0.00     0.143 A 
ATOM      2  C2  UNL d   1      -0.360   1.155  -2.126  0.00  0.00    -0.057 A 
ATOM      3  C3  UNL d   1       0.342   1.863  -3.109  0.00  0.00     0.033 A 
ATOM      4  C4  UNL d   1       1.603   2.382  -2.833  0.00  0.00    -0.042 A 
ATOM      5  C5  UNL d   1       2.162   2.189  -1.575  0.00  0.00     0.033 A 
ATOM      6  C6  UNL d   1       1.459   1.475  -0.600  0.00  0.00    -0.057 A 
ENDROOT
BRANCH   1   7
ATOM      7  N   UNL d   1      -0.495   0.315   0.190  0.00  0.00    -0.732 N 
ATOM      8  C   UNL d   1      -0.175  -1.038   0.592  0.00  0.00     0.284 C 
ATOM      9  H3  UNL d   1      -0.662   0.951   0.966  0.00  0.00     0.395 HD
ENDBRANCH   1   7
TORSDOF 1
ENDMDL
