MODEL 1
REMARK minimizedAffinity -5.6721983
REMARK minimizedRMSD -1
REMARK  1 active torsions:
REMARK  status: ('A' for Active; 'I' for Inactive)
REMARK    1  A    between atoms: N_2  and  C1_3 
ROOT
ATOM      1  C1  UNL d   1      -0.284   0.020  -0.005  0.00  0.00     0.143 A 
ATOM      2  C2  UNL d   1      -0.325  -1.347   0.290  0.00  0.00    -0.057 A 
ATOM      3  C3  UNL d   1      -1.314  -1.880   1.126  0.00  0.00     0.033 A 
ATOM      4  C4  UNL d   1      -2.266  -1.048   1.706  0.00  0.00    -0.042 A 
ATOM      5  C5  UNL d   1      -2.230   0.317   1.446  0.00  0.00     0.033 A 
ATOM      6  C6  UNL d   1      -1.244   0.843   0.606  0.00  0.00    -0.057 A 
ENDROOT
BRANCH   1   7
ATOM      7  N   UNL d   1       0.732   0.625  -0.748  0.00  0.00    -0.732 N 
ATOM      8  C   UNL d   1       0.419   1.399  -1.931  0.00  0.00     0.284 C 
ATOM      9  H3  UNL d   1       1.451   1.039  -0.159  0.00  0.00     0.395 HD
ENDBRANCH   1   7
TORSDOF 1
ENDMDL
