MODEL 1
REMARK minimizedAffinity -4.05389357
REMARK minimizedRMSD -1
REMARK  1 active torsions:
REMARK  status: ('A' for Active; 'I' for Inactive)
REMARK    1  A    between atoms: N_2  and  C1_3 
ROOT
ATOM      1  C1  UNL d   1      -0.191  -0.804  -0.032  0.00  0.00     0.143 A 
ATOM      2  C2  UNL d   1       0.498  -1.809   0.655  0.00  0.00    -0.057 A 
ATOM      3  C3  UNL d   1      -0.182  -2.771   1.411  0.00  0.00     0.033 A 
ATOM      4  C4  UNL d   1      -1.569  -2.727   1.517  0.00  0.00    -0.042 A 
ATOM      5  C5  UNL d   1      -2.273  -1.722   0.863  0.00  0.00     0.033 A 
ATOM      6  C6  UNL d   1      -1.588  -0.769   0.104  0.00  0.00    -0.057 A 
ENDROOT
BRANCH   1   7
ATOM      7  N   UNL d   1       0.434   0.238  -0.720  0.00  0.00    -0.732 N 
ATOM      8  C   UNL d   1       0.256   1.611  -0.298  0.00  0.00     0.284 C 
ATOM      9  H3  UNL d   1       1.387   0.008  -0.991  0.00  0.00     0.395 HD
ENDBRANCH   1   7
TORSDOF 1
ENDMDL
