MODEL 1
REMARK minimizedAffinity -3.86835647
REMARK minimizedRMSD -1
REMARK  1 active torsions:
REMARK  status: ('A' for Active; 'I' for Inactive)
REMARK    1  A    between atoms: N_2  and  C1_3 
ROOT
ATOM      1  C1  UNL d   1       0.033   0.023   0.149  0.00  0.00     0.143 A 
ATOM      2  C2  UNL d   1       0.827  -1.124   0.043  0.00  0.00    -0.057 A 
ATOM      3  C3  UNL d   1       0.484  -2.308   0.707  0.00  0.00     0.033 A 
ATOM      4  C4  UNL d   1      -0.648  -2.358   1.514  0.00  0.00    -0.042 A 
ATOM      5  C5  UNL d   1      -1.438  -1.222   1.653  0.00  0.00     0.033 A 
ATOM      6  C6  UNL d   1      -1.094  -0.045   0.983  0.00  0.00    -0.057 A 
ENDROOT
BRANCH   1   7
ATOM      7  N   UNL d   1       0.374   1.259  -0.407  0.00  0.00    -0.732 N 
ATOM      8  C   UNL d   1       0.833   1.350  -1.776  0.00  0.00     0.284 C 
ATOM      9  H3  UNL d   1      -0.270   1.998  -0.134  0.00  0.00     0.395 HD
ENDBRANCH   1   7
TORSDOF 1
ENDMDL
