MODEL 1
REMARK minimizedAffinity -5.12282991
REMARK minimizedRMSD -1
REMARK  1 active torsions:
REMARK  status: ('A' for Active; 'I' for Inactive)
REMARK    1  A    between atoms: N_2  and  C1_3 
ROOT
ATOM      1  C1  UNL d   1       0.141  -0.546   0.307  0.00  0.00     0.143 A 
ATOM      2  C2  UNL d   1       0.806  -1.603   0.938  0.00  0.00    -0.057 A 
ATOM      3  C3  UNL d   1       0.117  -2.745   1.362  0.00  0.00     0.033 A 
ATOM      4  C4  UNL d   1      -1.260  -2.838   1.188  0.00  0.00    -0.042 A 
ATOM      5  C5  UNL d   1      -1.946  -1.789   0.586  0.00  0.00     0.033 A 
ATOM      6  C6  UNL d   1      -1.250  -0.654   0.159  0.00  0.00    -0.057 A 
ENDROOT
BRANCH   1   7
ATOM      7  N   UNL d   1       0.755   0.658  -0.048  0.00  0.00    -0.732 N 
ATOM      8  C   UNL d   1       0.219   1.922   0.410  0.00  0.00     0.284 C 
ATOM      9  H3  UNL d   1       1.770   0.600  -0.016  0.00  0.00     0.395 HD
ENDBRANCH   1   7
TORSDOF 1
ENDMDL
