MODEL 1
REMARK minimizedAffinity -4.19446325
REMARK minimizedRMSD -1
REMARK  1 active torsions:
REMARK  status: ('A' for Active; 'I' for Inactive)
REMARK    1  A    between atoms: N_2  and  C1_3 
ROOT
ATOM      1  C1  UNL d   1      -0.178  -1.232   0.574  0.00  0.00     0.143 A 
ATOM      2  C2  UNL d   1       1.009  -0.599   0.191  0.00  0.00    -0.057 A 
ATOM      3  C3  UNL d   1       1.048   0.777  -0.065  0.00  0.00     0.033 A 
ATOM      4  C4  UNL d   1      -0.111   1.542   0.031  0.00  0.00    -0.042 A 
ATOM      5  C5  UNL d   1      -1.307   0.929   0.386  0.00  0.00     0.033 A 
ATOM      6  C6  UNL d   1      -1.338  -0.445   0.646  0.00  0.00    -0.057 A 
ENDROOT
BRANCH   1   7
ATOM      7  N   UNL d   1      -0.303  -2.613   0.746  0.00  0.00    -0.732 N 
ATOM      8  C   UNL d   1      -1.598  -3.212   0.989  0.00  0.00     0.284 C 
ATOM      9  H3  UNL d   1       0.285  -3.139   0.104  0.00  0.00     0.395 HD
ENDBRANCH   1   7
TORSDOF 1
ENDMDL
