MODEL 1
REMARK minimizedAffinity -4.34098959
REMARK minimizedRMSD -1
REMARK  1 active torsions:
REMARK  status: ('A' for Active; 'I' for Inactive)
REMARK    1  A    between atoms: N_2  and  C1_3 
ROOT
ATOM      1  C1  UNL d   1       0.225  -0.901   0.328  0.00  0.00     0.143 A 
ATOM      2  C2  UNL d   1      -1.090  -0.532   0.026  0.00  0.00    -0.057 A 
ATOM      3  C3  UNL d   1      -2.168  -1.373   0.328  0.00  0.00     0.033 A 
ATOM      4  C4  UNL d   1      -1.945  -2.615   0.913  0.00  0.00    -0.042 A 
ATOM      5  C5  UNL d   1      -0.644  -3.013   1.199  0.00  0.00     0.033 A 
ATOM      6  C6  UNL d   1       0.427  -2.166   0.901  0.00  0.00    -0.057 A 
ENDROOT
BRANCH   1   7
ATOM      7  N   UNL d   1       1.347  -0.151  -0.037  0.00  0.00    -0.732 N 
ATOM      8  C   UNL d   1       1.201   1.202  -0.527  0.00  0.00     0.284 C 
ATOM      9  H3  UNL d   1       2.125  -0.279   0.606  0.00  0.00     0.395 HD
ENDBRANCH   1   7
TORSDOF 1
ENDMDL
