MODEL 1
REMARK minimizedAffinity -5.16130638
REMARK minimizedRMSD -1
REMARK  1 active torsions:
REMARK  status: ('A' for Active; 'I' for Inactive)
REMARK    1  A    between atoms: N_2  and  C1_3 
ROOT
ATOM      1  C1  UNL d   1      -0.605   0.023   0.293  0.00  0.00     0.143 A 
ATOM      2  C2  UNL d   1      -0.498  -1.371   0.321  0.00  0.00    -0.057 A 
ATOM      3  C3  UNL d   1      -1.532  -2.168   0.826  0.00  0.00     0.033 A 
ATOM      4  C4  UNL d   1      -2.683  -1.581   1.341  0.00  0.00    -0.042 A 
ATOM      5  C5  UNL d   1      -2.801  -0.196   1.346  0.00  0.00     0.033 A 
ATOM      6  C6  UNL d   1      -1.767   0.595   0.834  0.00  0.00    -0.057 A 
ENDROOT
BRANCH   1   7
ATOM      7  N   UNL d   1       0.429   0.875  -0.106  0.00  0.00    -0.732 N 
ATOM      8  C   UNL d   1       0.307   2.308   0.053  0.00  0.00     0.284 C 
ATOM      9  H3  UNL d   1       1.348   0.507   0.131  0.00  0.00     0.395 HD
ENDBRANCH   1   7
TORSDOF 1
ENDMDL
