MODEL 1
REMARK minimizedAffinity 2.06190753
REMARK minimizedRMSD -1
REMARK  1 active torsions:
REMARK  status: ('A' for Active; 'I' for Inactive)
REMARK    1  A    between atoms: C3_4  and  O_7 
ROOT
ATOM      1  C   UNL d   1       0.254   2.060   2.950  0.00  0.00    -0.033 A 
ATOM      2  C1  UNL d   1       1.536   1.567   2.698  0.00  0.00     0.039 A 
ATOM      3  C2  UNL d   1       1.973   0.399   3.325  0.00  0.00    -0.080 A 
ATOM      4  C3  UNL d   1       1.119  -0.266   4.201  0.00  0.00     0.150 A 
ATOM      5  C4  UNL d   1      -0.161   0.217   4.454  0.00  0.00    -0.007 A 
ATOM      6  C5  UNL d   1      -0.595   1.384   3.827  0.00  0.00     0.039 A 
ENDROOT
BRANCH   4   7
ATOM      7  O   UNL d   1       1.502  -1.407   4.840  0.00  0.00    -0.526 OA
ATOM      8  H5  UNL d   1       2.420  -1.606   4.591  0.00  0.00     0.418 HD
ENDBRANCH   4   7
TORSDOF 1
ENDMDL
