MODEL 1
REMARK minimizedAffinity 3.24782872
REMARK minimizedRMSD -1
REMARK  1 active torsions:
REMARK  status: ('A' for Active; 'I' for Inactive)
REMARK    1  A    between atoms: C3_4  and  O_7 
ROOT
ATOM      1  C   UNL d   1       3.025  -1.846   3.093  0.00  0.00    -0.033 A 
ATOM      2  C1  UNL d   1       2.150  -1.002   2.407  0.00  0.00     0.039 A 
ATOM      3  C2  UNL d   1       2.142   0.367   2.678  0.00  0.00    -0.080 A 
ATOM      4  C3  UNL d   1       3.013   0.879   3.636  0.00  0.00     0.150 A 
ATOM      5  C4  UNL d   1       3.890   0.045   4.320  0.00  0.00    -0.007 A 
ATOM      6  C5  UNL d   1       3.897  -1.323   4.048  0.00  0.00     0.039 A 
ENDROOT
BRANCH   4   7
ATOM      7  O   UNL d   1       3.038   2.208   3.938  0.00  0.00    -0.526 OA
ATOM      8  H5  UNL d   1       2.358   2.658   3.408  0.00  0.00     0.418 HD
ENDBRANCH   4   7
TORSDOF 1
ENDMDL
