MODEL 1
REMARK minimizedAffinity 3.24590087
REMARK minimizedRMSD -1
REMARK  1 active torsions:
REMARK  status: ('A' for Active; 'I' for Inactive)
REMARK    1  A    between atoms: C3_4  and  O_7 
ROOT
ATOM      1  C   UNL d   1       0.427   0.383   1.934  0.00  0.00    -0.033 A 
ATOM      2  C1  UNL d   1      -0.492   1.102   1.167  0.00  0.00     0.039 A 
ATOM      3  C2  UNL d   1      -0.454   1.022  -0.227  0.00  0.00    -0.080 A 
ATOM      4  C3  UNL d   1       0.506   0.222  -0.840  0.00  0.00     0.150 A 
ATOM      5  C4  UNL d   1       1.422  -0.499  -0.082  0.00  0.00    -0.007 A 
ATOM      6  C5  UNL d   1       1.383  -0.419   1.310  0.00  0.00     0.039 A 
ENDROOT
BRANCH   4   7
ATOM      7  O   UNL d   1       0.585   0.117  -2.197  0.00  0.00    -0.526 OA
ATOM      8  H5  UNL d   1      -0.092   0.693  -2.590  0.00  0.00     0.418 HD
ENDBRANCH   4   7
TORSDOF 1
ENDMDL
