MODEL 1
REMARK minimizedAffinity 0.335986763
REMARK minimizedRMSD -1
REMARK  1 active torsions:
REMARK  status: ('A' for Active; 'I' for Inactive)
REMARK    1  A    between atoms: C3_4  and  O_7 
ROOT
ATOM      1  C   UNL d   1      -4.210  -0.585  -5.292  0.00  0.00    -0.033 A 
ATOM      2  C1  UNL d   1      -3.604   0.479  -4.621  0.00  0.00     0.039 A 
ATOM      3  C2  UNL d   1      -4.194   1.744  -4.639  0.00  0.00    -0.080 A 
ATOM      4  C3  UNL d   1      -5.389   1.932  -5.329  0.00  0.00     0.150 A 
ATOM      5  C4  UNL d   1      -6.000   0.875  -5.996  0.00  0.00    -0.007 A 
ATOM      6  C5  UNL d   1      -5.408  -0.388  -5.978  0.00  0.00     0.039 A 
ENDROOT
BRANCH   4   7
ATOM      7  O   UNL d   1      -6.000   3.149  -5.379  0.00  0.00    -0.526 OA
ATOM      8  H5  UNL d   1      -5.449   3.790  -4.898  0.00  0.00     0.418 HD
ENDBRANCH   4   7
TORSDOF 1
ENDMDL
