MODEL 1
REMARK minimizedAffinity 4.37984943
REMARK minimizedRMSD -1
REMARK  1 active torsions:
REMARK  status: ('A' for Active; 'I' for Inactive)
REMARK    1  A    between atoms: C3_4  and  O_7 
ROOT
ATOM      1  C   UNL d   1      -4.849  -1.727  -5.565  0.00  0.00    -0.033 A 
ATOM      2  C1  UNL d   1      -3.679  -1.031  -5.256  0.00  0.00     0.039 A 
ATOM      3  C2  UNL d   1      -3.655   0.363  -5.321  0.00  0.00    -0.080 A 
ATOM      4  C3  UNL d   1      -4.808   1.049  -5.694  0.00  0.00     0.150 A 
ATOM      5  C4  UNL d   1      -5.978   0.363  -5.999  0.00  0.00    -0.007 A 
ATOM      6  C5  UNL d   1      -6.000  -1.030  -5.935  0.00  0.00     0.039 A 
ENDROOT
BRANCH   4   7
ATOM      7  O   UNL d   1      -4.832   2.410  -5.776  0.00  0.00    -0.526 OA
ATOM      8  H5  UNL d   1      -3.945   2.747  -5.566  0.00  0.00     0.418 HD
ENDBRANCH   4   7
TORSDOF 1
ENDMDL
