MODEL 1
REMARK minimizedAffinity 10.2122126
REMARK minimizedRMSD -1
REMARK  1 active torsions:
REMARK  status: ('A' for Active; 'I' for Inactive)
REMARK    1  A    between atoms: C3_4  and  O_7 
ROOT
ATOM      1  C   UNL d   1       3.739  -1.757   3.001  0.00  0.00    -0.033 A 
ATOM      2  C1  UNL d   1       2.533  -1.267   2.498  0.00  0.00     0.039 A 
ATOM      3  C2  UNL d   1       1.405  -1.207   3.319  0.00  0.00    -0.080 A 
ATOM      4  C3  UNL d   1       1.497  -1.639   4.639  0.00  0.00     0.150 A 
ATOM      5  C4  UNL d   1       2.697  -2.124   5.148  0.00  0.00    -0.007 A 
ATOM      6  C5  UNL d   1       3.822  -2.185   4.327  0.00  0.00     0.039 A 
ENDROOT
BRANCH   4   7
ATOM      7  O   UNL d   1       0.422  -1.604   5.477  0.00  0.00    -0.526 OA
ATOM      8  H5  UNL d   1      -0.345  -1.272   4.980  0.00  0.00     0.418 HD
ENDBRANCH   4   7
TORSDOF 1
ENDMDL
