MODEL 1
REMARK minimizedAffinity -4.07273149
REMARK minimizedRMSD -1
REMARK  2 active torsions:
REMARK  status: ('A' for Active; 'I' for Inactive)
REMARK    1  A    between atoms: C2'_3  and  C1'_4 
REMARK    2  A    between atoms: C1'_4  and  C1_5 
ROOT
ATOM      1  C1  I4B d   1      -0.666   3.088  -3.970  0.00  0.00    -0.075 A 
ATOM      2  C2  I4B d   1      -0.332   2.808  -2.668  0.00  0.00     0.003 A 
ATOM      3  C3  I4B d   1      -1.294   2.254  -1.789  0.00  0.00     0.002 A 
ATOM      4  C4  I4B d   1      -2.583   2.044  -2.237  0.00  0.00    -0.004 A 
ATOM      5  C5  I4B d   1      -2.913   2.307  -3.563  0.00  0.00     0.002 A 
ATOM      6  C6  I4B d   1      -1.946   2.821  -4.439  0.00  0.00     0.003 A 
ENDROOT
BRANCH   1   7
ATOM      7  C1' I4B d   1       0.365   3.704  -4.862  0.00  0.00     0.060 C 
BRANCH   7   8
ATOM      8  C2' I4B d   1       0.754   5.044  -4.271  0.00  0.00    -0.013 C 
ATOM      9  C4' I4B d   1       2.034   5.556  -4.875  0.00  0.00     0.013 C 
ATOM     10  C3' I4B d   1      -0.377   6.000  -4.508  0.00  0.00     0.013 C 
ENDBRANCH   7   8
ENDBRANCH   1   7
TORSDOF 2
ENDMDL
