MODEL 1
REMARK minimizedAffinity -3.24621892
REMARK minimizedRMSD -1
REMARK  2 active torsions:
REMARK  status: ('A' for Active; 'I' for Inactive)
REMARK    1  A    between atoms: C2'_3  and  C1'_4 
REMARK    2  A    between atoms: C1'_4  and  C1_5 
ROOT
ATOM      1  C1  I4B d   1      -0.046  -0.479   1.212  0.00  0.00    -0.075 A 
ATOM      2  C2  I4B d   1      -0.984   0.459   1.564  0.00  0.00     0.003 A 
ATOM      3  C3  I4B d   1      -1.705   0.326   2.776  0.00  0.00     0.002 A 
ATOM      4  C4  I4B d   1      -1.493  -0.779   3.575  0.00  0.00    -0.004 A 
ATOM      5  C5  I4B d   1      -0.526  -1.717   3.227  0.00  0.00     0.002 A 
ATOM      6  C6  I4B d   1       0.212  -1.561   2.045  0.00  0.00     0.003 A 
ENDROOT
BRANCH   1   7
ATOM      7  C1' I4B d   1       0.674  -0.325  -0.090  0.00  0.00     0.060 C 
BRANCH   7   8
ATOM      8  C2' I4B d   1       2.159  -0.460   0.178  0.00  0.00    -0.013 C 
ATOM      9  C4' I4B d   1       2.666   0.679   1.023  0.00  0.00     0.013 C 
ATOM     10  C3' I4B d   1       2.389  -1.780   0.852  0.00  0.00     0.013 C 
ENDBRANCH   7   8
ENDBRANCH   1   7
TORSDOF 2
ENDMDL
