MODEL 1
REMARK minimizedAffinity -4.91965485
REMARK minimizedRMSD -1
REMARK  2 active torsions:
REMARK  status: ('A' for Active; 'I' for Inactive)
REMARK    1  A    between atoms: C2'_3  and  C1'_4 
REMARK    2  A    between atoms: C1'_4  and  C1_5 
ROOT
ATOM      1  C1  I4B d   1      -0.098  -0.045   0.724  0.00  0.00    -0.075 A 
ATOM      2  C2  I4B d   1       1.025  -0.479   0.065  0.00  0.00     0.003 A 
ATOM      3  C3  I4B d   1       1.645  -1.696   0.439  0.00  0.00     0.002 A 
ATOM      4  C4  I4B d   1       1.143  -2.415   1.504  0.00  0.00    -0.004 A 
ATOM      5  C5  I4B d   1      -0.009  -1.985   2.156  0.00  0.00     0.002 A 
ATOM      6  C6  I4B d   1      -0.641  -0.799   1.756  0.00  0.00     0.003 A 
ENDROOT
BRANCH   1   7
ATOM      7  C1' I4B d   1      -0.709   1.261   0.324  0.00  0.00     0.060 C 
BRANCH   7   8
ATOM      8  C2' I4B d   1      -1.001   1.204  -1.162  0.00  0.00    -0.013 C 
ATOM      9  C4' I4B d   1      -2.453   0.899  -1.420  0.00  0.00     0.013 C 
ATOM     10  C3' I4B d   1      -0.609   2.521  -1.762  0.00  0.00     0.013 C 
ENDBRANCH   7   8
ENDBRANCH   1   7
TORSDOF 2
ENDMDL
