MODEL 1
REMARK minimizedAffinity -4.91911459
REMARK minimizedRMSD -1
REMARK  2 active torsions:
REMARK  status: ('A' for Active; 'I' for Inactive)
REMARK    1  A    between atoms: C2'_3  and  C1'_4 
REMARK    2  A    between atoms: C1'_4  and  C1_5 
ROOT
ATOM      1  C1  I4B d   1      -0.315   0.431   0.017  0.00  0.00    -0.075 A 
ATOM      2  C2  I4B d   1       0.959   0.429  -0.495  0.00  0.00     0.003 A 
ATOM      3  C3  I4B d   1       1.899  -0.538  -0.063  0.00  0.00     0.002 A 
ATOM      4  C4  I4B d   1       1.541  -1.446   0.912  0.00  0.00    -0.004 A 
ATOM      5  C5  I4B d   1       0.242  -1.457   1.413  0.00  0.00     0.002 A 
ATOM      6  C6  I4B d   1      -0.695  -0.520   0.954  0.00  0.00     0.003 A 
ENDROOT
BRANCH   1   7
ATOM      7  C1' I4B d   1      -1.272   1.488  -0.436  0.00  0.00     0.060 C 
BRANCH   7   8
ATOM      8  C2' I4B d   1      -1.355   1.424  -1.948  0.00  0.00    -0.013 C 
ATOM      9  C4' I4B d   1      -2.781   1.272  -2.409  0.00  0.00     0.013 C 
ATOM     10  C3' I4B d   1      -0.739   2.676  -2.498  0.00  0.00     0.013 C 
ENDBRANCH   7   8
ENDBRANCH   1   7
TORSDOF 2
ENDMDL
