MODEL 1
REMARK minimizedAffinity -2.58033848
REMARK minimizedRMSD -1
REMARK  2 active torsions:
REMARK  status: ('A' for Active; 'I' for Inactive)
REMARK    1  A    between atoms: C2'_3  and  C1'_4 
REMARK    2  A    between atoms: C1'_4  and  C1_5 
ROOT
ATOM      1  C1  I4B d   1      -0.236  -1.458   1.225  0.00  0.00    -0.075 A 
ATOM      2  C2  I4B d   1       0.608  -2.313   1.890  0.00  0.00     0.003 A 
ATOM      3  C3  I4B d   1       0.241  -2.838   3.152  0.00  0.00     0.002 A 
ATOM      4  C4  I4B d   1      -0.947  -2.446   3.733  0.00  0.00    -0.004 A 
ATOM      5  C5  I4B d   1      -1.812  -1.597   3.048  0.00  0.00     0.002 A 
ATOM      6  C6  I4B d   1      -1.461  -1.109   1.781  0.00  0.00     0.003 A 
ENDROOT
BRANCH   1   7
ATOM      7  C1' I4B d   1       0.197  -0.895  -0.091  0.00  0.00     0.060 C 
BRANCH   7   8
ATOM      8  C2' I4B d   1       0.682   0.521   0.143  0.00  0.00    -0.013 C 
ATOM      9  C4' I4B d   1       1.740   0.907  -0.857  0.00  0.00     0.013 C 
ATOM     10  C3' I4B d   1      -0.503   1.436   0.058  0.00  0.00     0.013 C 
ENDBRANCH   7   8
ENDBRANCH   1   7
TORSDOF 2
ENDMDL
