MODEL 1
REMARK minimizedAffinity -4.40091944
REMARK minimizedRMSD -1
REMARK  2 active torsions:
REMARK  status: ('A' for Active; 'I' for Inactive)
REMARK    1  A    between atoms: C2'_3  and  C1'_4 
REMARK    2  A    between atoms: C1'_4  and  C1_5 
ROOT
ATOM      1  C1  I4B d   1      -0.137   0.200  -0.059  0.00  0.00    -0.075 A 
ATOM      2  C2  I4B d   1       1.162   0.297  -0.491  0.00  0.00     0.003 A 
ATOM      3  C3  I4B d   1       2.089  -0.733  -0.199  0.00  0.00     0.002 A 
ATOM      4  C4  I4B d   1       1.689  -1.810   0.565  0.00  0.00    -0.004 A 
ATOM      5  C5  I4B d   1       0.366  -1.918   0.983  0.00  0.00     0.002 A 
ATOM      6  C6  I4B d   1      -0.557  -0.913   0.659  0.00  0.00     0.003 A 
ENDROOT
BRANCH   1   7
ATOM      7  C1' I4B d   1      -1.081   1.322  -0.356  0.00  0.00     0.060 C 
BRANCH   7   8
ATOM      8  C2' I4B d   1      -1.390   1.291  -1.839  0.00  0.00    -0.013 C 
ATOM      9  C4' I4B d   1      -2.799   0.822  -2.093  0.00  0.00     0.013 C 
ATOM     10  C3' I4B d   1      -1.171   2.669  -2.387  0.00  0.00     0.013 C 
ENDBRANCH   7   8
ENDBRANCH   1   7
TORSDOF 2
ENDMDL
