MODEL 1
REMARK minimizedAffinity -3.69387579
REMARK minimizedRMSD -1
REMARK  2 active torsions:
REMARK  status: ('A' for Active; 'I' for Inactive)
REMARK    1  A    between atoms: C2'_3  and  C1'_4 
REMARK    2  A    between atoms: C1'_4  and  C1_5 
ROOT
ATOM      1  C1  I4B d   1      -0.869   1.196  -0.524  0.00  0.00    -0.075 A 
ATOM      2  C2  I4B d   1      -1.742   0.777   0.449  0.00  0.00     0.003 A 
ATOM      3  C3  I4B d   1      -1.414  -0.324   1.276  0.00  0.00     0.002 A 
ATOM      4  C4  I4B d   1      -0.232  -1.005   1.064  0.00  0.00    -0.004 A 
ATOM      5  C5  I4B d   1       0.662  -0.565   0.092  0.00  0.00     0.002 A 
ATOM      6  C6  I4B d   1       0.348   0.550  -0.699  0.00  0.00     0.003 A 
ENDROOT
BRANCH   1   7
ATOM      7  C1' I4B d   1      -1.262   2.342  -1.401  0.00  0.00     0.060 C 
BRANCH   7   8
ATOM      8  C2' I4B d   1      -1.771   1.775  -2.710  0.00  0.00    -0.013 C 
ATOM      9  C4' I4B d   1      -3.276   1.777  -2.758  0.00  0.00     0.013 C 
ATOM     10  C3' I4B d   1      -1.193   2.594  -3.825  0.00  0.00     0.013 C 
ENDBRANCH   7   8
ENDBRANCH   1   7
TORSDOF 2
ENDMDL
