MODEL 1
REMARK minimizedAffinity -4.12278461
REMARK minimizedRMSD -1
REMARK  2 active torsions:
REMARK  status: ('A' for Active; 'I' for Inactive)
REMARK    1  A    between atoms: C2'_3  and  C1'_4 
REMARK    2  A    between atoms: C1'_4  and  C1_5 
ROOT
ATOM      1  C1  I4B d   1      -0.397  -1.082   0.560  0.00  0.00    -0.075 A 
ATOM      2  C2  I4B d   1       0.728  -1.790   0.217  0.00  0.00     0.003 A 
ATOM      3  C3  I4B d   1       1.401  -2.573   1.186  0.00  0.00     0.002 A 
ATOM      4  C4  I4B d   1       0.947  -2.578   2.490  0.00  0.00    -0.004 A 
ATOM      5  C5  I4B d   1      -0.207  -1.877   2.830  0.00  0.00     0.002 A 
ATOM      6  C6  I4B d   1      -0.890  -1.135   1.857  0.00  0.00     0.003 A 
ENDROOT
BRANCH   1   7
ATOM      7  C1' I4B d   1      -1.063  -0.240  -0.482  0.00  0.00     0.060 C 
BRANCH   7   8
ATOM      8  C2' I4B d   1      -0.468   1.151  -0.408  0.00  0.00    -0.013 C 
ATOM      9  C4' I4B d   1       1.012   1.126  -0.685  0.00  0.00     0.013 C 
ATOM     10  C3' I4B d   1      -1.189   2.016  -1.398  0.00  0.00     0.013 C 
ENDBRANCH   7   8
ENDBRANCH   1   7
TORSDOF 2
ENDMDL
