MODEL 1
REMARK minimizedAffinity -5.31562376
REMARK minimizedRMSD -1
REMARK  2 active torsions:
REMARK  status: ('A' for Active; 'I' for Inactive)
REMARK    1  A    between atoms: C2'_3  and  C1'_4 
REMARK    2  A    between atoms: C1'_4  and  C1_5 
ROOT
ATOM      1  C1  I4B d   1      -0.064  -0.184   0.013  0.00  0.00    -0.075 A 
ATOM      2  C2  I4B d   1       1.177  -0.104  -0.569  0.00  0.00     0.003 A 
ATOM      3  C3  I4B d   1       2.126  -1.136  -0.368  0.00  0.00     0.002 A 
ATOM      4  C4  I4B d   1       1.812  -2.197   0.457  0.00  0.00    -0.004 A 
ATOM      5  C5  I4B d   1       0.546  -2.287   1.028  0.00  0.00     0.002 A 
ATOM      6  C6  I4B d   1      -0.403  -1.281   0.794  0.00  0.00     0.003 A 
ENDROOT
BRANCH   1   7
ATOM      7  C1' I4B d   1      -1.030   0.939  -0.194  0.00  0.00     0.060 C 
BRANCH   7   8
ATOM      8  C2' I4B d   1      -1.101   1.226  -1.680  0.00  0.00    -0.013 C 
ATOM      9  C4' I4B d   1      -2.430   0.811  -2.253  0.00  0.00     0.013 C 
ATOM     10  C3' I4B d   1      -0.860   2.693  -1.880  0.00  0.00     0.013 C 
ENDBRANCH   7   8
ENDBRANCH   1   7
TORSDOF 2
ENDMDL
