MODEL 1
REMARK minimizedAffinity 13.0099554
REMARK minimizedRMSD -1
REMARK  0 active torsions:
REMARK  status: ('A' for Active; 'I' for Inactive)
ROOT
ATOM      1  C1  DEN d   1       4.047  -1.561  -2.995  0.00  0.00     0.130 A 
ATOM      2  C2  DEN d   1       2.842  -0.906  -2.494  0.00  0.00    -0.031 A 
ATOM      3  C3  DEN d   1       2.628   0.323  -3.283  0.00  0.00     0.027 A 
ATOM      4  C4  DEN d   1       4.036   1.270  -5.226  0.00  0.00     0.027 A 
ATOM      5  C5  DEN d   1       5.158   1.071  -6.000  0.00  0.00    -0.003 A 
ATOM      6  C6  DEN d   1       6.000   0.008  -5.806  0.00  0.00     0.001 A 
ATOM      7  C7  DEN d   1       5.708  -0.923  -4.844  0.00  0.00     0.017 A 
ATOM      8  C8  DEN d   1       4.583  -0.725  -4.054  0.00  0.00    -0.094 A 
ATOM      9  C9  DEN d   1       3.738   0.350  -4.274  0.00  0.00    -0.072 A 
ENDROOT
TORSDOF 0
ENDMDL
