MODEL 1
REMARK minimizedAffinity 9.86486435
REMARK minimizedRMSD -1
REMARK  0 active torsions:
REMARK  status: ('A' for Active; 'I' for Inactive)
ROOT
ATOM      1  C1  DEN d   1       4.997  -3.613   5.055  0.00  0.00     0.130 A 
ATOM      2  C2  DEN d   1       5.996  -3.352   4.023  0.00  0.00    -0.031 A 
ATOM      3  C3  DEN d   1       5.325  -2.668   2.900  0.00  0.00     0.027 A 
ATOM      4  C4  DEN d   1       2.848  -1.989   2.660  0.00  0.00     0.027 A 
ATOM      5  C5  DEN d   1       1.614  -2.011   3.272  0.00  0.00    -0.003 A 
ATOM      6  C6  DEN d   1       1.416  -2.594   4.495  0.00  0.00     0.001 A 
ATOM      7  C7  DEN d   1       2.477  -3.140   5.167  0.00  0.00     0.017 A 
ATOM      8  C8  DEN d   1       3.723  -3.128   4.554  0.00  0.00    -0.094 A 
ATOM      9  C9  DEN d   1       3.906  -2.522   3.322  0.00  0.00    -0.072 A 
ENDROOT
TORSDOF 0
ENDMDL
