MODEL 1
REMARK minimizedAffinity -4.91229153
REMARK minimizedRMSD -1
REMARK  0 active torsions:
REMARK  status: ('A' for Active; 'I' for Inactive)
ROOT
ATOM      1  C1  DEN d   1       3.578  -0.629   3.420  0.00  0.00     0.130 A 
ATOM      2  C2  DEN d   1       3.142  -1.828   4.132  0.00  0.00    -0.031 A 
ATOM      3  C3  DEN d   1       1.935  -2.346   3.456  0.00  0.00     0.027 A 
ATOM      4  C4  DEN d   1       0.710  -1.417   1.385  0.00  0.00     0.027 A 
ATOM      5  C5  DEN d   1       0.701  -0.411   0.444  0.00  0.00    -0.003 A 
ATOM      6  C6  DEN d   1       1.622   0.602   0.449  0.00  0.00     0.001 A 
ATOM      7  C7  DEN d   1       2.620   0.608   1.388  0.00  0.00     0.017 A 
ATOM      8  C8  DEN d   1       2.631  -0.398   2.345  0.00  0.00    -0.094 A 
ATOM      9  C9  DEN d   1       1.698  -1.420   2.316  0.00  0.00    -0.072 A 
ENDROOT
TORSDOF 0
ENDMDL
