MODEL 1
REMARK minimizedAffinity 6.79450274
REMARK minimizedRMSD -1
REMARK  0 active torsions:
REMARK  status: ('A' for Active; 'I' for Inactive)
ROOT
ATOM      1  C1  DEN d   1      -0.841  -0.607   0.449  0.00  0.00     0.130 A 
ATOM      2  C2  DEN d   1       0.124  -1.703   0.475  0.00  0.00    -0.031 A 
ATOM      3  C3  DEN d   1       1.479  -1.120   0.399  0.00  0.00     0.027 A 
ATOM      4  C4  DEN d   1       2.172   1.360   0.249  0.00  0.00     0.027 A 
ATOM      5  C5  DEN d   1       1.705   2.654   0.185  0.00  0.00    -0.003 A 
ATOM      6  C6  DEN d   1       0.368   2.948   0.170  0.00  0.00     0.001 A 
ATOM      7  C7  DEN d   1      -0.551   1.936   0.265  0.00  0.00     0.017 A 
ATOM      8  C8  DEN d   1      -0.088   0.628   0.323  0.00  0.00    -0.094 A 
ATOM      9  C9  DEN d   1       1.269   0.352   0.349  0.00  0.00    -0.072 A 
ENDROOT
TORSDOF 0
ENDMDL
