MODEL 1
REMARK minimizedAffinity 5.62222958
REMARK minimizedRMSD -1
REMARK  0 active torsions:
REMARK  status: ('A' for Active; 'I' for Inactive)
ROOT
ATOM      1  C1  DEN d   1      -1.277  -0.604   0.410  0.00  0.00     0.130 A 
ATOM      2  C2  DEN d   1      -0.669  -1.897   0.711  0.00  0.00    -0.031 A 
ATOM      3  C3  DEN d   1       0.766  -1.676   0.978  0.00  0.00     0.027 A 
ATOM      4  C4  DEN d   1       2.098   0.533   0.958  0.00  0.00     0.027 A 
ATOM      5  C5  DEN d   1       2.016   1.891   0.745  0.00  0.00    -0.003 A 
ATOM      6  C6  DEN d   1       0.848   2.503   0.375  0.00  0.00     0.001 A 
ATOM      7  C7  DEN d   1      -0.297   1.761   0.251  0.00  0.00     0.017 A 
ATOM      8  C8  DEN d   1      -0.221   0.390   0.457  0.00  0.00    -0.094 A 
ATOM      9  C9  DEN d   1       0.967  -0.208   0.842  0.00  0.00    -0.072 A 
ENDROOT
TORSDOF 0
ENDMDL
