MODEL 1
REMARK minimizedAffinity 3.06184053
REMARK minimizedRMSD -1
REMARK  0 active torsions:
REMARK  status: ('A' for Active; 'I' for Inactive)
ROOT
ATOM      1  C1  DEN d   1       0.568  -1.525   0.849  0.00  0.00     0.130 A 
ATOM      2  C2  DEN d   1       0.651  -2.585   1.851  0.00  0.00    -0.031 A 
ATOM      3  C3  DEN d   1       1.543  -2.121   2.932  0.00  0.00     0.027 A 
ATOM      4  C4  DEN d   1       2.793   0.125   3.154  0.00  0.00     0.027 A 
ATOM      5  C5  DEN d   1       3.040   1.336   2.547  0.00  0.00    -0.003 A 
ATOM      6  C6  DEN d   1       2.513   1.663   1.326  0.00  0.00     0.001 A 
ATOM      7  C7  DEN d   1       1.673   0.785   0.693  0.00  0.00     0.017 A 
ATOM      8  C8  DEN d   1       1.425  -0.442   1.295  0.00  0.00    -0.094 A 
ATOM      9  C9  DEN d   1       1.958  -0.748   2.535  0.00  0.00    -0.072 A 
ENDROOT
TORSDOF 0
ENDMDL
