MODEL 1
REMARK minimizedAffinity -1.15447247
REMARK minimizedRMSD -1
REMARK  1 active torsions:
REMARK  status: ('A' for Active; 'I' for Inactive)
REMARK    1  A    between atoms: C1_2  and  C2_3 
ROOT
ATOM      1  C2  UNL d   1       0.591  -0.562   2.733  0.00  0.00    -0.077 A 
ATOM      2  C3  UNL d   1      -0.620  -0.143   3.302  0.00  0.00     0.002 A 
ATOM      3  C4  UNL d   1      -1.692   0.227   2.488  0.00  0.00     0.002 A 
ATOM      4  C5  UNL d   1      -1.566   0.177   1.101  0.00  0.00    -0.004 A 
ATOM      5  C6  UNL d   1      -0.365  -0.237   0.526  0.00  0.00     0.002 A 
ATOM      6  C7  UNL d   1       0.708  -0.605   1.338  0.00  0.00     0.002 A 
ENDROOT
BRANCH   1   7
ATOM      7  C1  UNL d   1       1.732  -1.008   3.609  0.00  0.00     0.055 C 
ATOM      8  C   UNL d   1       1.227  -1.683   4.876  0.00  0.00     0.019 C 
ENDBRANCH   1   7
TORSDOF 1
ENDMDL
