MODEL 1
REMARK minimizedAffinity 2.18147397
REMARK minimizedRMSD -1
REMARK  1 active torsions:
REMARK  status: ('A' for Active; 'I' for Inactive)
REMARK    1  A    between atoms: C1_2  and  C2_3 
ROOT
ATOM      1  C2  UNL d   1       0.526  -0.155   0.912  0.00  0.00    -0.077 A 
ATOM      2  C3  UNL d   1       0.222  -0.885  -0.245  0.00  0.00     0.002 A 
ATOM      3  C4  UNL d   1      -1.102  -1.020  -0.668  0.00  0.00     0.002 A 
ATOM      4  C5  UNL d   1      -2.131  -0.425   0.058  0.00  0.00    -0.004 A 
ATOM      5  C6  UNL d   1      -1.839   0.302   1.212  0.00  0.00     0.002 A 
ATOM      6  C7  UNL d   1      -0.517   0.436   1.637  0.00  0.00     0.002 A 
ENDROOT
BRANCH   1   7
ATOM      7  C1  UNL d   1       1.957   0.033   1.343  0.00  0.00     0.055 C 
ATOM      8  C   UNL d   1       2.613   1.185   0.595  0.00  0.00     0.019 C 
ENDBRANCH   1   7
TORSDOF 1
ENDMDL
