MODEL 1
REMARK minimizedAffinity 3.35926485
REMARK minimizedRMSD -1
REMARK  1 active torsions:
REMARK  status: ('A' for Active; 'I' for Inactive)
REMARK    1  A    between atoms: C1_2  and  C2_3 
ROOT
ATOM      1  C2  UNL d   1       0.102  -0.614   2.246  0.00  0.00    -0.077 A 
ATOM      2  C3  UNL d   1       0.187  -0.465   0.854  0.00  0.00     0.002 A 
ATOM      3  C4  UNL d   1      -0.924  -0.049   0.119  0.00  0.00     0.002 A 
ATOM      4  C5  UNL d   1      -2.127   0.226   0.767  0.00  0.00    -0.004 A 
ATOM      5  C6  UNL d   1      -2.222   0.079   2.150  0.00  0.00     0.002 A 
ATOM      6  C7  UNL d   1      -1.113  -0.338   2.886  0.00  0.00     0.002 A 
ENDROOT
BRANCH   1   7
ATOM      7  C1  UNL d   1       1.313  -1.015   3.046  0.00  0.00     0.055 C 
ATOM      8  C   UNL d   1       0.930  -1.430   4.460  0.00  0.00     0.019 C 
ENDBRANCH   1   7
TORSDOF 1
ENDMDL
