MODEL 1
REMARK minimizedAffinity -4.0743742
REMARK minimizedRMSD -1
REMARK  1 active torsions:
REMARK  status: ('A' for Active; 'I' for Inactive)
REMARK    1  A    between atoms: C1_2  and  C2_3 
ROOT
ATOM      1  C2  UNL d   1       1.310  -0.818   3.474  0.00  0.00    -0.077 A 
ATOM      2  C3  UNL d   1      -0.015  -0.527   3.831  0.00  0.00     0.002 A 
ATOM      3  C4  UNL d   1      -0.917  -0.059   2.874  0.00  0.00     0.002 A 
ATOM      4  C5  UNL d   1      -0.506   0.119   1.554  0.00  0.00    -0.004 A 
ATOM      5  C6  UNL d   1       0.809  -0.165   1.190  0.00  0.00     0.002 A 
ATOM      6  C7  UNL d   1       1.713  -0.632   2.146  0.00  0.00     0.002 A 
ENDROOT
BRANCH   1   7
ATOM      7  C1  UNL d   1       2.271  -1.369   4.494  0.00  0.00     0.055 C 
ATOM      8  C   UNL d   1       1.780  -1.116   5.912  0.00  0.00     0.019 C 
ENDBRANCH   1   7
TORSDOF 1
ENDMDL
