MODEL 1
REMARK minimizedAffinity -3.42495847
REMARK minimizedRMSD -1
REMARK  1 active torsions:
REMARK  status: ('A' for Active; 'I' for Inactive)
REMARK    1  A    between atoms: C1_2  and  C2_3 
ROOT
ATOM      1  C2  UNL d   1       1.948  -0.132   2.467  0.00  0.00    -0.077 A 
ATOM      2  C3  UNL d   1       0.986  -0.482   3.425  0.00  0.00     0.002 A 
ATOM      3  C4  UNL d   1       1.374  -1.052   4.639  0.00  0.00     0.002 A 
ATOM      4  C5  UNL d   1       2.723  -1.273   4.908  0.00  0.00    -0.004 A 
ATOM      5  C6  UNL d   1       3.687  -0.930   3.961  0.00  0.00     0.002 A 
ATOM      6  C7  UNL d   1       3.301  -0.361   2.746  0.00  0.00     0.002 A 
ENDROOT
BRANCH   1   7
ATOM      7  C1  UNL d   1       1.535   0.529   1.178  0.00  0.00     0.055 C 
ATOM      8  C   UNL d   1       2.694   1.291   0.551  0.00  0.00     0.019 C 
ENDBRANCH   1   7
TORSDOF 1
ENDMDL
