MODEL 1
REMARK minimizedAffinity -1.8632834
REMARK minimizedRMSD -1
REMARK  1 active torsions:
REMARK  status: ('A' for Active; 'I' for Inactive)
REMARK    1  A    between atoms: C1_2  and  C2_3 
ROOT
ATOM      1  C2  UNL d   1      -1.662  -0.504   3.354  0.00  0.00    -0.077 A 
ATOM      2  C3  UNL d   1      -2.562  -1.314   4.061  0.00  0.00     0.002 A 
ATOM      3  C4  UNL d   1      -2.092  -2.265   4.970  0.00  0.00     0.002 A 
ATOM      4  C5  UNL d   1      -0.722  -2.411   5.182  0.00  0.00    -0.004 A 
ATOM      5  C6  UNL d   1       0.180  -1.611   4.482  0.00  0.00     0.002 A 
ATOM      6  C7  UNL d   1      -0.288  -0.661   3.573  0.00  0.00     0.002 A 
ENDROOT
BRANCH   1   7
ATOM      7  C1  UNL d   1      -2.169   0.555   2.411  0.00  0.00     0.055 C 
ATOM      8  C   UNL d   1      -2.240   0.036   0.982  0.00  0.00     0.019 C 
ENDBRANCH   1   7
TORSDOF 1
ENDMDL
