MODEL 1
REMARK minimizedAffinity 14.1379175
REMARK minimizedRMSD -1
REMARK  2 active torsions:
REMARK  status: ('A' for Active; 'I' for Inactive)
REMARK    1  A    between atoms: C2'_3  and  C1'_4 
REMARK    2  A    between atoms: C1'_4  and  C1_5 
ROOT
ATOM      1  C1  I4B d   1      -0.511   2.966  -1.475  0.00  0.00    -0.075 A 
ATOM      2  C2  I4B d   1       0.545   2.689  -0.643  0.00  0.00     0.003 A 
ATOM      3  C3  I4B d   1       0.314   2.313   0.702  0.00  0.00     0.002 A 
ATOM      4  C4  I4B d   1      -0.978   2.275   1.185  0.00  0.00    -0.004 A 
ATOM      5  C5  I4B d   1      -2.049   2.533   0.334  0.00  0.00     0.002 A 
ATOM      6  C6  I4B d   1      -1.815   2.869  -1.007  0.00  0.00     0.003 A 
ENDROOT
BRANCH   1   7
ATOM      7  C1' I4B d   1      -0.230   3.393  -2.880  0.00  0.00     0.060 C 
BRANCH   7   8
ATOM      8  C2' I4B d   1      -1.551   3.744  -3.535  0.00  0.00    -0.013 C 
ATOM      9  C4' I4B d   1      -1.546   5.160  -4.047  0.00  0.00     0.013 C 
ATOM     10  C3' I4B d   1      -1.790   2.767  -4.647  0.00  0.00     0.013 C 
ENDBRANCH   7   8
ENDBRANCH   1   7
TORSDOF 2
ENDMDL
