MODEL 1
REMARK minimizedAffinity 17.5717239
REMARK minimizedRMSD -1
REMARK  2 active torsions:
REMARK  status: ('A' for Active; 'I' for Inactive)
REMARK    1  A    between atoms: C2'_3  and  C1'_4 
REMARK    2  A    between atoms: C1'_4  and  C1_5 
ROOT
ATOM      1  C1  I4B d   1      -3.970   2.761   0.975  0.00  0.00    -0.075 A 
ATOM      2  C2  I4B d   1      -4.674   1.634   1.321  0.00  0.00     0.003 A 
ATOM      3  C3  I4B d   1      -4.366   0.389   0.721  0.00  0.00     0.002 A 
ATOM      4  C4  I4B d   1      -3.386   0.326  -0.249  0.00  0.00    -0.004 A 
ATOM      5  C5  I4B d   1      -2.658   1.465  -0.581  0.00  0.00     0.002 A 
ATOM      6  C6  I4B d   1      -2.943   2.688   0.044  0.00  0.00     0.003 A 
ENDROOT
BRANCH   1   7
ATOM      7  C1' I4B d   1      -4.344   4.065   1.604  0.00  0.00     0.060 C 
BRANCH   7   8
ATOM      8  C2' I4B d   1      -4.086   5.163   0.592  0.00  0.00    -0.013 C 
ATOM      9  C4' I4B d   1      -5.319   5.998   0.368  0.00  0.00     0.013 C 
ATOM     10  C3' I4B d   1      -2.948   6.000   1.096  0.00  0.00     0.013 C 
ENDBRANCH   7   8
ENDBRANCH   1   7
TORSDOF 2
ENDMDL
