MODEL 1
REMARK minimizedAffinity 12.368907
REMARK minimizedRMSD -1
REMARK  2 active torsions:
REMARK  status: ('A' for Active; 'I' for Inactive)
REMARK    1  A    between atoms: C2'_3  and  C1'_4 
REMARK    2  A    between atoms: C1'_4  and  C1_5 
ROOT
ATOM      1  C1  I4B d   1      -3.143   3.423  -4.800  0.00  0.00    -0.075 A 
ATOM      2  C2  I4B d   1      -2.243   3.756  -3.819  0.00  0.00     0.003 A 
ATOM      3  C3  I4B d   1      -1.720   5.070  -3.746  0.00  0.00     0.002 A 
ATOM      4  C4  I4B d   1      -2.085   6.000  -4.698  0.00  0.00    -0.004 A 
ATOM      5  C5  I4B d   1      -3.016   5.667  -5.678  0.00  0.00     0.002 A 
ATOM      6  C6  I4B d   1      -3.558   4.375  -5.723  0.00  0.00     0.003 A 
ENDROOT
BRANCH   1   7
ATOM      7  C1' I4B d   1      -3.650   2.017  -4.867  0.00  0.00     0.060 C 
BRANCH   7   8
ATOM      8  C2' I4B d   1      -5.153   2.053  -4.679  0.00  0.00    -0.013 C 
ATOM      9  C4' I4B d   1      -5.865   2.178  -6.000  0.00  0.00     0.013 C 
ATOM     10  C3' I4B d   1      -5.559   0.801  -3.961  0.00  0.00     0.013 C 
ENDBRANCH   7   8
ENDBRANCH   1   7
TORSDOF 2
ENDMDL
