MODEL 1
REMARK minimizedAffinity 19.0615482
REMARK minimizedRMSD -1
REMARK  2 active torsions:
REMARK  status: ('A' for Active; 'I' for Inactive)
REMARK    1  A    between atoms: C2'_3  and  C1'_4 
REMARK    2  A    between atoms: C1'_4  and  C1_5 
ROOT
ATOM      1  C1  I4B d   1      -2.762   3.002  -4.794  0.00  0.00    -0.075 A 
ATOM      2  C2  I4B d   1      -1.886   3.113  -3.743  0.00  0.00     0.003 A 
ATOM      3  C3  I4B d   1      -1.322   4.370  -3.415  0.00  0.00     0.002 A 
ATOM      4  C4  I4B d   1      -1.621   5.472  -4.190  0.00  0.00    -0.004 A 
ATOM      5  C5  I4B d   1      -2.527   5.362  -5.240  0.00  0.00     0.002 A 
ATOM      6  C6  I4B d   1      -3.111   4.122  -5.537  0.00  0.00     0.003 A 
ENDROOT
BRANCH   1   7
ATOM      7  C1' I4B d   1      -3.313   1.654  -5.133  0.00  0.00     0.060 C 
BRANCH   7   8
ATOM      8  C2' I4B d   1      -4.643   1.500  -4.424  0.00  0.00    -0.013 C 
ATOM      9  C4' I4B d   1      -5.662   0.838  -5.312  0.00  0.00     0.013 C 
ATOM     10  C3' I4B d   1      -4.412   0.702  -3.176  0.00  0.00     0.013 C 
ENDBRANCH   7   8
ENDBRANCH   1   7
TORSDOF 2
ENDMDL
