MODEL 1
REMARK minimizedAffinity 9.01802921
REMARK minimizedRMSD -1
REMARK  2 active torsions:
REMARK  status: ('A' for Active; 'I' for Inactive)
REMARK    1  A    between atoms: C2'_3  and  C1'_4 
REMARK    2  A    between atoms: C1'_4  and  C1_5 
ROOT
ATOM      1  C1  I4B d   1      -3.306  -3.689   4.610  0.00  0.00    -0.075 A 
ATOM      2  C2  I4B d   1      -3.740  -2.857   5.612  0.00  0.00     0.003 A 
ATOM      3  C3  I4B d   1      -5.102  -2.858   5.999  0.00  0.00     0.002 A 
ATOM      4  C4  I4B d   1      -5.999  -3.664   5.328  0.00  0.00    -0.004 A 
ATOM      5  C5  I4B d   1      -5.553  -4.523   4.328  0.00  0.00     0.002 A 
ATOM      6  C6  I4B d   1      -4.196  -4.546   3.975  0.00  0.00     0.003 A 
ENDROOT
BRANCH   1   7
ATOM      7  C1' I4B d   1      -1.867  -3.640   4.205  0.00  0.00     0.060 C 
BRANCH   7   8
ATOM      8  C2' I4B d   1      -1.079  -3.040   5.352  0.00  0.00    -0.013 C 
ATOM      9  C4' I4B d   1      -0.185  -4.067   5.995  0.00  0.00     0.013 C 
ATOM     10  C3' I4B d   1      -0.282  -1.889   4.814  0.00  0.00     0.013 C 
ENDBRANCH   7   8
ENDBRANCH   1   7
TORSDOF 2
ENDMDL
