MODEL 1
REMARK minimizedAffinity 1.82484448
REMARK minimizedRMSD -1
REMARK  2 active torsions:
REMARK  status: ('A' for Active; 'I' for Inactive)
REMARK    1  A    between atoms: C2'_3  and  C1'_4 
REMARK    2  A    between atoms: C1'_4  and  C1_5 
ROOT
ATOM      1  C1  I4B d   1      -0.292   2.561  -0.424  0.00  0.00    -0.075 A 
ATOM      2  C2  I4B d   1      -0.674   2.234   0.853  0.00  0.00     0.003 A 
ATOM      3  C3  I4B d   1      -0.308   3.063   1.941  0.00  0.00     0.002 A 
ATOM      4  C4  I4B d   1       0.478   4.174   1.715  0.00  0.00    -0.004 A 
ATOM      5  C5  I4B d   1       0.845   4.517   0.417  0.00  0.00     0.002 A 
ATOM      6  C6  I4B d   1       0.447   3.713  -0.661  0.00  0.00     0.003 A 
ENDROOT
BRANCH   1   7
ATOM      7  C1' I4B d   1      -0.668   1.646  -1.545  0.00  0.00     0.060 C 
BRANCH   7   8
ATOM      8  C2' I4B d   1      -1.938   2.179  -2.177  0.00  0.00    -0.013 C 
ATOM      9  C4' I4B d   1      -1.632   3.210  -3.232  0.00  0.00     0.013 C 
ATOM     10  C3' I4B d   1      -2.690   1.018  -2.757  0.00  0.00     0.013 C 
ENDBRANCH   7   8
ENDBRANCH   1   7
TORSDOF 2
ENDMDL
