MODEL 1
REMARK minimizedAffinity 26.2658463
REMARK minimizedRMSD -1
REMARK  2 active torsions:
REMARK  status: ('A' for Active; 'I' for Inactive)
REMARK    1  A    between atoms: C2'_3  and  C1'_4 
REMARK    2  A    between atoms: C1'_4  and  C1_5 
ROOT
ATOM      1  C1  I4B d   1      -4.882   5.122  -1.140  0.00  0.00    -0.075 A 
ATOM      2  C2  I4B d   1      -5.960   5.491  -0.374  0.00  0.00     0.003 A 
ATOM      3  C3  I4B d   1      -5.767   5.962   0.947  0.00  0.00     0.002 A 
ATOM      4  C4  I4B d   1      -4.493   6.000   1.476  0.00  0.00    -0.004 A 
ATOM      5  C5  I4B d   1      -3.400   5.647   0.690  0.00  0.00     0.002 A 
ATOM      6  C6  I4B d   1      -3.594   5.217  -0.631  0.00  0.00     0.003 A 
ENDROOT
BRANCH   1   7
ATOM      7  C1' I4B d   1      -5.125   4.598  -2.520  0.00  0.00     0.060 C 
BRANCH   7   8
ATOM      8  C2' I4B d   1      -3.785   4.475  -3.215  0.00  0.00    -0.013 C 
ATOM      9  C4' I4B d   1      -3.529   3.060  -3.661  0.00  0.00     0.013 C 
ATOM     10  C3' I4B d   1      -3.779   5.420  -4.380  0.00  0.00     0.013 C 
ENDBRANCH   7   8
ENDBRANCH   1   7
TORSDOF 2
ENDMDL
