MODEL 1
REMARK minimizedAffinity 16.9775696
REMARK minimizedRMSD -1
REMARK  2 active torsions:
REMARK  status: ('A' for Active; 'I' for Inactive)
REMARK    1  A    between atoms: C2'_3  and  C1'_4 
REMARK    2  A    between atoms: C1'_4  and  C1_5 
ROOT
ATOM      1  C1  I4B d   1      -3.500  -3.131   5.231  0.00  0.00    -0.075 A 
ATOM      2  C2  I4B d   1      -3.686  -4.290   4.520  0.00  0.00     0.003 A 
ATOM      3  C3  I4B d   1      -4.959  -4.908   4.483  0.00  0.00     0.002 A 
ATOM      4  C4  I4B d   1      -5.999  -4.364   5.209  0.00  0.00    -0.004 A 
ATOM      5  C5  I4B d   1      -5.815  -3.176   5.911  0.00  0.00     0.002 A 
ATOM      6  C6  I4B d   1      -4.561  -2.548   5.912  0.00  0.00     0.003 A 
ENDROOT
BRANCH   1   7
ATOM      7  C1' I4B d   1      -2.134  -2.523   5.275  0.00  0.00     0.060 C 
BRANCH   7   8
ATOM      8  C2' I4B d   1      -1.140  -3.576   4.829  0.00  0.00    -0.013 C 
ATOM      9  C4' I4B d   1      -0.323  -3.095   3.659  0.00  0.00     0.013 C 
ATOM     10  C3' I4B d   1      -0.264  -3.911   6.000  0.00  0.00     0.013 C 
ENDBRANCH   7   8
ENDBRANCH   1   7
TORSDOF 2
ENDMDL
