MODEL 1
REMARK minimizedAffinity 13.5130215
REMARK minimizedRMSD -1
REMARK  0 active torsions:
REMARK  status: ('A' for Active; 'I' for Inactive)
ROOT
ATOM      1  C   UNL d   1       4.080  -1.011  -5.359  0.00  0.00     0.023 A 
ATOM      2  C1  UNL d   1       3.281   0.114  -5.153  0.00  0.00     0.003 A 
ATOM      3  C2  UNL d   1       3.829   1.392  -5.273  0.00  0.00     0.048 A 
ATOM      4  C3  UNL d   1       5.176   1.539  -5.600  0.00  0.00     0.023 A 
ATOM      5  C4  UNL d   1       5.980   0.416  -5.807  0.00  0.00     0.048 A 
ATOM      6  C5  UNL d   1       5.428  -0.860  -5.685  0.00  0.00     0.003 A 
ATOM      7  I   UNL d   1       5.994   3.441  -5.779  0.00  0.00    -0.146 I 
ENDROOT
TORSDOF 0
ENDMDL
