MODEL 1
REMARK minimizedAffinity 17.5380592
REMARK minimizedRMSD -1
REMARK  0 active torsions:
REMARK  status: ('A' for Active; 'I' for Inactive)
ROOT
ATOM      1  C   UNL d   1       4.799   4.718  -5.992  0.00  0.00     0.023 A 
ATOM      2  C1  UNL d   1       5.999   4.007  -5.968  0.00  0.00     0.003 A 
ATOM      3  C2  UNL d   1       5.987   2.620  -5.809  0.00  0.00     0.048 A 
ATOM      4  C3  UNL d   1       4.772   1.949  -5.674  0.00  0.00     0.023 A 
ATOM      5  C4  UNL d   1       3.569   2.656  -5.698  0.00  0.00     0.048 A 
ATOM      6  C5  UNL d   1       3.585   4.043  -5.857  0.00  0.00     0.003 A 
ATOM      7  I   UNL d   1       4.752  -0.115  -5.437  0.00  0.00    -0.146 I 
ENDROOT
TORSDOF 0
ENDMDL
