MODEL 1
REMARK minimizedAffinity 15.222332
REMARK minimizedRMSD -1
REMARK  0 active torsions:
REMARK  status: ('A' for Active; 'I' for Inactive)
ROOT
ATOM      1  C   UNL d   1       0.526   0.899   2.699  0.00  0.00     0.023 A 
ATOM      2  C1  UNL d   1       0.694  -0.451   2.395  0.00  0.00     0.003 A 
ATOM      3  C2  UNL d   1      -0.269  -1.123   1.638  0.00  0.00     0.048 A 
ATOM      4  C3  UNL d   1      -1.397  -0.437   1.188  0.00  0.00     0.023 A 
ATOM      5  C4  UNL d   1      -1.568   0.915   1.490  0.00  0.00     0.048 A 
ATOM      6  C5  UNL d   1      -0.604   1.582   2.247  0.00  0.00     0.003 A 
ATOM      7  I   UNL d   1      -2.831  -1.434   0.062  0.00  0.00    -0.146 I 
ENDROOT
TORSDOF 0
ENDMDL
