MODEL 1
REMARK minimizedAffinity 8.25565338
REMARK minimizedRMSD -1
REMARK  0 active torsions:
REMARK  status: ('A' for Active; 'I' for Inactive)
ROOT
ATOM      1  C   UNL d   1      -0.007  -0.607   1.994  0.00  0.00     0.023 A 
ATOM      2  C1  UNL d   1      -0.741   0.573   2.107  0.00  0.00     0.003 A 
ATOM      3  C2  UNL d   1      -0.496   1.450   3.166  0.00  0.00     0.048 A 
ATOM      4  C3  UNL d   1       0.484   1.140   4.108  0.00  0.00     0.023 A 
ATOM      5  C4  UNL d   1       1.222  -0.040   3.998  0.00  0.00     0.048 A 
ATOM      6  C5  UNL d   1       0.973  -0.914   2.938  0.00  0.00     0.003 A 
ATOM      7  I   UNL d   1       0.850   2.444   5.685  0.00  0.00    -0.146 I 
ENDROOT
TORSDOF 0
ENDMDL
