MODEL 1
REMARK minimizedAffinity 5.69932795
REMARK minimizedRMSD -1
REMARK  0 active torsions:
REMARK  status: ('A' for Active; 'I' for Inactive)
ROOT
ATOM      1  C   UNL d   1       4.433   6.000   1.647  0.00  0.00     0.023 A 
ATOM      2  C1  UNL d   1       5.422   5.907   2.626  0.00  0.00     0.003 A 
ATOM      3  C2  UNL d   1       5.727   4.670   3.198  0.00  0.00     0.048 A 
ATOM      4  C3  UNL d   1       5.040   3.530   2.785  0.00  0.00     0.023 A 
ATOM      5  C4  UNL d   1       4.049   3.617   1.805  0.00  0.00     0.048 A 
ATOM      6  C5  UNL d   1       3.747   4.856   1.237  0.00  0.00     0.003 A 
ATOM      7  I   UNL d   1       5.492   1.687   3.634  0.00  0.00    -0.146 I 
ENDROOT
TORSDOF 0
ENDMDL
