MODEL 1
REMARK minimizedAffinity 12.3524208
REMARK minimizedRMSD -1
REMARK  0 active torsions:
REMARK  status: ('A' for Active; 'I' for Inactive)
ROOT
ATOM      1  C   UNL d   1      -0.020   0.776   2.520  0.00  0.00     0.023 A 
ATOM      2  C1  UNL d   1      -0.131  -0.553   2.110  0.00  0.00     0.003 A 
ATOM      3  C2  UNL d   1       0.485  -1.566   2.847  0.00  0.00     0.048 A 
ATOM      4  C3  UNL d   1       1.210  -1.244   3.994  0.00  0.00     0.023 A 
ATOM      5  C4  UNL d   1       1.324   0.085   4.408  0.00  0.00     0.048 A 
ATOM      6  C5  UNL d   1       0.707   1.094   3.667  0.00  0.00     0.003 A 
ATOM      7  I   UNL d   1       2.128  -2.750   5.093  0.00  0.00    -0.146 I 
ENDROOT
TORSDOF 0
ENDMDL
