MODEL 1
REMARK minimizedAffinity 9.4427681
REMARK minimizedRMSD -1
REMARK  0 active torsions:
REMARK  status: ('A' for Active; 'I' for Inactive)
ROOT
ATOM      1  C   UNL d   1       0.962   0.354   3.191  0.00  0.00     0.023 A 
ATOM      2  C1  UNL d   1      -0.126   1.120   2.773  0.00  0.00     0.003 A 
ATOM      3  C2  UNL d   1      -1.381   0.528   2.619  0.00  0.00     0.048 A 
ATOM      4  C3  UNL d   1      -1.541  -0.832   2.886  0.00  0.00     0.023 A 
ATOM      5  C4  UNL d   1      -0.455  -1.602   3.305  0.00  0.00     0.048 A 
ATOM      6  C5  UNL d   1       0.798  -1.005   3.457  0.00  0.00     0.003 A 
ATOM      7  I   UNL d   1      -3.408  -1.716   2.658  0.00  0.00    -0.146 I 
ENDROOT
TORSDOF 0
ENDMDL
