MODEL 1
REMARK minimizedAffinity 26.2173443
REMARK minimizedRMSD -1
REMARK  0 active torsions:
REMARK  status: ('A' for Active; 'I' for Inactive)
ROOT
ATOM      1  C   UNL d   1       5.639   4.664   0.727  0.00  0.00     0.124 A 
ATOM      2  C1  UNL d   1       5.665   4.049  -0.517  0.00  0.00     0.062 A 
ATOM      3  C2  UNL d   1       5.768   2.664  -0.612  0.00  0.00     0.162 A 
ATOM      4  C3  UNL d   1       5.845   1.884   0.542  0.00  0.00    -0.034 A 
ATOM      5  C4  UNL d   1       5.819   2.510   1.790  0.00  0.00     0.162 A 
ATOM      6  C5  UNL d   1       5.716   3.894   1.879  0.00  0.00     0.062 A 
ATOM      7  F   UNL d   1       5.691   4.486   3.082  0.00  0.00    -0.097 F 
ATOM      8  F1  UNL d   1       5.892   1.790   2.919  0.00  0.00    -0.096 F 
ATOM      9  I   UNL d   1       5.999  -0.187   0.405  0.00  0.00    -0.060 I 
ATOM     10  F2  UNL d   1       5.791   2.097  -1.827  0.00  0.00    -0.096 F 
ATOM     11  F3  UNL d   1       5.592   4.791  -1.632  0.00  0.00    -0.097 F 
ATOM     12  F4  UNL d   1       5.541   5.997   0.815  0.00  0.00    -0.092 F 
ENDROOT
TORSDOF 0
ENDMDL
