MODEL 1
REMARK minimizedAffinity 31.8912983
REMARK minimizedRMSD -1
REMARK  0 active torsions:
REMARK  status: ('A' for Active; 'I' for Inactive)
ROOT
ATOM      1  C   UNL d   1      -3.084   1.115  -5.072  0.00  0.00     0.124 A 
ATOM      2  C1  UNL d   1      -2.994   2.497  -5.166  0.00  0.00     0.062 A 
ATOM      3  C2  UNL d   1      -3.825   3.306  -4.397  0.00  0.00     0.162 A 
ATOM      4  C3  UNL d   1      -4.754   2.735  -3.527  0.00  0.00    -0.034 A 
ATOM      5  C4  UNL d   1      -4.839   1.345  -3.439  0.00  0.00     0.162 A 
ATOM      6  C5  UNL d   1      -4.006   0.540  -4.209  0.00  0.00     0.062 A 
ATOM      7  F   UNL d   1      -4.095  -0.795  -4.118  0.00  0.00    -0.097 F 
ATOM      8  F1  UNL d   1      -5.721   0.763  -2.612  0.00  0.00    -0.096 F 
ATOM      9  I   UNL d   1      -5.999   3.942  -2.375  0.00  0.00    -0.060 I 
ATOM     10  F2  UNL d   1      -3.716   4.638  -4.507  0.00  0.00    -0.096 F 
ATOM     11  F3  UNL d   1      -2.104   3.054  -5.999  0.00  0.00    -0.097 F 
ATOM     12  F4  UNL d   1      -2.283   0.339  -5.814  0.00  0.00    -0.092 F 
ENDROOT
TORSDOF 0
ENDMDL
