MODEL 1
REMARK minimizedAffinity 12.3176937
REMARK minimizedRMSD -1
REMARK  0 active torsions:
REMARK  status: ('A' for Active; 'I' for Inactive)
ROOT
ATOM      1  C   UNL d   1       3.706  -2.949  -2.068  0.00  0.00     0.124 A 
ATOM      2  C1  UNL d   1       3.083  -2.670  -0.859  0.00  0.00     0.062 A 
ATOM      3  C2  UNL d   1       3.191  -1.404  -0.291  0.00  0.00     0.162 A 
ATOM      4  C3  UNL d   1       3.924  -0.406  -0.932  0.00  0.00    -0.034 A 
ATOM      5  C4  UNL d   1       4.549  -0.693  -2.146  0.00  0.00     0.162 A 
ATOM      6  C5  UNL d   1       4.438  -1.960  -2.710  0.00  0.00     0.062 A 
ATOM      7  F   UNL d   1       5.041  -2.227  -3.878  0.00  0.00    -0.097 F 
ATOM      8  F1  UNL d   1       5.262   0.243  -2.789  0.00  0.00    -0.096 F 
ATOM      9  I   UNL d   1       4.088   1.489  -0.086  0.00  0.00    -0.060 I 
ATOM     10  F2  UNL d   1       2.578  -1.164   0.878  0.00  0.00    -0.096 F 
ATOM     11  F3  UNL d   1       2.375  -3.624  -0.236  0.00  0.00    -0.097 F 
ATOM     12  F4  UNL d   1       3.602  -4.168  -2.611  0.00  0.00    -0.092 F 
ENDROOT
TORSDOF 0
ENDMDL
