MODEL 1
REMARK minimizedAffinity 24.1192207
REMARK minimizedRMSD -1
REMARK  0 active torsions:
REMARK  status: ('A' for Active; 'I' for Inactive)
ROOT
ATOM      1  C   UNL d   1       2.423  -3.230  -1.390  0.00  0.00     0.124 A 
ATOM      2  C1  UNL d   1       2.737  -2.573  -2.572  0.00  0.00     0.062 A 
ATOM      3  C2  UNL d   1       3.412  -1.356  -2.538  0.00  0.00     0.162 A 
ATOM      4  C3  UNL d   1       3.778  -0.788  -1.317  0.00  0.00    -0.034 A 
ATOM      5  C4  UNL d   1       3.457  -1.454  -0.133  0.00  0.00     0.162 A 
ATOM      6  C5  UNL d   1       2.783  -2.670  -0.173  0.00  0.00     0.062 A 
ATOM      7  F   UNL d   1       2.480  -3.304   0.970  0.00  0.00    -0.097 F 
ATOM      8  F1  UNL d   1       3.794  -0.937   1.057  0.00  0.00    -0.096 F 
ATOM      9  I   UNL d   1       4.786   1.031  -1.262  0.00  0.00    -0.060 I 
ATOM     10  F2  UNL d   1       3.702  -0.743  -3.695  0.00  0.00    -0.096 F 
ATOM     11  F3  UNL d   1       2.389  -3.111  -3.750  0.00  0.00    -0.097 F 
ATOM     12  F4  UNL d   1       1.773  -4.400  -1.426  0.00  0.00    -0.092 F 
ENDROOT
TORSDOF 0
ENDMDL
