MODEL 1
REMARK minimizedAffinity 5.44183254
REMARK minimizedRMSD -1
REMARK  0 active torsions:
REMARK  status: ('A' for Active; 'I' for Inactive)
ROOT
ATOM      1  C   UNL d   1       3.763  -2.824  -2.236  0.00  0.00     0.124 A 
ATOM      2  C1  UNL d   1       3.139  -2.188  -1.172  0.00  0.00     0.062 A 
ATOM      3  C2  UNL d   1       3.473  -0.876  -0.848  0.00  0.00     0.162 A 
ATOM      4  C3  UNL d   1       4.436  -0.191  -1.588  0.00  0.00    -0.034 A 
ATOM      5  C4  UNL d   1       5.061  -0.838  -2.656  0.00  0.00     0.162 A 
ATOM      6  C5  UNL d   1       4.723  -2.149  -2.977  0.00  0.00     0.062 A 
ATOM      7  F   UNL d   1       5.328  -2.762  -4.005  0.00  0.00    -0.097 F 
ATOM      8  F1  UNL d   1       5.991  -0.209  -3.389  0.00  0.00    -0.096 F 
ATOM      9  I   UNL d   1       4.938   1.770  -1.106  0.00  0.00    -0.060 I 
ATOM     10  F2  UNL d   1       2.853  -0.286   0.185  0.00  0.00    -0.096 F 
ATOM     11  F3  UNL d   1       2.212  -2.838  -0.455  0.00  0.00    -0.097 F 
ATOM     12  F4  UNL d   1       3.441  -4.086  -2.546  0.00  0.00    -0.092 F 
ENDROOT
TORSDOF 0
ENDMDL
