MODEL 1
REMARK minimizedAffinity 21.4906044
REMARK minimizedRMSD -1
REMARK  0 active torsions:
REMARK  status: ('A' for Active; 'I' for Inactive)
ROOT
ATOM      1  C   UNL d   1       4.933   1.427  -0.650  0.00  0.00     0.124 A 
ATOM      2  C1  UNL d   1       3.843   0.723  -1.144  0.00  0.00     0.062 A 
ATOM      3  C2  UNL d   1       2.733   0.494  -0.336  0.00  0.00     0.162 A 
ATOM      4  C3  UNL d   1       2.706   0.972   0.974  0.00  0.00    -0.034 A 
ATOM      5  C4  UNL d   1       3.806   1.679   1.464  0.00  0.00     0.162 A 
ATOM      6  C5  UNL d   1       4.913   1.905   0.652  0.00  0.00     0.062 A 
ATOM      7  F   UNL d   1       5.964   2.586   1.131  0.00  0.00    -0.097 F 
ATOM      8  F1  UNL d   1       3.813   2.153   2.719  0.00  0.00    -0.096 F 
ATOM      9  I   UNL d   1       1.048   0.633   2.186  0.00  0.00    -0.060 I 
ATOM     10  F2  UNL d   1       1.695  -0.190  -0.839  0.00  0.00    -0.096 F 
ATOM     11  F3  UNL d   1       3.860   0.260  -2.402  0.00  0.00    -0.097 F 
ATOM     12  F4  UNL d   1       6.000   1.645  -1.430  0.00  0.00    -0.092 F 
ENDROOT
TORSDOF 0
ENDMDL
