MODEL 1
REMARK minimizedAffinity 7.99986219
REMARK minimizedRMSD -1
REMARK  0 active torsions:
REMARK  status: ('A' for Active; 'I' for Inactive)
ROOT
ATOM      1  C   UNL d   1      -1.466  -3.840  -3.099  0.00  0.00     0.124 A 
ATOM      2  C1  UNL d   1      -1.543  -2.517  -3.514  0.00  0.00     0.062 A 
ATOM      3  C2  UNL d   1      -1.029  -1.501  -2.714  0.00  0.00     0.162 A 
ATOM      4  C3  UNL d   1      -0.431  -1.804  -1.490  0.00  0.00    -0.034 A 
ATOM      5  C4  UNL d   1      -0.358  -3.136  -1.079  0.00  0.00     0.162 A 
ATOM      6  C5  UNL d   1      -0.874  -4.148  -1.883  0.00  0.00     0.062 A 
ATOM      7  F   UNL d   1      -0.798  -5.425  -1.480  0.00  0.00    -0.097 F 
ATOM      8  F1  UNL d   1       0.210  -3.462   0.092  0.00  0.00    -0.096 F 
ATOM      9  I   UNL d   1       0.339  -0.288  -0.290  0.00  0.00    -0.060 I 
ATOM     10  F2  UNL d   1      -1.117  -0.233  -3.140  0.00  0.00    -0.096 F 
ATOM     11  F3  UNL d   1      -2.115  -2.217  -4.689  0.00  0.00    -0.097 F 
ATOM     12  F4  UNL d   1      -1.962  -4.815  -3.871  0.00  0.00    -0.092 F 
ENDROOT
TORSDOF 0
ENDMDL
