MODEL 1
REMARK minimizedAffinity 17.3232174
REMARK minimizedRMSD -1
REMARK  0 active torsions:
REMARK  status: ('A' for Active; 'I' for Inactive)
ROOT
ATOM      1  C   UNL d   1       2.045  -3.229  -1.423  0.00  0.00     0.124 A 
ATOM      2  C1  UNL d   1       1.840  -2.377  -0.347  0.00  0.00     0.062 A 
ATOM      3  C2  UNL d   1       2.512  -1.160  -0.279  0.00  0.00     0.162 A 
ATOM      4  C3  UNL d   1       3.395  -0.786  -1.292  0.00  0.00    -0.034 A 
ATOM      5  C4  UNL d   1       3.597  -1.649  -2.371  0.00  0.00     0.162 A 
ATOM      6  C5  UNL d   1       2.923  -2.864  -2.434  0.00  0.00     0.062 A 
ATOM      7  F   UNL d   1       3.122  -3.686  -3.475  0.00  0.00    -0.097 F 
ATOM      8  F1  UNL d   1       4.439  -1.321  -3.362  0.00  0.00    -0.096 F 
ATOM      9  I   UNL d   1       4.402   1.032  -1.195  0.00  0.00    -0.060 I 
ATOM     10  F2  UNL d   1       2.294  -0.356   0.773  0.00  0.00    -0.096 F 
ATOM     11  F3  UNL d   1       0.992  -2.727   0.632  0.00  0.00    -0.097 F 
ATOM     12  F4  UNL d   1       1.397  -4.399  -1.485  0.00  0.00    -0.092 F 
ENDROOT
TORSDOF 0
ENDMDL
