MODEL 1
REMARK minimizedAffinity 7.20283604
REMARK minimizedRMSD -1
REMARK  1 active torsions:
REMARK  status: ('A' for Active; 'I' for Inactive)
REMARK    1  A    between atoms: C1_2  and  C2_3 
ROOT
ATOM      1  C2  UNL d   1      -5.130   0.346  -4.813  0.00  0.00    -0.076 A 
ATOM      2  C3  UNL d   1      -5.999   1.402  -4.489  0.00  0.00     0.004 A 
ATOM      3  C4  UNL d   1      -5.731   2.705  -4.906  0.00  0.00    -0.003 A 
ATOM      4  C5  UNL d   1      -4.590   2.972  -5.655  0.00  0.00     0.000 A 
ATOM      5  C6  UNL d   1      -3.727   1.934  -6.000  0.00  0.00     0.000 A 
ATOM      6  C7  UNL d   1      -3.990   0.612  -5.601  0.00  0.00    -0.073 A 
ATOM      7  C8  UNL d   1      -3.021  -0.468  -5.997  0.00  0.00     0.078 C 
ENDROOT
BRANCH   1   8
ATOM      8  C1  UNL d   1      -5.458  -1.042  -4.309  0.00  0.00     0.053 C 
ATOM      9  C   UNL d   1      -4.217  -1.899  -4.115  0.00  0.00     0.018 C 
ENDBRANCH   1   8
TORSDOF 1
ENDMDL
