MODEL 1
REMARK minimizedAffinity 5.14321423
REMARK minimizedRMSD -1
REMARK  1 active torsions:
REMARK  status: ('A' for Active; 'I' for Inactive)
REMARK    1  A    between atoms: C1_2  and  C2_3 
ROOT
ATOM      1  C2  UNL d   1      -3.451   0.568  -3.581  0.00  0.00    -0.076 A 
ATOM      2  C3  UNL d   1      -3.075  -0.366  -2.600  0.00  0.00     0.004 A 
ATOM      3  C4  UNL d   1      -3.731  -1.591  -2.487  0.00  0.00    -0.003 A 
ATOM      4  C5  UNL d   1      -4.773  -1.902  -3.354  0.00  0.00     0.000 A 
ATOM      5  C6  UNL d   1      -5.147  -0.995  -4.344  0.00  0.00     0.000 A 
ATOM      6  C7  UNL d   1      -4.485   0.237  -4.482  0.00  0.00    -0.073 A 
ATOM      7  C8  UNL d   1      -4.934   1.181  -5.565  0.00  0.00     0.078 C 
ENDROOT
BRANCH   1   8
ATOM      8  C1  UNL d   1      -2.721   1.891  -3.639  0.00  0.00     0.053 C 
ATOM      9  C   UNL d   1      -3.460   2.996  -2.901  0.00  0.00     0.018 C 
ENDBRANCH   1   8
TORSDOF 1
ENDMDL
