MODEL 1
REMARK minimizedAffinity -3.5420723
REMARK minimizedRMSD -1
REMARK  1 active torsions:
REMARK  status: ('A' for Active; 'I' for Inactive)
REMARK    1  A    between atoms: C1_2  and  C2_3 
ROOT
ATOM      1  C2  UNL d   1       0.120   0.171   0.130  0.00  0.00    -0.076 A 
ATOM      2  C3  UNL d   1       0.312  -0.623   1.274  0.00  0.00     0.004 A 
ATOM      3  C4  UNL d   1      -0.762  -0.981   2.087  0.00  0.00    -0.003 A 
ATOM      4  C5  UNL d   1      -2.045  -0.551   1.769  0.00  0.00     0.000 A 
ATOM      5  C6  UNL d   1      -2.257   0.223   0.628  0.00  0.00     0.000 A 
ATOM      6  C7  UNL d   1      -1.187   0.579  -0.211  0.00  0.00    -0.073 A 
ATOM      7  C8  UNL d   1      -1.471   1.420  -1.426  0.00  0.00     0.078 C 
ENDROOT
BRANCH   1   8
ATOM      8  C1  UNL d   1       1.327   0.551  -0.699  0.00  0.00     0.053 C 
ATOM      9  C   UNL d   1       2.063  -0.662  -1.246  0.00  0.00     0.018 C 
ENDBRANCH   1   8
TORSDOF 1
ENDMDL
