MODEL 1
REMARK minimizedAffinity 2.17402625
REMARK minimizedRMSD -1
REMARK  0 active torsions:
REMARK  status: ('A' for Active; 'I' for Inactive)
ROOT
ATOM      1  C   UNL d   1      -5.996   2.588   3.305  0.00  0.00     0.078 C 
ATOM      2  C1  UNL d   1      -5.965   1.252   3.984  0.00  0.00    -0.077 A 
ATOM      3  C2  UNL d   1      -5.939   1.153   5.381  0.00  0.00    -0.001 A 
ATOM      4  C3  UNL d   1      -5.901  -0.098   5.999  0.00  0.00     0.003 A 
ATOM      5  C4  UNL d   1      -5.887  -1.259   5.229  0.00  0.00    -0.005 A 
ATOM      6  C5  UNL d   1      -5.911  -1.171   3.839  0.00  0.00     0.003 A 
ATOM      7  C6  UNL d   1      -5.949   0.079   3.218  0.00  0.00    -0.001 A 
ENDROOT
TORSDOF 0
ENDMDL
