MODEL 1
REMARK minimizedAffinity 2.68110204
REMARK minimizedRMSD -1
REMARK  0 active torsions:
REMARK  status: ('A' for Active; 'I' for Inactive)
ROOT
ATOM      1  C   UNL d   1       3.369   1.878  -6.000  0.00  0.00     0.078 C 
ATOM      2  C1  UNL d   1       3.334   0.937  -4.833  0.00  0.00    -0.077 A 
ATOM      3  C2  UNL d   1       2.566  -0.233  -4.872  0.00  0.00    -0.001 A 
ATOM      4  C3  UNL d   1       2.535  -1.095  -3.775  0.00  0.00     0.003 A 
ATOM      5  C4  UNL d   1       3.270  -0.796  -2.629  0.00  0.00    -0.005 A 
ATOM      6  C5  UNL d   1       4.036   0.368  -2.580  0.00  0.00     0.003 A 
ATOM      7  C6  UNL d   1       4.067   1.231  -3.676  0.00  0.00    -0.001 A 
ENDROOT
TORSDOF 0
ENDMDL
