MODEL 1
REMARK minimizedAffinity 7.18596601
REMARK minimizedRMSD -1
REMARK  0 active torsions:
REMARK  status: ('A' for Active; 'I' for Inactive)
ROOT
ATOM      1  C   UNL d   1      -1.863  -5.979   0.941  0.00  0.00     0.078 C 
ATOM      2  C1  UNL d   1      -0.606  -5.990   1.758  0.00  0.00    -0.077 A 
ATOM      3  C2  UNL d   1      -0.655  -5.994   3.158  0.00  0.00    -0.001 A 
ATOM      4  C3  UNL d   1       0.523  -5.995   3.906  0.00  0.00     0.003 A 
ATOM      5  C4  UNL d   1       1.760  -5.990   3.263  0.00  0.00    -0.005 A 
ATOM      6  C5  UNL d   1       1.819  -5.984   1.871  0.00  0.00     0.003 A 
ATOM      7  C6  UNL d   1       0.641  -5.984   1.121  0.00  0.00    -0.001 A 
ENDROOT
TORSDOF 0
ENDMDL
