MODEL 1
REMARK minimizedAffinity -1.04933894
REMARK minimizedRMSD -1
REMARK  0 active torsions:
REMARK  status: ('A' for Active; 'I' for Inactive)
ROOT
ATOM      1  C   UNL d   1      -1.405  -5.999   1.684  0.00  0.00     0.078 C 
ATOM      2  C1  UNL d   1      -0.156  -5.711   2.463  0.00  0.00    -0.077 A 
ATOM      3  C2  UNL d   1      -0.218  -5.143   3.741  0.00  0.00    -0.001 A 
ATOM      4  C3  UNL d   1       0.952  -4.872   4.451  0.00  0.00     0.003 A 
ATOM      5  C4  UNL d   1       2.194  -5.164   3.891  0.00  0.00    -0.005 A 
ATOM      6  C5  UNL d   1       2.266  -5.728   2.618  0.00  0.00     0.003 A 
ATOM      7  C6  UNL d   1       1.097  -6.000   1.907  0.00  0.00    -0.001 A 
ENDROOT
TORSDOF 0
ENDMDL
