MODEL 1
REMARK minimizedAffinity 3.5564723
REMARK minimizedRMSD -1
REMARK  0 active torsions:
REMARK  status: ('A' for Active; 'I' for Inactive)
ROOT
ATOM      1  C   UNL d   1      -2.976  -1.212   3.344  0.00  0.00     0.078 C 
ATOM      2  C1  UNL d   1      -4.000  -0.345   4.013  0.00  0.00    -0.077 A 
ATOM      3  C2  UNL d   1      -4.473   0.820   3.396  0.00  0.00    -0.001 A 
ATOM      4  C3  UNL d   1      -5.419   1.623   4.034  0.00  0.00     0.003 A 
ATOM      5  C4  UNL d   1      -5.901   1.270   5.293  0.00  0.00    -0.005 A 
ATOM      6  C5  UNL d   1      -5.435   0.114   5.916  0.00  0.00     0.003 A 
ATOM      7  C6  UNL d   1      -4.488  -0.690   5.279  0.00  0.00    -0.001 A 
ENDROOT
TORSDOF 0
ENDMDL
