MODEL 1
REMARK minimizedAffinity 0.327843159
REMARK minimizedRMSD -1
REMARK  0 active torsions:
REMARK  status: ('A' for Active; 'I' for Inactive)
ROOT
ATOM      1  C   UNL d   1      -1.145  -5.989   3.000  0.00  0.00     0.078 C 
ATOM      2  C1  UNL d   1      -2.442  -6.000   2.246  0.00  0.00    -0.077 A 
ATOM      3  C2  UNL d   1      -2.461  -5.998   0.846  0.00  0.00    -0.001 A 
ATOM      4  C3  UNL d   1      -3.675  -5.999   0.157  0.00  0.00     0.003 A 
ATOM      5  C4  UNL d   1      -4.878  -6.000   0.860  0.00  0.00    -0.005 A 
ATOM      6  C5  UNL d   1      -4.869  -5.999   2.253  0.00  0.00     0.003 A 
ATOM      7  C6  UNL d   1      -3.656  -5.998   2.943  0.00  0.00    -0.001 A 
ENDROOT
TORSDOF 0
ENDMDL
