MODEL 1
REMARK minimizedAffinity 0.238481939
REMARK minimizedRMSD -1
REMARK  0 active torsions:
REMARK  status: ('A' for Active; 'I' for Inactive)
ROOT
ATOM      1  C   UNL d   1      -2.598  -6.000   1.787  0.00  0.00     0.078 C 
ATOM      2  C1  UNL d   1      -1.194  -5.992   2.313  0.00  0.00    -0.077 A 
ATOM      3  C2  UNL d   1      -0.098  -5.995   1.442  0.00  0.00    -0.001 A 
ATOM      4  C3  UNL d   1       1.204  -5.997   1.945  0.00  0.00     0.003 A 
ATOM      5  C4  UNL d   1       1.422  -5.998   3.321  0.00  0.00    -0.005 A 
ATOM      6  C5  UNL d   1       0.337  -5.996   4.196  0.00  0.00     0.003 A 
ATOM      7  C6  UNL d   1      -0.965  -5.994   3.695  0.00  0.00    -0.001 A 
ENDROOT
TORSDOF 0
ENDMDL
