MODEL 1
REMARK minimizedAffinity 2.71607137
REMARK minimizedRMSD -1
REMARK  0 active torsions:
REMARK  status: ('A' for Active; 'I' for Inactive)
ROOT
ATOM      1  C   UNL d   1      -0.753  -5.995   2.701  0.00  0.00     0.078 C 
ATOM      2  C1  UNL d   1       0.566  -5.987   3.413  0.00  0.00    -0.077 A 
ATOM      3  C2  UNL d   1       1.771  -5.993   2.698  0.00  0.00    -0.001 A 
ATOM      4  C3  UNL d   1       2.992  -5.996   3.374  0.00  0.00     0.003 A 
ATOM      5  C4  UNL d   1       3.021  -5.994   4.767  0.00  0.00    -0.005 A 
ATOM      6  C5  UNL d   1       1.828  -5.991   5.487  0.00  0.00     0.003 A 
ATOM      7  C6  UNL d   1       0.605  -5.988   4.813  0.00  0.00    -0.001 A 
ENDROOT
TORSDOF 0
ENDMDL
