MODEL 1
REMARK minimizedAffinity 1.08179367
REMARK minimizedRMSD -1
REMARK  0 active torsions:
REMARK  status: ('A' for Active; 'I' for Inactive)
ROOT
ATOM      1  C   UNL d   1      -1.504  -3.483   1.929  0.00  0.00     0.078 C 
ATOM      2  C1  UNL d   1      -0.452  -4.286   2.634  0.00  0.00    -0.077 A 
ATOM      3  C2  UNL d   1       0.906  -4.109   2.344  0.00  0.00    -0.001 A 
ATOM      4  C3  UNL d   1       1.874  -4.870   3.001  0.00  0.00     0.003 A 
ATOM      5  C4  UNL d   1       1.494  -5.815   3.952  0.00  0.00    -0.005 A 
ATOM      6  C5  UNL d   1       0.145  -6.000   4.247  0.00  0.00     0.003 A 
ATOM      7  C6  UNL d   1      -0.824  -5.240   3.590  0.00  0.00    -0.001 A 
ENDROOT
TORSDOF 0
ENDMDL
