MODEL 1
REMARK minimizedAffinity 2.3604362
REMARK minimizedRMSD -1
REMARK  0 active torsions:
REMARK  status: ('A' for Active; 'I' for Inactive)
ROOT
ATOM      1  C   UNL d   1      -1.726  -5.996   1.415  0.00  0.00     0.078 C 
ATOM      2  C1  UNL d   1      -0.533  -5.987   2.324  0.00  0.00    -0.077 A 
ATOM      3  C2  UNL d   1       0.768  -5.999   1.806  0.00  0.00    -0.001 A 
ATOM      4  C3  UNL d   1       1.869  -6.000   2.664  0.00  0.00     0.003 A 
ATOM      5  C4  UNL d   1       1.680  -5.991   4.045  0.00  0.00    -0.005 A 
ATOM      6  C5  UNL d   1       0.389  -5.982   4.569  0.00  0.00     0.003 A 
ATOM      7  C6  UNL d   1      -0.713  -5.980   3.712  0.00  0.00    -0.001 A 
ENDROOT
TORSDOF 0
ENDMDL
