MODEL 1
REMARK minimizedAffinity 3.40708518
REMARK minimizedRMSD -1
REMARK  0 active torsions:
REMARK  status: ('A' for Active; 'I' for Inactive)
ROOT
ATOM      1  C   UNL d   1      -1.484  -6.000   2.158  0.00  0.00     0.078 C 
ATOM      2  C1  UNL d   1      -0.429  -5.986   3.223  0.00  0.00    -0.077 A 
ATOM      3  C2  UNL d   1       0.931  -5.974   2.890  0.00  0.00    -0.001 A 
ATOM      4  C3  UNL d   1       1.903  -5.971   3.892  0.00  0.00     0.003 A 
ATOM      5  C4  UNL d   1       1.526  -5.981   5.233  0.00  0.00    -0.005 A 
ATOM      6  C5  UNL d   1       0.175  -5.995   5.574  0.00  0.00     0.003 A 
ATOM      7  C6  UNL d   1      -0.798  -5.998   4.574  0.00  0.00    -0.001 A 
ENDROOT
TORSDOF 0
ENDMDL
