MODEL 1
REMARK minimizedAffinity 1.1820333
REMARK minimizedRMSD -1
REMARK  0 active torsions:
REMARK  status: ('A' for Active; 'I' for Inactive)
ROOT
ATOM      1  C   UNL d   1       1.442  -5.948   5.912  0.00  0.00     0.078 C 
ATOM      2  C1  UNL d   1       0.873  -5.966   4.525  0.00  0.00    -0.077 A 
ATOM      3  C2  UNL d   1       1.710  -5.994   3.403  0.00  0.00    -0.001 A 
ATOM      4  C3  UNL d   1       1.166  -6.000   2.117  0.00  0.00     0.003 A 
ATOM      5  C4  UNL d   1      -0.216  -5.978   1.942  0.00  0.00    -0.005 A 
ATOM      6  C5  UNL d   1      -1.057  -5.948   3.053  0.00  0.00     0.003 A 
ATOM      7  C6  UNL d   1      -0.515  -5.942   4.339  0.00  0.00    -0.001 A 
ENDROOT
TORSDOF 0
ENDMDL
