MODEL 1
REMARK minimizedAffinity 6.38938999
REMARK minimizedRMSD -1
REMARK  0 active torsions:
REMARK  status: ('A' for Active; 'I' for Inactive)
ROOT
ATOM      1  C   UNL d   1      -3.328  -1.530  -1.959  0.00  0.00     0.078 C 
ATOM      2  C1  UNL d   1      -2.269  -1.807  -2.984  0.00  0.00    -0.077 A 
ATOM      3  C2  UNL d   1      -1.262  -0.872  -3.251  0.00  0.00    -0.001 A 
ATOM      4  C3  UNL d   1      -0.288  -1.138  -4.214  0.00  0.00     0.003 A 
ATOM      5  C4  UNL d   1      -0.312  -2.340  -4.920  0.00  0.00    -0.005 A 
ATOM      6  C5  UNL d   1      -1.312  -3.276  -4.663  0.00  0.00     0.003 A 
ATOM      7  C6  UNL d   1      -2.287  -3.010  -3.700  0.00  0.00    -0.001 A 
ENDROOT
TORSDOF 0
ENDMDL
