MODEL 1
REMARK minimizedAffinity -4.13249016
REMARK minimizedRMSD -1
REMARK  1 active torsions:
REMARK  status: ('A' for Active; 'I' for Inactive)
REMARK    1  A    between atoms: C3_4  and  O_7 
ROOT
ATOM      1  C   UNL d   1       2.829  -1.615   0.304  0.00  0.00    -0.033 A 
ATOM      2  C1  UNL d   1       1.866  -2.041  -0.614  0.00  0.00     0.039 A 
ATOM      3  C2  UNL d   1       0.611  -1.430  -0.646  0.00  0.00    -0.080 A 
ATOM      4  C3  UNL d   1       0.333  -0.394   0.242  0.00  0.00     0.150 A 
ATOM      5  C4  UNL d   1       1.288   0.038   1.156  0.00  0.00    -0.007 A 
ATOM      6  C5  UNL d   1       2.540  -0.575   1.187  0.00  0.00     0.039 A 
ENDROOT
BRANCH   4   7
ATOM      7  O   UNL d   1      -0.879   0.230   0.252  0.00  0.00    -0.526 OA
ATOM      8  H5  UNL d   1      -1.448  -0.193  -0.413  0.00  0.00     0.418 HD
ENDBRANCH   4   7
TORSDOF 1
ENDMDL
