MODEL 1
REMARK minimizedAffinity -3.59125233
REMARK minimizedRMSD -1
REMARK  1 active torsions:
REMARK  status: ('A' for Active; 'I' for Inactive)
REMARK    1  A    between atoms: C3_4  and  O_7 
ROOT
ATOM      1  C   UNL d   1       2.428  -1.659   0.836  0.00  0.00    -0.033 A 
ATOM      2  C1  UNL d   1       1.617  -2.070  -0.224  0.00  0.00     0.039 A 
ATOM      3  C2  UNL d   1       0.528  -1.289  -0.615  0.00  0.00    -0.080 A 
ATOM      4  C3  UNL d   1       0.262  -0.100   0.059  0.00  0.00     0.150 A 
ATOM      5  C4  UNL d   1       1.068   0.317   1.113  0.00  0.00    -0.007 A 
ATOM      6  C5  UNL d   1       2.155  -0.465   1.503  0.00  0.00     0.039 A 
ENDROOT
BRANCH   4   7
ATOM      7  O   UNL d   1      -0.792   0.693  -0.284  0.00  0.00    -0.526 OA
ATOM      8  H5  UNL d   1      -1.277   0.265  -1.009  0.00  0.00     0.418 HD
ENDBRANCH   4   7
TORSDOF 1
ENDMDL
