MODEL 1
REMARK minimizedAffinity -4.71975517
REMARK minimizedRMSD -1
REMARK  1 active torsions:
REMARK  status: ('A' for Active; 'I' for Inactive)
REMARK    1  A    between atoms: C3_4  and  O_7 
ROOT
ATOM      1  C   UNL d   1       0.595   1.004  -0.494  0.00  0.00    -0.033 A 
ATOM      2  C1  UNL d   1       0.214  -0.312  -0.765  0.00  0.00     0.039 A 
ATOM      3  C2  UNL d   1       0.874  -1.374  -0.143  0.00  0.00    -0.080 A 
ATOM      4  C3  UNL d   1       1.910  -1.107   0.747  0.00  0.00     0.150 A 
ATOM      5  C4  UNL d   1       2.292   0.202   1.024  0.00  0.00    -0.007 A 
ATOM      6  C5  UNL d   1       1.633   1.261   0.402  0.00  0.00     0.039 A 
ENDROOT
BRANCH   4   7
ATOM      7  O   UNL d   1       2.587  -2.110   1.375  0.00  0.00    -0.526 OA
ATOM      8  H5  UNL d   1       2.233  -2.961   1.064  0.00  0.00     0.418 HD
ENDBRANCH   4   7
TORSDOF 1
ENDMDL
