MODEL 1
REMARK minimizedAffinity -1.93273294
REMARK minimizedRMSD -1
REMARK  1 active torsions:
REMARK  status: ('A' for Active; 'I' for Inactive)
REMARK    1  A    between atoms: C3_4  and  O_7 
ROOT
ATOM      1  C   UNL d   1       0.238   0.069  -0.055  0.00  0.00    -0.033 A 
ATOM      2  C1  UNL d   1      -0.107  -0.596   1.124  0.00  0.00     0.039 A 
ATOM      3  C2  UNL d   1      -1.350  -0.369   1.717  0.00  0.00    -0.080 A 
ATOM      4  C3  UNL d   1      -2.238   0.523   1.123  0.00  0.00     0.150 A 
ATOM      5  C4  UNL d   1      -1.903   1.186  -0.053  0.00  0.00    -0.007 A 
ATOM      6  C5  UNL d   1      -0.661   0.959  -0.644  0.00  0.00     0.039 A 
ENDROOT
BRANCH   4   7
ATOM      7  O   UNL d   1      -3.461   0.780   1.668  0.00  0.00    -0.526 OA
ATOM      8  H5  UNL d   1      -3.543   0.273   2.493  0.00  0.00     0.418 HD
ENDBRANCH   4   7
TORSDOF 1
ENDMDL
