MODEL 1
REMARK minimizedAffinity -3.91708159
REMARK minimizedRMSD -1
REMARK  1 active torsions:
REMARK  status: ('A' for Active; 'I' for Inactive)
REMARK    1  A    between atoms: C3_4  and  O_7 
ROOT
ATOM      1  C   UNL d   1       1.657   1.192   0.454  0.00  0.00    -0.033 A 
ATOM      2  C1  UNL d   1       1.133  -0.095   0.319  0.00  0.00     0.039 A 
ATOM      3  C2  UNL d   1      -0.226  -0.272   0.050  0.00  0.00    -0.080 A 
ATOM      4  C3  UNL d   1      -1.048   0.844  -0.081  0.00  0.00     0.150 A 
ATOM      5  C4  UNL d   1      -0.531   2.129   0.049  0.00  0.00    -0.007 A 
ATOM      6  C5  UNL d   1       0.825   2.304   0.318  0.00  0.00     0.039 A 
ENDROOT
BRANCH   4   7
ATOM      7  O   UNL d   1      -2.381   0.721  -0.338  0.00  0.00    -0.526 OA
ATOM      8  H5  UNL d   1      -2.601  -0.225  -0.373  0.00  0.00     0.418 HD
ENDBRANCH   4   7
TORSDOF 1
ENDMDL
