MODEL 1
REMARK minimizedAffinity 0.340047121
REMARK minimizedRMSD -1
REMARK  0 active torsions:
REMARK  status: ('A' for Active; 'I' for Inactive)
ROOT
ATOM      1  C   UNL d   1      -0.356   4.894   0.013  0.00  0.00     0.020 A 
ATOM      2  C1  UNL d   1       0.492   6.000   0.000  0.00  0.00     0.020 A 
ATOM      3  C2  UNL d   1       1.712   5.952   0.678  0.00  0.00     0.034 A 
ATOM      4  C3  UNL d   1       2.087   4.795   1.371  0.00  0.00     0.017 A 
ATOM      5  C4  UNL d   1       1.235   3.686   1.384  0.00  0.00     0.017 A 
ATOM      6  C5  UNL d   1       0.014   3.739   0.704  0.00  0.00     0.034 A 
ATOM      7 Cl   UNL d   1       1.629   2.224   2.217  0.00  0.00    -0.070 Cl
ATOM      8 Cl1  UNL d   1       3.611   4.806   2.187  0.00  0.00    -0.070 Cl
ENDROOT
TORSDOF 0
ENDMDL
