MODEL 1
REMARK minimizedAffinity 15.1055555
REMARK minimizedRMSD -1
REMARK  0 active torsions:
REMARK  status: ('A' for Active; 'I' for Inactive)
ROOT
ATOM      1  C   UNL d   1       5.613  -2.305  -1.128  0.00  0.00     0.020 A 
ATOM      2  C1  UNL d   1       4.701  -3.268  -0.700  0.00  0.00     0.020 A 
ATOM      3  C2  UNL d   1       4.175  -4.186  -1.612  0.00  0.00     0.034 A 
ATOM      4  C3  UNL d   1       4.561  -4.141  -2.957  0.00  0.00     0.017 A 
ATOM      5  C4  UNL d   1       5.476  -3.174  -3.386  0.00  0.00     0.017 A 
ATOM      6  C5  UNL d   1       6.000  -2.257  -2.468  0.00  0.00     0.034 A 
ATOM      7 Cl   UNL d   1       6.000  -3.056  -5.029  0.00  0.00    -0.070 Cl
ATOM      8 Cl1  UNL d   1       3.871  -5.307  -4.030  0.00  0.00    -0.070 Cl
ENDROOT
TORSDOF 0
ENDMDL
