MODEL 1
REMARK minimizedAffinity 14.8214283
REMARK minimizedRMSD -1
REMARK  0 active torsions:
REMARK  status: ('A' for Active; 'I' for Inactive)
ROOT
ATOM      1  C   UNL d   1      -0.891  -6.000  -6.000  0.00  0.00     0.020 A 
ATOM      2  C1  UNL d   1      -1.953  -5.172  -5.640  0.00  0.00     0.020 A 
ATOM      3  C2  UNL d   1      -1.843  -4.341  -4.523  0.00  0.00     0.034 A 
ATOM      4  C3  UNL d   1      -0.668  -4.336  -3.762  0.00  0.00     0.017 A 
ATOM      5  C4  UNL d   1       0.397  -5.168  -4.124  0.00  0.00     0.017 A 
ATOM      6  C5  UNL d   1       0.282  -5.998  -5.243  0.00  0.00     0.034 A 
ATOM      7 Cl   UNL d   1       1.878  -5.218  -3.234  0.00  0.00    -0.070 Cl
ATOM      8 Cl1  UNL d   1      -0.602  -3.283  -2.393  0.00  0.00    -0.070 Cl
ENDROOT
TORSDOF 0
ENDMDL
