MODEL 1
REMARK minimizedAffinity 10.523427
REMARK minimizedRMSD -1
REMARK  0 active torsions:
REMARK  status: ('A' for Active; 'I' for Inactive)
ROOT
ATOM      1  C   UNL d   1       5.945  -1.898  -3.908  0.00  0.00     0.020 A 
ATOM      2  C1  UNL d   1       5.799  -3.284  -3.949  0.00  0.00     0.020 A 
ATOM      3  C2  UNL d   1       5.708  -4.011  -2.760  0.00  0.00     0.034 A 
ATOM      4  C3  UNL d   1       5.762  -3.353  -1.526  0.00  0.00     0.017 A 
ATOM      5  C4  UNL d   1       5.909  -1.962  -1.486  0.00  0.00     0.017 A 
ATOM      6  C5  UNL d   1       6.000  -1.238  -2.679  0.00  0.00     0.034 A 
ATOM      7 Cl   UNL d   1       5.984  -1.080  -0.002  0.00  0.00    -0.070 Cl
ATOM      8 Cl1  UNL d   1       5.643  -4.316  -0.096  0.00  0.00    -0.070 Cl
ENDROOT
TORSDOF 0
ENDMDL
