MODEL 1
REMARK minimizedAffinity 18.467659
REMARK minimizedRMSD -1
REMARK  0 active torsions:
REMARK  status: ('A' for Active; 'I' for Inactive)
ROOT
ATOM      1  C   UNL d   1       5.939  -2.244  -0.420  0.00  0.00     0.020 A 
ATOM      2  C1  UNL d   1       5.795  -3.610  -0.661  0.00  0.00     0.020 A 
ATOM      3  C2  UNL d   1       5.711  -4.083  -1.972  0.00  0.00     0.034 A 
ATOM      4  C3  UNL d   1       5.772  -3.190  -3.048  0.00  0.00     0.017 A 
ATOM      5  C4  UNL d   1       5.917  -1.819  -2.805  0.00  0.00     0.017 A 
ATOM      6  C5  UNL d   1       6.000  -1.351  -1.490  0.00  0.00     0.034 A 
ATOM      7 Cl   UNL d   1       6.000  -0.655  -4.081  0.00  0.00    -0.070 Cl
ATOM      8 Cl1  UNL d   1       5.663  -3.844  -4.643  0.00  0.00    -0.070 Cl
ENDROOT
TORSDOF 0
ENDMDL
