MODEL 1
REMARK minimizedAffinity 8.55559826
REMARK minimizedRMSD -1
REMARK  0 active torsions:
REMARK  status: ('A' for Active; 'I' for Inactive)
ROOT
ATOM      1  C   UNL d   1      -0.082   3.514   0.034  0.00  0.00     0.020 A 
ATOM      2  C1  UNL d   1       0.200   4.787  -0.460  0.00  0.00     0.020 A 
ATOM      3  C2  UNL d   1       1.238   5.538   0.097  0.00  0.00     0.034 A 
ATOM      4  C3  UNL d   1       1.997   5.016   1.150  0.00  0.00     0.017 A 
ATOM      5  C4  UNL d   1       1.713   3.738   1.645  0.00  0.00     0.017 A 
ATOM      6  C5  UNL d   1       0.673   2.991   1.084  0.00  0.00     0.034 A 
ATOM      7 Cl   UNL d   1       2.606   3.027   2.943  0.00  0.00    -0.070 Cl
ATOM      8 Cl1  UNL d   1       3.266   5.999   1.790  0.00  0.00    -0.070 Cl
ENDROOT
TORSDOF 0
ENDMDL
