MODEL 1
REMARK minimizedAffinity 7.59941769
REMARK minimizedRMSD -1
REMARK  0 active torsions:
REMARK  status: ('A' for Active; 'I' for Inactive)
ROOT
ATOM      1  C   UNL d   1       1.281  -4.251  -1.997  0.00  0.00     0.020 A 
ATOM      2  C1  UNL d   1      -0.090  -4.327  -2.239  0.00  0.00     0.020 A 
ATOM      3  C2  UNL d   1      -0.888  -3.190  -2.096  0.00  0.00     0.034 A 
ATOM      4  C3  UNL d   1      -0.316  -1.973  -1.709  0.00  0.00     0.017 A 
ATOM      5  C4  UNL d   1       1.060  -1.898  -1.466  0.00  0.00     0.017 A 
ATOM      6  C5  UNL d   1       1.855  -3.039  -1.611  0.00  0.00     0.034 A 
ATOM      7 Cl   UNL d   1       1.838  -0.431  -0.986  0.00  0.00    -0.070 Cl
ATOM      8 Cl1  UNL d   1      -1.363  -0.607  -1.552  0.00  0.00    -0.070 Cl
ENDROOT
TORSDOF 0
ENDMDL
