MODEL 1
REMARK minimizedAffinity 14.630188
REMARK minimizedRMSD -1
REMARK  0 active torsions:
REMARK  status: ('A' for Active; 'I' for Inactive)
ROOT
ATOM      1  C   UNL d   1      -5.761  -0.013   5.275  0.00  0.00     0.020 A 
ATOM      2  C1  UNL d   1      -5.997  -1.089   4.420  0.00  0.00     0.020 A 
ATOM      3  C2  UNL d   1      -5.226  -1.247   3.266  0.00  0.00     0.034 A 
ATOM      4  C3  UNL d   1      -4.215  -0.327   2.965  0.00  0.00     0.017 A 
ATOM      5  C4  UNL d   1      -3.978   0.752   3.824  0.00  0.00     0.017 A 
ATOM      6  C5  UNL d   1      -4.754   0.905   4.977  0.00  0.00     0.034 A 
ATOM      7 Cl   UNL d   1      -2.748   1.928   3.518  0.00  0.00    -0.070 Cl
ATOM      8 Cl1  UNL d   1      -3.299  -0.584   1.522  0.00  0.00    -0.070 Cl
ENDROOT
TORSDOF 0
ENDMDL
