MODEL 1
REMARK minimizedAffinity 16.7877865
REMARK minimizedRMSD -1
REMARK  0 active torsions:
REMARK  status: ('A' for Active; 'I' for Inactive)
ROOT
ATOM      1  C   UNL d   1       2.273   1.254   4.599  0.00  0.00     0.020 A 
ATOM      2  C1  UNL d   1       3.335   0.796   3.820  0.00  0.00     0.020 A 
ATOM      3  C2  UNL d   1       3.347  -0.523   3.361  0.00  0.00     0.034 A 
ATOM      4  C3  UNL d   1       2.295  -1.389   3.681  0.00  0.00     0.017 A 
ATOM      5  C4  UNL d   1       1.229  -0.928   4.462  0.00  0.00     0.017 A 
ATOM      6  C5  UNL d   1       1.222   0.393   4.919  0.00  0.00     0.034 A 
ATOM      7 Cl   UNL d   1      -0.105  -1.937   4.898  0.00  0.00    -0.070 Cl
ATOM      8 Cl1  UNL d   1       2.374  -3.007   3.080  0.00  0.00    -0.070 Cl
ENDROOT
TORSDOF 0
ENDMDL
