MODEL 1
REMARK minimizedAffinity 13.6846056
REMARK minimizedRMSD -1
REMARK  0 active torsions:
REMARK  status: ('A' for Active; 'I' for Inactive)
ROOT
ATOM      1  C   UNL d   1       5.596  -1.497  -0.778  0.00  0.00     0.020 A 
ATOM      2  C1  UNL d   1       4.528  -2.009  -0.042  0.00  0.00     0.020 A 
ATOM      3  C2  UNL d   1       3.862  -3.155  -0.482  0.00  0.00     0.034 A 
ATOM      4  C3  UNL d   1       4.262  -3.792  -1.662  0.00  0.00     0.017 A 
ATOM      5  C4  UNL d   1       5.334  -3.277  -2.400  0.00  0.00     0.017 A 
ATOM      6  C5  UNL d   1       5.998  -2.130  -1.955  0.00  0.00     0.034 A 
ATOM      7 Cl   UNL d   1       5.886  -4.009  -3.866  0.00  0.00    -0.070 Cl
ATOM      8 Cl1  UNL d   1       3.394  -5.205  -2.147  0.00  0.00    -0.070 Cl
ENDROOT
TORSDOF 0
ENDMDL
