MODEL 1
REMARK minimizedAffinity 18.8069324
REMARK minimizedRMSD -1
REMARK  0 active torsions:
REMARK  status: ('A' for Active; 'I' for Inactive)
ROOT
ATOM      1  C   UNL d   1      -0.046   4.823  -0.177  0.00  0.00     0.020 A 
ATOM      2  C1  UNL d   1      -0.651   3.592   0.075  0.00  0.00     0.020 A 
ATOM      3  C2  UNL d   1      -0.045   2.681   0.943  0.00  0.00     0.034 A 
ATOM      4  C3  UNL d   1       1.169   2.999   1.562  0.00  0.00     0.017 A 
ATOM      5  C4  UNL d   1       1.776   4.235   1.308  0.00  0.00     0.017 A 
ATOM      6  C5  UNL d   1       1.165   5.143   0.438  0.00  0.00     0.034 A 
ATOM      7 Cl   UNL d   1       3.274   4.699   2.035  0.00  0.00    -0.070 Cl
ATOM      8 Cl1  UNL d   1       1.862   1.825   2.624  0.00  0.00    -0.070 Cl
ENDROOT
TORSDOF 0
ENDMDL
