MODEL 1
REMARK minimizedAffinity 16.9814796
REMARK minimizedRMSD -1
REMARK  0 active torsions:
REMARK  status: ('A' for Active; 'I' for Inactive)
ROOT
ATOM      1  C   UNL d   1      -0.927   5.219  -0.471  0.00  0.00     0.020 A 
ATOM      2  C1  UNL d   1       0.401   4.903  -0.755  0.00  0.00     0.020 A 
ATOM      3  C2  UNL d   1       1.070   3.948   0.012  0.00  0.00     0.034 A 
ATOM      4  C3  UNL d   1       0.412   3.304   1.066  0.00  0.00     0.017 A 
ATOM      5  C4  UNL d   1      -0.921   3.621   1.350  0.00  0.00     0.017 A 
ATOM      6  C5  UNL d   1      -1.587   4.579   0.579  0.00  0.00     0.034 A 
ATOM      7 Cl   UNL d   1      -1.799   2.870   2.635  0.00  0.00    -0.070 Cl
ATOM      8 Cl1  UNL d   1       1.301   2.132   1.973  0.00  0.00    -0.070 Cl
ENDROOT
TORSDOF 0
ENDMDL
