MODEL 1
REMARK minimizedAffinity 17.1564121
REMARK minimizedRMSD -1
REMARK  3 active torsions:
REMARK  status: ('A' for Active; 'I' for Inactive)
REMARK    1  A    between atoms: C3'_2  and  C2'_3 
REMARK    2  A    between atoms: C2'_3  and  C1'_4 
REMARK    3  A    between atoms: C1'_4  and  C1_5 
ROOT
ATOM      1  C1  N4B d   1      -1.621  -4.097   2.726  0.00  0.00    -0.075 A 
ATOM      2  C2  N4B d   1      -1.517  -3.492   1.454  0.00  0.00     0.002 A 
ATOM      3  C3  N4B d   1      -0.892  -4.157   0.427  0.00  0.00     0.002 A 
ATOM      4  C4  N4B d   1      -0.348  -5.412   0.653  0.00  0.00    -0.004 A 
ATOM      5  C5  N4B d   1      -0.475  -6.000   1.878  0.00  0.00     0.002 A 
ATOM      6  C6  N4B d   1      -1.104  -5.345   2.918  0.00  0.00     0.002 A 
ENDROOT
BRANCH   1   7
ATOM      7  C1' N4B d   1      -2.219  -3.374   3.902  0.00  0.00     0.057 C 
BRANCH   7   8
ATOM      8  C2' N4B d   1      -1.386  -2.132   4.203  0.00  0.00     0.009 C 
BRANCH   8   9
ATOM      9  C3' N4B d   1      -0.732  -2.205   5.572  0.00  0.00     0.004 C 
ATOM     10  C4' N4B d   1       0.696  -1.748   5.558  0.00  0.00     0.003 C 
ENDBRANCH   8   9
ENDBRANCH   7   8
ENDBRANCH   1   7
TORSDOF 3
ENDMDL
