MODEL 1
REMARK minimizedAffinity 5.40018988
REMARK minimizedRMSD -1
REMARK  3 active torsions:
REMARK  status: ('A' for Active; 'I' for Inactive)
REMARK    1  A    between atoms: C3'_2  and  C2'_3 
REMARK    2  A    between atoms: C2'_3  and  C1'_4 
REMARK    3  A    between atoms: C1'_4  and  C1_5 
ROOT
ATOM      1  C1  N4B d   1      -4.112   5.119  -3.778  0.00  0.00    -0.075 A 
ATOM      2  C2  N4B d   1      -3.920   4.113  -4.750  0.00  0.00     0.002 A 
ATOM      3  C3  N4B d   1      -4.775   4.021  -5.821  0.00  0.00     0.002 A 
ATOM      4  C4  N4B d   1      -5.835   4.908  -5.930  0.00  0.00    -0.004 A 
ATOM      5  C5  N4B d   1      -5.999   5.893  -5.001  0.00  0.00     0.002 A 
ATOM      6  C6  N4B d   1      -5.145   6.000  -3.922  0.00  0.00     0.002 A 
ENDROOT
BRANCH   1   7
ATOM      7  C1' N4B d   1      -3.254   5.207  -2.545  0.00  0.00     0.057 C 
BRANCH   7   8
ATOM      8  C2' N4B d   1      -3.997   6.000  -1.474  0.00  0.00     0.009 C 
BRANCH   8   9
ATOM      9  C3' N4B d   1      -4.320   5.148  -0.259  0.00  0.00     0.004 C 
ATOM     10  C4' N4B d   1      -3.305   4.072  -0.016  0.00  0.00     0.003 C 
ENDBRANCH   8   9
ENDBRANCH   7   8
ENDBRANCH   1   7
TORSDOF 3
ENDMDL
