MODEL 1
REMARK minimizedAffinity 13.905653
REMARK minimizedRMSD -1
REMARK  3 active torsions:
REMARK  status: ('A' for Active; 'I' for Inactive)
REMARK    1  A    between atoms: C3'_2  and  C2'_3 
REMARK    2  A    between atoms: C2'_3  and  C1'_4 
REMARK    3  A    between atoms: C1'_4  and  C1_5 
ROOT
ATOM      1  C1  N4B d   1      -1.102  -3.117   0.138  0.00  0.00    -0.075 A 
ATOM      2  C2  N4B d   1      -0.894  -2.021  -0.727  0.00  0.00     0.002 A 
ATOM      3  C3  N4B d   1      -1.648  -0.882  -0.585  0.00  0.00     0.002 A 
ATOM      4  C4  N4B d   1      -2.625  -0.824   0.398  0.00  0.00    -0.004 A 
ATOM      5  C5  N4B d   1      -2.802  -1.878   1.246  0.00  0.00     0.002 A 
ATOM      6  C6  N4B d   1      -2.048  -3.027   1.118  0.00  0.00     0.002 A 
ENDROOT
BRANCH   1   7
ATOM      7  C1' N4B d   1      -0.361  -4.415  -0.032  0.00  0.00     0.057 C 
BRANCH   7   8
ATOM      8  C2' N4B d   1      -1.009  -5.482   0.845  0.00  0.00     0.009 C 
BRANCH   8   9
ATOM      9  C3' N4B d   1      -0.057  -5.997   1.911  0.00  0.00     0.004 C 
ATOM     10  C4' N4B d   1      -0.666  -6.000   3.281  0.00  0.00     0.003 C 
ENDBRANCH   8   9
ENDBRANCH   7   8
ENDBRANCH   1   7
TORSDOF 3
ENDMDL
