MODEL 1
REMARK minimizedAffinity 6.32359743
REMARK minimizedRMSD -1
REMARK  3 active torsions:
REMARK  status: ('A' for Active; 'I' for Inactive)
REMARK    1  A    between atoms: C3'_2  and  C2'_3 
REMARK    2  A    between atoms: C2'_3  and  C1'_4 
REMARK    3  A    between atoms: C1'_4  and  C1_5 
ROOT
ATOM      1  C1  N4B d   1      -1.814  -2.356  -1.003  0.00  0.00    -0.075 A 
ATOM      2  C2  N4B d   1      -1.419  -3.712  -1.028  0.00  0.00     0.002 A 
ATOM      3  C3  N4B d   1      -1.112  -4.359   0.144  0.00  0.00     0.002 A 
ATOM      4  C4  N4B d   1      -1.175  -3.669   1.345  0.00  0.00    -0.004 A 
ATOM      5  C5  N4B d   1      -1.583  -2.367   1.363  0.00  0.00     0.002 A 
ATOM      6  C6  N4B d   1      -1.898  -1.705   0.193  0.00  0.00     0.002 A 
ENDROOT
BRANCH   1   7
ATOM      7  C1' N4B d   1      -2.077  -1.582  -2.266  0.00  0.00     0.057 C 
BRANCH   7   8
ATOM      8  C2' N4B d   1      -1.257  -2.186  -3.403  0.00  0.00     0.009 C 
BRANCH   8   9
ATOM      9  C3' N4B d   1      -0.489  -1.127  -4.174  0.00  0.00     0.004 C 
ATOM     10  C4' N4B d   1       0.871  -0.861  -3.599  0.00  0.00     0.003 C 
ENDBRANCH   8   9
ENDBRANCH   7   8
ENDBRANCH   1   7
TORSDOF 3
ENDMDL
