MODEL 1
REMARK minimizedAffinity 9.17815018
REMARK minimizedRMSD -1
REMARK  3 active torsions:
REMARK  status: ('A' for Active; 'I' for Inactive)
REMARK    1  A    between atoms: C3'_2  and  C2'_3 
REMARK    2  A    between atoms: C2'_3  and  C1'_4 
REMARK    3  A    between atoms: C1'_4  and  C1_5 
ROOT
ATOM      1  C1  N4B d   1      -3.544   0.500   5.632  0.00  0.00    -0.075 A 
ATOM      2  C2  N4B d   1      -4.740  -0.249   5.608  0.00  0.00     0.002 A 
ATOM      3  C3  N4B d   1      -5.948   0.380   5.781  0.00  0.00     0.002 A 
ATOM      4  C4  N4B d   1      -5.984   1.750   5.997  0.00  0.00    -0.004 A 
ATOM      5  C5  N4B d   1      -4.825   2.470   5.993  0.00  0.00     0.002 A 
ATOM      6  C6  N4B d   1      -3.604   1.851   5.817  0.00  0.00     0.002 A 
ENDROOT
BRANCH   1   7
ATOM      7  C1' N4B d   1      -2.194  -0.156   5.534  0.00  0.00     0.057 C 
BRANCH   7   8
ATOM      8  C2' N4B d   1      -2.239  -1.236   4.458  0.00  0.00     0.009 C 
BRANCH   8   9
ATOM      9  C3' N4B d   1      -1.098  -2.228   4.600  0.00  0.00     0.004 C 
ATOM     10  C4' N4B d   1      -0.104  -1.824   5.648  0.00  0.00     0.003 C 
ENDBRANCH   8   9
ENDBRANCH   7   8
ENDBRANCH   1   7
TORSDOF 3
ENDMDL
