MODEL 1
REMARK minimizedAffinity 14.8940248
REMARK minimizedRMSD -1
REMARK  3 active torsions:
REMARK  status: ('A' for Active; 'I' for Inactive)
REMARK    1  A    between atoms: C3'_2  and  C2'_3 
REMARK    2  A    between atoms: C2'_3  and  C1'_4 
REMARK    3  A    between atoms: C1'_4  and  C1_5 
ROOT
ATOM      1  C1  N4B d   1       1.286  -0.424  -2.096  0.00  0.00    -0.075 A 
ATOM      2  C2  N4B d   1       1.042  -0.864  -3.416  0.00  0.00     0.002 A 
ATOM      3  C3  N4B d   1      -0.113  -1.547  -3.709  0.00  0.00     0.002 A 
ATOM      4  C4  N4B d   1      -1.026  -1.816  -2.701  0.00  0.00    -0.004 A 
ATOM      5  C5  N4B d   1      -0.795  -1.365  -1.434  0.00  0.00     0.002 A 
ATOM      6  C6  N4B d   1       0.360  -0.674  -1.125  0.00  0.00     0.002 A 
ENDROOT
BRANCH   1   7
ATOM      7  C1' N4B d   1       2.573   0.251  -1.710  0.00  0.00     0.057 C 
BRANCH   7   8
ATOM      8  C2' N4B d   1       2.316   1.741  -1.503  0.00  0.00     0.009 C 
BRANCH   8   9
ATOM      9  C3' N4B d   1       2.462   2.146  -0.047  0.00  0.00     0.004 C 
ATOM     10  C4' N4B d   1       3.772   2.817   0.241  0.00  0.00     0.003 C 
ENDBRANCH   8   9
ENDBRANCH   7   8
ENDBRANCH   1   7
TORSDOF 3
ENDMDL
