MODEL 1
REMARK minimizedAffinity 14.503911
REMARK minimizedRMSD -1
REMARK  3 active torsions:
REMARK  status: ('A' for Active; 'I' for Inactive)
REMARK    1  A    between atoms: C3'_2  and  C2'_3 
REMARK    2  A    between atoms: C2'_3  and  C1'_4 
REMARK    3  A    between atoms: C1'_4  and  C1_5 
ROOT
ATOM      1  C1  N4B d   1      -3.633  -1.466   5.551  0.00  0.00    -0.075 A 
ATOM      2  C2  N4B d   1      -2.369  -1.177   4.990  0.00  0.00     0.002 A 
ATOM      3  C3  N4B d   1      -1.511  -2.200   4.669  0.00  0.00     0.002 A 
ATOM      4  C4  N4B d   1      -1.884  -3.512   4.916  0.00  0.00    -0.004 A 
ATOM      5  C5  N4B d   1      -3.117  -3.784   5.434  0.00  0.00     0.002 A 
ATOM      6  C6  N4B d   1      -3.991  -2.767   5.758  0.00  0.00     0.002 A 
ENDROOT
BRANCH   1   7
ATOM      7  C1' N4B d   1      -4.571  -0.378   5.998  0.00  0.00     0.057 C 
BRANCH   7   8
ATOM      8  C2' N4B d   1      -3.935   0.979   5.713  0.00  0.00     0.009 C 
BRANCH   8   9
ATOM      9  C3' N4B d   1      -4.903   2.123   5.961  0.00  0.00     0.004 C 
ATOM     10  C4' N4B d   1      -4.244   3.468   5.886  0.00  0.00     0.003 C 
ENDBRANCH   8   9
ENDBRANCH   7   8
ENDBRANCH   1   7
TORSDOF 3
ENDMDL
