MODEL 1
REMARK minimizedAffinity 5.12229729
REMARK minimizedRMSD -1
REMARK  3 active torsions:
REMARK  status: ('A' for Active; 'I' for Inactive)
REMARK    1  A    between atoms: C3'_2  and  C2'_3 
REMARK    2  A    between atoms: C2'_3  and  C1'_4 
REMARK    3  A    between atoms: C1'_4  and  C1_5 
ROOT
ATOM      1  C1  N4B d   1      -4.022   5.235  -0.430  0.00  0.00    -0.075 A 
ATOM      2  C2  N4B d   1      -3.747   4.267   0.561  0.00  0.00     0.002 A 
ATOM      3  C3  N4B d   1      -4.603   4.109   1.623  0.00  0.00     0.002 A 
ATOM      4  C4  N4B d   1      -5.725   4.917   1.726  0.00  0.00    -0.004 A 
ATOM      5  C5  N4B d   1      -5.997   5.833   0.752  0.00  0.00     0.002 A 
ATOM      6  C6  N4B d   1      -5.148   6.000  -0.323  0.00  0.00     0.002 A 
ENDROOT
BRANCH   1   7
ATOM      7  C1' N4B d   1      -3.072   5.503  -1.564  0.00  0.00     0.057 C 
BRANCH   7   8
ATOM      8  C2' N4B d   1      -3.861   6.000  -2.772  0.00  0.00     0.009 C 
BRANCH   8   9
ATOM      9  C3' N4B d   1      -3.120   5.754  -4.075  0.00  0.00     0.004 C 
ATOM     10  C4' N4B d   1      -2.651   4.337  -4.217  0.00  0.00     0.003 C 
ENDBRANCH   8   9
ENDBRANCH   7   8
ENDBRANCH   1   7
TORSDOF 3
ENDMDL
