MODEL 1
REMARK minimizedAffinity 12.634223
REMARK minimizedRMSD -1
REMARK  3 active torsions:
REMARK  status: ('A' for Active; 'I' for Inactive)
REMARK    1  A    between atoms: C3'_2  and  C2'_3 
REMARK    2  A    between atoms: C2'_3  and  C1'_4 
REMARK    3  A    between atoms: C1'_4  and  C1_5 
ROOT
ATOM      1  C1  N4B d   1      -3.458  -1.373   5.674  0.00  0.00    -0.075 A 
ATOM      2  C2  N4B d   1      -2.100  -1.144   5.986  0.00  0.00     0.002 A 
ATOM      3  C3  N4B d   1      -1.166  -2.121   5.745  0.00  0.00     0.002 A 
ATOM      4  C4  N4B d   1      -1.567  -3.337   5.212  0.00  0.00    -0.004 A 
ATOM      5  C5  N4B d   1      -2.877  -3.541   4.890  0.00  0.00     0.002 A 
ATOM      6  C6  N4B d   1      -3.826  -2.566   5.123  0.00  0.00     0.002 A 
ENDROOT
BRANCH   1   7
ATOM      7  C1' N4B d   1      -4.528  -0.366   5.998  0.00  0.00     0.057 C 
BRANCH   7   8
ATOM      8  C2' N4B d   1      -4.016   1.033   5.671  0.00  0.00     0.009 C 
BRANCH   8   9
ATOM      9  C3' N4B d   1      -5.135   2.060   5.659  0.00  0.00     0.004 C 
ATOM     10  C4' N4B d   1      -4.656   3.445   5.975  0.00  0.00     0.003 C 
ENDBRANCH   8   9
ENDBRANCH   7   8
ENDBRANCH   1   7
TORSDOF 3
ENDMDL
