MODEL 1
REMARK minimizedAffinity 11.3322229
REMARK minimizedRMSD -1
REMARK  3 active torsions:
REMARK  status: ('A' for Active; 'I' for Inactive)
REMARK    1  A    between atoms: C3'_2  and  C2'_3 
REMARK    2  A    between atoms: C2'_3  and  C1'_4 
REMARK    3  A    between atoms: C1'_4  and  C1_5 
ROOT
ATOM      1  C1  N4B d   1       4.276   2.466   0.742  0.00  0.00    -0.075 A 
ATOM      2  C2  N4B d   1       5.516   1.790   0.708  0.00  0.00     0.002 A 
ATOM      3  C3  N4B d   1       6.000   1.187   1.843  0.00  0.00     0.002 A 
ATOM      4  C4  N4B d   1       5.274   1.262   3.023  0.00  0.00    -0.004 A 
ATOM      5  C5  N4B d   1       4.066   1.895   3.041  0.00  0.00     0.002 A 
ATOM      6  C6  N4B d   1       3.565   2.503   1.907  0.00  0.00     0.002 A 
ENDROOT
BRANCH   1   7
ATOM      7  C1' N4B d   1       3.747   3.215  -0.450  0.00  0.00     0.057 C 
BRANCH   7   8
ATOM      8  C2' N4B d   1       2.478   2.530  -0.949  0.00  0.00     0.009 C 
BRANCH   8   9
ATOM      9  C3' N4B d   1       2.710   1.782  -2.250  0.00  0.00     0.004 C 
ATOM     10  C4' N4B d   1       2.237   0.360  -2.195  0.00  0.00     0.003 C 
ENDBRANCH   8   9
ENDBRANCH   7   8
ENDBRANCH   1   7
TORSDOF 3
ENDMDL
