MODEL 1
REMARK minimizedAffinity 9.45016956
REMARK minimizedRMSD -1
REMARK  3 active torsions:
REMARK  status: ('A' for Active; 'I' for Inactive)
REMARK    1  A    between atoms: C3'_2  and  C2'_3 
REMARK    2  A    between atoms: C2'_3  and  C1'_4 
REMARK    3  A    between atoms: C1'_4  and  C1_5 
ROOT
ATOM      1  C1  N4B d   1      -4.686   4.784  -0.889  0.00  0.00    -0.075 A 
ATOM      2  C2  N4B d   1      -5.385   5.921  -0.427  0.00  0.00     0.002 A 
ATOM      3  C3  N4B d   1      -5.921   5.930   0.838  0.00  0.00     0.002 A 
ATOM      4  C4  N4B d   1      -5.787   4.812   1.647  0.00  0.00    -0.004 A 
ATOM      5  C5  N4B d   1      -5.088   3.728   1.203  0.00  0.00     0.002 A 
ATOM      6  C6  N4B d   1      -4.541   3.706  -0.064  0.00  0.00     0.002 A 
ENDROOT
BRANCH   1   7
ATOM      7  C1' N4B d   1      -4.157   4.695  -2.294  0.00  0.00     0.057 C 
BRANCH   7   8
ATOM      8  C2' N4B d   1      -4.481   5.989  -3.035  0.00  0.00     0.009 C 
BRANCH   8   9
ATOM      9  C3' N4B d   1      -5.902   5.997  -3.569  0.00  0.00     0.004 C 
ATOM     10  C4' N4B d   1      -5.969   5.751  -5.047  0.00  0.00     0.003 C 
ENDBRANCH   8   9
ENDBRANCH   7   8
ENDBRANCH   1   7
TORSDOF 3
ENDMDL
