MODEL 1
REMARK minimizedAffinity -1.69741535
REMARK minimizedRMSD -1
REMARK  0 active torsions:
REMARK  status: ('A' for Active; 'I' for Inactive)
ROOT
ATOM      1  C   UNL d   1      -0.570   3.467  -2.990  0.00  0.00     0.023 A 
ATOM      2  C1  UNL d   1      -1.611   2.667  -2.517  0.00  0.00     0.003 A 
ATOM      3  C2  UNL d   1      -1.329   1.520  -1.773  0.00  0.00     0.048 A 
ATOM      4  C3  UNL d   1      -0.004   1.178  -1.504  0.00  0.00     0.023 A 
ATOM      5  C4  UNL d   1       1.041   1.976  -1.975  0.00  0.00     0.048 A 
ATOM      6  C5  UNL d   1       0.754   3.121  -2.719  0.00  0.00     0.003 A 
ATOM      7  I   UNL d   1       0.419  -0.529  -0.397  0.00  0.00    -0.146 I 
ENDROOT
TORSDOF 0
ENDMDL
