MODEL 1
REMARK minimizedAffinity 0.706774592
REMARK minimizedRMSD -1
REMARK  0 active torsions:
REMARK  status: ('A' for Active; 'I' for Inactive)
ROOT
ATOM      1  C   UNL d   1       0.969  -1.770   1.942  0.00  0.00     0.023 A 
ATOM      2  C1  UNL d   1       1.622  -1.736   0.710  0.00  0.00     0.003 A 
ATOM      3  C2  UNL d   1       1.382  -0.687  -0.180  0.00  0.00     0.048 A 
ATOM      4  C3  UNL d   1       0.487   0.324   0.169  0.00  0.00     0.023 A 
ATOM      5  C4  UNL d   1      -0.168   0.295   1.401  0.00  0.00     0.048 A 
ATOM      6  C5  UNL d   1       0.075  -0.757   2.287  0.00  0.00     0.003 A 
ATOM      7  I   UNL d   1       0.128   1.887  -1.154  0.00  0.00    -0.146 I 
ENDROOT
TORSDOF 0
ENDMDL
