MODEL 1
REMARK minimizedAffinity 0.307967424
REMARK minimizedRMSD -1
REMARK  0 active torsions:
REMARK  status: ('A' for Active; 'I' for Inactive)
ROOT
ATOM      1  C   UNL d   1       1.246  -1.806   2.276  0.00  0.00     0.023 A 
ATOM      2  C1  UNL d   1       0.173  -0.923   2.398  0.00  0.00     0.003 A 
ATOM      3  C2  UNL d   1      -0.237  -0.164   1.300  0.00  0.00     0.048 A 
ATOM      4  C3  UNL d   1       0.430  -0.294   0.082  0.00  0.00     0.023 A 
ATOM      5  C4  UNL d   1       1.503  -1.177  -0.045  0.00  0.00     0.048 A 
ATOM      6  C5  UNL d   1       1.910  -1.933   1.056  0.00  0.00     0.003 A 
ATOM      7  I   UNL d   1      -0.178   0.834  -1.554  0.00  0.00    -0.146 I 
ENDROOT
TORSDOF 0
ENDMDL
