MODEL 1
REMARK minimizedAffinity 0.365220547
REMARK minimizedRMSD -1
REMARK  0 active torsions:
REMARK  status: ('A' for Active; 'I' for Inactive)
ROOT
ATOM      1  C   UNL d   1      -0.009  -0.702   0.497  0.00  0.00     0.023 A 
ATOM      2  C1  UNL d   1      -1.193  -0.000   0.730  0.00  0.00     0.003 A 
ATOM      3  C2  UNL d   1      -1.559   1.052  -0.112  0.00  0.00     0.048 A 
ATOM      4  C3  UNL d   1      -0.738   1.398  -1.184  0.00  0.00     0.023 A 
ATOM      5  C4  UNL d   1       0.447   0.698  -1.421  0.00  0.00     0.048 A 
ATOM      6  C5  UNL d   1       0.809  -0.353  -0.577  0.00  0.00     0.003 A 
ATOM      7  I   UNL d   1      -1.280   2.964  -2.438  0.00  0.00    -0.146 I 
ENDROOT
TORSDOF 0
ENDMDL
