MODEL 1
REMARK minimizedAffinity -5.31315327
REMARK minimizedRMSD -1
REMARK  0 active torsions:
REMARK  status: ('A' for Active; 'I' for Inactive)
ROOT
ATOM      1  C   UNL d   1       2.189  -1.138   2.375  0.00  0.00     0.023 A 
ATOM      2  C1  UNL d   1       0.938  -0.528   2.471  0.00  0.00     0.003 A 
ATOM      3  C2  UNL d   1       0.257  -0.145   1.314  0.00  0.00     0.048 A 
ATOM      4  C3  UNL d   1       0.831  -0.376   0.065  0.00  0.00     0.023 A 
ATOM      5  C4  UNL d   1       2.082  -0.986  -0.036  0.00  0.00     0.048 A 
ATOM      6  C5  UNL d   1       2.760  -1.367   1.124  0.00  0.00     0.003 A 
ATOM      7  I   UNL d   1      -0.182   0.194  -1.658  0.00  0.00    -0.146 I 
ENDROOT
TORSDOF 0
ENDMDL
