MODEL 1
REMARK minimizedAffinity 3.00766921
REMARK minimizedRMSD -1
REMARK  0 active torsions:
REMARK  status: ('A' for Active; 'I' for Inactive)
ROOT
ATOM      1  C   UNL d   1      -0.836  -0.602   2.125  0.00  0.00     0.023 A 
ATOM      2  C1  UNL d   1      -0.979  -1.322   0.939  0.00  0.00     0.003 A 
ATOM      3  C2  UNL d   1      -1.393  -0.674  -0.227  0.00  0.00     0.048 A 
ATOM      4  C3  UNL d   1      -1.661   0.694  -0.200  0.00  0.00     0.023 A 
ATOM      5  C4  UNL d   1      -1.518   1.419   0.985  0.00  0.00     0.048 A 
ATOM      6  C5  UNL d   1      -1.105   0.767   2.148  0.00  0.00     0.003 A 
ATOM      7  I   UNL d   1      -2.276   1.660  -1.934  0.00  0.00    -0.146 I 
ENDROOT
TORSDOF 0
ENDMDL
