MODEL 1
REMARK minimizedAffinity 1.70311034
REMARK minimizedRMSD -1
REMARK  0 active torsions:
REMARK  status: ('A' for Active; 'I' for Inactive)
ROOT
ATOM      1  C   UNL d   1      -0.020  -1.578   3.225  0.00  0.00     0.023 A 
ATOM      2  C1  UNL d   1       1.019  -2.006   2.399  0.00  0.00     0.003 A 
ATOM      3  C2  UNL d   1       1.039  -1.638   1.052  0.00  0.00     0.048 A 
ATOM      4  C3  UNL d   1       0.017  -0.840   0.538  0.00  0.00     0.023 A 
ATOM      5  C4  UNL d   1      -1.024  -0.408   1.361  0.00  0.00     0.048 A 
ATOM      6  C5  UNL d   1      -1.040  -0.780   2.707  0.00  0.00     0.003 A 
ATOM      7  I   UNL d   1       0.045  -0.290  -1.466  0.00  0.00    -0.146 I 
ENDROOT
TORSDOF 0
ENDMDL
