MODEL 1
REMARK minimizedAffinity -4.03304243
REMARK minimizedRMSD -1
REMARK  0 active torsions:
REMARK  status: ('A' for Active; 'I' for Inactive)
ROOT
ATOM      1  C   UNL d   1       2.165  -1.747   2.308  0.00  0.00     0.023 A 
ATOM      2  C1  UNL d   1       1.016  -1.019   2.617  0.00  0.00     0.003 A 
ATOM      3  C2  UNL d   1       0.238  -0.472   1.594  0.00  0.00     0.048 A 
ATOM      4  C3  UNL d   1       0.615  -0.659   0.264  0.00  0.00     0.023 A 
ATOM      5  C4  UNL d   1       1.763  -1.387  -0.050  0.00  0.00     0.048 A 
ATOM      6  C5  UNL d   1       2.538  -1.931   0.976  0.00  0.00     0.003 A 
ATOM      7  I   UNL d   1      -0.541   0.154  -1.260  0.00  0.00    -0.146 I 
ENDROOT
TORSDOF 0
ENDMDL
