MODEL 1
REMARK minimizedAffinity 10.2084446
REMARK minimizedRMSD -1
REMARK  2 active torsions:
REMARK  status: ('A' for Active; 'I' for Inactive)
REMARK    1  A    between atoms: C1_2  and  C2_3 
REMARK    2  A    between atoms: C2_3  and  C3_4 
ROOT
ATOM      1  C3  UNL d   1      -3.534  -4.088  -2.641  0.00  0.00    -0.075 A 
ATOM      2  C4  UNL d   1      -4.655  -3.531  -3.273  0.00  0.00     0.002 A 
ATOM      3  C5  UNL d   1      -5.881  -4.195  -3.256  0.00  0.00     0.002 A 
ATOM      4  C6  UNL d   1      -6.000  -5.428  -2.618  0.00  0.00    -0.004 A 
ATOM      5  C7  UNL d   1      -4.889  -6.000  -2.002  0.00  0.00     0.002 A 
ATOM      6  C8  UNL d   1      -3.662  -5.334  -2.013  0.00  0.00     0.002 A 
ENDROOT
BRANCH   1   7
ATOM      7  C2  UNL d   1      -2.211  -3.360  -2.630  0.00  0.00     0.056 C 
BRANCH   7   8
ATOM      8  C1  UNL d   1      -2.144  -2.203  -1.628  0.00  0.00     0.007 C 
ATOM      9  C   UNL d   1      -2.288  -2.655  -0.180  0.00  0.00     0.009 C 
ENDBRANCH   7   8
ENDBRANCH   1   7
TORSDOF 2
ENDMDL
