MODEL 1
REMARK minimizedAffinity 7.76830006
REMARK minimizedRMSD -1
REMARK  2 active torsions:
REMARK  status: ('A' for Active; 'I' for Inactive)
REMARK    1  A    between atoms: C1_2  and  C2_3 
REMARK    2  A    between atoms: C2_3  and  C3_4 
ROOT
ATOM      1  C3  UNL d   1      -2.150  -2.506  -1.552  0.00  0.00    -0.075 A 
ATOM      2  C4  UNL d   1      -1.700  -3.721  -2.088  0.00  0.00     0.002 A 
ATOM      3  C5  UNL d   1      -1.345  -3.813  -3.435  0.00  0.00     0.002 A 
ATOM      4  C6  UNL d   1      -1.446  -2.698  -4.263  0.00  0.00    -0.004 A 
ATOM      5  C7  UNL d   1      -1.908  -1.490  -3.745  0.00  0.00     0.002 A 
ATOM      6  C8  UNL d   1      -2.259  -1.393  -2.397  0.00  0.00     0.002 A 
ENDROOT
BRANCH   1   7
ATOM      7  C2  UNL d   1      -2.507  -2.391  -0.090  0.00  0.00     0.056 C 
BRANCH   7   8
ATOM      8  C1  UNL d   1      -1.294  -2.330   0.845  0.00  0.00     0.007 C 
ATOM      9  C   UNL d   1      -1.230  -3.495   1.823  0.00  0.00     0.009 C 
ENDBRANCH   7   8
ENDBRANCH   1   7
TORSDOF 2
ENDMDL
