MODEL 1
REMARK minimizedAffinity 13.090107
REMARK minimizedRMSD -1
REMARK  2 active torsions:
REMARK  status: ('A' for Active; 'I' for Inactive)
REMARK    1  A    between atoms: C1_2  and  C2_3 
REMARK    2  A    between atoms: C2_3  and  C3_4 
ROOT
ATOM      1  C3  UNL d   1      -4.033  -4.857  -1.491  0.00  0.00    -0.075 A 
ATOM      2  C4  UNL d   1      -5.323  -4.709  -2.022  0.00  0.00     0.002 A 
ATOM      3  C5  UNL d   1      -5.609  -3.669  -2.906  0.00  0.00     0.002 A 
ATOM      4  C6  UNL d   1      -4.616  -2.760  -3.262  0.00  0.00    -0.004 A 
ATOM      5  C7  UNL d   1      -3.336  -2.887  -2.728  0.00  0.00     0.002 A 
ATOM      6  C8  UNL d   1      -3.045  -3.930  -1.846  0.00  0.00     0.002 A 
ENDROOT
BRANCH   1   7
ATOM      7  C2  UNL d   1      -3.709  -5.998  -0.556  0.00  0.00     0.056 C 
BRANCH   7   8
ATOM      8  C1  UNL d   1      -4.271  -5.824   0.859  0.00  0.00     0.007 C 
ATOM      9  C   UNL d   1      -3.216  -5.977   1.946  0.00  0.00     0.009 C 
ENDBRANCH   7   8
ENDBRANCH   1   7
TORSDOF 2
ENDMDL
