MODEL 1
REMARK minimizedAffinity 10.3435555
REMARK minimizedRMSD -1
REMARK  2 active torsions:
REMARK  status: ('A' for Active; 'I' for Inactive)
REMARK    1  A    between atoms: C1_2  and  C2_3 
REMARK    2  A    between atoms: C2_3  and  C3_4 
ROOT
ATOM      1  C3  UNL d   1      -3.629  -3.971  -2.869  0.00  0.00    -0.075 A 
ATOM      2  C4  UNL d   1      -3.645  -5.252  -2.298  0.00  0.00     0.002 A 
ATOM      3  C5  UNL d   1      -4.823  -5.999  -2.265  0.00  0.00     0.002 A 
ATOM      4  C6  UNL d   1      -6.000  -5.472  -2.792  0.00  0.00    -0.004 A 
ATOM      5  C7  UNL d   1      -6.000  -4.194  -3.347  0.00  0.00     0.002 A 
ATOM      6  C8  UNL d   1      -4.822  -3.446  -3.385  0.00  0.00     0.002 A 
ENDROOT
BRANCH   1   7
ATOM      7  C2  UNL d   1      -2.351  -3.170  -2.934  0.00  0.00     0.056 C 
BRANCH   7   8
ATOM      8  C1  UNL d   1      -2.247  -2.074  -1.868  0.00  0.00     0.007 C 
ATOM      9  C   UNL d   1      -2.205  -2.620  -0.447  0.00  0.00     0.009 C 
ENDBRANCH   7   8
ENDBRANCH   1   7
TORSDOF 2
ENDMDL
