MODEL 1
REMARK minimizedAffinity 10.8529539
REMARK minimizedRMSD -1
REMARK  2 active torsions:
REMARK  status: ('A' for Active; 'I' for Inactive)
REMARK    1  A    between atoms: C1_2  and  C2_3 
REMARK    2  A    between atoms: C2_3  and  C3_4 
ROOT
ATOM      1  C3  UNL d   1      -2.187  -2.946  -2.496  0.00  0.00    -0.075 A 
ATOM      2  C4  UNL d   1      -0.896  -3.378  -2.831  0.00  0.00     0.002 A 
ATOM      3  C5  UNL d   1       0.141  -3.300  -1.901  0.00  0.00     0.002 A 
ATOM      4  C6  UNL d   1      -0.097  -2.781  -0.630  0.00  0.00    -0.004 A 
ATOM      5  C7  UNL d   1      -1.372  -2.333  -0.292  0.00  0.00     0.002 A 
ATOM      6  C8  UNL d   1      -2.412  -2.414  -1.220  0.00  0.00     0.002 A 
ENDROOT
BRANCH   1   7
ATOM      7  C2  UNL d   1      -3.320  -3.055  -3.489  0.00  0.00     0.056 C 
BRANCH   7   8
ATOM      8  C1  UNL d   1      -4.642  -3.530  -2.876  0.00  0.00     0.007 C 
ATOM      9  C   UNL d   1      -5.864  -3.100  -3.678  0.00  0.00     0.009 C 
ENDBRANCH   7   8
ENDBRANCH   1   7
TORSDOF 2
ENDMDL
