MODEL 1
REMARK minimizedAffinity 7.18615675
REMARK minimizedRMSD -1
REMARK  2 active torsions:
REMARK  status: ('A' for Active; 'I' for Inactive)
REMARK    1  A    between atoms: C1_2  and  C2_3 
REMARK    2  A    between atoms: C2_3  and  C3_4 
ROOT
ATOM      1  C3  UNL d   1      -3.044  -4.888  -0.507  0.00  0.00    -0.075 A 
ATOM      2  C4  UNL d   1      -2.497  -5.996   0.157  0.00  0.00     0.002 A 
ATOM      3  C5  UNL d   1      -1.603  -5.818   1.214  0.00  0.00     0.002 A 
ATOM      4  C6  UNL d   1      -1.237  -4.534   1.612  0.00  0.00    -0.004 A 
ATOM      5  C7  UNL d   1      -1.762  -3.427   0.949  0.00  0.00     0.002 A 
ATOM      6  C8  UNL d   1      -2.660  -3.602  -0.106  0.00  0.00     0.002 A 
ENDROOT
BRANCH   1   7
ATOM      7  C2  UNL d   1      -4.034  -5.074  -1.631  0.00  0.00     0.056 C 
BRANCH   7   8
ATOM      8  C1  UNL d   1      -4.124  -3.879  -2.586  0.00  0.00     0.007 C 
ATOM      9  C   UNL d   1      -5.432  -3.830  -3.366  0.00  0.00     0.009 C 
ENDBRANCH   7   8
ENDBRANCH   1   7
TORSDOF 2
ENDMDL
