MODEL 1
REMARK minimizedAffinity 8.27869701
REMARK minimizedRMSD -1
REMARK  2 active torsions:
REMARK  status: ('A' for Active; 'I' for Inactive)
REMARK    1  A    between atoms: C1_2  and  C2_3 
REMARK    2  A    between atoms: C2_3  and  C3_4 
ROOT
ATOM      1  C3  UNL d   1      -3.205  -4.264  -2.519  0.00  0.00    -0.075 A 
ATOM      2  C4  UNL d   1      -3.451  -5.493  -1.890  0.00  0.00     0.002 A 
ATOM      3  C5  UNL d   1      -4.755  -5.971  -1.752  0.00  0.00     0.002 A 
ATOM      4  C6  UNL d   1      -5.828  -5.222  -2.231  0.00  0.00    -0.004 A 
ATOM      5  C7  UNL d   1      -5.597  -3.992  -2.843  0.00  0.00     0.002 A 
ATOM      6  C8  UNL d   1      -4.293  -3.514  -2.986  0.00  0.00     0.002 A 
ENDROOT
BRANCH   1   7
ATOM      7  C2  UNL d   1      -1.794  -3.756  -2.697  0.00  0.00     0.056 C 
BRANCH   7   8
ATOM      8  C1  UNL d   1      -0.822  -4.800  -3.256  0.00  0.00     0.007 C 
ATOM      9  C   UNL d   1      -0.743  -4.794  -4.776  0.00  0.00     0.009 C 
ENDBRANCH   7   8
ENDBRANCH   1   7
TORSDOF 2
ENDMDL
