MODEL 1
REMARK minimizedAffinity 4.31224489
REMARK minimizedRMSD -1
REMARK  2 active torsions:
REMARK  status: ('A' for Active; 'I' for Inactive)
REMARK    1  A    between atoms: C1_2  and  C2_3 
REMARK    2  A    between atoms: C2_3  and  C3_4 
ROOT
ATOM      1  C3  UNL d   1      -1.054  -5.282  -3.550  0.00  0.00    -0.075 A 
ATOM      2  C4  UNL d   1      -2.237  -5.960  -3.223  0.00  0.00     0.002 A 
ATOM      3  C5  UNL d   1      -3.282  -5.294  -2.581  0.00  0.00     0.002 A 
ATOM      4  C6  UNL d   1      -3.153  -3.947  -2.249  0.00  0.00    -0.004 A 
ATOM      5  C7  UNL d   1      -1.975  -3.268  -2.554  0.00  0.00     0.002 A 
ATOM      6  C8  UNL d   1      -0.931  -3.931  -3.200  0.00  0.00     0.002 A 
ENDROOT
BRANCH   1   7
ATOM      7  C2  UNL d   1       0.068  -5.990  -4.271  0.00  0.00     0.056 C 
BRANCH   7   8
ATOM      8  C1  UNL d   1       1.435  -5.845  -3.592  0.00  0.00     0.007 C 
ATOM      9  C   UNL d   1       2.283  -4.727  -4.184  0.00  0.00     0.009 C 
ENDBRANCH   7   8
ENDBRANCH   1   7
TORSDOF 2
ENDMDL
