MODEL 1
REMARK minimizedAffinity 5.7115593
REMARK minimizedRMSD -1
REMARK  2 active torsions:
REMARK  status: ('A' for Active; 'I' for Inactive)
REMARK    1  A    between atoms: C1_2  and  C2_3 
REMARK    2  A    between atoms: C2_3  and  C3_4 
ROOT
ATOM      1  C3  UNL d   1      -2.420  -5.277   1.128  0.00  0.00    -0.075 A 
ATOM      2  C4  UNL d   1      -2.376  -3.875   1.164  0.00  0.00     0.002 A 
ATOM      3  C5  UNL d   1      -1.731  -3.213   2.209  0.00  0.00     0.002 A 
ATOM      4  C6  UNL d   1      -1.132  -3.941   3.234  0.00  0.00    -0.004 A 
ATOM      5  C7  UNL d   1      -1.184  -5.333   3.218  0.00  0.00     0.002 A 
ATOM      6  C8  UNL d   1      -1.825  -5.998   2.172  0.00  0.00     0.002 A 
ENDROOT
BRANCH   1   7
ATOM      7  C2  UNL d   1      -3.091  -6.000  -0.015  0.00  0.00     0.056 C 
BRANCH   7   8
ATOM      8  C1  UNL d   1      -4.622  -5.963   0.037  0.00  0.00     0.007 C 
ATOM      9  C   UNL d   1      -5.177  -6.000   1.455  0.00  0.00     0.009 C 
ENDBRANCH   7   8
ENDBRANCH   1   7
TORSDOF 2
ENDMDL
