MODEL 1
REMARK minimizedAffinity 11.1562815
REMARK minimizedRMSD -1
REMARK  2 active torsions:
REMARK  status: ('A' for Active; 'I' for Inactive)
REMARK    1  A    between atoms: C1_2  and  C2_3 
REMARK    2  A    between atoms: C2_3  and  C3_4 
ROOT
ATOM      1  C3  UNL d   1      -2.157  -3.853   0.928  0.00  0.00    -0.075 A 
ATOM      2  C4  UNL d   1      -1.154  -3.906   1.906  0.00  0.00     0.002 A 
ATOM      3  C5  UNL d   1      -1.094  -4.974   2.802  0.00  0.00     0.002 A 
ATOM      4  C6  UNL d   1      -2.039  -5.995   2.738  0.00  0.00    -0.004 A 
ATOM      5  C7  UNL d   1      -3.050  -5.944   1.781  0.00  0.00     0.002 A 
ATOM      6  C8  UNL d   1      -3.110  -4.879   0.880  0.00  0.00     0.002 A 
ENDROOT
BRANCH   1   7
ATOM      7  C2  UNL d   1      -2.210  -2.715  -0.063  0.00  0.00     0.056 C 
BRANCH   7   8
ATOM      8  C1  UNL d   1      -2.743  -3.114  -1.443  0.00  0.00     0.007 C 
ATOM      9  C   UNL d   1      -1.820  -2.706  -2.584  0.00  0.00     0.009 C 
ENDBRANCH   7   8
ENDBRANCH   1   7
TORSDOF 2
ENDMDL
