MODEL 1
REMARK minimizedAffinity 7.98295546
REMARK minimizedRMSD -1
REMARK  2 active torsions:
REMARK  status: ('A' for Active; 'I' for Inactive)
REMARK    1  A    between atoms: C1_2  and  C2_3 
REMARK    2  A    between atoms: C2_3  and  C3_4 
ROOT
ATOM      1  C3  UNL d   1      -3.800  -3.692  -1.485  0.00  0.00    -0.075 A 
ATOM      2  C4  UNL d   1      -3.726  -4.888  -0.756  0.00  0.00     0.002 A 
ATOM      3  C5  UNL d   1      -4.771  -5.810  -0.801  0.00  0.00     0.002 A 
ATOM      4  C6  UNL d   1      -5.907  -5.545  -1.564  0.00  0.00    -0.004 A 
ATOM      5  C7  UNL d   1      -5.998  -4.352  -2.278  0.00  0.00     0.002 A 
ATOM      6  C8  UNL d   1      -4.951  -3.429  -2.239  0.00  0.00     0.002 A 
ENDROOT
BRANCH   1   7
ATOM      7  C2  UNL d   1      -2.659  -2.703  -1.464  0.00  0.00     0.056 C 
BRANCH   7   8
ATOM      8  C1  UNL d   1      -1.867  -2.637  -2.774  0.00  0.00     0.007 C 
ATOM      9  C   UNL d   1      -0.949  -3.833  -2.982  0.00  0.00     0.009 C 
ENDBRANCH   7   8
ENDBRANCH   1   7
TORSDOF 2
ENDMDL
