MODEL 1
REMARK minimizedAffinity 13.5919046
REMARK minimizedRMSD -1
REMARK  2 active torsions:
REMARK  status: ('A' for Active; 'I' for Inactive)
REMARK    1  A    between atoms: C1_2  and  C2_3 
REMARK    2  A    between atoms: C2_3  and  C3_4 
ROOT
ATOM      1  C3  UNL d   1      -3.147  -5.250   1.078  0.00  0.00    -0.075 A 
ATOM      2  C4  UNL d   1      -2.316  -5.996   1.926  0.00  0.00     0.002 A 
ATOM      3  C5  UNL d   1      -1.310  -5.371   2.663  0.00  0.00     0.002 A 
ATOM      4  C6  UNL d   1      -1.117  -3.995   2.556  0.00  0.00    -0.004 A 
ATOM      5  C7  UNL d   1      -1.925  -3.246   1.705  0.00  0.00     0.002 A 
ATOM      6  C8  UNL d   1      -2.935  -3.869   0.968  0.00  0.00     0.002 A 
ENDROOT
BRANCH   1   7
ATOM      7  C2  UNL d   1      -4.255  -5.916   0.299  0.00  0.00     0.056 C 
BRANCH   7   8
ATOM      8  C1  UNL d   1      -3.996  -5.999  -1.209  0.00  0.00     0.007 C 
ATOM      9  C   UNL d   1      -5.185  -5.553  -2.048  0.00  0.00     0.009 C 
ENDBRANCH   7   8
ENDBRANCH   1   7
TORSDOF 2
ENDMDL
