MODEL 1
REMARK minimizedAffinity -3.4775753
REMARK minimizedRMSD -1
REMARK  0 active torsions:
REMARK  status: ('A' for Active; 'I' for Inactive)
ROOT
ATOM      1  C   UNL d   1      -1.507   0.652  -0.103  0.00  0.00     0.078 C 
ATOM      2  C1  UNL d   1      -0.067   0.838   0.271  0.00  0.00    -0.077 A 
ATOM      3  C2  UNL d   1       0.612   2.022  -0.043  0.00  0.00    -0.001 A 
ATOM      4  C3  UNL d   1       1.955   2.178   0.302  0.00  0.00     0.003 A 
ATOM      5  C4  UNL d   1       2.632   1.154   0.962  0.00  0.00    -0.005 A 
ATOM      6  C5  UNL d   1       1.965  -0.029   1.276  0.00  0.00     0.003 A 
ATOM      7  C6  UNL d   1       0.622  -0.187   0.932  0.00  0.00    -0.001 A 
ENDROOT
TORSDOF 0
ENDMDL
