MODEL 1
REMARK minimizedAffinity -3.72019887
REMARK minimizedRMSD -1
REMARK  0 active torsions:
REMARK  status: ('A' for Active; 'I' for Inactive)
ROOT
ATOM      1  C   UNL d   1      -1.187   0.220  -0.536  0.00  0.00     0.078 C 
ATOM      2  C1  UNL d   1       0.190   0.347   0.044  0.00  0.00    -0.077 A 
ATOM      3  C2  UNL d   1       0.792  -0.725   0.715  0.00  0.00    -0.001 A 
ATOM      4  C3  UNL d   1       2.070  -0.590   1.258  0.00  0.00     0.003 A 
ATOM      5  C4  UNL d   1       2.758   0.616   1.137  0.00  0.00    -0.005 A 
ATOM      6  C5  UNL d   1       2.166   1.689   0.473  0.00  0.00     0.003 A 
ATOM      7  C6  UNL d   1       0.888   1.556  -0.071  0.00  0.00    -0.001 A 
ENDROOT
TORSDOF 0
ENDMDL
