MODEL 1
REMARK minimizedAffinity -2.02959061
REMARK minimizedRMSD -1
REMARK  0 active torsions:
REMARK  status: ('A' for Active; 'I' for Inactive)
ROOT
ATOM      1  C   UNL d   1      -1.419   1.014  -0.095  0.00  0.00     0.078 C 
ATOM      2  C1  UNL d   1      -0.135   1.307   0.623  0.00  0.00    -0.077 A 
ATOM      3  C2  UNL d   1       0.814   0.301   0.841  0.00  0.00    -0.001 A 
ATOM      4  C3  UNL d   1       2.001   0.585   1.519  0.00  0.00     0.003 A 
ATOM      5  C4  UNL d   1       2.249   1.874   1.985  0.00  0.00    -0.005 A 
ATOM      6  C5  UNL d   1       1.309   2.882   1.774  0.00  0.00     0.003 A 
ATOM      7  C6  UNL d   1       0.122   2.599   1.096  0.00  0.00    -0.001 A 
ENDROOT
TORSDOF 0
ENDMDL
