MODEL 1
REMARK minimizedAffinity 4.60363436
REMARK minimizedRMSD -1
REMARK  0 active torsions:
REMARK  status: ('A' for Active; 'I' for Inactive)
ROOT
ATOM      1  N1  IND d   1       1.297  -2.407   0.863  0.00  0.00    -0.196 N 
ATOM      2  C2  IND d   1       1.470  -1.956  -0.416  0.00  0.00     0.054 A 
ATOM      3  C3  IND d   1       0.501  -1.070  -0.737  0.00  0.00    -0.031 A 
ATOM      4  C4  IND d   1      -1.409  -0.138   0.716  0.00  0.00     0.051 A 
ATOM      5  C5  IND d   1      -1.997  -0.278   1.942  0.00  0.00    -0.031 A 
ATOM      6  C6  IND d   1      -1.505  -1.150   2.891  0.00  0.00     0.015 A 
ATOM      7  C7  IND d   1      -0.395  -1.911   2.653  0.00  0.00    -0.016 A 
ATOM      8  C8  IND d   1       0.200  -1.776   1.406  0.00  0.00    -0.047 A 
ATOM      9  C9  IND d   1      -0.320  -0.924   0.424  0.00  0.00    -0.096 A 
ATOM     10  HN1 IND d   1       1.791  -2.988   1.261  0.00  0.00     0.298 HD
ENDROOT
TORSDOF 0
ENDMDL
