MODEL 1
REMARK minimizedAffinity -3.88925886
REMARK minimizedRMSD -1
REMARK  0 active torsions:
REMARK  status: ('A' for Active; 'I' for Inactive)
ROOT
ATOM      1  N1  IND d   1       2.722  -2.905  -0.141  0.00  0.00    -0.196 N 
ATOM      2  C2  IND d   1       3.000  -4.049   0.553  0.00  0.00     0.054 A 
ATOM      3  C3  IND d   1       2.256  -4.107   1.680  0.00  0.00    -0.031 A 
ATOM      4  C4  IND d   1       0.446  -2.486   2.531  0.00  0.00     0.051 A 
ATOM      5  C5  IND d   1      -0.135  -1.280   2.256  0.00  0.00    -0.031 A 
ATOM      6  C6  IND d   1       0.213  -0.540   1.145  0.00  0.00     0.015 A 
ATOM      7  C7  IND d   1       1.149  -0.986   0.256  0.00  0.00    -0.016 A 
ATOM      8  C8  IND d   1       1.746  -2.207   0.535  0.00  0.00    -0.047 A 
ATOM      9  C9  IND d   1       1.428  -2.943   1.684  0.00  0.00    -0.096 A 
ATOM     10  HN1 IND d   1       3.095  -2.662  -0.877  0.00  0.00     0.298 HD
ENDROOT
TORSDOF 0
ENDMDL
