MODEL 1
REMARK minimizedAffinity 6.46417475
REMARK minimizedRMSD -1
REMARK  0 active torsions:
REMARK  status: ('A' for Active; 'I' for Inactive)
ROOT
ATOM      1  N1  IND d   1       3.336  -2.076  -1.067  0.00  0.00    -0.196 N 
ATOM      2  C2  IND d   1       2.230  -1.314  -0.808  0.00  0.00     0.054 A 
ATOM      3  C3  IND d   1       1.462  -1.906   0.134  0.00  0.00    -0.031 A 
ATOM      4  C4  IND d   1       1.878  -4.073   1.460  0.00  0.00     0.051 A 
ATOM      5  C5  IND d   1       2.736  -5.134   1.549  0.00  0.00    -0.031 A 
ATOM      6  C6  IND d   1       3.861  -5.230   0.756  0.00  0.00     0.015 A 
ATOM      7  C7  IND d   1       4.178  -4.259  -0.151  0.00  0.00    -0.016 A 
ATOM      8  C8  IND d   1       3.306  -3.184  -0.249  0.00  0.00    -0.047 A 
ATOM      9  C9  IND d   1       2.140  -3.102   0.523  0.00  0.00    -0.096 A 
ATOM     10  HN1 IND d   1       3.947  -1.893  -1.644  0.00  0.00     0.298 HD
ENDROOT
TORSDOF 0
ENDMDL
