MODEL 1
REMARK minimizedAffinity 2.64542484
REMARK minimizedRMSD -1
REMARK  0 active torsions:
REMARK  status: ('A' for Active; 'I' for Inactive)
ROOT
ATOM      1  N1  IND d   1       1.559  -1.656  -0.282  0.00  0.00    -0.196 N 
ATOM      2  C2  IND d   1       2.062  -0.496  -0.801  0.00  0.00     0.054 A 
ATOM      3  C3  IND d   1       3.408  -0.571  -0.905  0.00  0.00    -0.031 A 
ATOM      4  C4  IND d   1       4.981  -2.539  -0.378  0.00  0.00     0.051 A 
ATOM      5  C5  IND d   1       4.991  -3.798   0.154  0.00  0.00    -0.031 A 
ATOM      6  C6  IND d   1       3.833  -4.421   0.574  0.00  0.00     0.015 A 
ATOM      7  C7  IND d   1       2.616  -3.810   0.466  0.00  0.00    -0.016 A 
ATOM      8  C8  IND d   1       2.603  -2.529  -0.067  0.00  0.00    -0.047 A 
ATOM      9  C9  IND d   1       3.780  -1.875  -0.455  0.00  0.00    -0.096 A 
ATOM     10  HN1 IND d   1       0.730  -1.814  -0.117  0.00  0.00     0.298 HD
ENDROOT
TORSDOF 0
ENDMDL
