MODEL 1
REMARK minimizedAffinity 0.257258475
REMARK minimizedRMSD -1
REMARK  0 active torsions:
REMARK  status: ('A' for Active; 'I' for Inactive)
ROOT
ATOM      1  N1  IND d   1       1.959  -1.936  -0.336  0.00  0.00    -0.196 N 
ATOM      2  C2  IND d   1       2.526  -3.058   0.201  0.00  0.00     0.054 A 
ATOM      3  C3  IND d   1       2.012  -3.305   1.427  0.00  0.00    -0.031 A 
ATOM      4  C4  IND d   1       0.157  -2.056   2.703  0.00  0.00     0.051 A 
ATOM      5  C5  IND d   1      -0.639  -0.948   2.635  0.00  0.00    -0.031 A 
ATOM      6  C6  IND d   1      -0.611  -0.096   1.549  0.00  0.00     0.015 A 
ATOM      7  C7  IND d   1       0.209  -0.329   0.482  0.00  0.00    -0.016 A 
ATOM      8  C8  IND d   1       1.024  -1.450   0.552  0.00  0.00    -0.047 A 
ATOM      9  C9  IND d   1       1.031  -2.294   1.669  0.00  0.00    -0.096 A 
ATOM     10  HN1 IND d   1       2.154  -1.592  -1.099  0.00  0.00     0.298 HD
ENDROOT
TORSDOF 0
ENDMDL
