MODEL 1
REMARK minimizedAffinity 2.19374108
REMARK minimizedRMSD -1
REMARK  0 active torsions:
REMARK  status: ('A' for Active; 'I' for Inactive)
ROOT
ATOM      1  N1  IND d   1       1.304  -5.993   2.227  0.00  0.00    -0.196 N 
ATOM      2  C2  IND d   1       0.377  -5.035   2.527  0.00  0.00     0.054 A 
ATOM      3  C3  IND d   1       0.691  -3.869   1.919  0.00  0.00    -0.031 A 
ATOM      4  C4  IND d   1       2.623  -3.336   0.304  0.00  0.00     0.051 A 
ATOM      5  C5  IND d   1       3.750  -3.880  -0.244  0.00  0.00    -0.031 A 
ATOM      6  C6  IND d   1       4.126  -5.185   0.006  0.00  0.00     0.015 A 
ATOM      7  C7  IND d   1       3.378  -6.000   0.808  0.00  0.00    -0.016 A 
ATOM      8  C8  IND d   1       2.237  -5.448   1.373  0.00  0.00    -0.047 A 
ATOM      9  C9  IND d   1       1.874  -4.112   1.157  0.00  0.00    -0.096 A 
ATOM     10  HN1 IND d   1       1.305  -6.801   2.521  0.00  0.00     0.298 HD
ENDROOT
TORSDOF 0
ENDMDL
