MODEL 1
REMARK minimizedAffinity 4.54613495
REMARK minimizedRMSD -1
REMARK  0 active torsions:
REMARK  status: ('A' for Active; 'I' for Inactive)
ROOT
ATOM      1  N1  IND d   1       1.179  -1.322  -0.394  0.00  0.00    -0.196 N 
ATOM      2  C2  IND d   1       1.970  -2.366  -0.004  0.00  0.00     0.054 A 
ATOM      3  C3  IND d   1       1.684  -2.724   1.268  0.00  0.00    -0.031 A 
ATOM      4  C4  IND d   1      -0.113  -1.798   2.862  0.00  0.00     0.051 A 
ATOM      5  C5  IND d   1      -1.056  -0.815   2.968  0.00  0.00    -0.031 A 
ATOM      6  C6  IND d   1      -1.309   0.066   1.936  0.00  0.00     0.015 A 
ATOM      7  C7  IND d   1      -0.633  -0.011   0.751  0.00  0.00    -0.016 A 
ATOM      8  C8  IND d   1       0.330  -1.004   0.643  0.00  0.00    -0.047 A 
ATOM      9  C9  IND d   1       0.621  -1.874   1.702  0.00  0.00    -0.096 A 
ATOM     10  HN1 IND d   1       1.208  -0.929  -1.158  0.00  0.00     0.298 HD
ENDROOT
TORSDOF 0
ENDMDL
