MODEL 1
REMARK minimizedAffinity 3.66810584
REMARK minimizedRMSD -1
REMARK  0 active torsions:
REMARK  status: ('A' for Active; 'I' for Inactive)
ROOT
ATOM      1  N1  IND d   1       2.554  -3.010   0.032  0.00  0.00    -0.196 N 
ATOM      2  C2  IND d   1       2.283  -1.721  -0.333  0.00  0.00     0.054 A 
ATOM      3  C3  IND d   1       1.305  -1.208   0.448  0.00  0.00    -0.031 A 
ATOM      4  C4  IND d   1       0.081  -2.271   2.447  0.00  0.00     0.051 A 
ATOM      5  C5  IND d   1      -0.040  -3.445   3.136  0.00  0.00    -0.031 A 
ATOM      6  C6  IND d   1       0.715  -4.556   2.820  0.00  0.00     0.015 A 
ATOM      7  C7  IND d   1       1.631  -4.531   1.807  0.00  0.00    -0.016 A 
ATOM      8  C8  IND d   1       1.751  -3.342   1.101  0.00  0.00    -0.047 A 
ATOM      9  C9  IND d   1       0.958  -2.224   1.389  0.00  0.00    -0.096 A 
ATOM     10  HN1 IND d   1       3.129  -3.528  -0.344  0.00  0.00     0.298 HD
ENDROOT
TORSDOF 0
ENDMDL
