MODEL 1
REMARK minimizedAffinity 7.24103212
REMARK minimizedRMSD -1
REMARK  0 active torsions:
REMARK  status: ('A' for Active; 'I' for Inactive)
ROOT
ATOM      1  N1  IND d   1      -4.493  -0.183   1.129  0.00  0.00    -0.196 N 
ATOM      2  C2  IND d   1      -4.763   0.465   2.302  0.00  0.00     0.054 A 
ATOM      3  C3  IND d   1      -3.616   0.757   2.954  0.00  0.00    -0.031 A 
ATOM      4  C4  IND d   1      -1.177   0.356   2.232  0.00  0.00     0.051 A 
ATOM      5  C5  IND d   1      -0.426  -0.236   1.256  0.00  0.00    -0.031 A 
ATOM      6  C6  IND d   1      -1.004  -0.852   0.164  0.00  0.00     0.015 A 
ATOM      7  C7  IND d   1      -2.360  -0.887   0.002  0.00  0.00    -0.016 A 
ATOM      8  C8  IND d   1      -3.126  -0.293   0.994  0.00  0.00    -0.047 A 
ATOM      9  C9  IND d   1      -2.547   0.296   2.126  0.00  0.00    -0.096 A 
ATOM     10  HN1 IND d   1      -5.078  -0.474   0.570  0.00  0.00     0.298 HD
ENDROOT
TORSDOF 0
ENDMDL
