MODEL 1
REMARK minimizedAffinity 5.21126413
REMARK minimizedRMSD -1
REMARK  0 active torsions:
REMARK  status: ('A' for Active; 'I' for Inactive)
ROOT
ATOM      1  C2' OXE d   1       0.274   1.515  -3.121  0.00  0.00     0.078 C 
ATOM      2  C1' OXE d   1      -0.503   2.951  -0.837  0.00  0.00     0.078 C 
ATOM      3  C1  OXE d   1      -1.587   2.482  -1.775  0.00  0.00    -0.078 A 
ATOM      4  C2  OXE d   1      -1.194   1.821  -2.914  0.00  0.00    -0.078 A 
ATOM      5  C3  OXE d   1      -2.156   1.319  -3.786  0.00  0.00     0.003 A 
ATOM      6  C4  OXE d   1      -3.511   1.614  -3.593  0.00  0.00    -0.002 A 
ATOM      7  C5  OXE d   1      -3.929   2.320  -2.460  0.00  0.00    -0.002 A 
ATOM      8  C6  OXE d   1      -2.986   2.723  -1.522  0.00  0.00     0.003 A 
ENDROOT
TORSDOF 0
ENDMDL
