MODEL 1
REMARK minimizedAffinity -3.46697068
REMARK minimizedRMSD -1
REMARK  0 active torsions:
REMARK  status: ('A' for Active; 'I' for Inactive)
ROOT
ATOM      1  C2' OXE d   1       1.761  -3.088  -4.875  0.00  0.00     0.078 C 
ATOM      2  C1' OXE d   1       3.028  -5.326  -6.000  0.00  0.00     0.078 C 
ATOM      3  C1  OXE d   1       3.873  -4.111  -5.711  0.00  0.00    -0.078 A 
ATOM      4  C2  OXE d   1       3.236  -3.004  -5.203  0.00  0.00    -0.078 A 
ATOM      5  C3  OXE d   1       3.978  -1.875  -4.868  0.00  0.00     0.003 A 
ATOM      6  C4  OXE d   1       5.340  -1.802  -5.184  0.00  0.00    -0.002 A 
ATOM      7  C5  OXE d   1       6.000  -2.904  -5.738  0.00  0.00    -0.002 A 
ATOM      8  C6  OXE d   1       5.292  -4.078  -5.967  0.00  0.00     0.003 A 
ENDROOT
TORSDOF 0
ENDMDL
