MODEL 1
REMARK minimizedAffinity 2.63942385
REMARK minimizedRMSD -1
REMARK  0 active torsions:
REMARK  status: ('A' for Active; 'I' for Inactive)
ROOT
ATOM      1  C2' OXE d   1      -2.825   1.130  -3.610  0.00  0.00     0.078 C 
ATOM      2  C1' OXE d   1      -5.191   0.527  -2.225  0.00  0.00     0.078 C 
ATOM      3  C1  OXE d   1      -5.004   1.941  -2.715  0.00  0.00    -0.078 A 
ATOM      4  C2  OXE d   1      -3.823   2.239  -3.351  0.00  0.00    -0.078 A 
ATOM      5  C3  OXE d   1      -3.622   3.514  -3.871  0.00  0.00     0.003 A 
ATOM      6  C4  OXE d   1      -4.545   4.536  -3.617  0.00  0.00    -0.002 A 
ATOM      7  C5  OXE d   1      -5.736   4.264  -2.937  0.00  0.00    -0.002 A 
ATOM      8  C6  OXE d   1      -6.000   2.965  -2.517  0.00  0.00     0.003 A 
ENDROOT
TORSDOF 0
ENDMDL
