MODEL 1
REMARK minimizedAffinity 5.32675314
REMARK minimizedRMSD -1
REMARK  0 active torsions:
REMARK  status: ('A' for Active; 'I' for Inactive)
ROOT
ATOM      1  C2' OXE d   1       5.999  -1.503  -5.973  0.00  0.00     0.078 C 
ATOM      2  C1' OXE d   1       4.322  -1.543  -3.723  0.00  0.00     0.078 C 
ATOM      3  C1  OXE d   1       4.735  -2.867  -4.316  0.00  0.00    -0.078 A 
ATOM      4  C2  OXE d   1       5.517  -2.837  -5.445  0.00  0.00    -0.078 A 
ATOM      5  C3  OXE d   1       5.972  -4.030  -6.000  0.00  0.00     0.003 A 
ATOM      6  C4  OXE d   1       5.513  -5.259  -5.511  0.00  0.00    -0.002 A 
ATOM      7  C5  OXE d   1       4.683  -5.311  -4.386  0.00  0.00    -0.002 A 
ATOM      8  C6  OXE d   1       4.320  -4.128  -3.752  0.00  0.00     0.003 A 
ENDROOT
TORSDOF 0
ENDMDL
