MODEL 1
REMARK minimizedAffinity 4.04579067
REMARK minimizedRMSD -1
REMARK  0 active torsions:
REMARK  status: ('A' for Active; 'I' for Inactive)
ROOT
ATOM      1  C2' OXE d   1      -2.377   0.563  -3.016  0.00  0.00     0.078 C 
ATOM      2  C1' OXE d   1      -2.459   2.148  -0.701  0.00  0.00     0.078 C 
ATOM      3  C1  OXE d   1      -3.289   2.585  -1.882  0.00  0.00    -0.078 A 
ATOM      4  C2  OXE d   1      -3.207   1.829  -3.027  0.00  0.00    -0.078 A 
ATOM      5  C3  OXE d   1      -3.994   2.157  -4.127  0.00  0.00     0.003 A 
ATOM      6  C4  OXE d   1      -4.750   3.335  -4.132  0.00  0.00    -0.002 A 
ATOM      7  C5  OXE d   1      -4.817   4.140  -2.991  0.00  0.00    -0.002 A 
ATOM      8  C6  OXE d   1      -4.128   3.758  -1.845  0.00  0.00     0.003 A 
ENDROOT
TORSDOF 0
ENDMDL
