MODEL 1
REMARK minimizedAffinity 8.57001591
REMARK minimizedRMSD -1
REMARK  0 active torsions:
REMARK  status: ('A' for Active; 'I' for Inactive)
ROOT
ATOM      1  C2' OXE d   1      -5.091   4.205  -2.630  0.00  0.00     0.078 C 
ATOM      2  C1' OXE d   1      -3.422   3.898  -4.865  0.00  0.00     0.078 C 
ATOM      3  C1  OXE d   1      -3.397   2.816  -3.815  0.00  0.00    -0.078 A 
ATOM      4  C2  OXE d   1      -4.182   2.997  -2.702  0.00  0.00    -0.078 A 
ATOM      5  C3  OXE d   1      -4.238   2.004  -1.728  0.00  0.00     0.003 A 
ATOM      6  C4  OXE d   1      -3.386   0.895  -1.798  0.00  0.00    -0.002 A 
ATOM      7  C5  OXE d   1      -2.549   0.711  -2.904  0.00  0.00    -0.002 A 
ATOM      8  C6  OXE d   1      -2.574   1.639  -3.939  0.00  0.00     0.003 A 
ENDROOT
TORSDOF 0
ENDMDL
