MODEL 1
REMARK minimizedAffinity 3.75862646
REMARK minimizedRMSD -1
REMARK  0 active torsions:
REMARK  status: ('A' for Active; 'I' for Inactive)
ROOT
ATOM      1  C2' OXE d   1       2.050  -4.550  -4.128  0.00  0.00     0.078 C 
ATOM      2  C1' OXE d   1       3.282  -2.235  -5.129  0.00  0.00     0.078 C 
ATOM      3  C1  OXE d   1       4.021  -3.542  -5.269  0.00  0.00    -0.078 A 
ATOM      4  C2  OXE d   1       3.432  -4.663  -4.735  0.00  0.00    -0.078 A 
ATOM      5  C3  OXE d   1       4.045  -5.903  -4.884  0.00  0.00     0.003 A 
ATOM      6  C4  OXE d   1       5.328  -5.997  -5.438  0.00  0.00    -0.002 A 
ATOM      7  C5  OXE d   1       5.964  -4.862  -5.952  0.00  0.00    -0.002 A 
ATOM      8  C6  OXE d   1       5.308  -3.637  -5.914  0.00  0.00     0.003 A 
ENDROOT
TORSDOF 0
ENDMDL
