MODEL 1
REMARK minimizedAffinity -3.18398952
REMARK minimizedRMSD -1
REMARK  1 active torsions:
REMARK  status: ('A' for Active; 'I' for Inactive)
REMARK    1  A    between atoms: C1_2  and  C2_3 
ROOT
ATOM      1  C2  UNL d   1       0.271  -0.379  -0.335  0.00  0.00    -0.073 A 
ATOM      2  C3  UNL d   1       1.477  -0.964   0.065  0.00  0.00    -0.002 A 
ATOM      3  C4  UNL d   1       2.062  -0.613   1.282  0.00  0.00     0.004 A 
ATOM      4  C5  UNL d   1       1.444   0.321   2.114  0.00  0.00    -0.004 A 
ATOM      5  C6  UNL d   1       0.232   0.908   1.738  0.00  0.00    -0.075 A 
ATOM      6  C7  UNL d   1      -0.444   1.916   2.620  0.00  0.00     0.076 C 
ATOM      7  C8  UNL d   1      -0.348   0.552   0.513  0.00  0.00     0.001 A 
ENDROOT
BRANCH   1   8
ATOM      8  C1  UNL d   1      -0.368  -0.760  -1.645  0.00  0.00     0.053 C 
ATOM      9  C   UNL d   1       0.592  -0.604  -2.814  0.00  0.00     0.018 C 
ENDBRANCH   1   8
TORSDOF 1
ENDMDL
