MODEL 1
REMARK minimizedAffinity -3.83607078
REMARK minimizedRMSD -1
REMARK  1 active torsions:
REMARK  status: ('A' for Active; 'I' for Inactive)
REMARK    1  A    between atoms: C1_2  and  C2_3 
ROOT
ATOM      1  C2  UNL d   1       0.417   0.233  -0.701  0.00  0.00    -0.073 A 
ATOM      2  C3  UNL d   1      -0.577  -0.743  -0.838  0.00  0.00    -0.002 A 
ATOM      3  C4  UNL d   1      -1.565  -0.884   0.137  0.00  0.00     0.004 A 
ATOM      4  C5  UNL d   1      -1.574  -0.047   1.254  0.00  0.00    -0.004 A 
ATOM      5  C6  UNL d   1      -0.597   0.941   1.402  0.00  0.00    -0.075 A 
ATOM      6  C7  UNL d   1      -0.591   1.847   2.599  0.00  0.00     0.076 C 
ATOM      7  C8  UNL d   1       0.394   1.075   0.420  0.00  0.00     0.001 A 
ENDROOT
BRANCH   1   8
ATOM      8  C1  UNL d   1       1.482   0.393  -1.754  0.00  0.00     0.053 C 
ATOM      9  C   UNL d   1       0.891   0.695  -3.122  0.00  0.00     0.018 C 
ENDBRANCH   1   8
TORSDOF 1
ENDMDL
