MODEL 1
REMARK minimizedAffinity -3.34733129
REMARK minimizedRMSD -1
REMARK  1 active torsions:
REMARK  status: ('A' for Active; 'I' for Inactive)
REMARK    1  A    between atoms: C1_2  and  C2_3 
ROOT
ATOM      1  C2  UNL d   1       0.544  -0.953   0.810  0.00  0.00    -0.073 A 
ATOM      2  C3  UNL d   1      -0.762  -1.243   0.400  0.00  0.00    -0.002 A 
ATOM      3  C4  UNL d   1      -1.841  -0.538   0.934  0.00  0.00     0.004 A 
ATOM      4  C5  UNL d   1      -1.626   0.467   1.877  0.00  0.00    -0.004 A 
ATOM      5  C6  UNL d   1      -0.327   0.780   2.291  0.00  0.00    -0.075 A 
ATOM      6  C7  UNL d   1      -0.079   1.856   3.306  0.00  0.00     0.076 C 
ATOM      7  C8  UNL d   1       0.751   0.065   1.752  0.00  0.00     0.001 A 
ENDROOT
BRANCH   1   8
ATOM      8  C1  UNL d   1       1.714  -1.707   0.231  0.00  0.00     0.053 C 
ATOM      9  C   UNL d   1       2.898  -1.741   1.185  0.00  0.00     0.018 C 
ENDBRANCH   1   8
TORSDOF 1
ENDMDL
