MODEL 1
REMARK minimizedAffinity -4.49197769
REMARK minimizedRMSD -1
REMARK  1 active torsions:
REMARK  status: ('A' for Active; 'I' for Inactive)
REMARK    1  A    between atoms: C1_2  and  C2_3 
ROOT
ATOM      1  C2  UNL d   1      -0.570   0.393   0.292  0.00  0.00    -0.073 A 
ATOM      2  C3  UNL d   1       0.384  -0.396   0.944  0.00  0.00    -0.002 A 
ATOM      3  C4  UNL d   1       1.326  -1.115   0.208  0.00  0.00     0.004 A 
ATOM      4  C5  UNL d   1       1.328  -1.048  -1.185  0.00  0.00    -0.004 A 
ATOM      5  C6  UNL d   1       0.390  -0.256  -1.855  0.00  0.00    -0.075 A 
ATOM      6  C7  UNL d   1       0.377  -0.175  -3.353  0.00  0.00     0.076 C 
ATOM      7  C8  UNL d   1      -0.555   0.461  -1.108  0.00  0.00     0.001 A 
ENDROOT
BRANCH   1   8
ATOM      8  C1  UNL d   1      -1.586   1.177   1.083  0.00  0.00     0.053 C 
ATOM      9  C   UNL d   1      -0.928   2.113   2.085  0.00  0.00     0.018 C 
ENDBRANCH   1   8
TORSDOF 1
ENDMDL
