MODEL 1
REMARK minimizedAffinity -1.90987074
REMARK minimizedRMSD -1
REMARK  1 active torsions:
REMARK  status: ('A' for Active; 'I' for Inactive)
REMARK    1  A    between atoms: C1_2  and  C2_3 
ROOT
ATOM      1  C2  UNL d   1      -0.571   0.290   0.326  0.00  0.00    -0.073 A 
ATOM      2  C3  UNL d   1       0.729   0.341   0.842  0.00  0.00    -0.002 A 
ATOM      3  C4  UNL d   1       1.552  -0.786   0.793  0.00  0.00     0.004 A 
ATOM      4  C5  UNL d   1       1.086  -1.970   0.222  0.00  0.00    -0.004 A 
ATOM      5  C6  UNL d   1      -0.206  -2.037  -0.310  0.00  0.00    -0.075 A 
ATOM      6  C7  UNL d   1      -0.722  -3.304  -0.925  0.00  0.00     0.076 C 
ATOM      7  C8  UNL d   1      -1.026  -0.902  -0.254  0.00  0.00     0.001 A 
ENDROOT
BRANCH   1   8
ATOM      8  C1  UNL d   1      -1.460   1.506   0.372  0.00  0.00     0.053 C 
ATOM      9  C   UNL d   1      -0.683   2.768   0.711  0.00  0.00     0.018 C 
ENDBRANCH   1   8
TORSDOF 1
ENDMDL
