MODEL 1
REMARK minimizedAffinity -0.840961039
REMARK minimizedRMSD -1
REMARK  1 active torsions:
REMARK  status: ('A' for Active; 'I' for Inactive)
REMARK    1  A    between atoms: C1_2  and  C2_3 
ROOT
ATOM      1  C2  UNL d   1       0.316  -0.371  -0.249  0.00  0.00    -0.073 A 
ATOM      2  C3  UNL d   1       1.687  -0.651  -0.216  0.00  0.00    -0.002 A 
ATOM      3  C4  UNL d   1       2.618   0.387  -0.161  0.00  0.00     0.004 A 
ATOM      4  C5  UNL d   1       2.189   1.714  -0.131  0.00  0.00    -0.004 A 
ATOM      5  C6  UNL d   1       0.823   2.014  -0.152  0.00  0.00    -0.075 A 
ATOM      6  C7  UNL d   1       0.345   3.436  -0.123  0.00  0.00     0.076 C 
ATOM      7  C8  UNL d   1      -0.106   0.966  -0.210  0.00  0.00     0.001 A 
ENDROOT
BRANCH   1   8
ATOM      8  C1  UNL d   1      -0.693  -1.489  -0.302  0.00  0.00     0.053 C 
ATOM      9  C   UNL d   1      -0.321  -2.544  -1.331  0.00  0.00     0.018 C 
ENDBRANCH   1   8
TORSDOF 1
ENDMDL
