MODEL 1
REMARK minimizedAffinity -4.2116046
REMARK minimizedRMSD -1
REMARK  1 active torsions:
REMARK  status: ('A' for Active; 'I' for Inactive)
REMARK    1  A    between atoms: C1_2  and  C2_3 
ROOT
ATOM      1  C2  UNL d   1      -0.657   0.892   0.311  0.00  0.00    -0.073 A 
ATOM      2  C3  UNL d   1      -0.881   2.273   0.303  0.00  0.00    -0.002 A 
ATOM      3  C4  UNL d   1       0.192   3.161   0.385  0.00  0.00     0.004 A 
ATOM      4  C5  UNL d   1       1.498   2.679   0.468  0.00  0.00    -0.004 A 
ATOM      5  C6  UNL d   1       1.743   1.302   0.465  0.00  0.00    -0.075 A 
ATOM      6  C7  UNL d   1       3.142   0.766   0.555  0.00  0.00     0.076 C 
ATOM      7  C8  UNL d   1       0.660   0.416   0.386  0.00  0.00     0.001 A 
ENDROOT
BRANCH   1   8
ATOM      8  C1  UNL d   1      -1.813  -0.071   0.217  0.00  0.00     0.053 C 
ATOM      9  C   UNL d   1      -2.609  -0.133   1.510  0.00  0.00     0.018 C 
ENDBRANCH   1   8
TORSDOF 1
ENDMDL
