MODEL 1
REMARK minimizedAffinity -5.7332468
REMARK minimizedRMSD -1
REMARK  1 active torsions:
REMARK  status: ('A' for Active; 'I' for Inactive)
REMARK    1  A    between atoms: C1_2  and  C2_3 
ROOT
ATOM      1  C2  UNL d   1       0.063  -0.900  -0.086  0.00  0.00    -0.073 A 
ATOM      2  C3  UNL d   1       1.455  -0.997   0.019  0.00  0.00    -0.002 A 
ATOM      3  C4  UNL d   1       2.237   0.155   0.106  0.00  0.00     0.004 A 
ATOM      4  C5  UNL d   1       1.637   1.414   0.096  0.00  0.00    -0.004 A 
ATOM      5  C6  UNL d   1       0.246   1.531   0.003  0.00  0.00    -0.075 A 
ATOM      6  C7  UNL d   1      -0.415   2.878  -0.012  0.00  0.00     0.076 C 
ATOM      7  C8  UNL d   1      -0.532   0.370  -0.087  0.00  0.00     0.001 A 
ENDROOT
BRANCH   1   8
ATOM      8  C1  UNL d   1      -0.787  -2.142  -0.174  0.00  0.00     0.053 C 
ATOM      9  C   UNL d   1      -0.723  -2.780  -1.553  0.00  0.00     0.018 C 
ENDBRANCH   1   8
TORSDOF 1
ENDMDL
