MODEL 1
REMARK minimizedAffinity -4.05215216
REMARK minimizedRMSD -1
REMARK  1 active torsions:
REMARK  status: ('A' for Active; 'I' for Inactive)
REMARK    1  A    between atoms: C1_2  and  C2_3 
ROOT
ATOM      1  C2  UNL d   1       0.477   0.299   0.199  0.00  0.00    -0.073 A 
ATOM      2  C3  UNL d   1       1.031   1.533  -0.161  0.00  0.00    -0.002 A 
ATOM      3  C4  UNL d   1       0.237   2.681  -0.188  0.00  0.00     0.004 A 
ATOM      4  C5  UNL d   1      -1.114   2.608   0.149  0.00  0.00    -0.004 A 
ATOM      5  C6  UNL d   1      -1.683   1.386   0.523  0.00  0.00    -0.075 A 
ATOM      6  C7  UNL d   1      -3.136   1.291   0.887  0.00  0.00     0.076 C 
ATOM      7  C8  UNL d   1      -0.881   0.238   0.546  0.00  0.00     0.001 A 
ENDROOT
BRANCH   1   8
ATOM      8  C1  UNL d   1       1.331  -0.942   0.236  0.00  0.00     0.053 C 
ATOM      9  C   UNL d   1       2.765  -0.635   0.637  0.00  0.00     0.018 C 
ENDBRANCH   1   8
TORSDOF 1
ENDMDL
