MODEL 1
REMARK minimizedAffinity -5.17521048
REMARK minimizedRMSD -1
REMARK  1 active torsions:
REMARK  status: ('A' for Active; 'I' for Inactive)
REMARK    1  A    between atoms: C1_2  and  C2_3 
ROOT
ATOM      1  C2  UNL d   1      -0.095  -0.155   0.257  0.00  0.00    -0.073 A 
ATOM      2  C3  UNL d   1      -1.441  -0.019   0.615  0.00  0.00    -0.002 A 
ATOM      3  C4  UNL d   1      -2.027   1.246   0.687  0.00  0.00     0.004 A 
ATOM      4  C5  UNL d   1      -1.276   2.385   0.396  0.00  0.00    -0.004 A 
ATOM      5  C6  UNL d   1       0.067   2.268   0.025  0.00  0.00    -0.075 A 
ATOM      6  C7  UNL d   1       0.889   3.484  -0.289  0.00  0.00     0.076 C 
ATOM      7  C8  UNL d   1       0.649   0.995  -0.043  0.00  0.00     0.001 A 
ENDROOT
BRANCH   1   8
ATOM      8  C1  UNL d   1       0.540  -1.519   0.172  0.00  0.00     0.053 C 
ATOM      9  C   UNL d   1      -0.356  -2.522  -0.538  0.00  0.00     0.018 C 
ENDBRANCH   1   8
TORSDOF 1
ENDMDL
