MODEL 1
REMARK minimizedAffinity -4.86363173
REMARK minimizedRMSD -1
REMARK  1 active torsions:
REMARK  status: ('A' for Active; 'I' for Inactive)
REMARK    1  A    between atoms: C1_2  and  C2_3 
ROOT
ATOM      1  C2  UNL d   1      -0.078  -0.376   0.163  0.00  0.00    -0.073 A 
ATOM      2  C3  UNL d   1      -1.275  -0.436   0.887  0.00  0.00    -0.002 A 
ATOM      3  C4  UNL d   1      -1.959   0.735   1.215  0.00  0.00     0.004 A 
ATOM      4  C5  UNL d   1      -1.460   1.975   0.818  0.00  0.00    -0.004 A 
ATOM      5  C6  UNL d   1      -0.272   2.055   0.084  0.00  0.00    -0.075 A 
ATOM      6  C7  UNL d   1       0.281   3.381  -0.348  0.00  0.00     0.076 C 
ATOM      7  C8  UNL d   1       0.412   0.875  -0.239  0.00  0.00     0.001 A 
ENDROOT
BRANCH   1   8
ATOM      8  C1  UNL d   1       0.662  -1.638  -0.199  0.00  0.00     0.053 C 
ATOM      9  C   UNL d   1      -0.149  -2.527  -1.129  0.00  0.00     0.018 C 
ENDBRANCH   1   8
TORSDOF 1
ENDMDL
