MODEL 1
REMARK minimizedAffinity -2.09859037
REMARK minimizedRMSD -1
REMARK  1 active torsions:
REMARK  status: ('A' for Active; 'I' for Inactive)
REMARK    1  A    between atoms: C1_2  and  C2_3 
ROOT
ATOM      1  C2  UNL d   1      -0.524   0.814   0.250  0.00  0.00    -0.073 A 
ATOM      2  C3  UNL d   1      -0.816   2.148   0.554  0.00  0.00    -0.002 A 
ATOM      3  C4  UNL d   1       0.142   3.143   0.350  0.00  0.00     0.004 A 
ATOM      4  C5  UNL d   1       1.396   2.815  -0.166  0.00  0.00    -0.004 A 
ATOM      5  C6  UNL d   1       1.702   1.489  -0.487  0.00  0.00    -0.075 A 
ATOM      6  C7  UNL d   1       3.047   1.119  -1.040  0.00  0.00     0.076 C 
ATOM      7  C8  UNL d   1       0.736   0.495  -0.277  0.00  0.00     0.001 A 
ENDROOT
BRANCH   1   8
ATOM      8  C1  UNL d   1      -1.557  -0.263   0.462  0.00  0.00     0.053 C 
ATOM      9  C   UNL d   1      -2.732   0.230   1.293  0.00  0.00     0.018 C 
ENDBRANCH   1   8
TORSDOF 1
ENDMDL
