MODEL 1
REMARK minimizedAffinity 3.40193534
REMARK minimizedRMSD -1
REMARK  0 active torsions:
REMARK  status: ('A' for Active; 'I' for Inactive)
ROOT
ATOM      1  C   UNL d   1       3.169   3.366  -3.824  0.00  0.00    -0.002 A 
ATOM      2  C1  UNL d   1       3.175   4.206  -2.719  0.00  0.00     0.010 A 
ATOM      3  C2  UNL d   1       2.397   3.910  -1.597  0.00  0.00     0.041 A 
ATOM      4  C3  UNL d   1       1.606   2.745  -1.605  0.00  0.00    -0.075 A 
ATOM      5  S   UNL d   1       0.575   2.181  -0.343  0.00  0.00     0.015 SA
ATOM      6  C4  UNL d   1       0.102   0.812  -1.241  0.00  0.00     0.022 A 
ATOM      7  C5  UNL d   1       0.706   0.770  -2.475  0.00  0.00     0.026 A 
ATOM      8  C6  UNL d   1       1.584   1.883  -2.705  0.00  0.00    -0.082 A 
ATOM      9  C7  UNL d   1       2.383   2.211  -3.827  0.00  0.00     0.045 A 
ENDROOT
TORSDOF 0
ENDMDL
