MODEL 1
REMARK minimizedAffinity 16.7654648
REMARK minimizedRMSD -1
REMARK  0 active torsions:
REMARK  status: ('A' for Active; 'I' for Inactive)
ROOT
ATOM      1  C   UNL d   1       4.676   1.311   3.394  0.00  0.00    -0.002 A 
ATOM      2  C1  UNL d   1       5.322   2.120   2.471  0.00  0.00     0.010 A 
ATOM      3  C2  UNL d   1       4.590   2.875   1.552  0.00  0.00     0.041 A 
ATOM      4  C3  UNL d   1       3.183   2.803   1.579  0.00  0.00    -0.075 A 
ATOM      5  S   UNL d   1       2.080   3.639   0.551  0.00  0.00     0.015 SA
ATOM      6  C4  UNL d   1       0.725   2.942   1.314  0.00  0.00     0.022 A 
ATOM      7  C5  UNL d   1       1.087   2.090   2.330  0.00  0.00     0.026 A 
ATOM      8  C6  UNL d   1       2.509   1.996   2.500  0.00  0.00    -0.082 A 
ATOM      9  C7  UNL d   1       3.280   1.242   3.418  0.00  0.00     0.045 A 
ENDROOT
TORSDOF 0
ENDMDL
