MODEL 1
REMARK minimizedAffinity 12.8285303
REMARK minimizedRMSD -1
REMARK  0 active torsions:
REMARK  status: ('A' for Active; 'I' for Inactive)
ROOT
ATOM      1  C   UNL d   1       2.524   1.914  -5.549  0.00  0.00    -0.002 A 
ATOM      2  C1  UNL d   1       3.758   1.491  -5.077  0.00  0.00     0.010 A 
ATOM      3  C2  UNL d   1       3.864   0.845  -3.844  0.00  0.00     0.041 A 
ATOM      4  C3  UNL d   1       2.697   0.628  -3.086  0.00  0.00    -0.075 A 
ATOM      5  S   UNL d   1       2.584  -0.143  -1.547  0.00  0.00     0.015 SA
ATOM      6  C4  UNL d   1       0.895   0.071  -1.480  0.00  0.00     0.022 A 
ATOM      7  C5  UNL d   1       0.412   0.714  -2.596  0.00  0.00     0.026 A 
ATOM      8  C6  UNL d   1       1.442   1.045  -3.540  0.00  0.00    -0.082 A 
ATOM      9  C7  UNL d   1       1.368   1.697  -4.794  0.00  0.00     0.045 A 
ENDROOT
TORSDOF 0
ENDMDL
