MODEL 1
REMARK minimizedAffinity 13.229228
REMARK minimizedRMSD -1
REMARK  0 active torsions:
REMARK  status: ('A' for Active; 'I' for Inactive)
ROOT
ATOM      1  C   UNL d   1      -4.894  -3.310   4.115  0.00  0.00    -0.002 A 
ATOM      2  C1  UNL d   1      -5.584  -2.214   4.611  0.00  0.00     0.010 A 
ATOM      3  C2  UNL d   1      -5.076  -0.923   4.451  0.00  0.00     0.041 A 
ATOM      4  C3  UNL d   1      -3.852  -0.751   3.775  0.00  0.00    -0.075 A 
ATOM      5  S   UNL d   1      -3.039   0.736   3.460  0.00  0.00     0.015 SA
ATOM      6  C4  UNL d   1      -1.757  -0.049   2.658  0.00  0.00     0.022 A 
ATOM      7  C5  UNL d   1      -1.928  -1.413   2.622  0.00  0.00     0.026 A 
ATOM      8  C6  UNL d   1      -3.139  -1.840   3.265  0.00  0.00    -0.082 A 
ATOM      9  C7  UNL d   1      -3.680  -3.136   3.444  0.00  0.00     0.045 A 
ENDROOT
TORSDOF 0
ENDMDL
