MODEL 1
REMARK minimizedAffinity 4.37627411
REMARK minimizedRMSD -1
REMARK  0 active torsions:
REMARK  status: ('A' for Active; 'I' for Inactive)
ROOT
ATOM      1  C   UNL d   1       4.486   2.381   2.610  0.00  0.00    -0.002 A 
ATOM      2  C1  UNL d   1       4.490   1.244   1.815  0.00  0.00     0.010 A 
ATOM      3  C2  UNL d   1       4.877   0.011   2.342  0.00  0.00     0.041 A 
ATOM      4  C3  UNL d   1       5.263  -0.062   3.695  0.00  0.00    -0.075 A 
ATOM      5  S   UNL d   1       5.775  -1.465   4.556  0.00  0.00     0.015 SA
ATOM      6  C4  UNL d   1       5.999  -0.588   6.000  0.00  0.00     0.022 A 
ATOM      7  C5  UNL d   1       5.696   0.744   5.847  0.00  0.00     0.026 A 
ATOM      8  C6  UNL d   1       5.266   1.069   4.516  0.00  0.00    -0.082 A 
ATOM      9  C7  UNL d   1       4.869   2.306   3.952  0.00  0.00     0.045 A 
ENDROOT
TORSDOF 0
ENDMDL
