MODEL 1
REMARK minimizedAffinity 8.80087852
REMARK minimizedRMSD -1
REMARK  0 active torsions:
REMARK  status: ('A' for Active; 'I' for Inactive)
ROOT
ATOM      1  C   UNL d   1       0.864  -2.237  -0.271  0.00  0.00    -0.002 A 
ATOM      2  C1  UNL d   1       0.232  -1.021  -0.050  0.00  0.00     0.010 A 
ATOM      3  C2  UNL d   1       0.239  -0.028  -1.032  0.00  0.00     0.041 A 
ATOM      4  C3  UNL d   1       0.895  -0.281  -2.252  0.00  0.00    -0.075 A 
ATOM      5  S   UNL d   1       1.031   0.786  -3.600  0.00  0.00     0.015 SA
ATOM      6  C4  UNL d   1       1.930  -0.348  -4.501  0.00  0.00     0.022 A 
ATOM      7  C5  UNL d   1       2.131  -1.517  -3.806  0.00  0.00     0.026 A 
ATOM      8  C6  UNL d   1       1.537  -1.498  -2.499  0.00  0.00    -0.082 A 
ATOM      9  C7  UNL d   1       1.514  -2.484  -1.483  0.00  0.00     0.045 A 
ENDROOT
TORSDOF 0
ENDMDL
