MODEL 1
REMARK minimizedAffinity 12.2536154
REMARK minimizedRMSD -1
REMARK  0 active torsions:
REMARK  status: ('A' for Active; 'I' for Inactive)
ROOT
ATOM      1  C   UNL d   1      -0.429  -3.445   0.512  0.00  0.00    -0.002 A 
ATOM      2  C1  UNL d   1      -1.167  -2.271   0.568  0.00  0.00     0.010 A 
ATOM      3  C2  UNL d   1      -0.779  -1.152  -0.171  0.00  0.00     0.041 A 
ATOM      4  C3  UNL d   1       0.374  -1.234  -0.976  0.00  0.00    -0.075 A 
ATOM      5  S   UNL d   1       1.039   0.010  -1.968  0.00  0.00     0.015 SA
ATOM      6  C4  UNL d   1       2.319  -0.988  -2.490  0.00  0.00     0.022 A 
ATOM      7  C5  UNL d   1       2.256  -2.242  -1.931  0.00  0.00     0.026 A 
ATOM      8  C6  UNL d   1       1.134  -2.405  -1.049  0.00  0.00    -0.082 A 
ATOM      9  C7  UNL d   1       0.714  -3.522  -0.287  0.00  0.00     0.045 A 
ENDROOT
TORSDOF 0
ENDMDL
