MODEL 1
REMARK minimizedAffinity 15.0056534
REMARK minimizedRMSD -1
REMARK  0 active torsions:
REMARK  status: ('A' for Active; 'I' for Inactive)
ROOT
ATOM      1  C   UNL d   1       1.503  -3.446  -0.223  0.00  0.00    -0.002 A 
ATOM      2  C1  UNL d   1       0.212  -3.792   0.150  0.00  0.00     0.010 A 
ATOM      3  C2  UNL d   1      -0.780  -2.816   0.264  0.00  0.00     0.041 A 
ATOM      4  C3  UNL d   1      -0.450  -1.473  -0.007  0.00  0.00    -0.075 A 
ATOM      5  S   UNL d   1      -1.501  -0.109   0.067  0.00  0.00     0.015 SA
ATOM      6  C4  UNL d   1      -0.262   0.965  -0.396  0.00  0.00     0.022 A 
ATOM      7  C5  UNL d   1       0.932   0.316  -0.605  0.00  0.00     0.026 A 
ATOM      8  C6  UNL d   1       0.843  -1.100  -0.385  0.00  0.00    -0.082 A 
ATOM      9  C7  UNL d   1       1.827  -2.113  -0.492  0.00  0.00     0.045 A 
ENDROOT
TORSDOF 0
ENDMDL
