MODEL 1
REMARK minimizedAffinity 5.45613623
REMARK minimizedRMSD -1
REMARK  0 active torsions:
REMARK  status: ('A' for Active; 'I' for Inactive)
ROOT
ATOM      1  C   UNL d   1      -0.079  -3.587  -0.277  0.00  0.00    -0.002 A 
ATOM      2  C1  UNL d   1       1.116  -3.231  -0.886  0.00  0.00     0.010 A 
ATOM      3  C2  UNL d   1       1.399  -1.892  -1.166  0.00  0.00     0.041 A 
ATOM      4  C3  UNL d   1       0.452  -0.909  -0.818  0.00  0.00    -0.075 A 
ATOM      5  S   UNL d   1       0.584   0.793  -1.062  0.00  0.00     0.015 SA
ATOM      6  C4  UNL d   1      -0.942   1.087  -0.363  0.00  0.00     0.022 A 
ATOM      7  C5  UNL d   1      -1.551  -0.074   0.052  0.00  0.00     0.026 A 
ATOM      8  C6  UNL d   1      -0.757  -1.243  -0.202  0.00  0.00    -0.082 A 
ATOM      9  C7  UNL d   1      -1.015  -2.609   0.067  0.00  0.00     0.045 A 
ENDROOT
TORSDOF 0
ENDMDL
