MODEL 1
REMARK minimizedAffinity 4.76874304
REMARK minimizedRMSD -1
REMARK  0 active torsions:
REMARK  status: ('A' for Active; 'I' for Inactive)
ROOT
ATOM      1  C   UNL d   1       1.073   0.419  -2.504  0.00  0.00    -0.002 A 
ATOM      2  C1  UNL d   1       1.816  -0.741  -2.337  0.00  0.00     0.010 A 
ATOM      3  C2  UNL d   1       1.386  -1.741  -1.463  0.00  0.00     0.041 A 
ATOM      4  C3  UNL d   1       0.183  -1.554  -0.754  0.00  0.00    -0.075 A 
ATOM      5  S   UNL d   1      -0.540  -2.643   0.370  0.00  0.00     0.015 SA
ATOM      6  C4  UNL d   1      -1.854  -1.595   0.654  0.00  0.00     0.022 A 
ATOM      7  C5  UNL d   1      -1.759  -0.438  -0.082  0.00  0.00     0.026 A 
ATOM      8  C6  UNL d   1      -0.584  -0.396  -0.906  0.00  0.00    -0.082 A 
ATOM      9  C7  UNL d   1      -0.120   0.600  -1.799  0.00  0.00     0.045 A 
ENDROOT
TORSDOF 0
ENDMDL
