MODEL 1
REMARK minimizedAffinity 5.3213954
REMARK minimizedRMSD -1
REMARK  0 active torsions:
REMARK  status: ('A' for Active; 'I' for Inactive)
ROOT
ATOM      1  C   UNL d   1       5.728  -0.786   5.289  0.00  0.00    -0.002 A 
ATOM      2  C1  UNL d   1       5.313  -0.731   3.966  0.00  0.00     0.010 A 
ATOM      3  C2  UNL d   1       5.137   0.497   3.327  0.00  0.00     0.041 A 
ATOM      4  C3  UNL d   1       5.390   1.682   4.046  0.00  0.00    -0.075 A 
ATOM      5  S   UNL d   1       5.243   3.300   3.468  0.00  0.00     0.015 SA
ATOM      6  C4  UNL d   1       5.728   3.957   4.964  0.00  0.00     0.022 A 
ATOM      7  C5  UNL d   1       5.999   2.981   5.893  0.00  0.00     0.026 A 
ATOM      8  C6  UNL d   1       5.809   1.653   5.379  0.00  0.00    -0.082 A 
ATOM      9  C7  UNL d   1       5.977   0.392   6.000  0.00  0.00     0.045 A 
ENDROOT
TORSDOF 0
ENDMDL
