MODEL 1
REMARK minimizedAffinity 4.75181389
REMARK minimizedRMSD -1
REMARK  0 active torsions:
REMARK  status: ('A' for Active; 'I' for Inactive)
ROOT
ATOM      1  C   UNL d   1       0.734  -2.981   0.250  0.00  0.00    -0.002 A 
ATOM      2  C1  UNL d   1      -0.087  -1.994   0.777  0.00  0.00     0.010 A 
ATOM      3  C2  UNL d   1      -0.204  -0.755   0.144  0.00  0.00     0.041 A 
ATOM      4  C3  UNL d   1       0.523  -0.523  -1.040  0.00  0.00    -0.075 A 
ATOM      5  S   UNL d   1       0.534   0.918  -1.987  0.00  0.00     0.015 SA
ATOM      6  C4  UNL d   1       1.628   0.257  -3.114  0.00  0.00     0.022 A 
ATOM      7  C5  UNL d   1       1.987  -1.030  -2.791  0.00  0.00     0.026 A 
ATOM      8  C6  UNL d   1       1.355  -1.501  -1.591  0.00  0.00    -0.082 A 
ATOM      9  C7  UNL d   1       1.454  -2.747  -0.925  0.00  0.00     0.045 A 
ENDROOT
TORSDOF 0
ENDMDL
