MODEL 1
REMARK minimizedAffinity 2.23925209
REMARK minimizedRMSD -1
REMARK  0 active torsions:
REMARK  status: ('A' for Active; 'I' for Inactive)
ROOT
ATOM      1  C   UNL d   1       0.810  -2.710  -0.870  0.00  0.00    -0.002 A 
ATOM      2  C1  UNL d   1      -0.101  -2.032  -0.073  0.00  0.00     0.010 A 
ATOM      3  C2  UNL d   1      -0.372  -0.680  -0.297  0.00  0.00     0.041 A 
ATOM      4  C3  UNL d   1       0.294  -0.016  -1.346  0.00  0.00    -0.075 A 
ATOM      5  S   UNL d   1       0.120   1.636  -1.806  0.00  0.00     0.015 SA
ATOM      6  C4  UNL d   1       1.251   1.480  -3.071  0.00  0.00     0.022 A 
ATOM      7  C5  UNL d   1       1.758   0.206  -3.155  0.00  0.00     0.026 A 
ATOM      8  C6  UNL d   1       1.215  -0.678  -2.162  0.00  0.00    -0.082 A 
ATOM      9  C7  UNL d   1       1.468  -2.048  -1.910  0.00  0.00     0.045 A 
ENDROOT
TORSDOF 0
ENDMDL
