MODEL 1
REMARK minimizedAffinity -1.02014232
REMARK minimizedRMSD -1
REMARK  0 active torsions:
REMARK  status: ('A' for Active; 'I' for Inactive)
ROOT
ATOM      1  C   UNL d   1       4.516   2.533   3.789  0.00  0.00    -0.002 A 
ATOM      2  C1  UNL d   1       5.361   2.754   4.867  0.00  0.00     0.010 A 
ATOM      3  C2  UNL d   1       5.865   1.682   5.607  0.00  0.00     0.041 A 
ATOM      4  C3  UNL d   1       5.502   0.371   5.240  0.00  0.00    -0.075 A 
ATOM      5  S   UNL d   1       5.998  -1.095   5.999  0.00  0.00     0.015 SA
ATOM      6  C4  UNL d   1       5.100  -2.050   4.910  0.00  0.00     0.022 A 
ATOM      7  C5  UNL d   1       4.432  -1.285   3.983  0.00  0.00     0.026 A 
ATOM      8  C6  UNL d   1       4.653   0.123   4.158  0.00  0.00    -0.082 A 
ATOM      9  C7  UNL d   1       4.159   1.231   3.428  0.00  0.00     0.045 A 
ENDROOT
TORSDOF 0
ENDMDL
