MODEL 1
REMARK minimizedAffinity 3.87510085
REMARK minimizedRMSD -1
REMARK  0 active torsions:
REMARK  status: ('A' for Active; 'I' for Inactive)
ROOT
ATOM      1  C   UNL d   1       1.496  -1.838   3.390  0.00  0.00     0.078 C 
ATOM      2  C1  UNL d   1       2.005  -0.427   3.400  0.00  0.00    -0.077 A 
ATOM      3  C2  UNL d   1       1.871   0.396   2.276  0.00  0.00    -0.001 A 
ATOM      4  C3  UNL d   1       2.358   1.704   2.296  0.00  0.00     0.003 A 
ATOM      5  C4  UNL d   1       2.983   2.200   3.439  0.00  0.00    -0.005 A 
ATOM      6  C5  UNL d   1       3.122   1.388   4.563  0.00  0.00     0.003 A 
ATOM      7  C6  UNL d   1       2.636   0.080   4.544  0.00  0.00    -0.001 A 
ENDROOT
TORSDOF 0
ENDMDL
