MODEL 1
REMARK minimizedAffinity -2.99285769
REMARK minimizedRMSD -1
REMARK  0 active torsions:
REMARK  status: ('A' for Active; 'I' for Inactive)
ROOT
ATOM      1  C   UNL d   1      -0.077   1.990   0.742  0.00  0.00     0.078 C 
ATOM      2  C1  UNL d   1       0.843   0.836   0.476  0.00  0.00    -0.077 A 
ATOM      3  C2  UNL d   1       2.163   0.843   0.944  0.00  0.00    -0.001 A 
ATOM      4  C3  UNL d   1       3.010  -0.234   0.680  0.00  0.00     0.003 A 
ATOM      5  C4  UNL d   1       2.548  -1.326  -0.053  0.00  0.00    -0.005 A 
ATOM      6  C5  UNL d   1       1.237  -1.340  -0.525  0.00  0.00     0.003 A 
ATOM      7  C6  UNL d   1       0.388  -0.264  -0.262  0.00  0.00    -0.001 A 
ENDROOT
TORSDOF 0
ENDMDL
