MODEL 1
REMARK minimizedAffinity -4.93339491
REMARK minimizedRMSD -1
REMARK  0 active torsions:
REMARK  status: ('A' for Active; 'I' for Inactive)
ROOT
ATOM      1  C   UNL d   1       3.012  -0.298   0.808  0.00  0.00     0.078 C 
ATOM      2  C1  UNL d   1       1.517  -0.300   0.702  0.00  0.00    -0.077 A 
ATOM      3  C2  UNL d   1       0.831   0.786   0.144  0.00  0.00    -0.001 A 
ATOM      4  C3  UNL d   1      -0.562   0.775   0.061  0.00  0.00     0.003 A 
ATOM      5  C4  UNL d   1      -1.282  -0.320   0.535  0.00  0.00    -0.005 A 
ATOM      6  C5  UNL d   1      -0.609  -1.405   1.093  0.00  0.00     0.003 A 
ATOM      7  C6  UNL d   1       0.784  -1.395   1.178  0.00  0.00    -0.001 A 
ENDROOT
TORSDOF 0
ENDMDL
