MODEL 1
REMARK minimizedAffinity -3.81052685
REMARK minimizedRMSD -1
REMARK  0 active torsions:
REMARK  status: ('A' for Active; 'I' for Inactive)
ROOT
ATOM      1  C   UNL d   1       3.118  -0.512   0.470  0.00  0.00     0.078 C 
ATOM      2  C1  UNL d   1       1.623  -0.600   0.401  0.00  0.00    -0.077 A 
ATOM      3  C2  UNL d   1       0.864   0.438  -0.153  0.00  0.00    -0.001 A 
ATOM      4  C3  UNL d   1      -0.528   0.347  -0.202  0.00  0.00     0.003 A 
ATOM      5  C4  UNL d   1      -1.173  -0.780   0.304  0.00  0.00    -0.005 A 
ATOM      6  C5  UNL d   1      -0.427  -1.817   0.859  0.00  0.00     0.003 A 
ATOM      7  C6  UNL d   1       0.965  -1.728   0.908  0.00  0.00    -0.001 A 
ENDROOT
TORSDOF 0
ENDMDL
