MODEL 1
REMARK minimizedAffinity -2.14800358
REMARK minimizedRMSD -1
REMARK  0 active torsions:
REMARK  status: ('A' for Active; 'I' for Inactive)
ROOT
ATOM      1  C   UNL d   1      -1.256   0.207  -0.332  0.00  0.00     0.078 C 
ATOM      2  C1  UNL d   1       0.135   0.080   0.213  0.00  0.00    -0.077 A 
ATOM      3  C2  UNL d   1       0.507  -1.024   0.989  0.00  0.00    -0.001 A 
ATOM      4  C3  UNL d   1       1.803  -1.124   1.498  0.00  0.00     0.003 A 
ATOM      5  C4  UNL d   1       2.737  -0.123   1.238  0.00  0.00    -0.005 A 
ATOM      6  C5  UNL d   1       2.375   0.980   0.468  0.00  0.00     0.003 A 
ATOM      7  C6  UNL d   1       1.079   1.082  -0.042  0.00  0.00    -0.001 A 
ENDROOT
TORSDOF 0
ENDMDL
