MODEL 1
REMARK minimizedAffinity -4.25189018
REMARK minimizedRMSD -1
REMARK  0 active torsions:
REMARK  status: ('A' for Active; 'I' for Inactive)
ROOT
ATOM      1  C   UNL d   1      -1.546   0.156  -0.664  0.00  0.00     0.078 C 
ATOM      2  C1  UNL d   1      -0.109  -0.029  -0.276  0.00  0.00    -0.077 A 
ATOM      3  C2  UNL d   1       0.756   1.068  -0.170  0.00  0.00    -0.001 A 
ATOM      4  C3  UNL d   1       2.093   0.880   0.182  0.00  0.00     0.003 A 
ATOM      5  C4  UNL d   1       2.579  -0.402   0.430  0.00  0.00    -0.005 A 
ATOM      6  C5  UNL d   1       1.727  -1.500   0.324  0.00  0.00     0.003 A 
ATOM      7  C6  UNL d   1       0.389  -1.314  -0.028  0.00  0.00    -0.001 A 
ENDROOT
TORSDOF 0
ENDMDL
