MODEL 1
REMARK minimizedAffinity -1.32813966
REMARK minimizedRMSD -1
REMARK  0 active torsions:
REMARK  status: ('A' for Active; 'I' for Inactive)
ROOT
ATOM      1  C   UNL d   1      -3.173  -0.607  -2.904  0.00  0.00     0.078 C 
ATOM      2  C1  UNL d   1      -2.352  -0.402  -1.666  0.00  0.00    -0.077 A 
ATOM      3  C2  UNL d   1      -1.000  -0.047  -1.748  0.00  0.00    -0.001 A 
ATOM      4  C3  UNL d   1      -0.245   0.131  -0.587  0.00  0.00     0.003 A 
ATOM      5  C4  UNL d   1      -0.833  -0.047   0.664  0.00  0.00    -0.005 A 
ATOM      6  C5  UNL d   1      -2.177  -0.403   0.755  0.00  0.00     0.003 A 
ATOM      7  C6  UNL d   1      -2.933  -0.581  -0.405  0.00  0.00    -0.001 A 
ENDROOT
TORSDOF 0
ENDMDL
