MODEL 1
REMARK minimizedAffinity -3.45416713
REMARK minimizedRMSD -1
REMARK  0 active torsions:
REMARK  status: ('A' for Active; 'I' for Inactive)
ROOT
ATOM      1  C   UNL d   1       2.515  -1.419   0.090  0.00  0.00     0.078 C 
ATOM      2  C1  UNL d   1       1.072  -1.046  -0.075  0.00  0.00    -0.077 A 
ATOM      3  C2  UNL d   1       0.063  -1.755   0.589  0.00  0.00    -0.001 A 
ATOM      4  C3  UNL d   1      -1.277  -1.403   0.418  0.00  0.00     0.003 A 
ATOM      5  C4  UNL d   1      -1.620  -0.342  -0.417  0.00  0.00    -0.005 A 
ATOM      6  C5  UNL d   1      -0.624   0.368  -1.083  0.00  0.00     0.003 A 
ATOM      7  C6  UNL d   1       0.717   0.018  -0.914  0.00  0.00    -0.001 A 
ENDROOT
TORSDOF 0
ENDMDL
