MODEL 1
REMARK minimizedAffinity -4.06159544
REMARK minimizedRMSD -1
REMARK  1 active torsions:
REMARK  status: ('A' for Active; 'I' for Inactive)
REMARK    1  A    between atoms: C3_4  and  O_7 
ROOT
ATOM      1  C   UNL d   1       0.696  -1.421   0.120  0.00  0.00    -0.033 A 
ATOM      2  C1  UNL d   1      -0.606  -1.300  -0.371  0.00  0.00     0.039 A 
ATOM      3  C2  UNL d   1      -1.558  -0.570   0.343  0.00  0.00    -0.080 A 
ATOM      4  C3  UNL d   1      -1.196   0.034   1.544  0.00  0.00     0.150 A 
ATOM      5  C4  UNL d   1       0.100  -0.079   2.037  0.00  0.00    -0.007 A 
ATOM      6  C5  UNL d   1       1.049  -0.809   1.323  0.00  0.00     0.039 A 
ENDROOT
BRANCH   4   7
ATOM      7  O   UNL d   1      -2.092   0.753   2.279  0.00  0.00    -0.526 OA
ATOM      8  H5  UNL d   1      -2.954   0.721   1.830  0.00  0.00     0.418 HD
ENDBRANCH   4   7
TORSDOF 1
ENDMDL
