MODEL 1
REMARK minimizedAffinity -4.51412106
REMARK minimizedRMSD -1
REMARK  1 active torsions:
REMARK  status: ('A' for Active; 'I' for Inactive)
REMARK    1  A    between atoms: C3_4  and  O_7 
ROOT
ATOM      1  C   UNL d   1      -1.083   1.006   3.485  0.00  0.00    -0.033 A 
ATOM      2  C1  UNL d   1      -1.582   1.473   2.268  0.00  0.00     0.039 A 
ATOM      3  C2  UNL d   1      -1.125   0.925   1.068  0.00  0.00    -0.080 A 
ATOM      4  C3  UNL d   1      -0.171  -0.089   1.099  0.00  0.00     0.150 A 
ATOM      5  C4  UNL d   1       0.328  -0.562   2.309  0.00  0.00    -0.007 A 
ATOM      6  C5  UNL d   1      -0.130  -0.012   3.506  0.00  0.00     0.039 A 
ENDROOT
BRANCH   4   7
ATOM      7  O   UNL d   1       0.310  -0.651  -0.046  0.00  0.00    -0.526 OA
ATOM      8  H5  UNL d   1      -0.103  -0.205  -0.804  0.00  0.00     0.418 HD
ENDBRANCH   4   7
TORSDOF 1
ENDMDL
