MODEL 1
REMARK minimizedAffinity 2.00912499
REMARK minimizedRMSD -1
REMARK  2 active torsions:
REMARK  status: ('A' for Active; 'I' for Inactive)
REMARK    1  A    between atoms: C2'_3  and  C1'_4 
REMARK    2  A    between atoms: C1'_4  and  C1_5 
ROOT
ATOM      1  C1  I4B d   1      -4.465  -3.029  -1.257  0.00  0.00    -0.075 A 
ATOM      2  C2  I4B d   1      -4.519  -2.623  -2.567  0.00  0.00     0.003 A 
ATOM      3  C3  I4B d   1      -3.379  -2.052  -3.184  0.00  0.00     0.002 A 
ATOM      4  C4  I4B d   1      -2.230  -1.862  -2.444  0.00  0.00    -0.004 A 
ATOM      5  C5  I4B d   1      -2.170  -2.296  -1.123  0.00  0.00     0.002 A 
ATOM      6  C6  I4B d   1      -3.290  -2.894  -0.529  0.00  0.00     0.003 A 
ENDROOT
BRANCH   1   7
ATOM      7  C1' I4B d   1      -5.697  -3.598  -0.627  0.00  0.00     0.060 C 
BRANCH   7   8
ATOM      8  C2' I4B d   1      -5.267  -4.655   0.369  0.00  0.00    -0.013 C 
ATOM      9  C4' I4B d   1      -5.999  -4.503   1.676  0.00  0.00     0.013 C 
ATOM     10  C3' I4B d   1      -5.525  -6.000  -0.243  0.00  0.00     0.013 C 
ENDBRANCH   7   8
ENDBRANCH   1   7
TORSDOF 2
ENDMDL
