MODEL 1
REMARK minimizedAffinity -2.90130615
REMARK minimizedRMSD -1
REMARK  2 active torsions:
REMARK  status: ('A' for Active; 'I' for Inactive)
REMARK    1  A    between atoms: C2'_3  and  C1'_4 
REMARK    2  A    between atoms: C1'_4  and  C1_5 
ROOT
ATOM      1  C1  I4B d   1       0.103   0.716   0.851  0.00  0.00    -0.075 A 
ATOM      2  C2  I4B d   1       1.076   0.522  -0.098  0.00  0.00     0.003 A 
ATOM      3  C3  I4B d   1       1.018  -0.602  -0.958  0.00  0.00     0.002 A 
ATOM      4  C4  I4B d   1       0.005  -1.526  -0.802  0.00  0.00    -0.004 A 
ATOM      5  C5  I4B d   1      -0.993  -1.315   0.145  0.00  0.00     0.002 A 
ATOM      6  C6  I4B d   1      -0.951  -0.181   0.969  0.00  0.00     0.003 A 
ENDROOT
BRANCH   1   7
ATOM      7  C1' I4B d   1       0.213   1.896   1.765  0.00  0.00     0.060 C 
BRANCH   7   8
ATOM      8  C2' I4B d   1       1.633   1.950   2.288  0.00  0.00    -0.013 C 
ATOM      9  C4' I4B d   1       2.250   3.303   2.050  0.00  0.00     0.013 C 
ATOM     10  C3' I4B d   1       1.601   1.619   3.750  0.00  0.00     0.013 C 
ENDBRANCH   7   8
ENDBRANCH   1   7
TORSDOF 2
ENDMDL
