MODEL 1
REMARK minimizedAffinity -3.5598731
REMARK minimizedRMSD -1
REMARK  2 active torsions:
REMARK  status: ('A' for Active; 'I' for Inactive)
REMARK    1  A    between atoms: C2'_3  and  C1'_4 
REMARK    2  A    between atoms: C1'_4  and  C1_5 
ROOT
ATOM      1  C1  I4B d   1       1.578   0.652  -0.172  0.00  0.00    -0.075 A 
ATOM      2  C2  I4B d   1       2.247  -0.452  -0.637  0.00  0.00     0.003 A 
ATOM      3  C3  I4B d   1       1.527  -1.593  -1.070  0.00  0.00     0.002 A 
ATOM      4  C4  I4B d   1       0.151  -1.605  -0.973  0.00  0.00    -0.004 A 
ATOM      5  C5  I4B d   1      -0.527  -0.476  -0.522  0.00  0.00     0.002 A 
ATOM      6  C6  I4B d   1       0.189   0.664  -0.130  0.00  0.00     0.003 A 
ENDROOT
BRANCH   1   7
ATOM      7  C1' I4B d   1       2.370   1.826   0.308  0.00  0.00     0.060 C 
BRANCH   7   8
ATOM      8  C2' I4B d   1       1.740   2.321   1.594  0.00  0.00    -0.013 C 
ATOM      9  C4' I4B d   1       2.400   1.702   2.798  0.00  0.00     0.013 C 
ATOM     10  C3' I4B d   1       1.856   3.816   1.621  0.00  0.00     0.013 C 
ENDBRANCH   7   8
ENDBRANCH   1   7
TORSDOF 2
ENDMDL
