MODEL 1
REMARK minimizedAffinity -4.05351353
REMARK minimizedRMSD -1
REMARK  2 active torsions:
REMARK  status: ('A' for Active; 'I' for Inactive)
REMARK    1  A    between atoms: C2'_3  and  C1'_4 
REMARK    2  A    between atoms: C1'_4  and  C1_5 
ROOT
ATOM      1  C1  I4B d   1       1.357   1.109   0.055  0.00  0.00    -0.075 A 
ATOM      2  C2  I4B d   1       1.198   2.226   0.837  0.00  0.00     0.003 A 
ATOM      3  C3  I4B d   1       2.260   2.680   1.656  0.00  0.00     0.002 A 
ATOM      4  C4  I4B d   1       3.438   1.963   1.700  0.00  0.00    -0.004 A 
ATOM      5  C5  I4B d   1       3.606   0.845   0.889  0.00  0.00     0.002 A 
ATOM      6  C6  I4B d   1       2.564   0.422   0.051  0.00  0.00     0.003 A 
ENDROOT
BRANCH   1   7
ATOM      7  C1' I4B d   1       0.204   0.639  -0.773  0.00  0.00     0.060 C 
BRANCH   7   8
ATOM      8  C2' I4B d   1      -0.129  -0.778  -0.349  0.00  0.00    -0.013 C 
ATOM      9  C4' I4B d   1      -0.577  -0.825   1.088  0.00  0.00     0.013 C 
ATOM     10  C3' I4B d   1      -1.195  -1.298  -1.266  0.00  0.00     0.013 C 
ENDBRANCH   7   8
ENDBRANCH   1   7
TORSDOF 2
ENDMDL
