MODEL 1
REMARK minimizedAffinity -3.30929565
REMARK minimizedRMSD -1
REMARK  2 active torsions:
REMARK  status: ('A' for Active; 'I' for Inactive)
REMARK    1  A    between atoms: C2'_3  and  C1'_4 
REMARK    2  A    between atoms: C1'_4  and  C1_5 
ROOT
ATOM      1  C1  I4B d   1      -0.352  -0.242  -0.066  0.00  0.00    -0.075 A 
ATOM      2  C2  I4B d   1       0.659   0.584  -0.489  0.00  0.00     0.003 A 
ATOM      3  C3  I4B d   1       0.905   1.809   0.177  0.00  0.00     0.002 A 
ATOM      4  C4  I4B d   1       0.089   2.189   1.223  0.00  0.00    -0.004 A 
ATOM      5  C5  I4B d   1      -0.921   1.340   1.665  0.00  0.00     0.002 A 
ATOM      6  C6  I4B d   1      -1.135   0.110   1.025  0.00  0.00     0.003 A 
ENDROOT
BRANCH   1   7
ATOM      7  C1' I4B d   1      -0.604  -1.513  -0.813  0.00  0.00     0.060 C 
BRANCH   7   8
ATOM      8  C2' I4B d   1      -1.301  -1.161  -2.112  0.00  0.00    -0.013 C 
ATOM      9  C4' I4B d   1      -0.704  -1.913  -3.272  0.00  0.00     0.013 C 
ATOM     10  C3' I4B d   1      -2.759  -1.475  -1.955  0.00  0.00     0.013 C 
ENDBRANCH   7   8
ENDBRANCH   1   7
TORSDOF 2
ENDMDL
