MODEL 1
REMARK minimizedAffinity -4.9321785
REMARK minimizedRMSD -1
REMARK  2 active torsions:
REMARK  status: ('A' for Active; 'I' for Inactive)
REMARK    1  A    between atoms: C2'_3  and  C1'_4 
REMARK    2  A    between atoms: C1'_4  and  C1_5 
ROOT
ATOM      1  C1  I4B d   1      -0.072  -0.330   0.065  0.00  0.00    -0.075 A 
ATOM      2  C2  I4B d   1      -0.897  -0.014   1.115  0.00  0.00     0.003 A 
ATOM      3  C3  I4B d   1      -0.645   1.139   1.898  0.00  0.00     0.002 A 
ATOM      4  C4  I4B d   1       0.465   1.914   1.628  0.00  0.00    -0.004 A 
ATOM      5  C5  I4B d   1       1.287   1.605   0.548  0.00  0.00     0.002 A 
ATOM      6  C6  I4B d   1       1.010   0.483  -0.246  0.00  0.00     0.003 A 
ENDROOT
BRANCH   1   7
ATOM      7  C1' I4B d   1      -0.349  -1.573  -0.720  0.00  0.00     0.060 C 
BRANCH   7   8
ATOM      8  C2' I4B d   1      -1.603  -1.339  -1.538  0.00  0.00    -0.013 C 
ATOM      9  C4' I4B d   1      -1.269  -1.069  -2.982  0.00  0.00     0.013 C 
ATOM     10  C3' I4B d   1      -2.477  -2.549  -1.402  0.00  0.00     0.013 C 
ENDBRANCH   7   8
ENDBRANCH   1   7
TORSDOF 2
ENDMDL
