MODEL 1
REMARK minimizedAffinity -4.86714172
REMARK minimizedRMSD -1
REMARK  2 active torsions:
REMARK  status: ('A' for Active; 'I' for Inactive)
REMARK    1  A    between atoms: C2'_3  and  C1'_4 
REMARK    2  A    between atoms: C1'_4  and  C1_5 
ROOT
ATOM      1  C1  I4B d   1       0.300  -0.062   0.247  0.00  0.00    -0.075 A 
ATOM      2  C2  I4B d   1      -0.384   0.633   1.213  0.00  0.00     0.003 A 
ATOM      3  C3  I4B d   1       0.106   1.878   1.677  0.00  0.00     0.002 A 
ATOM      4  C4  I4B d   1       1.302   2.362   1.188  0.00  0.00    -0.004 A 
ATOM      5  C5  I4B d   1       1.983   1.666   0.193  0.00  0.00     0.002 A 
ATOM      6  C6  I4B d   1       1.472   0.453  -0.290  0.00  0.00     0.003 A 
ENDROOT
BRANCH   1   7
ATOM      7  C1' I4B d   1      -0.230  -1.389  -0.196  0.00  0.00     0.060 C 
BRANCH   7   8
ATOM      8  C2' I4B d   1      -1.487  -1.144  -1.005  0.00  0.00    -0.013 C 
ATOM      9  C4' I4B d   1      -1.182  -1.077  -2.479  0.00  0.00     0.013 C 
ATOM     10  C3' I4B d   1      -2.455  -2.248  -0.702  0.00  0.00     0.013 C 
ENDBRANCH   7   8
ENDBRANCH   1   7
TORSDOF 2
ENDMDL
