MODEL 1
REMARK minimizedAffinity -3.24832845
REMARK minimizedRMSD -1
REMARK  2 active torsions:
REMARK  status: ('A' for Active; 'I' for Inactive)
REMARK    1  A    between atoms: C2'_3  and  C1'_4 
REMARK    2  A    between atoms: C1'_4  and  C1_5 
ROOT
ATOM      1  C1  I4B d   1      -0.259  -0.134   0.051  0.00  0.00    -0.075 A 
ATOM      2  C2  I4B d   1      -0.963   0.336   1.131  0.00  0.00     0.003 A 
ATOM      3  C3  I4B d   1      -0.592   1.555   1.748  0.00  0.00     0.002 A 
ATOM      4  C4  I4B d   1       0.513   2.241   1.288  0.00  0.00    -0.004 A 
ATOM      5  C5  I4B d   1       1.213   1.775   0.178  0.00  0.00     0.002 A 
ATOM      6  C6  I4B d   1       0.817   0.586  -0.452  0.00  0.00     0.003 A 
ENDROOT
BRANCH   1   7
ATOM      7  C1' I4B d   1      -0.658  -1.442  -0.555  0.00  0.00     0.060 C 
BRANCH   7   8
ATOM      8  C2' I4B d   1      -1.702  -1.164  -1.618  0.00  0.00    -0.013 C 
ATOM      9  C4' I4B d   1      -1.065  -0.943  -2.964  0.00  0.00     0.013 C 
ATOM     10  C3' I4B d   1      -2.649  -2.327  -1.651  0.00  0.00     0.013 C 
ENDBRANCH   7   8
ENDBRANCH   1   7
TORSDOF 2
ENDMDL
