MODEL 1
REMARK minimizedAffinity -5.00750446
REMARK minimizedRMSD -1
REMARK  2 active torsions:
REMARK  status: ('A' for Active; 'I' for Inactive)
REMARK    1  A    between atoms: C2'_3  and  C1'_4 
REMARK    2  A    between atoms: C1'_4  and  C1_5 
ROOT
ATOM      1  C1  I4B d   1      -0.939  -0.486  -0.415  0.00  0.00    -0.075 A 
ATOM      2  C2  I4B d   1      -1.995   0.377  -0.261  0.00  0.00     0.003 A 
ATOM      3  C3  I4B d   1      -2.029   1.273   0.835  0.00  0.00     0.002 A 
ATOM      4  C4  I4B d   1      -1.019   1.236   1.775  0.00  0.00    -0.004 A 
ATOM      5  C5  I4B d   1       0.062   0.376   1.605  0.00  0.00     0.002 A 
ATOM      6  C6  I4B d   1       0.109  -0.483   0.497  0.00  0.00     0.003 A 
ENDROOT
BRANCH   1   7
ATOM      7  C1' I4B d   1      -0.951  -1.442  -1.566  0.00  0.00     0.060 C 
BRANCH   7   8
ATOM      8  C2' I4B d   1      -2.382  -1.887  -1.788  0.00  0.00    -0.013 C 
ATOM      9  C4' I4B d   1      -2.685  -2.038  -3.255  0.00  0.00     0.013 C 
ATOM     10  C3' I4B d   1      -2.583  -3.182  -1.058  0.00  0.00     0.013 C 
ENDBRANCH   7   8
ENDBRANCH   1   7
TORSDOF 2
ENDMDL
