MODEL 1
REMARK minimizedAffinity -3.17908049
REMARK minimizedRMSD -1
REMARK  2 active torsions:
REMARK  status: ('A' for Active; 'I' for Inactive)
REMARK    1  A    between atoms: C2'_3  and  C1'_4 
REMARK    2  A    between atoms: C1'_4  and  C1_5 
ROOT
ATOM      1  C1  I4B d   1      -0.116  -0.104   0.385  0.00  0.00    -0.075 A 
ATOM      2  C2  I4B d   1       1.022  -0.629  -0.173  0.00  0.00     0.003 A 
ATOM      3  C3  I4B d   1       2.297  -0.233   0.301  0.00  0.00     0.002 A 
ATOM      4  C4  I4B d   1       2.386   0.721   1.293  0.00  0.00    -0.004 A 
ATOM      5  C5  I4B d   1       1.230   1.235   1.874  0.00  0.00     0.002 A 
ATOM      6  C6  I4B d   1      -0.029   0.811   1.426  0.00  0.00     0.003 A 
ENDROOT
BRANCH   1   7
ATOM      7  C1' I4B d   1      -1.445  -0.520  -0.162  0.00  0.00     0.060 C 
BRANCH   7   8
ATOM      8  C2' I4B d   1      -1.203  -1.266  -1.458  0.00  0.00    -0.013 C 
ATOM      9  C4' I4B d   1      -2.448  -1.978  -1.918  0.00  0.00     0.013 C 
ATOM     10  C3' I4B d   1      -0.737  -0.275  -2.482  0.00  0.00     0.013 C 
ENDBRANCH   7   8
ENDBRANCH   1   7
TORSDOF 2
ENDMDL
