MODEL 1
REMARK minimizedAffinity -4.56990194
REMARK minimizedRMSD -1
REMARK  2 active torsions:
REMARK  status: ('A' for Active; 'I' for Inactive)
REMARK    1  A    between atoms: C2'_3  and  C1'_4 
REMARK    2  A    between atoms: C1'_4  and  C1_5 
ROOT
ATOM      1  C1  I4B d   1      -0.350  -0.821  -0.365  0.00  0.00    -0.075 A 
ATOM      2  C2  I4B d   1       1.012  -0.832  -0.534  0.00  0.00     0.003 A 
ATOM      3  C3  I4B d   1       1.832   0.040   0.223  0.00  0.00     0.002 A 
ATOM      4  C4  I4B d   1       1.248   0.935   1.095  0.00  0.00    -0.004 A 
ATOM      5  C5  I4B d   1      -0.131   0.930   1.282  0.00  0.00     0.002 A 
ATOM      6  C6  I4B d   1      -0.935   0.037   0.557  0.00  0.00     0.003 A 
ENDROOT
BRANCH   1   7
ATOM      7  C1' I4B d   1      -1.188  -1.732  -1.204  0.00  0.00     0.060 C 
BRANCH   7   8
ATOM      8  C2' I4B d   1      -1.864  -0.894  -2.270  0.00  0.00    -0.013 C 
ATOM      9  C4' I4B d   1      -1.225  -1.106  -3.617  0.00  0.00     0.013 C 
ATOM     10  C3' I4B d   1      -3.318  -1.264  -2.296  0.00  0.00     0.013 C 
ENDBRANCH   7   8
ENDBRANCH   1   7
TORSDOF 2
ENDMDL
