MODEL 1
REMARK minimizedAffinity -5.69501925
REMARK minimizedRMSD -1
REMARK  2 active torsions:
REMARK  status: ('A' for Active; 'I' for Inactive)
REMARK    1  A    between atoms: C2'_3  and  C1'_4 
REMARK    2  A    between atoms: C1'_4  and  C1_5 
ROOT
ATOM      1  C1  I4B d   1       0.691   1.105  -0.173  0.00  0.00    -0.075 A 
ATOM      2  C2  I4B d   1      -0.315   0.207   0.082  0.00  0.00     0.003 A 
ATOM      3  C3  I4B d   1      -0.231  -1.118  -0.410  0.00  0.00     0.002 A 
ATOM      4  C4  I4B d   1       0.846  -1.485  -1.190  0.00  0.00    -0.004 A 
ATOM      5  C5  I4B d   1       1.877  -0.581  -1.428  0.00  0.00     0.002 A 
ATOM      6  C6  I4B d   1       1.806   0.719  -0.907  0.00  0.00     0.003 A 
ENDROOT
BRANCH   1   7
ATOM      7  C1' I4B d   1       0.554   2.505   0.334  0.00  0.00     0.060 C 
BRANCH   7   8
ATOM      8  C2' I4B d   1       1.516   2.679   1.492  0.00  0.00    -0.013 C 
ATOM      9  C4' I4B d   1       1.841   4.132   1.718  0.00  0.00     0.013 C 
ATOM     10  C3' I4B d   1       0.888   2.069   2.710  0.00  0.00     0.013 C 
ENDBRANCH   7   8
ENDBRANCH   1   7
TORSDOF 2
ENDMDL
