MODEL 1
REMARK minimizedAffinity -3.62993431
REMARK minimizedRMSD -1
REMARK  1 active torsions:
REMARK  status: ('A' for Active; 'I' for Inactive)
REMARK    1  A    between atoms: N_2  and  C1_3 
ROOT
ATOM      1  C1  UNL d   1      -0.104   0.259   2.414  0.00  0.00     0.143 A 
ATOM      2  C2  UNL d   1      -1.209   1.117   2.452  0.00  0.00    -0.057 A 
ATOM      3  C3  UNL d   1      -1.899   1.464   1.284  0.00  0.00     0.033 A 
ATOM      4  C4  UNL d   1      -1.476   0.981   0.050  0.00  0.00    -0.042 A 
ATOM      5  C5  UNL d   1      -0.365   0.148  -0.014  0.00  0.00     0.033 A 
ATOM      6  C6  UNL d   1       0.315  -0.201   1.156  0.00  0.00    -0.057 A 
ENDROOT
BRANCH   1   7
ATOM      7  N   UNL d   1       0.683  -0.044   3.528  0.00  0.00    -0.732 N 
ATOM      8  C   UNL d   1       2.038  -0.524   3.364  0.00  0.00     0.284 C 
ATOM      9  H3  UNL d   1       0.569   0.631   4.280  0.00  0.00     0.395 HD
ENDBRANCH   1   7
TORSDOF 1
ENDMDL
