MODEL 1
REMARK minimizedAffinity -2.63842154
REMARK minimizedRMSD -1
REMARK  1 active torsions:
REMARK  status: ('A' for Active; 'I' for Inactive)
REMARK    1  A    between atoms: N_2  and  C1_3 
ROOT
ATOM      1  C1  UNL d   1      -1.059   0.292   1.215  0.00  0.00     0.143 A 
ATOM      2  C2  UNL d   1      -1.858   0.160   0.075  0.00  0.00    -0.057 A 
ATOM      3  C3  UNL d   1      -1.292   0.075  -1.203  0.00  0.00     0.033 A 
ATOM      4  C4  UNL d   1       0.088   0.151  -1.365  0.00  0.00    -0.042 A 
ATOM      5  C5  UNL d   1       0.900   0.307  -0.248  0.00  0.00     0.033 A 
ATOM      6  C6  UNL d   1       0.329   0.384   1.026  0.00  0.00    -0.057 A 
ENDROOT
BRANCH   1   7
ATOM      7  N   UNL d   1      -1.566   0.480   2.503  0.00  0.00    -0.732 N 
ATOM      8  C   UNL d   1      -0.797   1.191   3.502  0.00  0.00     0.284 C 
ATOM      9  H3  UNL d   1      -2.558   0.709   2.500  0.00  0.00     0.395 HD
ENDBRANCH   1   7
TORSDOF 1
ENDMDL
