MODEL 1
REMARK minimizedAffinity 1.02292609
REMARK minimizedRMSD -1
REMARK  1 active torsions:
REMARK  status: ('A' for Active; 'I' for Inactive)
REMARK    1  A    between atoms: N_2  and  C1_3 
ROOT
ATOM      1  C1  UNL d   1      -0.021  -0.014  -1.440  0.00  0.00     0.143 A 
ATOM      2  C2  UNL d   1       0.064  -0.568  -0.158  0.00  0.00    -0.057 A 
ATOM      3  C3  UNL d   1      -0.903  -0.294   0.817  0.00  0.00     0.033 A 
ATOM      4  C4  UNL d   1      -1.960   0.565   0.535  0.00  0.00    -0.042 A 
ATOM      5  C5  UNL d   1      -2.051   1.147  -0.725  0.00  0.00     0.033 A 
ATOM      6  C6  UNL d   1      -1.086   0.864  -1.696  0.00  0.00    -0.057 A 
ENDROOT
BRANCH   1   7
ATOM      7  N   UNL d   1       0.961  -0.170  -2.421  0.00  0.00    -0.732 N 
ATOM      8  C   UNL d   1       0.616  -0.108  -3.826  0.00  0.00     0.284 C 
ATOM      9  H3  UNL d   1       1.826   0.310  -2.184  0.00  0.00     0.395 HD
ENDBRANCH   1   7
TORSDOF 1
ENDMDL
