MODEL 1
REMARK minimizedAffinity -2.46018028
REMARK minimizedRMSD -1
REMARK  1 active torsions:
REMARK  status: ('A' for Active; 'I' for Inactive)
REMARK    1  A    between atoms: N_2  and  C1_3 
ROOT
ATOM      1  C1  UNL d   1      -0.108  -0.260   0.166  0.00  0.00     0.143 A 
ATOM      2  C2  UNL d   1      -1.388   0.284   0.315  0.00  0.00    -0.057 A 
ATOM      3  C3  UNL d   1      -1.872   0.669   1.571  0.00  0.00     0.033 A 
ATOM      4  C4  UNL d   1      -1.092   0.488   2.708  0.00  0.00    -0.042 A 
ATOM      5  C5  UNL d   1       0.174  -0.074   2.587  0.00  0.00     0.033 A 
ATOM      6  C6  UNL d   1       0.654  -0.450   1.329  0.00  0.00    -0.057 A 
ENDROOT
BRANCH   1   7
ATOM      7  N   UNL d   1       0.392  -0.753  -1.042  0.00  0.00    -0.732 N 
ATOM      8  C   UNL d   1       0.710   0.147  -2.130  0.00  0.00     0.284 C 
ATOM      9  H3  UNL d   1       1.072  -1.497  -0.906  0.00  0.00     0.395 HD
ENDBRANCH   1   7
TORSDOF 1
ENDMDL
