MODEL 1
REMARK minimizedAffinity -1.86437809
REMARK minimizedRMSD -1
REMARK  1 active torsions:
REMARK  status: ('A' for Active; 'I' for Inactive)
REMARK    1  A    between atoms: N_2  and  C1_3 
ROOT
ATOM      1  C1  UNL d   1       0.681  -0.595   1.875  0.00  0.00     0.143 A 
ATOM      2  C2  UNL d   1       0.638  -0.752   0.486  0.00  0.00    -0.057 A 
ATOM      3  C3  UNL d   1      -0.502  -0.404  -0.249  0.00  0.00     0.033 A 
ATOM      4  C4  UNL d   1      -1.634   0.080   0.398  0.00  0.00    -0.042 A 
ATOM      5  C5  UNL d   1      -1.622   0.221   1.781  0.00  0.00     0.033 A 
ATOM      6  C6  UNL d   1      -0.479  -0.121   2.509  0.00  0.00    -0.057 A 
ENDROOT
BRANCH   1   7
ATOM      7  N   UNL d   1       1.748  -1.014   2.673  0.00  0.00    -0.732 N 
ATOM      8  C   UNL d   1       1.634  -1.018   4.115  0.00  0.00     0.284 C 
ATOM      9  H3  UNL d   1       2.221  -1.831   2.291  0.00  0.00     0.395 HD
ENDBRANCH   1   7
TORSDOF 1
ENDMDL
