MODEL 1
REMARK minimizedAffinity -1.33145583
REMARK minimizedRMSD -1
REMARK  1 active torsions:
REMARK  status: ('A' for Active; 'I' for Inactive)
REMARK    1  A    between atoms: N_2  and  C1_3 
ROOT
ATOM      1  C1  UNL d   1       0.745   0.180  -2.463  0.00  0.00     0.143 A 
ATOM      2  C2  UNL d   1      -0.021   1.069  -1.700  0.00  0.00    -0.057 A 
ATOM      3  C3  UNL d   1      -0.446   0.737  -0.408  0.00  0.00     0.033 A 
ATOM      4  C4  UNL d   1      -0.136  -0.506   0.135  0.00  0.00    -0.042 A 
ATOM      5  C5  UNL d   1       0.603  -1.415  -0.615  0.00  0.00     0.033 A 
ATOM      6  C6  UNL d   1       1.030  -1.074  -1.902  0.00  0.00    -0.057 A 
ENDROOT
BRANCH   1   7
ATOM      7  N   UNL d   1       1.114   0.413  -3.790  0.00  0.00    -0.732 N 
ATOM      8  C   UNL d   1       0.256   1.176  -4.671  0.00  0.00     0.284 C 
ATOM      9  H3  UNL d   1       2.104   0.627  -3.886  0.00  0.00     0.395 HD
ENDBRANCH   1   7
TORSDOF 1
ENDMDL
