MODEL 1
REMARK minimizedAffinity -4.37724209
REMARK minimizedRMSD -1
REMARK  1 active torsions:
REMARK  status: ('A' for Active; 'I' for Inactive)
REMARK    1  A    between atoms: N_2  and  C1_3 
ROOT
ATOM      1  C1  UNL d   1       0.202  -0.256  -0.185  0.00  0.00     0.143 A 
ATOM      2  C2  UNL d   1      -1.053   0.358  -0.115  0.00  0.00    -0.057 A 
ATOM      3  C3  UNL d   1      -1.657   0.637   1.117  0.00  0.00     0.033 A 
ATOM      4  C4  UNL d   1      -1.027   0.279   2.305  0.00  0.00    -0.042 A 
ATOM      5  C5  UNL d   1       0.210  -0.355   2.259  0.00  0.00     0.033 A 
ATOM      6  C6  UNL d   1       0.811  -0.625   1.025  0.00  0.00    -0.057 A 
ENDROOT
BRANCH   1   7
ATOM      7  N   UNL d   1       0.810  -0.649  -1.380  0.00  0.00    -0.732 N 
ATOM      8  C   UNL d   1       1.019   0.304  -2.448  0.00  0.00     0.284 C 
ATOM      9  H3  UNL d   1       1.593  -1.281  -1.228  0.00  0.00     0.395 HD
ENDBRANCH   1   7
TORSDOF 1
ENDMDL
