MODEL 1
REMARK minimizedAffinity -3.71221828
REMARK minimizedRMSD -1
REMARK  1 active torsions:
REMARK  status: ('A' for Active; 'I' for Inactive)
REMARK    1  A    between atoms: N_2  and  C1_3 
ROOT
ATOM      1  C1  UNL d   1      -0.060  -0.103   1.115  0.00  0.00     0.143 A 
ATOM      2  C2  UNL d   1      -0.902   0.372   2.127  0.00  0.00    -0.057 A 
ATOM      3  C3  UNL d   1      -0.479   0.417   3.461  0.00  0.00     0.033 A 
ATOM      4  C4  UNL d   1       0.786  -0.042   3.812  0.00  0.00    -0.042 A 
ATOM      5  C5  UNL d   1       1.630  -0.542   2.827  0.00  0.00     0.033 A 
ATOM      6  C6  UNL d   1       1.205  -0.578   1.495  0.00  0.00    -0.057 A 
ENDROOT
BRANCH   1   7
ATOM      7  N   UNL d   1      -0.457  -0.265  -0.214  0.00  0.00    -0.732 N 
ATOM      8  C   UNL d   1       0.344  -1.044  -1.133  0.00  0.00     0.284 C 
ATOM      9  H3  UNL d   1      -1.459  -0.416  -0.305  0.00  0.00     0.395 HD
ENDBRANCH   1   7
TORSDOF 1
ENDMDL
