MODEL 1
REMARK minimizedAffinity 8.78256416
REMARK minimizedRMSD -1
REMARK  1 active torsions:
REMARK  status: ('A' for Active; 'I' for Inactive)
REMARK    1  A    between atoms: C1_2  and  C2_3 
ROOT
ATOM      1  C2  UNL d   1       0.241  -0.670   0.358  0.00  0.00    -0.073 A 
ATOM      2  C3  UNL d   1      -0.629  -0.090  -0.572  0.00  0.00    -0.002 A 
ATOM      3  C4  UNL d   1      -1.943   0.212  -0.215  0.00  0.00     0.004 A 
ATOM      4  C5  UNL d   1      -2.399  -0.056   1.076  0.00  0.00    -0.004 A 
ATOM      5  C6  UNL d   1      -1.541  -0.624   2.023  0.00  0.00    -0.075 A 
ATOM      6  C7  UNL d   1      -2.017  -0.920   3.415  0.00  0.00     0.076 C 
ATOM      7  C8  UNL d   1      -0.223  -0.927   1.656  0.00  0.00     0.001 A 
ENDROOT
BRANCH   1   8
ATOM      8  C1  UNL d   1       1.664  -0.992  -0.022  0.00  0.00     0.053 C 
ATOM      9  C   UNL d   1       2.105  -0.241  -1.268  0.00  0.00     0.018 C 
ENDBRANCH   1   8
TORSDOF 1
ENDMDL
