MODEL 1
REMARK minimizedAffinity 7.19392967
REMARK minimizedRMSD -1
REMARK  1 active torsions:
REMARK  status: ('A' for Active; 'I' for Inactive)
REMARK    1  A    between atoms: C1_2  and  C2_3 
ROOT
ATOM      1  C2  UNL d   1       0.936  -0.032  -0.107  0.00  0.00    -0.073 A 
ATOM      2  C3  UNL d   1       0.149   1.124  -0.150  0.00  0.00    -0.002 A 
ATOM      3  C4  UNL d   1      -0.897   1.299   0.758  0.00  0.00     0.004 A 
ATOM      4  C5  UNL d   1      -1.161   0.325   1.721  0.00  0.00    -0.004 A 
ATOM      5  C6  UNL d   1      -0.378  -0.831   1.788  0.00  0.00    -0.075 A 
ATOM      6  C7  UNL d   1      -0.650  -1.889   2.816  0.00  0.00     0.076 C 
ATOM      7  C8  UNL d   1       0.669  -1.001   0.871  0.00  0.00     0.001 A 
ENDROOT
BRANCH   1   8
ATOM      8  C1  UNL d   1       2.070  -0.223  -1.080  0.00  0.00     0.053 C 
ATOM      9  C   UNL d   1       3.057   0.933  -1.040  0.00  0.00     0.018 C 
ENDBRANCH   1   8
TORSDOF 1
ENDMDL
