MODEL 1
REMARK minimizedAffinity 7.86257029
REMARK minimizedRMSD -1
REMARK  0 active torsions:
REMARK  status: ('A' for Active; 'I' for Inactive)
ROOT
ATOM      1  C   UNL d   1       4.690   0.747   4.242  0.00  0.00     0.023 A 
ATOM      2  C1  UNL d   1       4.126   1.678   3.370  0.00  0.00     0.003 A 
ATOM      3  C2  UNL d   1       4.495   3.022   3.448  0.00  0.00     0.048 A 
ATOM      4  C3  UNL d   1       5.430   3.428   4.400  0.00  0.00     0.023 A 
ATOM      5  C4  UNL d   1       5.998   2.500   5.274  0.00  0.00     0.048 A 
ATOM      6  C5  UNL d   1       5.625   1.157   5.193  0.00  0.00     0.003 A 
ATOM      7  I   UNL d   1       5.981   5.429   4.518  0.00  0.00    -0.146 I 
ENDROOT
TORSDOF 0
ENDMDL
