MODEL 1
REMARK minimizedAffinity 5.15091181
REMARK minimizedRMSD -1
REMARK  0 active torsions:
REMARK  status: ('A' for Active; 'I' for Inactive)
ROOT
ATOM      1  C   UNL d   1       5.772   2.122   4.117  0.00  0.00     0.023 A 
ATOM      2  C1  UNL d   1       5.999   0.953   4.843  0.00  0.00     0.003 A 
ATOM      3  C2  UNL d   1       5.128  -0.131   4.713  0.00  0.00     0.048 A 
ATOM      4  C3  UNL d   1       4.034  -0.039   3.854  0.00  0.00     0.023 A 
ATOM      5  C4  UNL d   1       3.803   1.128   3.124  0.00  0.00     0.048 A 
ATOM      6  C5  UNL d   1       4.676   2.210   3.258  0.00  0.00     0.003 A 
ATOM      7  I   UNL d   1       2.737  -1.652   3.658  0.00  0.00    -0.146 I 
ENDROOT
TORSDOF 0
ENDMDL
