MODEL 1
REMARK minimizedAffinity -2.37796497
REMARK minimizedRMSD -1
REMARK  0 active torsions:
REMARK  status: ('A' for Active; 'I' for Inactive)
ROOT
ATOM      1  C   UNL d   1      -3.163   3.684   0.126  0.00  0.00     0.023 A 
ATOM      2  C1  UNL d   1      -2.202   3.172   0.999  0.00  0.00     0.003 A 
ATOM      3  C2  UNL d   1      -2.071   1.792   1.163  0.00  0.00     0.048 A 
ATOM      4  C3  UNL d   1      -2.903   0.928   0.451  0.00  0.00     0.023 A 
ATOM      5  C4  UNL d   1      -3.865   1.436  -0.424  0.00  0.00     0.048 A 
ATOM      6  C5  UNL d   1      -3.993   2.817  -0.584  0.00  0.00     0.003 A 
ATOM      7  I   UNL d   1      -2.709  -1.127   0.693  0.00  0.00    -0.146 I 
ENDROOT
TORSDOF 0
ENDMDL
