MODEL 1
REMARK minimizedAffinity -2.65218687
REMARK minimizedRMSD -1
REMARK  0 active torsions:
REMARK  status: ('A' for Active; 'I' for Inactive)
ROOT
ATOM      1  C   UNL d   1      -2.584   1.680   1.761  0.00  0.00     0.023 A 
ATOM      2  C1  UNL d   1      -2.205   1.568   0.423  0.00  0.00     0.003 A 
ATOM      3  C2  UNL d   1      -1.984   0.309  -0.139  0.00  0.00     0.048 A 
ATOM      4  C3  UNL d   1      -2.146  -0.835   0.642  0.00  0.00     0.023 A 
ATOM      5  C4  UNL d   1      -2.526  -0.728   1.981  0.00  0.00     0.048 A 
ATOM      6  C5  UNL d   1      -2.745   0.533   2.539  0.00  0.00     0.003 A 
ATOM      7  I   UNL d   1      -1.818  -2.710  -0.191  0.00  0.00    -0.146 I 
ENDROOT
TORSDOF 0
ENDMDL
