MODEL 1
REMARK minimizedAffinity 4.36614323
REMARK minimizedRMSD -1
REMARK  0 active torsions:
REMARK  status: ('A' for Active; 'I' for Inactive)
ROOT
ATOM      1  C   UNL d   1      -2.881   3.329  -0.399  0.00  0.00     0.023 A 
ATOM      2  C1  UNL d   1      -3.764   2.304  -0.737  0.00  0.00     0.003 A 
ATOM      3  C2  UNL d   1      -3.328   0.977  -0.738  0.00  0.00     0.048 A 
ATOM      4  C3  UNL d   1      -2.007   0.683  -0.399  0.00  0.00     0.023 A 
ATOM      5  C4  UNL d   1      -1.121   1.706  -0.059  0.00  0.00     0.048 A 
ATOM      6  C5  UNL d   1      -1.561   3.031  -0.060  0.00  0.00     0.003 A 
ATOM      7  I   UNL d   1      -1.356  -1.290  -0.400  0.00  0.00    -0.146 I 
ENDROOT
TORSDOF 0
ENDMDL
