MODEL 1
REMARK minimizedAffinity 1.04672551
REMARK minimizedRMSD -1
REMARK  0 active torsions:
REMARK  status: ('A' for Active; 'I' for Inactive)
ROOT
ATOM      1  C   UNL d   1       5.742   1.676   3.511  0.00  0.00     0.023 A 
ATOM      2  C1  UNL d   1       4.653   1.953   2.684  0.00  0.00     0.003 A 
ATOM      3  C2  UNL d   1       3.821   0.918   2.254  0.00  0.00     0.048 A 
ATOM      4  C3  UNL d   1       4.082  -0.392   2.656  0.00  0.00     0.023 A 
ATOM      5  C4  UNL d   1       5.170  -0.673   3.484  0.00  0.00     0.048 A 
ATOM      6  C5  UNL d   1       6.000   0.365   3.911  0.00  0.00     0.003 A 
ATOM      7  I   UNL d   1       2.844  -1.934   2.018  0.00  0.00    -0.146 I 
ENDROOT
TORSDOF 0
ENDMDL
