MODEL 1
REMARK minimizedAffinity -1.17529452
REMARK minimizedRMSD -1
REMARK  0 active torsions:
REMARK  status: ('A' for Active; 'I' for Inactive)
ROOT
ATOM      1  C   UNL d   1      -2.200  -1.041   2.909  0.00  0.00     0.023 A 
ATOM      2  C1  UNL d   1      -2.928   0.053   3.376  0.00  0.00     0.003 A 
ATOM      3  C2  UNL d   1      -3.194   1.130   2.528  0.00  0.00     0.048 A 
ATOM      4  C3  UNL d   1      -2.730   1.106   1.214  0.00  0.00     0.023 A 
ATOM      5  C4  UNL d   1      -2.001   0.013   0.741  0.00  0.00     0.048 A 
ATOM      6  C5  UNL d   1      -1.737  -1.061   1.593  0.00  0.00     0.003 A 
ATOM      7  I   UNL d   1      -3.124   2.708  -0.051  0.00  0.00    -0.146 I 
ENDROOT
TORSDOF 0
ENDMDL
