MODEL 1
REMARK minimizedAffinity -1.66869664
REMARK minimizedRMSD -1
REMARK  0 active torsions:
REMARK  status: ('A' for Active; 'I' for Inactive)
ROOT
ATOM      1  C   UNL d   1      -3.232   3.374  -0.499  0.00  0.00     0.023 A 
ATOM      2  C1  UNL d   1      -3.811   3.590   0.751  0.00  0.00     0.003 A 
ATOM      3  C2  UNL d   1      -3.690   2.626   1.754  0.00  0.00     0.048 A 
ATOM      4  C3  UNL d   1      -2.988   1.448   1.500  0.00  0.00     0.023 A 
ATOM      5  C4  UNL d   1      -2.406   1.228   0.250  0.00  0.00     0.048 A 
ATOM      6  C5  UNL d   1      -2.531   2.194  -0.750  0.00  0.00     0.003 A 
ATOM      7  I   UNL d   1      -2.807   0.011   2.991  0.00  0.00    -0.146 I 
ENDROOT
TORSDOF 0
ENDMDL
