MODEL 1
REMARK minimizedAffinity -0.651556849
REMARK minimizedRMSD -1
REMARK  0 active torsions:
REMARK  status: ('A' for Active; 'I' for Inactive)
ROOT
ATOM      1  C   UNL d   1      -3.753   3.280  -0.107  0.00  0.00     0.023 A 
ATOM      2  C1  UNL d   1      -3.932   1.933  -0.425  0.00  0.00     0.003 A 
ATOM      3  C2  UNL d   1      -3.558   0.943   0.486  0.00  0.00     0.048 A 
ATOM      4  C3  UNL d   1      -3.007   1.307   1.714  0.00  0.00     0.023 A 
ATOM      5  C4  UNL d   1      -2.827   2.653   2.037  0.00  0.00     0.048 A 
ATOM      6  C5  UNL d   1      -3.201   3.639   1.123  0.00  0.00     0.003 A 
ATOM      7  I   UNL d   1      -2.451  -0.165   3.072  0.00  0.00    -0.146 I 
ENDROOT
TORSDOF 0
ENDMDL
