MODEL 1
REMARK minimizedAffinity 12.9785233
REMARK minimizedRMSD -1
REMARK  0 active torsions:
REMARK  status: ('A' for Active; 'I' for Inactive)
ROOT
ATOM      1  C   UNL d   1      -5.277   0.013  -1.173  0.00  0.00     0.023 A 
ATOM      2  C1  UNL d   1      -6.000   0.225   0.001  0.00  0.00     0.003 A 
ATOM      3  C2  UNL d   1      -5.337   0.286   1.229  0.00  0.00     0.048 A 
ATOM      4  C3  UNL d   1      -3.952   0.134   1.276  0.00  0.00     0.023 A 
ATOM      5  C4  UNL d   1      -3.224  -0.077   0.104  0.00  0.00     0.048 A 
ATOM      6  C5  UNL d   1      -3.891  -0.138  -1.122  0.00  0.00     0.003 A 
ATOM      7  I   UNL d   1      -2.964   0.225   3.102  0.00  0.00    -0.146 I 
ENDROOT
TORSDOF 0
ENDMDL
