MODEL 1
REMARK minimizedAffinity 3.70668411
REMARK minimizedRMSD -1
REMARK  0 active torsions:
REMARK  status: ('A' for Active; 'I' for Inactive)
ROOT
ATOM      1  C   UNL d   1       6.000   1.424   4.444  0.00  0.00     0.023 A 
ATOM      2  C1  UNL d   1       5.767   2.754   4.091  0.00  0.00     0.003 A 
ATOM      3  C2  UNL d   1       4.895   3.057   3.043  0.00  0.00     0.048 A 
ATOM      4  C3  UNL d   1       4.259   2.025   2.352  0.00  0.00     0.023 A 
ATOM      5  C4  UNL d   1       4.489   0.694   2.703  0.00  0.00     0.048 A 
ATOM      6  C5  UNL d   1       5.362   0.396   3.751  0.00  0.00     0.003 A 
ATOM      7  I   UNL d   1       2.961   2.474   0.792  0.00  0.00    -0.146 I 
ENDROOT
TORSDOF 0
ENDMDL
