MODEL 1
REMARK minimizedAffinity 2.07589436
REMARK minimizedRMSD -1
REMARK  0 active torsions:
REMARK  status: ('A' for Active; 'I' for Inactive)
ROOT
ATOM      1  C   UNL d   1      -4.821   0.045  -0.957  0.00  0.00     0.023 A 
ATOM      2  C1  UNL d   1      -5.654   0.202   0.151  0.00  0.00     0.003 A 
ATOM      3  C2  UNL d   1      -5.159  -0.029   1.437  0.00  0.00     0.048 A 
ATOM      4  C3  UNL d   1      -3.830  -0.415   1.607  0.00  0.00     0.023 A 
ATOM      5  C4  UNL d   1      -2.993  -0.572   0.501  0.00  0.00     0.048 A 
ATOM      6  C5  UNL d   1      -3.492  -0.341  -0.782  0.00  0.00     0.003 A 
ATOM      7  I   UNL d   1      -3.092  -0.759   3.519  0.00  0.00    -0.146 I 
ENDROOT
TORSDOF 0
ENDMDL
