MODEL 1
REMARK minimizedAffinity -1.47013652
REMARK minimizedRMSD -1
REMARK  0 active torsions:
REMARK  status: ('A' for Active; 'I' for Inactive)
ROOT
ATOM      1  C   UNL d   1       5.106   1.068   3.378  0.00  0.00     0.023 A 
ATOM      2  C1  UNL d   1       5.270  -0.317   3.398  0.00  0.00     0.003 A 
ATOM      3  C2  UNL d   1       4.393  -1.136   2.684  0.00  0.00     0.048 A 
ATOM      4  C3  UNL d   1       3.354  -0.563   1.951  0.00  0.00     0.023 A 
ATOM      5  C4  UNL d   1       3.187   0.822   1.926  0.00  0.00     0.048 A 
ATOM      6  C5  UNL d   1       4.065   1.637   2.643  0.00  0.00     0.003 A 
ATOM      7  I   UNL d   1       2.048  -1.780   0.887  0.00  0.00    -0.146 I 
ENDROOT
TORSDOF 0
ENDMDL
