MODEL 1
REMARK minimizedAffinity 3.72483325
REMARK minimizedRMSD -1
REMARK  0 active torsions:
REMARK  status: ('A' for Active; 'I' for Inactive)
ROOT
ATOM      1  C   UNL d   1       5.089   0.488   2.993  0.00  0.00     0.023 A 
ATOM      2  C1  UNL d   1       5.835   0.828   4.122  0.00  0.00     0.003 A 
ATOM      3  C2  UNL d   1       6.000   2.169   4.473  0.00  0.00     0.048 A 
ATOM      4  C3  UNL d   1       5.416   3.166   3.692  0.00  0.00     0.023 A 
ATOM      5  C4  UNL d   1       4.668   2.831   2.562  0.00  0.00     0.048 A 
ATOM      6  C5  UNL d   1       4.507   1.489   2.214  0.00  0.00     0.003 A 
ATOM      7  I   UNL d   1       5.660   5.163   4.214  0.00  0.00    -0.146 I 
ENDROOT
TORSDOF 0
ENDMDL
