MODEL 1
REMARK minimizedAffinity 3.45908237
REMARK minimizedRMSD -1
REMARK  0 active torsions:
REMARK  status: ('A' for Active; 'I' for Inactive)
ROOT
ATOM      1  C   UNL d   1       5.999  -0.028   4.798  0.00  0.00     0.023 A 
ATOM      2  C1  UNL d   1       5.687   1.209   5.364  0.00  0.00     0.003 A 
ATOM      3  C2  UNL d   1       5.035   2.181   4.603  0.00  0.00     0.048 A 
ATOM      4  C3  UNL d   1       4.697   1.910   3.277  0.00  0.00     0.023 A 
ATOM      5  C4  UNL d   1       5.007   0.674   2.707  0.00  0.00     0.048 A 
ATOM      6  C5  UNL d   1       5.660  -0.295   3.472  0.00  0.00     0.003 A 
ATOM      7  I   UNL d   1       3.726   3.355   2.143  0.00  0.00    -0.146 I 
ENDROOT
TORSDOF 0
ENDMDL
