MODEL 1
REMARK minimizedAffinity 2.01975417
REMARK minimizedRMSD -1
REMARK  0 active torsions:
REMARK  status: ('A' for Active; 'I' for Inactive)
ROOT
ATOM      1  C   UNL d   1       5.755   1.485   3.747  0.00  0.00     0.023 A 
ATOM      2  C1  UNL d   1       5.999   0.413   4.605  0.00  0.00     0.003 A 
ATOM      3  C2  UNL d   1       5.093  -0.649   4.673  0.00  0.00     0.048 A 
ATOM      4  C3  UNL d   1       3.947  -0.631   3.879  0.00  0.00     0.023 A 
ATOM      5  C4  UNL d   1       3.699   0.439   3.018  0.00  0.00     0.048 A 
ATOM      6  C5  UNL d   1       4.607   1.499   2.954  0.00  0.00     0.003 A 
ATOM      7  I   UNL d   1       2.598  -2.209   3.978  0.00  0.00    -0.146 I 
ENDROOT
TORSDOF 0
ENDMDL
