MODEL 1
REMARK minimizedAffinity 15.950161
REMARK minimizedRMSD -1
REMARK  0 active torsions:
REMARK  status: ('A' for Active; 'I' for Inactive)
ROOT
ATOM      1  C   UNL d   1      -5.391   0.639  -1.239  0.00  0.00     0.023 A 
ATOM      2  C1  UNL d   1      -6.000   1.032  -0.048  0.00  0.00     0.003 A 
ATOM      3  C2  UNL d   1      -5.273   1.027   1.145  0.00  0.00     0.048 A 
ATOM      4  C3  UNL d   1      -3.938   0.627   1.139  0.00  0.00     0.023 A 
ATOM      5  C4  UNL d   1      -3.323   0.233  -0.051  0.00  0.00     0.048 A 
ATOM      6  C5  UNL d   1      -4.054   0.239  -1.241  0.00  0.00     0.003 A 
ATOM      7  I   UNL d   1      -2.854   0.618   2.912  0.00  0.00    -0.146 I 
ENDROOT
TORSDOF 0
ENDMDL
