MODEL 1
REMARK minimizedAffinity -3.89913869
REMARK minimizedRMSD -1
REMARK  1 active torsions:
REMARK  status: ('A' for Active; 'I' for Inactive)
REMARK    1  A    between atoms: C1_2  and  C2_3 
ROOT
ATOM      1  C2  UNL d   1      -0.355   0.523  -0.113  0.00  0.00    -0.073 A 
ATOM      2  C3  UNL d   1       0.752  -0.055  -0.745  0.00  0.00    -0.002 A 
ATOM      3  C4  UNL d   1       1.454  -1.091  -0.129  0.00  0.00     0.004 A 
ATOM      4  C5  UNL d   1       1.053  -1.565   1.120  0.00  0.00    -0.004 A 
ATOM      5  C6  UNL d   1      -0.058  -1.008   1.762  0.00  0.00    -0.075 A 
ATOM      6  C7  UNL d   1      -0.501  -1.505   3.107  0.00  0.00     0.076 C 
ATOM      7  C8  UNL d   1      -0.756   0.034   1.138  0.00  0.00     0.001 A 
ENDROOT
BRANCH   1   8
ATOM      8  C1  UNL d   1      -1.120   1.638  -0.778  0.00  0.00     0.053 C 
ATOM      9  C   UNL d   1      -2.013   1.129  -1.898  0.00  0.00     0.018 C 
ENDBRANCH   1   8
TORSDOF 1
ENDMDL
