MODEL 1
REMARK minimizedAffinity -3.39680409
REMARK minimizedRMSD -1
REMARK  1 active torsions:
REMARK  status: ('A' for Active; 'I' for Inactive)
REMARK    1  A    between atoms: C1_2  and  C2_3 
ROOT
ATOM      1  C2  UNL d   1       0.177   0.208   0.231  0.00  0.00    -0.073 A 
ATOM      2  C3  UNL d   1       0.169  -0.772   1.230  0.00  0.00    -0.002 A 
ATOM      3  C4  UNL d   1       1.278  -1.599   1.416  0.00  0.00     0.004 A 
ATOM      4  C5  UNL d   1       2.407  -1.449   0.612  0.00  0.00    -0.004 A 
ATOM      5  C6  UNL d   1       2.439  -0.468  -0.384  0.00  0.00    -0.075 A 
ATOM      6  C7  UNL d   1       3.646  -0.296  -1.260  0.00  0.00     0.076 C 
ATOM      7  C8  UNL d   1       1.321   0.356  -0.567  0.00  0.00     0.001 A 
ENDROOT
BRANCH   1   8
ATOM      8  C1  UNL d   1      -1.015   1.107   0.031  0.00  0.00     0.053 C 
ATOM      9  C   UNL d   1      -1.433   1.183  -1.429  0.00  0.00     0.018 C 
ENDBRANCH   1   8
TORSDOF 1
ENDMDL
