MODEL 1
REMARK minimizedAffinity -4.32094717
REMARK minimizedRMSD -1
REMARK  1 active torsions:
REMARK  status: ('A' for Active; 'I' for Inactive)
REMARK    1  A    between atoms: C1_2  and  C2_3 
ROOT
ATOM      1  C2  UNL d   1       0.596   0.503  -0.354  0.00  0.00    -0.073 A 
ATOM      2  C3  UNL d   1       1.824   0.492  -1.025  0.00  0.00    -0.002 A 
ATOM      3  C4  UNL d   1       2.779  -0.483  -0.732  0.00  0.00     0.004 A 
ATOM      4  C5  UNL d   1       2.513  -1.459   0.228  0.00  0.00    -0.004 A 
ATOM      5  C6  UNL d   1       1.287  -1.472   0.901  0.00  0.00    -0.075 A 
ATOM      6  C7  UNL d   1       0.987  -2.514   1.938  0.00  0.00     0.076 C 
ATOM      7  C8  UNL d   1       0.335  -0.488   0.603  0.00  0.00     0.001 A 
ENDROOT
BRANCH   1   8
ATOM      8  C1  UNL d   1      -0.440   1.550  -0.672  0.00  0.00     0.053 C 
ATOM      9  C   UNL d   1      -1.403   1.089  -1.754  0.00  0.00     0.018 C 
ENDBRANCH   1   8
TORSDOF 1
ENDMDL
