MODEL 1
REMARK minimizedAffinity -5.04541731
REMARK minimizedRMSD -1
REMARK  1 active torsions:
REMARK  status: ('A' for Active; 'I' for Inactive)
REMARK    1  A    between atoms: C1_2  and  C2_3 
ROOT
ATOM      1  C2  UNL d   1       2.054  -0.368   0.571  0.00  0.00    -0.073 A 
ATOM      2  C3  UNL d   1       1.344  -1.286   1.354  0.00  0.00    -0.002 A 
ATOM      3  C4  UNL d   1      -0.042  -1.185   1.475  0.00  0.00     0.004 A 
ATOM      4  C5  UNL d   1      -0.733  -0.172   0.810  0.00  0.00    -0.004 A 
ATOM      5  C6  UNL d   1      -0.043   0.747   0.014  0.00  0.00    -0.075 A 
ATOM      6  C7  UNL d   1      -0.772   1.844  -0.706  0.00  0.00     0.076 C 
ATOM      7  C8  UNL d   1       1.349   0.641  -0.101  0.00  0.00     0.001 A 
ENDROOT
BRANCH   1   8
ATOM      8  C1  UNL d   1       3.550  -0.477   0.432  0.00  0.00     0.053 C 
ATOM      9  C   UNL d   1       4.052   0.173  -0.848  0.00  0.00     0.018 C 
ENDBRANCH   1   8
TORSDOF 1
ENDMDL
