MODEL 1
REMARK minimizedAffinity -4.92461729
REMARK minimizedRMSD -1
REMARK  1 active torsions:
REMARK  status: ('A' for Active; 'I' for Inactive)
REMARK    1  A    between atoms: C1_2  and  C2_3 
ROOT
ATOM      1  C2  UNL d   1      -0.560   1.184  -1.217  0.00  0.00    -0.073 A 
ATOM      2  C3  UNL d   1      -0.717   2.275  -2.079  0.00  0.00    -0.002 A 
ATOM      3  C4  UNL d   1      -1.560   2.183  -3.187  0.00  0.00     0.004 A 
ATOM      4  C5  UNL d   1      -2.261   1.004  -3.440  0.00  0.00    -0.004 A 
ATOM      5  C6  UNL d   1      -2.127  -0.094  -2.583  0.00  0.00    -0.075 A 
ATOM      6  C7  UNL d   1      -2.872  -1.370  -2.843  0.00  0.00     0.076 C 
ATOM      7  C8  UNL d   1      -1.276   0.005  -1.474  0.00  0.00     0.001 A 
ENDROOT
BRANCH   1   8
ATOM      8  C1  UNL d   1       0.344   1.280  -0.016  0.00  0.00     0.053 C 
ATOM      9  C   UNL d   1       1.330   0.124   0.050  0.00  0.00     0.018 C 
ENDBRANCH   1   8
TORSDOF 1
ENDMDL
