MODEL 1
REMARK minimizedAffinity -0.060435757
REMARK minimizedRMSD -1
REMARK  1 active torsions:
REMARK  status: ('A' for Active; 'I' for Inactive)
REMARK    1  A    between atoms: C1_2  and  C2_3 
ROOT
ATOM      1  C2  UNL d   1       1.202  -1.547   1.017  0.00  0.00    -0.073 A 
ATOM      2  C3  UNL d   1       1.281  -0.716  -0.107  0.00  0.00    -0.002 A 
ATOM      3  C4  UNL d   1       2.489  -0.107  -0.450  0.00  0.00     0.004 A 
ATOM      4  C5  UNL d   1       3.630  -0.328   0.321  0.00  0.00    -0.004 A 
ATOM      5  C6  UNL d   1       3.574  -1.164   1.441  0.00  0.00    -0.075 A 
ATOM      6  C7  UNL d   1       4.792  -1.409   2.282  0.00  0.00     0.076 C 
ATOM      7  C8  UNL d   1       2.357  -1.769   1.781  0.00  0.00     0.001 A 
ENDROOT
BRANCH   1   8
ATOM      8  C1  UNL d   1      -0.099  -2.212   1.388  0.00  0.00     0.053 C 
ATOM      9  C   UNL d   1      -1.239  -1.212   1.498  0.00  0.00     0.018 C 
ENDBRANCH   1   8
TORSDOF 1
ENDMDL
