MODEL 1
REMARK minimizedAffinity -3.72246957
REMARK minimizedRMSD -1
REMARK  1 active torsions:
REMARK  status: ('A' for Active; 'I' for Inactive)
REMARK    1  A    between atoms: C1_2  and  C2_3 
ROOT
ATOM      1  C2  UNL d   1      -0.582   0.925  -0.406  0.00  0.00    -0.073 A 
ATOM      2  C3  UNL d   1       0.616   1.520  -0.817  0.00  0.00    -0.002 A 
ATOM      3  C4  UNL d   1       1.832   0.863  -0.624  0.00  0.00     0.004 A 
ATOM      4  C5  UNL d   1       1.862  -0.396  -0.026  0.00  0.00    -0.004 A 
ATOM      5  C6  UNL d   1       0.674  -1.013   0.381  0.00  0.00    -0.075 A 
ATOM      6  C7  UNL d   1       0.690  -2.367   1.027  0.00  0.00     0.076 C 
ATOM      7  C8  UNL d   1      -0.543  -0.345   0.186  0.00  0.00     0.001 A 
ENDROOT
BRANCH   1   8
ATOM      8  C1  UNL d   1      -1.898   1.628  -0.618  0.00  0.00     0.053 C 
ATOM      9  C   UNL d   1      -2.374   1.524  -2.059  0.00  0.00     0.018 C 
ENDBRANCH   1   8
TORSDOF 1
ENDMDL
