MODEL 1
REMARK minimizedAffinity -3.03639197
REMARK minimizedRMSD -1
REMARK  0 active torsions:
REMARK  status: ('A' for Active; 'I' for Inactive)
ROOT
ATOM      1  C   UNL d   1      -0.834  -2.799   0.959  0.00  0.00     0.023 A 
ATOM      2  C1  UNL d   1      -1.766  -1.807   0.654  0.00  0.00     0.003 A 
ATOM      3  C2  UNL d   1      -1.347  -0.615   0.058  0.00  0.00     0.048 A 
ATOM      4  C3  UNL d   1       0.003  -0.423  -0.230  0.00  0.00     0.023 A 
ATOM      5  C4  UNL d   1       0.938  -1.413   0.073  0.00  0.00     0.048 A 
ATOM      6  C5  UNL d   1       0.516  -2.603   0.669  0.00  0.00     0.003 A 
ATOM      7  I   UNL d   1       0.628   1.350  -1.116  0.00  0.00    -0.146 I 
ENDROOT
TORSDOF 0
ENDMDL
