MODEL 1
REMARK minimizedAffinity -2.92710638
REMARK minimizedRMSD -1
REMARK  0 active torsions:
REMARK  status: ('A' for Active; 'I' for Inactive)
ROOT
ATOM      1  C   UNL d   1      -5.999  -2.798  -4.891  0.00  0.00     0.023 A 
ATOM      2  C1  UNL d   1      -4.978  -2.286  -5.691  0.00  0.00     0.003 A 
ATOM      3  C2  UNL d   1      -3.869  -3.076  -6.000  0.00  0.00     0.048 A 
ATOM      4  C3  UNL d   1      -3.787  -4.377  -5.505  0.00  0.00     0.023 A 
ATOM      5  C4  UNL d   1      -4.807  -4.894  -4.705  0.00  0.00     0.048 A 
ATOM      6  C5  UNL d   1      -5.914  -4.100  -4.398  0.00  0.00     0.003 A 
ATOM      7  I   UNL d   1      -2.137  -5.555  -5.964  0.00  0.00    -0.146 I 
ENDROOT
TORSDOF 0
ENDMDL
