MODEL 1
REMARK minimizedAffinity -3.34476185
REMARK minimizedRMSD -1
REMARK  0 active torsions:
REMARK  status: ('A' for Active; 'I' for Inactive)
ROOT
ATOM      1  C   UNL d   1      -5.990  -2.998  -4.369  0.00  0.00     0.023 A 
ATOM      2  C1  UNL d   1      -4.961  -2.346  -5.047  0.00  0.00     0.003 A 
ATOM      3  C2  UNL d   1      -3.862  -3.071  -5.515  0.00  0.00     0.048 A 
ATOM      4  C3  UNL d   1      -3.801  -4.448  -5.302  0.00  0.00     0.023 A 
ATOM      5  C4  UNL d   1      -4.829  -5.105  -4.624  0.00  0.00     0.048 A 
ATOM      6  C5  UNL d   1      -5.925  -4.376  -4.158  0.00  0.00     0.003 A 
ATOM      7  I   UNL d   1      -2.168  -5.528  -5.998  0.00  0.00    -0.146 I 
ENDROOT
TORSDOF 0
ENDMDL
