MODEL 1
REMARK minimizedAffinity -3.13191199
REMARK minimizedRMSD -1
REMARK  0 active torsions:
REMARK  status: ('A' for Active; 'I' for Inactive)
ROOT
ATOM      1  C   UNL d   1      -2.795  -5.820  -5.289  0.00  0.00     0.023 A 
ATOM      2  C1  UNL d   1      -3.987  -5.922  -4.571  0.00  0.00     0.003 A 
ATOM      3  C2  UNL d   1      -4.883  -4.852  -4.548  0.00  0.00     0.048 A 
ATOM      4  C3  UNL d   1      -4.583  -3.683  -5.247  0.00  0.00     0.023 A 
ATOM      5  C4  UNL d   1      -3.393  -3.577  -5.968  0.00  0.00     0.048 A 
ATOM      6  C5  UNL d   1      -2.498  -4.649  -5.987  0.00  0.00     0.003 A 
ATOM      7  I   UNL d   1      -5.917  -2.089  -5.215  0.00  0.00    -0.146 I 
ENDROOT
TORSDOF 0
ENDMDL
