MODEL 1
REMARK minimizedAffinity -2.60895681
REMARK minimizedRMSD -1
REMARK  0 active torsions:
REMARK  status: ('A' for Active; 'I' for Inactive)
ROOT
ATOM      1  C   UNL d   1      -4.726  -5.161  -5.342  0.00  0.00     0.023 A 
ATOM      2  C1  UNL d   1      -4.188  -4.891  -4.083  0.00  0.00     0.003 A 
ATOM      3  C2  UNL d   1      -4.552  -3.729  -3.401  0.00  0.00     0.048 A 
ATOM      4  C3  UNL d   1      -5.456  -2.840  -3.983  0.00  0.00     0.023 A 
ATOM      5  C4  UNL d   1      -5.998  -3.106  -5.241  0.00  0.00     0.048 A 
ATOM      6  C5  UNL d   1      -5.630  -4.270  -5.920  0.00  0.00     0.003 A 
ATOM      7  I   UNL d   1      -6.000  -1.109  -2.969  0.00  0.00    -0.146 I 
ENDROOT
TORSDOF 0
ENDMDL
