MODEL 1
REMARK minimizedAffinity -3.67610908
REMARK minimizedRMSD -1
REMARK  0 active torsions:
REMARK  status: ('A' for Active; 'I' for Inactive)
ROOT
ATOM      1  C   UNL d   1      -5.848  -1.958  -4.284  0.00  0.00     0.023 A 
ATOM      2  C1  UNL d   1      -4.856  -1.643  -5.212  0.00  0.00     0.003 A 
ATOM      3  C2  UNL d   1      -3.896  -2.595  -5.561  0.00  0.00     0.048 A 
ATOM      4  C3  UNL d   1      -3.935  -3.862  -4.978  0.00  0.00     0.023 A 
ATOM      5  C4  UNL d   1      -4.926  -4.182  -4.049  0.00  0.00     0.048 A 
ATOM      6  C5  UNL d   1      -5.883  -3.226  -3.703  0.00  0.00     0.003 A 
ATOM      7  I   UNL d   1      -2.507  -5.281  -5.496  0.00  0.00    -0.146 I 
ENDROOT
TORSDOF 0
ENDMDL
