MODEL 1
REMARK minimizedAffinity -2.89506555
REMARK minimizedRMSD -1
REMARK  0 active torsions:
REMARK  status: ('A' for Active; 'I' for Inactive)
ROOT
ATOM      1  C   UNL d   1      -2.518  -5.626  -5.055  0.00  0.00     0.023 A 
ATOM      2  C1  UNL d   1      -3.751  -5.791  -4.425  0.00  0.00     0.003 A 
ATOM      3  C2  UNL d   1      -4.750  -4.827  -4.579  0.00  0.00     0.048 A 
ATOM      4  C3  UNL d   1      -4.509  -3.702  -5.366  0.00  0.00     0.023 A 
ATOM      5  C4  UNL d   1      -3.277  -3.533  -6.000  0.00  0.00     0.048 A 
ATOM      6  C5  UNL d   1      -2.281  -4.499  -5.842  0.00  0.00     0.003 A 
ATOM      7  I   UNL d   1      -5.994  -2.266  -5.598  0.00  0.00    -0.146 I 
ENDROOT
TORSDOF 0
ENDMDL
