MODEL 1
REMARK minimizedAffinity -2.44773579
REMARK minimizedRMSD -1
REMARK  0 active torsions:
REMARK  status: ('A' for Active; 'I' for Inactive)
ROOT
ATOM      1  C   UNL d   1      -5.810  -2.598  -3.744  0.00  0.00     0.023 A 
ATOM      2  C1  UNL d   1      -5.990  -3.944  -3.428  0.00  0.00     0.003 A 
ATOM      3  C2  UNL d   1      -5.232  -4.922  -4.075  0.00  0.00     0.048 A 
ATOM      4  C3  UNL d   1      -4.294  -4.546  -5.036  0.00  0.00     0.023 A 
ATOM      5  C4  UNL d   1      -4.109  -3.200  -5.354  0.00  0.00     0.048 A 
ATOM      6  C5  UNL d   1      -4.870  -2.226  -4.706  0.00  0.00     0.003 A 
ATOM      7  I   UNL d   1      -3.164  -6.000  -6.000  0.00  0.00    -0.146 I 
ENDROOT
TORSDOF 0
ENDMDL
