MODEL 1
REMARK minimizedAffinity -2.89978528
REMARK minimizedRMSD -1
REMARK  0 active torsions:
REMARK  status: ('A' for Active; 'I' for Inactive)
ROOT
ATOM      1  C   UNL d   1      -2.472  -5.971  -4.894  0.00  0.00     0.023 A 
ATOM      2  C1  UNL d   1      -2.407  -4.994  -5.887  0.00  0.00     0.003 A 
ATOM      3  C2  UNL d   1      -3.419  -4.038  -5.994  0.00  0.00     0.048 A 
ATOM      4  C3  UNL d   1      -4.492  -4.064  -5.105  0.00  0.00     0.023 A 
ATOM      5  C4  UNL d   1      -4.561  -5.040  -4.108  0.00  0.00     0.048 A 
ATOM      6  C5  UNL d   1      -3.547  -5.994  -4.006  0.00  0.00     0.003 A 
ATOM      7  I   UNL d   1      -6.000  -2.642  -5.262  0.00  0.00    -0.146 I 
ENDROOT
TORSDOF 0
ENDMDL
