MODEL 1
REMARK minimizedAffinity -2.00671196
REMARK minimizedRMSD -1
REMARK  0 active torsions:
REMARK  status: ('A' for Active; 'I' for Inactive)
ROOT
ATOM      1  C   UNL d   1      -5.976  -2.672  -3.982  0.00  0.00     0.023 A 
ATOM      2  C1  UNL d   1      -5.045  -2.106  -4.852  0.00  0.00     0.003 A 
ATOM      3  C2  UNL d   1      -3.890  -2.811  -5.196  0.00  0.00     0.048 A 
ATOM      4  C3  UNL d   1      -3.673  -4.083  -4.666  0.00  0.00     0.023 A 
ATOM      5  C4  UNL d   1      -4.603  -4.653  -3.795  0.00  0.00     0.048 A 
ATOM      6  C5  UNL d   1      -5.755  -3.944  -3.453  0.00  0.00     0.003 A 
ATOM      7  I   UNL d   1      -1.955  -5.135  -5.176  0.00  0.00    -0.146 I 
ENDROOT
TORSDOF 0
ENDMDL
