MODEL 1
REMARK minimizedAffinity -0.868352234
REMARK minimizedRMSD -1
REMARK  0 active torsions:
REMARK  status: ('A' for Active; 'I' for Inactive)
ROOT
ATOM      1  C   UNL d   1      -3.583  -5.960  -5.632  0.00  0.00     0.023 A 
ATOM      2  C1  UNL d   1      -4.922  -5.809  -5.993  0.00  0.00     0.003 A 
ATOM      3  C2  UNL d   1      -5.616  -4.650  -5.638  0.00  0.00     0.048 A 
ATOM      4  C3  UNL d   1      -4.964  -3.646  -4.923  0.00  0.00     0.023 A 
ATOM      5  C4  UNL d   1      -3.624  -3.793  -4.560  0.00  0.00     0.048 A 
ATOM      6  C5  UNL d   1      -2.935  -4.953  -4.917  0.00  0.00     0.003 A 
ATOM      7  I   UNL d   1      -5.995  -1.920  -4.394  0.00  0.00    -0.146 I 
ENDROOT
TORSDOF 0
ENDMDL
