MODEL 1
REMARK minimizedAffinity -3.74645686
REMARK minimizedRMSD -1
REMARK  0 active torsions:
REMARK  status: ('A' for Active; 'I' for Inactive)
ROOT
ATOM      1  C   UNL d   1      -1.177  -5.573  -4.837  0.00  0.00     0.023 A 
ATOM      2  C1  UNL d   1      -1.838  -5.521  -3.609  0.00  0.00     0.003 A 
ATOM      3  C2  UNL d   1      -3.154  -5.059  -3.542  0.00  0.00     0.048 A 
ATOM      4  C3  UNL d   1      -3.804  -4.651  -4.707  0.00  0.00     0.023 A 
ATOM      5  C4  UNL d   1      -3.147  -4.702  -5.938  0.00  0.00     0.048 A 
ATOM      6  C5  UNL d   1      -1.831  -5.164  -5.999  0.00  0.00     0.003 A 
ATOM      7  I   UNL d   1      -5.763  -3.963  -4.610  0.00  0.00    -0.146 I 
ENDROOT
TORSDOF 0
ENDMDL
