MODEL 1
REMARK minimizedAffinity -3.80726552
REMARK minimizedRMSD -1
REMARK  0 active torsions:
REMARK  status: ('A' for Active; 'I' for Inactive)
ROOT
ATOM      1  C   UNL d   1      -1.792  -5.262  -4.940  0.00  0.00     0.023 A 
ATOM      2  C1  UNL d   1      -2.076  -4.344  -5.952  0.00  0.00     0.003 A 
ATOM      3  C2  UNL d   1      -3.160  -3.474  -5.823  0.00  0.00     0.048 A 
ATOM      4  C3  UNL d   1      -3.957  -3.526  -4.680  0.00  0.00     0.023 A 
ATOM      5  C4  UNL d   1      -3.676  -4.442  -3.664  0.00  0.00     0.048 A 
ATOM      6  C5  UNL d   1      -2.591  -5.310  -3.797  0.00  0.00     0.003 A 
ATOM      7  I   UNL d   1      -5.571  -2.232  -4.486  0.00  0.00    -0.146 I 
ENDROOT
TORSDOF 0
ENDMDL
