MODEL 1
REMARK minimizedAffinity -3.1276195
REMARK minimizedRMSD -1
REMARK  0 active torsions:
REMARK  status: ('A' for Active; 'I' for Inactive)
ROOT
ATOM      1  C   UNL d   1      -3.647  -5.961  -5.631  0.00  0.00     0.023 A 
ATOM      2  C1  UNL d   1      -4.968  -5.702  -5.996  0.00  0.00     0.003 A 
ATOM      3  C2  UNL d   1      -5.644  -4.611  -5.447  0.00  0.00     0.048 A 
ATOM      4  C3  UNL d   1      -4.994  -3.783  -4.533  0.00  0.00     0.023 A 
ATOM      5  C4  UNL d   1      -3.671  -4.037  -4.166  0.00  0.00     0.048 A 
ATOM      6  C5  UNL d   1      -2.999  -5.130  -4.717  0.00  0.00     0.003 A 
ATOM      7  I   UNL d   1      -5.999  -2.158  -3.715  0.00  0.00    -0.146 I 
ENDROOT
TORSDOF 0
ENDMDL
