MODEL 1
REMARK minimizedAffinity -3.63718081
REMARK minimizedRMSD -1
REMARK  0 active torsions:
REMARK  status: ('A' for Active; 'I' for Inactive)
ROOT
ATOM      1  C   UNL d   1      -1.127  -5.249  -4.758  0.00  0.00     0.023 A 
ATOM      2  C1  UNL d   1      -1.866  -5.412  -3.586  0.00  0.00     0.003 A 
ATOM      3  C2  UNL d   1      -3.258  -5.311  -3.617  0.00  0.00     0.048 A 
ATOM      4  C3  UNL d   1      -3.905  -5.048  -4.823  0.00  0.00     0.023 A 
ATOM      5  C4  UNL d   1      -3.171  -4.885  -5.999  0.00  0.00     0.048 A 
ATOM      6  C5  UNL d   1      -1.779  -4.986  -5.963  0.00  0.00     0.003 A 
ATOM      7  I   UNL d   1      -5.978  -4.897  -4.872  0.00  0.00    -0.146 I 
ENDROOT
TORSDOF 0
ENDMDL
