MODEL 1
REMARK minimizedAffinity -4.09707165
REMARK minimizedRMSD -1
REMARK  0 active torsions:
REMARK  status: ('A' for Active; 'I' for Inactive)
ROOT
ATOM      1  C   UNL d   1      -5.778  -2.783  -3.791  0.00  0.00     0.023 A 
ATOM      2  C1  UNL d   1      -5.999  -4.148  -3.978  0.00  0.00     0.003 A 
ATOM      3  C2  UNL d   1      -4.987  -4.955  -4.503  0.00  0.00     0.048 A 
ATOM      4  C3  UNL d   1      -3.757  -4.390  -4.838  0.00  0.00     0.023 A 
ATOM      5  C4  UNL d   1      -3.531  -3.026  -4.652  0.00  0.00     0.048 A 
ATOM      6  C5  UNL d   1      -4.546  -2.223  -4.127  0.00  0.00     0.003 A 
ATOM      7  I   UNL d   1      -2.249  -5.589  -5.619  0.00  0.00    -0.146 I 
ENDROOT
TORSDOF 0
ENDMDL
