MODEL 1
REMARK minimizedAffinity -0.952441752
REMARK minimizedRMSD -1
REMARK  0 active torsions:
REMARK  status: ('A' for Active; 'I' for Inactive)
ROOT
ATOM      1  C   UNL d   1      -3.761   2.620  -2.456  0.00  0.00     0.078 C 
ATOM      2  C1  UNL d   1      -4.548   2.272  -3.684  0.00  0.00    -0.077 A 
ATOM      3  C2  UNL d   1      -5.255   1.067  -3.770  0.00  0.00    -0.001 A 
ATOM      4  C3  UNL d   1      -5.976   0.751  -4.923  0.00  0.00     0.003 A 
ATOM      5  C4  UNL d   1      -5.995   1.636  -6.000  0.00  0.00    -0.005 A 
ATOM      6  C5  UNL d   1      -5.292   2.836  -5.925  0.00  0.00     0.003 A 
ATOM      7  C6  UNL d   1      -4.571   3.153  -4.772  0.00  0.00    -0.001 A 
ENDROOT
TORSDOF 0
ENDMDL
