MODEL 1
REMARK minimizedAffinity 2.88815928
REMARK minimizedRMSD -1
REMARK  0 active torsions:
REMARK  status: ('A' for Active; 'I' for Inactive)
ROOT
ATOM      1  C   UNL d   1      -5.998   4.229  -5.999  0.00  0.00     0.078 C 
ATOM      2  C1  UNL d   1      -5.612   2.909  -5.401  0.00  0.00    -0.077 A 
ATOM      3  C2  UNL d   1      -5.999   1.704  -6.000  0.00  0.00    -0.001 A 
ATOM      4  C3  UNL d   1      -5.641   0.483  -5.427  0.00  0.00     0.003 A 
ATOM      5  C4  UNL d   1      -4.894   0.455  -4.251  0.00  0.00    -0.005 A 
ATOM      6  C5  UNL d   1      -4.505   1.648  -3.646  0.00  0.00     0.003 A 
ATOM      7  C6  UNL d   1      -4.863   2.871  -4.218  0.00  0.00    -0.001 A 
ENDROOT
TORSDOF 0
ENDMDL
