MODEL 1
REMARK minimizedAffinity 4.54702902
REMARK minimizedRMSD -1
REMARK  0 active torsions:
REMARK  status: ('A' for Active; 'I' for Inactive)
ROOT
ATOM      1  C   UNL d   1      -5.646   4.491  -5.972  0.00  0.00     0.078 C 
ATOM      2  C1  UNL d   1      -5.413   3.126  -5.397  0.00  0.00    -0.077 A 
ATOM      3  C2  UNL d   1      -4.603   2.947  -4.269  0.00  0.00    -0.001 A 
ATOM      4  C3  UNL d   1      -4.387   1.669  -3.751  0.00  0.00     0.003 A 
ATOM      5  C4  UNL d   1      -4.977   0.560  -4.355  0.00  0.00    -0.005 A 
ATOM      6  C5  UNL d   1      -5.783   0.728  -5.479  0.00  0.00     0.003 A 
ATOM      7  C6  UNL d   1      -5.999   2.006  -5.999  0.00  0.00    -0.001 A 
ENDROOT
TORSDOF 0
ENDMDL
