MODEL 1
REMARK minimizedAffinity -0.460165918
REMARK minimizedRMSD -1
REMARK  0 active torsions:
REMARK  status: ('A' for Active; 'I' for Inactive)
ROOT
ATOM      1  C   UNL d   1      -5.879   3.113  -5.324  0.00  0.00     0.078 C 
ATOM      2  C1  UNL d   1      -4.434   3.109  -4.922  0.00  0.00    -0.077 A 
ATOM      3  C2  UNL d   1      -3.922   2.113  -4.081  0.00  0.00    -0.001 A 
ATOM      4  C3  UNL d   1      -2.578   2.128  -3.707  0.00  0.00     0.003 A 
ATOM      5  C4  UNL d   1      -1.734   3.137  -4.168  0.00  0.00    -0.005 A 
ATOM      6  C5  UNL d   1      -2.235   4.133  -5.003  0.00  0.00     0.003 A 
ATOM      7  C6  UNL d   1      -3.580   4.120  -5.379  0.00  0.00    -0.001 A 
ENDROOT
TORSDOF 0
ENDMDL
