MODEL 1
REMARK minimizedAffinity 1.58194208
REMARK minimizedRMSD -1
REMARK  0 active torsions:
REMARK  status: ('A' for Active; 'I' for Inactive)
ROOT
ATOM      1  C   UNL d   1      -5.906   4.313  -5.975  0.00  0.00     0.078 C 
ATOM      2  C1  UNL d   1      -5.508   2.980  -5.416  0.00  0.00    -0.077 A 
ATOM      3  C2  UNL d   1      -4.636   2.887  -4.324  0.00  0.00    -0.001 A 
ATOM      4  C3  UNL d   1      -4.267   1.639  -3.820  0.00  0.00     0.003 A 
ATOM      5  C4  UNL d   1      -4.763   0.474  -4.402  0.00  0.00    -0.005 A 
ATOM      6  C5  UNL d   1      -5.629   0.557  -5.490  0.00  0.00     0.003 A 
ATOM      7  C6  UNL d   1      -6.000   1.804  -5.996  0.00  0.00    -0.001 A 
ENDROOT
TORSDOF 0
ENDMDL
