MODEL 1
REMARK minimizedAffinity 1.94532442
REMARK minimizedRMSD -1
REMARK  0 active torsions:
REMARK  status: ('A' for Active; 'I' for Inactive)
ROOT
ATOM      1  C   UNL d   1       1.373  -0.486   2.413  0.00  0.00     0.078 C 
ATOM      2  C1  UNL d   1       0.900   0.520   1.407  0.00  0.00    -0.077 A 
ATOM      3  C2  UNL d   1       0.869   0.215   0.041  0.00  0.00    -0.001 A 
ATOM      4  C3  UNL d   1       0.435   1.166  -0.885  0.00  0.00     0.003 A 
ATOM      5  C4  UNL d   1       0.031   2.428  -0.454  0.00  0.00    -0.005 A 
ATOM      6  C5  UNL d   1       0.061   2.741   0.903  0.00  0.00     0.003 A 
ATOM      7  C6  UNL d   1       0.494   1.792   1.830  0.00  0.00    -0.001 A 
ENDROOT
TORSDOF 0
ENDMDL
