MODEL 1
REMARK minimizedAffinity 2.57209158
REMARK minimizedRMSD -1
REMARK  0 active torsions:
REMARK  status: ('A' for Active; 'I' for Inactive)
ROOT
ATOM      1  C   UNL d   1      -3.099   2.236  -2.931  0.00  0.00     0.078 C 
ATOM      2  C1  UNL d   1      -4.102   2.532  -4.005  0.00  0.00    -0.077 A 
ATOM      3  C2  UNL d   1      -4.248   3.827  -4.518  0.00  0.00    -0.001 A 
ATOM      4  C3  UNL d   1      -5.193   4.091  -5.511  0.00  0.00     0.003 A 
ATOM      5  C4  UNL d   1      -6.000   3.065  -5.999  0.00  0.00    -0.005 A 
ATOM      6  C5  UNL d   1      -5.863   1.774  -5.494  0.00  0.00     0.003 A 
ATOM      7  C6  UNL d   1      -4.919   1.508  -4.501  0.00  0.00    -0.001 A 
ENDROOT
TORSDOF 0
ENDMDL
