MODEL 1
REMARK minimizedAffinity 0.107824236
REMARK minimizedRMSD -1
REMARK  0 active torsions:
REMARK  status: ('A' for Active; 'I' for Inactive)
ROOT
ATOM      1  C   UNL d   1      -3.113   2.261  -3.014  0.00  0.00     0.078 C 
ATOM      2  C1  UNL d   1      -4.125   2.644  -4.052  0.00  0.00    -0.077 A 
ATOM      3  C2  UNL d   1      -4.763   1.671  -4.831  0.00  0.00    -0.001 A 
ATOM      4  C3  UNL d   1      -5.696   2.042  -5.800  0.00  0.00     0.003 A 
ATOM      5  C4  UNL d   1      -6.000   3.387  -5.999  0.00  0.00    -0.005 A 
ATOM      6  C5  UNL d   1      -5.369   4.363  -5.231  0.00  0.00     0.003 A 
ATOM      7  C6  UNL d   1      -4.435   3.993  -4.261  0.00  0.00    -0.001 A 
ENDROOT
TORSDOF 0
ENDMDL
