MODEL 1
REMARK minimizedAffinity 0.780059934
REMARK minimizedRMSD -1
REMARK  0 active torsions:
REMARK  status: ('A' for Active; 'I' for Inactive)
ROOT
ATOM      1  C   UNL d   1       0.519   3.953   1.711  0.00  0.00     0.078 C 
ATOM      2  C1  UNL d   1       0.170   2.618   1.126  0.00  0.00    -0.077 A 
ATOM      3  C2  UNL d   1       0.189   1.459   1.911  0.00  0.00    -0.001 A 
ATOM      4  C3  UNL d   1      -0.129   0.221   1.351  0.00  0.00     0.003 A 
ATOM      5  C4  UNL d   1      -0.466   0.129   0.002  0.00  0.00    -0.005 A 
ATOM      6  C5  UNL d   1      -0.485   1.277  -0.788  0.00  0.00     0.003 A 
ATOM      7  C6  UNL d   1      -0.168   2.516  -0.230  0.00  0.00    -0.001 A 
ENDROOT
TORSDOF 0
ENDMDL
