MODEL 1
REMARK minimizedAffinity 1.65747678
REMARK minimizedRMSD -1
REMARK  0 active torsions:
REMARK  status: ('A' for Active; 'I' for Inactive)
ROOT
ATOM      1  C   UNL d   1      -0.036   3.013   1.888  0.00  0.00     0.078 C 
ATOM      2  C1  UNL d   1       0.238   1.927   0.890  0.00  0.00    -0.077 A 
ATOM      3  C2  UNL d   1       0.210   0.579   1.266  0.00  0.00    -0.001 A 
ATOM      4  C3  UNL d   1       0.477  -0.421   0.328  0.00  0.00     0.003 A 
ATOM      5  C4  UNL d   1       0.774  -0.082  -0.990  0.00  0.00    -0.005 A 
ATOM      6  C5  UNL d   1       0.806   1.257  -1.372  0.00  0.00     0.003 A 
ATOM      7  C6  UNL d   1       0.540   2.258  -0.437  0.00  0.00    -0.001 A 
ENDROOT
TORSDOF 0
ENDMDL
