MODEL 1
REMARK minimizedAffinity 0.728595674
REMARK minimizedRMSD -1
REMARK  0 active torsions:
REMARK  status: ('A' for Active; 'I' for Inactive)
ROOT
ATOM      1  C   UNL d   1      -2.293   4.100  -5.437  0.00  0.00     0.078 C 
ATOM      2  C1  UNL d   1      -3.587   3.342  -5.438  0.00  0.00    -0.077 A 
ATOM      3  C2  UNL d   1      -4.745   3.893  -5.999  0.00  0.00    -0.001 A 
ATOM      4  C3  UNL d   1      -5.945   3.180  -5.984  0.00  0.00     0.003 A 
ATOM      5  C4  UNL d   1      -5.999   1.912  -5.408  0.00  0.00    -0.005 A 
ATOM      6  C5  UNL d   1      -4.852   1.356  -4.845  0.00  0.00     0.003 A 
ATOM      7  C6  UNL d   1      -3.651   2.068  -4.859  0.00  0.00    -0.001 A 
ENDROOT
TORSDOF 0
ENDMDL
