MODEL 1
REMARK minimizedAffinity 1.54039478
REMARK minimizedRMSD -1
REMARK  0 active torsions:
REMARK  status: ('A' for Active; 'I' for Inactive)
ROOT
ATOM      1  C   UNL d   1       1.047   3.654   2.722  0.00  0.00     0.078 C 
ATOM      2  C1  UNL d   1       0.437   2.709   1.730  0.00  0.00    -0.077 A 
ATOM      3  C2  UNL d   1       0.626   1.326   1.841  0.00  0.00    -0.001 A 
ATOM      4  C3  UNL d   1       0.060   0.459   0.904  0.00  0.00     0.003 A 
ATOM      5  C4  UNL d   1      -0.698   0.966  -0.150  0.00  0.00    -0.005 A 
ATOM      6  C5  UNL d   1      -0.889   2.340  -0.269  0.00  0.00     0.003 A 
ATOM      7  C6  UNL d   1      -0.324   3.209   0.666  0.00  0.00    -0.001 A 
ENDROOT
TORSDOF 0
ENDMDL
