MODEL 1
REMARK minimizedAffinity 4.56753063
REMARK minimizedRMSD -1
REMARK  0 active torsions:
REMARK  status: ('A' for Active; 'I' for Inactive)
ROOT
ATOM      1  C   UNL d   1      -5.079   4.620  -5.899  0.00  0.00     0.078 C 
ATOM      2  C1  UNL d   1      -5.144   3.216  -5.375  0.00  0.00    -0.077 A 
ATOM      3  C2  UNL d   1      -5.941   2.249  -6.000  0.00  0.00    -0.001 A 
ATOM      4  C3  UNL d   1      -6.000   0.949  -5.496  0.00  0.00     0.003 A 
ATOM      5  C4  UNL d   1      -5.264   0.604  -4.364  0.00  0.00    -0.005 A 
ATOM      6  C5  UNL d   1      -4.469   1.560  -3.734  0.00  0.00     0.003 A 
ATOM      7  C6  UNL d   1      -4.410   2.861  -4.237  0.00  0.00    -0.001 A 
ENDROOT
TORSDOF 0
ENDMDL
