MODEL 1
REMARK minimizedAffinity -1.11867714
REMARK minimizedRMSD -1
REMARK  0 active torsions:
REMARK  status: ('A' for Active; 'I' for Inactive)
ROOT
ATOM      1  C   UNL d   1      -2.064   4.309  -5.278  0.00  0.00     0.078 C 
ATOM      2  C1  UNL d   1      -3.421   3.671  -5.258  0.00  0.00    -0.077 A 
ATOM      3  C2  UNL d   1      -3.660   2.507  -4.517  0.00  0.00    -0.001 A 
ATOM      4  C3  UNL d   1      -4.926   1.919  -4.516  0.00  0.00     0.003 A 
ATOM      5  C4  UNL d   1      -5.962   2.487  -5.255  0.00  0.00    -0.005 A 
ATOM      6  C5  UNL d   1      -5.733   3.644  -5.997  0.00  0.00     0.003 A 
ATOM      7  C6  UNL d   1      -4.468   4.233  -5.999  0.00  0.00    -0.001 A 
ENDROOT
TORSDOF 0
ENDMDL
