MODEL 1
REMARK minimizedAffinity 5.59662724
REMARK minimizedRMSD -1
REMARK  0 active torsions:
REMARK  status: ('A' for Active; 'I' for Inactive)
ROOT
ATOM      1  C   UNL d   1      -2.198   4.363  -4.892  0.00  0.00     0.078 C 
ATOM      2  C1  UNL d   1      -3.414   3.485  -4.877  0.00  0.00    -0.077 A 
ATOM      3  C2  UNL d   1      -3.722   2.699  -3.760  0.00  0.00    -0.001 A 
ATOM      4  C3  UNL d   1      -4.852   1.879  -3.764  0.00  0.00     0.003 A 
ATOM      5  C4  UNL d   1      -5.682   1.837  -4.883  0.00  0.00    -0.005 A 
ATOM      6  C5  UNL d   1      -5.382   2.614  -6.000  0.00  0.00     0.003 A 
ATOM      7  C6  UNL d   1      -4.253   3.434  -5.998  0.00  0.00    -0.001 A 
ENDROOT
TORSDOF 0
ENDMDL
