MODEL 1
REMARK minimizedAffinity 1.83301389
REMARK minimizedRMSD -1
REMARK  0 active torsions:
REMARK  status: ('A' for Active; 'I' for Inactive)
ROOT
ATOM      1  C   UNL d   1      -5.263  -0.011  -4.916  0.00  0.00     0.078 C 
ATOM      2  C1  UNL d   1      -5.254   1.488  -4.965  0.00  0.00    -0.077 A 
ATOM      3  C2  UNL d   1      -4.526   2.236  -4.032  0.00  0.00    -0.001 A 
ATOM      4  C3  UNL d   1      -4.535   3.631  -4.083  0.00  0.00     0.003 A 
ATOM      5  C4  UNL d   1      -5.271   4.290  -5.066  0.00  0.00    -0.005 A 
ATOM      6  C5  UNL d   1      -6.000   3.554  -5.998  0.00  0.00     0.003 A 
ATOM      7  C6  UNL d   1      -5.992   2.159  -5.948  0.00  0.00    -0.001 A 
ENDROOT
TORSDOF 0
ENDMDL
