MODEL 1
REMARK minimizedAffinity 4.11845398
REMARK minimizedRMSD -1
REMARK  0 active torsions:
REMARK  status: ('A' for Active; 'I' for Inactive)
ROOT
ATOM      1  C   UNL d   1       0.600   1.308  -2.330  0.00  0.00     0.078 C 
ATOM      2  C1  UNL d   1       0.350   1.470  -0.860  0.00  0.00    -0.077 A 
ATOM      3  C2  UNL d   1       0.448   2.724  -0.246  0.00  0.00    -0.001 A 
ATOM      4  C3  UNL d   1       0.222   2.858   1.125  0.00  0.00     0.003 A 
ATOM      5  C4  UNL d   1      -0.103   1.741   1.893  0.00  0.00    -0.005 A 
ATOM      6  C5  UNL d   1      -0.201   0.489   1.290  0.00  0.00     0.003 A 
ATOM      7  C6  UNL d   1       0.025   0.353  -0.080  0.00  0.00    -0.001 A 
ENDROOT
TORSDOF 0
ENDMDL
