MODEL 1
REMARK minimizedAffinity -3.05834174
REMARK minimizedRMSD -1
REMARK  0 active torsions:
REMARK  status: ('A' for Active; 'I' for Inactive)
ROOT
ATOM      1  C   UNL d   1      -3.487   4.186  -5.729  0.00  0.00     0.078 C 
ATOM      2  C1  UNL d   1      -4.329   3.014  -5.319  0.00  0.00    -0.077 A 
ATOM      3  C2  UNL d   1      -5.230   3.112  -4.251  0.00  0.00    -0.001 A 
ATOM      4  C3  UNL d   1      -5.999   2.010  -3.875  0.00  0.00     0.003 A 
ATOM      5  C4  UNL d   1      -5.875   0.803  -4.559  0.00  0.00    -0.005 A 
ATOM      6  C5  UNL d   1      -4.980   0.695  -5.621  0.00  0.00     0.003 A 
ATOM      7  C6  UNL d   1      -4.209   1.796  -6.000  0.00  0.00    -0.001 A 
ENDROOT
TORSDOF 0
ENDMDL
