MODEL 1
REMARK minimizedAffinity 3.73196268
REMARK minimizedRMSD -1
REMARK  0 active torsions:
REMARK  status: ('A' for Active; 'I' for Inactive)
ROOT
ATOM      1  C   UNL d   1       1.175   4.391   2.926  0.00  0.00     0.078 C 
ATOM      2  C1  UNL d   1       0.673   3.324   2.000  0.00  0.00    -0.077 A 
ATOM      3  C2  UNL d   1       0.238   2.087   2.492  0.00  0.00    -0.001 A 
ATOM      4  C3  UNL d   1      -0.218   1.100   1.618  0.00  0.00     0.003 A 
ATOM      5  C4  UNL d   1      -0.241   1.338   0.245  0.00  0.00    -0.005 A 
ATOM      6  C5  UNL d   1       0.192   2.564  -0.255  0.00  0.00     0.003 A 
ATOM      7  C6  UNL d   1       0.648   3.553   0.619  0.00  0.00    -0.001 A 
ENDROOT
TORSDOF 0
ENDMDL
