MODEL 1
REMARK minimizedAffinity -5.67111063
REMARK minimizedRMSD -1
REMARK  3 active torsions:
REMARK  status: ('A' for Active; 'I' for Inactive)
REMARK    1  A    between atoms: C3'_2  and  C2'_3 
REMARK    2  A    between atoms: C2'_3  and  C1'_4 
REMARK    3  A    between atoms: C1'_4  and  C1_5 
ROOT
ATOM      1  C1  N4B d   1      -0.342   0.634   0.208  0.00  0.00    -0.075 A 
ATOM      2  C2  N4B d   1      -1.447   0.732   1.083  0.00  0.00     0.002 A 
ATOM      3  C3  N4B d   1      -1.279   0.510   2.427  0.00  0.00     0.002 A 
ATOM      4  C4  N4B d   1      -0.026   0.172   2.916  0.00  0.00    -0.004 A 
ATOM      5  C5  N4B d   1       1.040   0.105   2.069  0.00  0.00     0.002 A 
ATOM      6  C6  N4B d   1       0.888   0.329   0.715  0.00  0.00     0.002 A 
ENDROOT
BRANCH   1   7
ATOM      7  C1' N4B d   1      -0.492   0.784  -1.281  0.00  0.00     0.057 C 
BRANCH   7   8
ATOM      8  C2' N4B d   1       0.699   0.128  -1.973  0.00  0.00     0.009 C 
BRANCH   8   9
ATOM      9  C3' N4B d   1       0.304  -1.146  -2.700  0.00  0.00     0.004 C 
ATOM     10  C4' N4B d   1       1.483  -2.006  -3.047  0.00  0.00     0.003 C 
ENDBRANCH   8   9
ENDBRANCH   7   8
ENDBRANCH   1   7
TORSDOF 3
ENDMDL
