MODEL 1
REMARK minimizedAffinity -5.63948536
REMARK minimizedRMSD -1
REMARK  3 active torsions:
REMARK  status: ('A' for Active; 'I' for Inactive)
REMARK    1  A    between atoms: C3'_2  and  C2'_3 
REMARK    2  A    between atoms: C2'_3  and  C1'_4 
REMARK    3  A    between atoms: C1'_4  and  C1_5 
ROOT
ATOM      1  C1  N4B d   1       0.134   0.425   0.009  0.00  0.00    -0.075 A 
ATOM      2  C2  N4B d   1      -0.879  -0.109   0.837  0.00  0.00     0.002 A 
ATOM      3  C3  N4B d   1      -0.606  -0.406   2.150  0.00  0.00     0.002 A 
ATOM      4  C4  N4B d   1       0.670  -0.195   2.650  0.00  0.00    -0.004 A 
ATOM      5  C5  N4B d   1       1.635   0.344   1.851  0.00  0.00     0.002 A 
ATOM      6  C6  N4B d   1       1.374   0.651   0.530  0.00  0.00     0.002 A 
ENDROOT
BRANCH   1   7
ATOM      7  C1' N4B d   1      -0.093   0.685  -1.455  0.00  0.00     0.057 C 
BRANCH   7   8
ATOM      8  C2' N4B d   1       1.102   0.162  -2.247  0.00  0.00     0.009 C 
BRANCH   8   9
ATOM      9  C3' N4B d   1       0.771  -1.118  -2.996  0.00  0.00     0.004 C 
ATOM     10  C4' N4B d   1       1.943  -2.046  -3.106  0.00  0.00     0.003 C 
ENDBRANCH   8   9
ENDBRANCH   7   8
ENDBRANCH   1   7
TORSDOF 3
ENDMDL
