MODEL 1
REMARK minimizedAffinity -4.35363245
REMARK minimizedRMSD -1
REMARK  3 active torsions:
REMARK  status: ('A' for Active; 'I' for Inactive)
REMARK    1  A    between atoms: C3'_2  and  C2'_3 
REMARK    2  A    between atoms: C2'_3  and  C1'_4 
REMARK    3  A    between atoms: C1'_4  and  C1_5 
ROOT
ATOM      1  C1  N4B d   1      -0.044   0.081   0.254  0.00  0.00    -0.075 A 
ATOM      2  C2  N4B d   1       0.826   0.827   1.079  0.00  0.00     0.002 A 
ATOM      3  C3  N4B d   1       0.751   0.704   2.445  0.00  0.00     0.002 A 
ATOM      4  C4  N4B d   1      -0.194  -0.142   3.006  0.00  0.00    -0.004 A 
ATOM      5  C5  N4B d   1      -1.014  -0.878   2.202  0.00  0.00     0.002 A 
ATOM      6  C6  N4B d   1      -0.947  -0.767   0.827  0.00  0.00     0.002 A 
ENDROOT
BRANCH   1   7
ATOM      7  C1' N4B d   1      -0.057   0.247  -1.241  0.00  0.00     0.057 C 
BRANCH   7   8
ATOM      8  C2' N4B d   1       1.133  -0.497  -1.838  0.00  0.00     0.009 C 
BRANCH   8   9
ATOM      9  C3' N4B d   1       0.748  -1.282  -3.080  0.00  0.00     0.004 C 
ATOM     10  C4' N4B d   1       1.885  -2.086  -3.636  0.00  0.00     0.003 C 
ENDBRANCH   8   9
ENDBRANCH   7   8
ENDBRANCH   1   7
TORSDOF 3
ENDMDL
