MODEL 1
REMARK minimizedAffinity -4.69565105
REMARK minimizedRMSD -1
REMARK  3 active torsions:
REMARK  status: ('A' for Active; 'I' for Inactive)
REMARK    1  A    between atoms: C3'_2  and  C2'_3 
REMARK    2  A    between atoms: C2'_3  and  C1'_4 
REMARK    3  A    between atoms: C1'_4  and  C1_5 
ROOT
ATOM      1  C1  N4B d   1       0.285  -0.095  -0.249  0.00  0.00    -0.075 A 
ATOM      2  C2  N4B d   1       1.530   0.433   0.158  0.00  0.00     0.002 A 
ATOM      3  C3  N4B d   1       1.772   0.675   1.488  0.00  0.00     0.002 A 
ATOM      4  C4  N4B d   1       0.781   0.416   2.423  0.00  0.00    -0.004 A 
ATOM      5  C5  N4B d   1      -0.409  -0.118   2.025  0.00  0.00     0.002 A 
ATOM      6  C6  N4B d   1      -0.665  -0.370   0.692  0.00  0.00     0.002 A 
ENDROOT
BRANCH   1   7
ATOM      7  C1' N4B d   1      -0.057  -0.295  -1.700  0.00  0.00     0.057 C 
BRANCH   7   8
ATOM      8  C2' N4B d   1       1.231  -0.340  -2.516  0.00  0.00     0.009 C 
BRANCH   8   9
ATOM      9  C3' N4B d   1       1.137  -1.319  -3.673  0.00  0.00     0.004 C 
ATOM     10  C4' N4B d   1       2.280  -2.289  -3.707  0.00  0.00     0.003 C 
ENDBRANCH   8   9
ENDBRANCH   7   8
ENDBRANCH   1   7
TORSDOF 3
ENDMDL
