MODEL 1
REMARK minimizedAffinity -6.79756784
REMARK minimizedRMSD -1
REMARK  3 active torsions:
REMARK  status: ('A' for Active; 'I' for Inactive)
REMARK    1  A    between atoms: C3'_2  and  C2'_3 
REMARK    2  A    between atoms: C2'_3  and  C1'_4 
REMARK    3  A    between atoms: C1'_4  and  C1_5 
ROOT
ATOM      1  C1  N4B d   1       0.410   0.359   0.729  0.00  0.00    -0.075 A 
ATOM      2  C2  N4B d   1      -0.956   0.006   0.679  0.00  0.00     0.002 A 
ATOM      3  C3  N4B d   1      -1.624  -0.321   1.834  0.00  0.00     0.002 A 
ATOM      4  C4  N4B d   1      -0.944  -0.321   3.042  0.00  0.00    -0.004 A 
ATOM      5  C5  N4B d   1       0.369   0.046   3.086  0.00  0.00     0.002 A 
ATOM      6  C6  N4B d   1       1.052   0.381   1.934  0.00  0.00     0.002 A 
ENDROOT
BRANCH   1   7
ATOM      7  C1' N4B d   1       1.204   0.642  -0.517  0.00  0.00     0.057 C 
BRANCH   7   8
ATOM      8  C2' N4B d   1       0.416   0.160  -1.732  0.00  0.00     0.009 C 
BRANCH   8   9
ATOM      9  C3' N4B d   1       1.323  -0.149  -2.911  0.00  0.00     0.004 C 
ATOM     10  C4' N4B d   1       0.982  -1.446  -3.581  0.00  0.00     0.003 C 
ENDBRANCH   8   9
ENDBRANCH   7   8
ENDBRANCH   1   7
TORSDOF 3
ENDMDL
