MODEL 1
REMARK minimizedAffinity -5.07196188
REMARK minimizedRMSD -1
REMARK  3 active torsions:
REMARK  status: ('A' for Active; 'I' for Inactive)
REMARK    1  A    between atoms: C3'_2  and  C2'_3 
REMARK    2  A    between atoms: C2'_3  and  C1'_4 
REMARK    3  A    between atoms: C1'_4  and  C1_5 
ROOT
ATOM      1  C1  N4B d   1       0.034  -0.082   0.393  0.00  0.00    -0.075 A 
ATOM      2  C2  N4B d   1       0.421   0.634   1.546  0.00  0.00     0.002 A 
ATOM      3  C3  N4B d   1       0.003   0.217   2.786  0.00  0.00     0.002 A 
ATOM      4  C4  N4B d   1      -0.815  -0.898   2.895  0.00  0.00    -0.004 A 
ATOM      5  C5  N4B d   1      -1.163  -1.599   1.777  0.00  0.00     0.002 A 
ATOM      6  C6  N4B d   1      -0.746  -1.194   0.525  0.00  0.00     0.002 A 
ENDROOT
BRANCH   1   7
ATOM      7  C1' N4B d   1       0.396   0.385  -0.991  0.00  0.00     0.057 C 
BRANCH   7   8
ATOM      8  C2' N4B d   1       0.334  -0.799  -1.952  0.00  0.00     0.009 C 
BRANCH   8   9
ATOM      9  C3' N4B d   1       1.484  -0.786  -2.944  0.00  0.00     0.004 C 
ATOM     10  C4' N4B d   1       2.155   0.552  -3.038  0.00  0.00     0.003 C 
ENDBRANCH   8   9
ENDBRANCH   7   8
ENDBRANCH   1   7
TORSDOF 3
ENDMDL
