MODEL 1
REMARK minimizedAffinity -5.56568813
REMARK minimizedRMSD -1
REMARK  3 active torsions:
REMARK  status: ('A' for Active; 'I' for Inactive)
REMARK    1  A    between atoms: C3'_2  and  C2'_3 
REMARK    2  A    between atoms: C2'_3  and  C1'_4 
REMARK    3  A    between atoms: C1'_4  and  C1_5 
ROOT
ATOM      1  C1  N4B d   1      -0.063   0.046   0.301  0.00  0.00    -0.075 A 
ATOM      2  C2  N4B d   1       1.055   0.415   1.081  0.00  0.00     0.002 A 
ATOM      3  C3  N4B d   1       1.044   0.204   2.438  0.00  0.00     0.002 A 
ATOM      4  C4  N4B d   1      -0.075  -0.355   3.037  0.00  0.00    -0.004 A 
ATOM      5  C5  N4B d   1      -1.140  -0.732   2.272  0.00  0.00     0.002 A 
ATOM      6  C6  N4B d   1      -1.142  -0.530   0.907  0.00  0.00     0.002 A 
ENDROOT
BRANCH   1   7
ATOM      7  C1' N4B d   1      -0.132   0.335  -1.174  0.00  0.00     0.057 C 
BRANCH   7   8
ATOM      8  C2' N4B d   1       1.085  -0.277  -1.862  0.00  0.00     0.009 C 
BRANCH   8   9
ATOM      9  C3' N4B d   1       0.703  -1.434  -2.769  0.00  0.00     0.004 C 
ATOM     10  C4' N4B d   1       1.464  -1.435  -4.061  0.00  0.00     0.003 C 
ENDBRANCH   8   9
ENDBRANCH   7   8
ENDBRANCH   1   7
TORSDOF 3
ENDMDL
