MODEL 1
REMARK minimizedAffinity -6.43051338
REMARK minimizedRMSD -1
REMARK  3 active torsions:
REMARK  status: ('A' for Active; 'I' for Inactive)
REMARK    1  A    between atoms: C3'_2  and  C2'_3 
REMARK    2  A    between atoms: C2'_3  and  C1'_4 
REMARK    3  A    between atoms: C1'_4  and  C1_5 
ROOT
ATOM      1  C1  N4B d   1       0.965  -0.191  -1.594  0.00  0.00    -0.075 A 
ATOM      2  C2  N4B d   1       0.379  -0.641  -2.798  0.00  0.00     0.002 A 
ATOM      3  C3  N4B d   1       1.174  -1.092  -3.823  0.00  0.00     0.002 A 
ATOM      4  C4  N4B d   1       2.553  -1.084  -3.675  0.00  0.00    -0.004 A 
ATOM      5  C5  N4B d   1       3.111  -0.672  -2.500  0.00  0.00     0.002 A 
ATOM      6  C6  N4B d   1       2.323  -0.220  -1.460  0.00  0.00     0.002 A 
ENDROOT
BRANCH   1   7
ATOM      7  C1' N4B d   1       0.142   0.391  -0.479  0.00  0.00     0.057 C 
BRANCH   7   8
ATOM      8  C2' N4B d   1       0.894   0.226   0.838  0.00  0.00     0.009 C 
BRANCH   8   9
ATOM      9  C3' N4B d   1       0.162  -0.694   1.800  0.00  0.00     0.004 C 
ATOM     10  C4' N4B d   1       0.252  -0.235   3.225  0.00  0.00     0.003 C 
ENDBRANCH   8   9
ENDBRANCH   7   8
ENDBRANCH   1   7
TORSDOF 3
ENDMDL
