MODEL 1
REMARK minimizedAffinity -5.65127468
REMARK minimizedRMSD -1
REMARK  3 active torsions:
REMARK  status: ('A' for Active; 'I' for Inactive)
REMARK    1  A    between atoms: C3'_2  and  C2'_3 
REMARK    2  A    between atoms: C2'_3  and  C1'_4 
REMARK    3  A    between atoms: C1'_4  and  C1_5 
ROOT
ATOM      1  C1  N4B d   1      -0.246   0.095   1.036  0.00  0.00    -0.075 A 
ATOM      2  C2  N4B d   1      -1.595  -0.101   0.667  0.00  0.00     0.002 A 
ATOM      3  C3  N4B d   1      -2.553  -0.277   1.635  0.00  0.00     0.002 A 
ATOM      4  C4  N4B d   1      -2.185  -0.280   2.972  0.00  0.00    -0.004 A 
ATOM      5  C5  N4B d   1      -0.884  -0.064   3.321  0.00  0.00     0.002 A 
ATOM      6  C6  N4B d   1       0.089   0.118   2.359  0.00  0.00     0.002 A 
ENDROOT
BRANCH   1   7
ATOM      7  C1' N4B d   1       0.850   0.206   0.012  0.00  0.00     0.057 C 
BRANCH   7   8
ATOM      8  C2' N4B d   1       0.245   0.627  -1.325  0.00  0.00     0.009 C 
BRANCH   8   9
ATOM      9  C3' N4B d   1       0.943  -0.037  -2.499  0.00  0.00     0.004 C 
ATOM     10  C4' N4B d   1       0.333  -1.357  -2.866  0.00  0.00     0.003 C 
ENDBRANCH   8   9
ENDBRANCH   7   8
ENDBRANCH   1   7
TORSDOF 3
ENDMDL
