MODEL 1
REMARK minimizedAffinity -6.40086937
REMARK minimizedRMSD -1
REMARK  3 active torsions:
REMARK  status: ('A' for Active; 'I' for Inactive)
REMARK    1  A    between atoms: C3'_2  and  C2'_3 
REMARK    2  A    between atoms: C2'_3  and  C1'_4 
REMARK    3  A    between atoms: C1'_4  and  C1_5 
ROOT
ATOM      1  C1  N4B d   1      -0.306  -0.108   0.500  0.00  0.00    -0.075 A 
ATOM      2  C2  N4B d   1      -1.204  -0.913   1.234  0.00  0.00     0.002 A 
ATOM      3  C3  N4B d   1      -0.887  -1.308   2.511  0.00  0.00     0.002 A 
ATOM      4  C4  N4B d   1       0.325  -0.926   3.065  0.00  0.00    -0.004 A 
ATOM      5  C5  N4B d   1       1.176  -0.127   2.359  0.00  0.00     0.002 A 
ATOM      6  C6  N4B d   1       0.869   0.280   1.077  0.00  0.00     0.002 A 
ENDROOT
BRANCH   1   7
ATOM      7  C1' N4B d   1      -0.570   0.277  -0.930  0.00  0.00     0.057 C 
BRANCH   7   8
ATOM      8  C2' N4B d   1       0.671  -0.020  -1.766  0.00  0.00     0.009 C 
BRANCH   8   9
ATOM      9  C3' N4B d   1       0.508  -1.279  -2.599  0.00  0.00     0.004 C 
ATOM     10  C4' N4B d   1       1.810  -1.795  -3.134  0.00  0.00     0.003 C 
ENDBRANCH   8   9
ENDBRANCH   7   8
ENDBRANCH   1   7
TORSDOF 3
ENDMDL
