MODEL 1
REMARK minimizedAffinity -0.966852963
REMARK minimizedRMSD -1
REMARK  0 active torsions:
REMARK  status: ('A' for Active; 'I' for Inactive)
ROOT
ATOM      1  C1  BNZ d   1      -1.763  -0.613   0.658  0.00  0.00     0.000 A 
ATOM      2  C2  BNZ d   1      -1.215  -0.397  -0.578  0.00  0.00     0.000 A 
ATOM      3  C3  BNZ d   1      -0.073   0.341  -0.718  0.00  0.00     0.000 A 
ATOM      4  C4  BNZ d   1       0.496   0.896   0.372  0.00  0.00     0.000 A 
ATOM      5  C5  BNZ d   1      -0.051   0.696   1.624  0.00  0.00     0.000 A 
ATOM      6  C6  BNZ d   1      -1.178  -0.081   1.766  0.00  0.00     0.000 A 
ENDROOT
TORSDOF 0
ENDMDL
