MODEL 1
REMARK minimizedAffinity -3.6084559
REMARK minimizedRMSD -1
REMARK  0 active torsions:
REMARK  status: ('A' for Active; 'I' for Inactive)
ROOT
ATOM      1  C1  BNZ d   1       1.849  -1.154  -0.798  0.00  0.00     0.000 A 
ATOM      2  C2  BNZ d   1       0.595  -0.693  -1.099  0.00  0.00     0.000 A 
ATOM      3  C3  BNZ d   1      -0.163  -0.058  -0.154  0.00  0.00     0.000 A 
ATOM      4  C4  BNZ d   1       0.318   0.078   1.098  0.00  0.00     0.000 A 
ATOM      5  C5  BNZ d   1       1.577  -0.389   1.419  0.00  0.00     0.000 A 
ATOM      6  C6  BNZ d   1       2.352  -0.993   0.456  0.00  0.00     0.000 A 
ENDROOT
TORSDOF 0
ENDMDL
