MODEL 1
REMARK minimizedAffinity -1.36597657
REMARK minimizedRMSD -1
REMARK  0 active torsions:
REMARK  status: ('A' for Active; 'I' for Inactive)
ROOT
ATOM      1  C1  BNZ d   1       1.211  -0.906  -0.272  0.00  0.00     0.000 A 
ATOM      2  C2  BNZ d   1       0.020  -0.926   0.403  0.00  0.00     0.000 A 
ATOM      3  C3  BNZ d   1      -0.923   0.041   0.188  0.00  0.00     0.000 A 
ATOM      4  C4  BNZ d   1      -0.657   1.046  -0.671  0.00  0.00     0.000 A 
ATOM      5  C5  BNZ d   1       0.543   1.085  -1.352  0.00  0.00     0.000 A 
ATOM      6  C6  BNZ d   1       1.473   0.089  -1.162  0.00  0.00     0.000 A 
ENDROOT
TORSDOF 0
ENDMDL
