MODEL 1
REMARK minimizedAffinity -2.14928579
REMARK minimizedRMSD -1
REMARK  0 active torsions:
REMARK  status: ('A' for Active; 'I' for Inactive)
ROOT
ATOM      1  C1  BNZ d   1       1.178  -1.031  -1.441  0.00  0.00     0.000 A 
ATOM      2  C2  BNZ d   1       1.649  -1.287  -0.181  0.00  0.00     0.000 A 
ATOM      3  C3  BNZ d   1       1.130  -0.639   0.905  0.00  0.00     0.000 A 
ATOM      4  C4  BNZ d   1       0.170   0.291   0.726  0.00  0.00     0.000 A 
ATOM      5  C5  BNZ d   1      -0.309   0.567  -0.539  0.00  0.00     0.000 A 
ATOM      6  C6  BNZ d   1       0.189  -0.115  -1.626  0.00  0.00     0.000 A 
ENDROOT
TORSDOF 0
ENDMDL
