MODEL 1
REMARK minimizedAffinity -1.60491467
REMARK minimizedRMSD -1
REMARK  0 active torsions:
REMARK  status: ('A' for Active; 'I' for Inactive)
ROOT
ATOM      1  C1  BNZ d   1       0.679   2.291   0.962  0.00  0.00     0.000 A 
ATOM      2  C2  BNZ d   1       1.445   1.155   0.959  0.00  0.00     0.000 A 
ATOM      3  C3  BNZ d   1       1.455   0.321  -0.123  0.00  0.00     0.000 A 
ATOM      4  C4  BNZ d   1       0.671   0.601  -1.184  0.00  0.00     0.000 A 
ATOM      5  C5  BNZ d   1      -0.114   1.737  -1.193  0.00  0.00     0.000 A 
ATOM      6  C6  BNZ d   1      -0.092   2.595  -0.117  0.00  0.00     0.000 A 
ENDROOT
TORSDOF 0
ENDMDL
