MODEL 1
REMARK minimizedAffinity -0.346212417
REMARK minimizedRMSD -1
REMARK  0 active torsions:
REMARK  status: ('A' for Active; 'I' for Inactive)
ROOT
ATOM      1  C1  BNZ d   1       2.218  -0.665   5.985  0.00  0.00     0.000 A 
ATOM      2  C2  BNZ d   1       3.586  -0.710   5.994  0.00  0.00     0.000 A 
ATOM      3  C3  BNZ d   1       4.248  -1.906   5.981  0.00  0.00     0.000 A 
ATOM      4  C4  BNZ d   1       3.542  -3.055   5.999  0.00  0.00     0.000 A 
ATOM      5  C5  BNZ d   1       2.161  -3.026   6.000  0.00  0.00     0.000 A 
ATOM      6  C6  BNZ d   1       1.499  -1.821   5.974  0.00  0.00     0.000 A 
ENDROOT
TORSDOF 0
ENDMDL
