MODEL 1
REMARK minimizedAffinity 4.07341719
REMARK minimizedRMSD -1
REMARK  0 active torsions:
REMARK  status: ('A' for Active; 'I' for Inactive)
ROOT
ATOM      1  C1  BNZ d   1       1.277   0.019   0.106  0.00  0.00     0.000 A 
ATOM      2  C2  BNZ d   1       1.084   1.058   0.977  0.00  0.00     0.000 A 
ATOM      3  C3  BNZ d   1       0.445   2.198   0.578  0.00  0.00     0.000 A 
ATOM      4  C4  BNZ d   1       0.036   2.315  -0.702  0.00  0.00     0.000 A 
ATOM      5  C5  BNZ d   1       0.231   1.281  -1.596  0.00  0.00     0.000 A 
ATOM      6  C6  BNZ d   1       0.840   0.119  -1.180  0.00  0.00     0.000 A 
ENDROOT
TORSDOF 0
ENDMDL
