MODEL 1
REMARK minimizedAffinity -2.01583385
REMARK minimizedRMSD -1
REMARK  0 active torsions:
REMARK  status: ('A' for Active; 'I' for Inactive)
ROOT
ATOM      1  C1  BNZ d   1      -6.000   2.993  -5.196  0.00  0.00     0.000 A 
ATOM      2  C2  BNZ d   1      -4.879   2.612  -4.508  0.00  0.00     0.000 A 
ATOM      3  C3  BNZ d   1      -3.744   3.374  -4.541  0.00  0.00     0.000 A 
ATOM      4  C4  BNZ d   1      -3.718   4.493  -5.293  0.00  0.00     0.000 A 
ATOM      5  C5  BNZ d   1      -4.837   4.886  -6.000  0.00  0.00     0.000 A 
ATOM      6  C6  BNZ d   1      -5.990   4.137  -5.933  0.00  0.00     0.000 A 
ENDROOT
TORSDOF 0
ENDMDL
