MODEL 1
REMARK minimizedAffinity 5.89376545
REMARK minimizedRMSD -1
REMARK  0 active torsions:
REMARK  status: ('A' for Active; 'I' for Inactive)
ROOT
ATOM      1  C1  BNZ d   1       1.249   3.643   0.464  0.00  0.00     0.000 A 
ATOM      2  C2  BNZ d   1       1.718   2.524   1.099  0.00  0.00     0.000 A 
ATOM      3  C3  BNZ d   1       1.214   1.289   0.803  0.00  0.00     0.000 A 
ATOM      4  C4  BNZ d   1       0.215   1.178  -0.096  0.00  0.00     0.000 A 
ATOM      5  C5  BNZ d   1      -0.276   2.298  -0.738  0.00  0.00     0.000 A 
ATOM      6  C6  BNZ d   1       0.261   3.535  -0.466  0.00  0.00     0.000 A 
ENDROOT
TORSDOF 0
ENDMDL
