MODEL 1
REMARK minimizedAffinity -2.38048887
REMARK minimizedRMSD -1
REMARK  0 active torsions:
REMARK  status: ('A' for Active; 'I' for Inactive)
ROOT
ATOM      1  C1  BNZ d   1      -4.784   4.978   1.283  0.00  0.00     0.000 A 
ATOM      2  C2  BNZ d   1      -5.962   4.285   1.190  0.00  0.00     0.000 A 
ATOM      3  C3  BNZ d   1      -5.972   2.968   0.823  0.00  0.00     0.000 A 
ATOM      4  C4  BNZ d   1      -4.811   2.358   0.511  0.00  0.00     0.000 A 
ATOM      5  C5  BNZ d   1      -3.616   3.046   0.590  0.00  0.00     0.000 A 
ATOM      6  C6  BNZ d   1      -3.606   4.360   0.998  0.00  0.00     0.000 A 
ENDROOT
TORSDOF 0
ENDMDL
