MODEL 1
REMARK minimizedAffinity 3.97349548
REMARK minimizedRMSD -1
REMARK  0 active torsions:
REMARK  status: ('A' for Active; 'I' for Inactive)
ROOT
ATOM      1  C1  BNZ d   1       3.519  -1.663   2.630  0.00  0.00     0.000 A 
ATOM      2  C2  BNZ d   1       4.232  -2.664   3.234  0.00  0.00     0.000 A 
ATOM      3  C3  BNZ d   1       4.738  -2.502   4.493  0.00  0.00     0.000 A 
ATOM      4  C4  BNZ d   1       4.566  -1.325   5.130  0.00  0.00     0.000 A 
ATOM      5  C5  BNZ d   1       3.859  -0.303   4.531  0.00  0.00     0.000 A 
ATOM      6  C6  BNZ d   1       3.317  -0.484   3.279  0.00  0.00     0.000 A 
ENDROOT
TORSDOF 0
ENDMDL
