MODEL 1
REMARK minimizedAffinity 5.66451263
REMARK minimizedRMSD -1
REMARK  0 active torsions:
REMARK  status: ('A' for Active; 'I' for Inactive)
ROOT
ATOM      1  C1  BNZ d   1       3.188  -2.217   5.984  0.00  0.00     0.000 A 
ATOM      2  C2  BNZ d   1       2.654  -1.614   4.877  0.00  0.00     0.000 A 
ATOM      3  C3  BNZ d   1       3.423  -1.369   3.774  0.00  0.00     0.000 A 
ATOM      4  C4  BNZ d   1       4.732  -1.690   3.793  0.00  0.00     0.000 A 
ATOM      5  C5  BNZ d   1       5.288  -2.290   4.905  0.00  0.00     0.000 A 
ATOM      6  C6  BNZ d   1       4.502  -2.571   6.000  0.00  0.00     0.000 A 
ENDROOT
TORSDOF 0
ENDMDL
