MODEL 1
REMARK minimizedAffinity 1.74908412
REMARK minimizedRMSD -1
REMARK  0 active torsions:
REMARK  status: ('A' for Active; 'I' for Inactive)
ROOT
ATOM      1  C   UNL d   1      -0.911   1.312   0.474  0.00  0.00    -0.002 A 
ATOM      2  C1  UNL d   1       0.056   1.312   1.469  0.00  0.00     0.010 A 
ATOM      3  C2  UNL d   1       1.098   2.242   1.447  0.00  0.00     0.041 A 
ATOM      4  C3  UNL d   1       1.150   3.182   0.399  0.00  0.00    -0.075 A 
ATOM      5  S   UNL d   1       2.332   4.415   0.166  0.00  0.00     0.015 SA
ATOM      6  C4  UNL d   1       1.580   4.972  -1.258  0.00  0.00     0.022 A 
ATOM      7  C5  UNL d   1       0.454   4.246  -1.564  0.00  0.00     0.026 A 
ATOM      8  C6  UNL d   1       0.187   3.203  -0.614  0.00  0.00    -0.082 A 
ATOM      9  C7  UNL d   1      -0.856   2.246  -0.564  0.00  0.00     0.045 A 
ENDROOT
TORSDOF 0
ENDMDL
