MODEL 1
REMARK minimizedAffinity 0.525980413
REMARK minimizedRMSD -1
REMARK  0 active torsions:
REMARK  status: ('A' for Active; 'I' for Inactive)
ROOT
ATOM      1  C   UNL d   1       1.912   3.718   2.077  0.00  0.00    -0.002 A 
ATOM      2  C1  UNL d   1       1.345   2.467   1.879  0.00  0.00     0.010 A 
ATOM      3  C2  UNL d   1       0.572   2.208   0.746  0.00  0.00     0.041 A 
ATOM      4  C3  UNL d   1       0.378   3.238  -0.196  0.00  0.00    -0.075 A 
ATOM      5  S   UNL d   1      -0.530   3.151  -1.659  0.00  0.00     0.015 SA
ATOM      6  C4  UNL d   1      -0.186   4.772  -2.057  0.00  0.00     0.022 A 
ATOM      7  C5  UNL d   1       0.601   5.380  -1.108  0.00  0.00     0.026 A 
ATOM      8  C6  UNL d   1       0.940   4.506  -0.020  0.00  0.00    -0.082 A 
ATOM      9  C7  UNL d   1       1.718   4.736   1.140  0.00  0.00     0.045 A 
ENDROOT
TORSDOF 0
ENDMDL
