MODEL 1
REMARK minimizedAffinity 9.80805302
REMARK minimizedRMSD -1
REMARK  0 active torsions:
REMARK  status: ('A' for Active; 'I' for Inactive)
ROOT
ATOM      1  C   UNL d   1       1.068   1.773   0.701  0.00  0.00    -0.002 A 
ATOM      2  C1  UNL d   1       0.531   1.259   1.873  0.00  0.00     0.010 A 
ATOM      3  C2  UNL d   1      -0.798   0.833   1.918  0.00  0.00     0.041 A 
ATOM      4  C3  UNL d   1      -1.585   0.931   0.753  0.00  0.00    -0.075 A 
ATOM      5  S   UNL d   1      -3.237   0.470   0.573  0.00  0.00     0.015 SA
ATOM      6  C4  UNL d   1      -3.268   0.944  -1.064  0.00  0.00     0.022 A 
ATOM      7  C5  UNL d   1      -2.056   1.445  -1.479  0.00  0.00     0.026 A 
ATOM      8  C6  UNL d   1      -1.067   1.445  -0.439  0.00  0.00    -0.082 A 
ATOM      9  C7  UNL d   1       0.284   1.869  -0.452  0.00  0.00     0.045 A 
ENDROOT
TORSDOF 0
ENDMDL
