MODEL 1
REMARK minimizedAffinity 14.9887676
REMARK minimizedRMSD -1
REMARK  0 active torsions:
REMARK  status: ('A' for Active; 'I' for Inactive)
ROOT
ATOM      1  C   UNL d   1       0.359   2.630   1.076  0.00  0.00    -0.002 A 
ATOM      2  C1  UNL d   1       0.759   1.832   0.013  0.00  0.00     0.010 A 
ATOM      3  C2  UNL d   1       0.822   2.353  -1.281  0.00  0.00     0.041 A 
ATOM      4  C3  UNL d   1       0.476   3.702  -1.491  0.00  0.00    -0.075 A 
ATOM      5  S   UNL d   1       0.480   4.556  -2.989  0.00  0.00     0.015 SA
ATOM      6  C4  UNL d   1      -0.048   6.000  -2.253  0.00  0.00     0.022 A 
ATOM      7  C5  UNL d   1      -0.227   5.852  -0.898  0.00  0.00     0.026 A 
ATOM      8  C6  UNL d   1       0.072   4.526  -0.436  0.00  0.00    -0.082 A 
ATOM      9  C7  UNL d   1       0.017   3.968   0.864  0.00  0.00     0.045 A 
ENDROOT
TORSDOF 0
ENDMDL
