MODEL 1
REMARK minimizedAffinity 2.71889639
REMARK minimizedRMSD -1
REMARK  0 active torsions:
REMARK  status: ('A' for Active; 'I' for Inactive)
ROOT
ATOM      1  O1  BZF d   1       2.386  -2.714   0.152  0.00  0.00    -0.204 OA
ATOM      2  C2  BZF d   1       2.030  -1.741  -0.762  0.00  0.00     0.174 A 
ATOM      3  C3  BZF d   1       0.719  -1.827  -1.066  0.00  0.00    -0.012 A 
ATOM      4  C3A BZF d   1       0.205  -2.863  -0.225  0.00  0.00    -0.107 A 
ATOM      5  C4  BZF d   1      -1.038  -3.403  -0.053  0.00  0.00     0.055 A 
ATOM      6  C5  BZF d   1      -1.190  -4.453   0.796  0.00  0.00    -0.016 A 
ATOM      7  C6  BZF d   1      -0.123  -4.992   1.484  0.00  0.00     0.022 A 
ATOM      8  C7  BZF d   1       1.128  -4.487   1.350  0.00  0.00     0.029 A 
ATOM      9  C7A BZF d   1       1.279  -3.404   0.518  0.00  0.00     0.058 A 
ENDROOT
TORSDOF 0
ENDMDL
