MODEL 1
REMARK minimizedAffinity 4.64157104
REMARK minimizedRMSD -1
REMARK  0 active torsions:
REMARK  status: ('A' for Active; 'I' for Inactive)
ROOT
ATOM      1  O1  BZF d   1       0.782   1.271  -3.505  0.00  0.00    -0.204 OA
ATOM      2  C2  BZF d   1       0.407   2.232  -2.586  0.00  0.00     0.174 A 
ATOM      3  C3  BZF d   1       0.229   1.683  -1.367  0.00  0.00    -0.012 A 
ATOM      4  C3A BZF d   1       0.600   0.309  -1.515  0.00  0.00    -0.107 A 
ATOM      5  C4  BZF d   1       0.652  -0.747  -0.651  0.00  0.00     0.055 A 
ATOM      6  C5  BZF d   1       0.988  -1.975  -1.128  0.00  0.00    -0.016 A 
ATOM      7  C6  BZF d   1       1.272  -2.182  -2.462  0.00  0.00     0.022 A 
ATOM      8  C7  BZF d   1       1.239  -1.164  -3.356  0.00  0.00     0.029 A 
ATOM      9  C7A BZF d   1       0.932   0.084  -2.871  0.00  0.00     0.058 A 
ENDROOT
TORSDOF 0
ENDMDL
