MODEL 1
REMARK minimizedAffinity 2.46675968
REMARK minimizedRMSD -1
REMARK  0 active torsions:
REMARK  status: ('A' for Active; 'I' for Inactive)
ROOT
ATOM      1  O1  BZF d   1       3.195   0.004  -2.627  0.00  0.00    -0.204 OA
ATOM      2  C2  BZF d   1       1.907  -0.038  -3.124  0.00  0.00     0.174 A 
ATOM      3  C3  BZF d   1       1.893   0.245  -4.442  0.00  0.00    -0.012 A 
ATOM      4  C3A BZF d   1       3.268   0.388  -4.811  0.00  0.00    -0.107 A 
ATOM      5  C4  BZF d   1       3.900   0.657  -5.991  0.00  0.00     0.055 A 
ATOM      6  C5  BZF d   1       5.251   0.803  -5.998  0.00  0.00    -0.016 A 
ATOM      7  C6  BZF d   1       5.999   0.692  -4.844  0.00  0.00     0.022 A 
ATOM      8  C7  BZF d   1       5.417   0.422  -3.651  0.00  0.00     0.029 A 
ATOM      9  C7A BZF d   1       4.056   0.241  -3.646  0.00  0.00     0.058 A 
ENDROOT
TORSDOF 0
ENDMDL
