MODEL 1
REMARK minimizedAffinity 2.45270634
REMARK minimizedRMSD -1
REMARK  0 active torsions:
REMARK  status: ('A' for Active; 'I' for Inactive)
ROOT
ATOM      1  O1  BZF d   1       4.611   3.907  -4.986  0.00  0.00    -0.204 OA
ATOM      2  C2  BZF d   1       3.270   4.183  -5.177  0.00  0.00     0.174 A 
ATOM      3  C3  BZF d   1       2.619   3.095  -5.638  0.00  0.00    -0.012 A 
ATOM      4  C3A BZF d   1       3.597   2.051  -5.655  0.00  0.00    -0.107 A 
ATOM      5  C4  BZF d   1       3.554   0.730  -6.000  0.00  0.00     0.055 A 
ATOM      6  C5  BZF d   1       4.701   0.003  -5.972  0.00  0.00    -0.016 A 
ATOM      7  C6  BZF d   1       5.908   0.564  -5.610  0.00  0.00     0.022 A 
ATOM      8  C7  BZF d   1       6.000   1.868  -5.254  0.00  0.00     0.029 A 
ATOM      9  C7A BZF d   1       4.836   2.598  -5.249  0.00  0.00     0.058 A 
ENDROOT
TORSDOF 0
ENDMDL
