MODEL 1
REMARK minimizedAffinity 1.98702455
REMARK minimizedRMSD -1
REMARK  0 active torsions:
REMARK  status: ('A' for Active; 'I' for Inactive)
ROOT
ATOM      1  O1  BZF d   1       0.929  -2.156  -3.040  0.00  0.00    -0.204 OA
ATOM      2  C2  BZF d   1       0.735  -2.850  -1.862  0.00  0.00     0.174 A 
ATOM      3  C3  BZF d   1       0.707  -2.007  -0.809  0.00  0.00    -0.012 A 
ATOM      4  C3A BZF d   1       0.803  -0.696  -1.375  0.00  0.00    -0.107 A 
ATOM      5  C4  BZF d   1       0.811   0.560  -0.838  0.00  0.00     0.055 A 
ATOM      6  C5  BZF d   1       0.992   1.628  -1.659  0.00  0.00    -0.016 A 
ATOM      7  C6  BZF d   1       1.172   1.477  -3.018  0.00  0.00     0.022 A 
ATOM      8  C7  BZF d   1       1.166   0.251  -3.597  0.00  0.00     0.029 A 
ATOM      9  C7A BZF d   1       0.951  -0.828  -2.775  0.00  0.00     0.058 A 
ENDROOT
TORSDOF 0
ENDMDL
