MODEL 1
REMARK minimizedAffinity -3.2573247
REMARK minimizedRMSD -1
REMARK  0 active torsions:
REMARK  status: ('A' for Active; 'I' for Inactive)
ROOT
ATOM      1  O1  BZF d   1      -5.365   2.343   5.996  0.00  0.00    -0.204 OA
ATOM      2  C2  BZF d   1      -4.433   1.498   5.425  0.00  0.00     0.174 A 
ATOM      3  C3  BZF d   1      -3.539   2.195   4.695  0.00  0.00    -0.012 A 
ATOM      4  C3A BZF d   1      -3.882   3.570   4.892  0.00  0.00    -0.107 A 
ATOM      5  C4  BZF d   1      -3.352   4.744   4.439  0.00  0.00     0.055 A 
ATOM      6  C5  BZF d   1      -3.968   5.913   4.758  0.00  0.00    -0.016 A 
ATOM      7  C6  BZF d   1      -5.116   5.944   5.522  0.00  0.00     0.022 A 
ATOM      8  C7  BZF d   1      -5.676   4.805   5.997  0.00  0.00     0.029 A 
ATOM      9  C7A BZF d   1      -5.038   3.625   5.705  0.00  0.00     0.058 A 
ENDROOT
TORSDOF 0
ENDMDL
