MODEL 1
REMARK minimizedAffinity 2.0353744
REMARK minimizedRMSD -1
REMARK  0 active torsions:
REMARK  status: ('A' for Active; 'I' for Inactive)
ROOT
ATOM      1  O1  BZF d   1       4.768   4.224  -3.654  0.00  0.00    -0.204 OA
ATOM      2  C2  BZF d   1       3.683   4.806  -4.280  0.00  0.00     0.174 A 
ATOM      3  C3  BZF d   1       3.250   4.037  -5.299  0.00  0.00    -0.012 A 
ATOM      4  C3A BZF d   1       4.060   2.859  -5.253  0.00  0.00    -0.107 A 
ATOM      5  C4  BZF d   1       4.099   1.715  -5.999  0.00  0.00     0.055 A 
ATOM      6  C5  BZF d   1       5.060   0.790  -5.740  0.00  0.00    -0.016 A 
ATOM      7  C6  BZF d   1       6.000   0.977  -4.748  0.00  0.00     0.022 A 
ATOM      8  C7  BZF d   1       5.999   2.093  -3.978  0.00  0.00     0.029 A 
ATOM      9  C7A BZF d   1       5.009   3.015  -4.215  0.00  0.00     0.058 A 
ENDROOT
TORSDOF 0
ENDMDL
