MODEL 1
REMARK minimizedAffinity 5.48027182
REMARK minimizedRMSD -1
REMARK  0 active torsions:
REMARK  status: ('A' for Active; 'I' for Inactive)
ROOT
ATOM      1  O1  BZF d   1       0.776   0.792  -3.577  0.00  0.00    -0.204 OA
ATOM      2  C2  BZF d   1       0.420   1.676  -2.577  0.00  0.00     0.174 A 
ATOM      3  C3  BZF d   1       0.359   1.050  -1.384  0.00  0.00    -0.012 A 
ATOM      4  C3A BZF d   1       0.788  -0.291  -1.641  0.00  0.00    -0.107 A 
ATOM      5  C4  BZF d   1       0.956  -1.390  -0.848  0.00  0.00     0.055 A 
ATOM      6  C5  BZF d   1       1.318  -2.568  -1.421  0.00  0.00    -0.016 A 
ATOM      7  C6  BZF d   1       1.515  -2.684  -2.782  0.00  0.00     0.022 A 
ATOM      8  C7  BZF d   1       1.365  -1.619  -3.608  0.00  0.00     0.029 A 
ATOM      9  C7A BZF d   1       1.032  -0.420  -3.027  0.00  0.00     0.058 A 
ENDROOT
TORSDOF 0
ENDMDL
