MODEL 1
REMARK minimizedAffinity -1.97695279
REMARK minimizedRMSD -1
REMARK  0 active torsions:
REMARK  status: ('A' for Active; 'I' for Inactive)
ROOT
ATOM      1  O1  BZF d   1       1.041  -2.281  -1.634  0.00  0.00    -0.204 OA
ATOM      2  C2  BZF d   1       0.602  -2.457  -0.336  0.00  0.00     0.174 A 
ATOM      3  C3  BZF d   1       0.327  -1.269   0.240  0.00  0.00    -0.012 A 
ATOM      4  C3A BZF d   1       0.524  -0.296  -0.790  0.00  0.00    -0.107 A 
ATOM      5  C4  BZF d   1       0.392   1.063  -0.836  0.00  0.00     0.055 A 
ATOM      6  C5  BZF d   1       0.732   1.721  -1.975  0.00  0.00    -0.016 A 
ATOM      7  C6  BZF d   1       1.212   1.054  -3.084  0.00  0.00     0.022 A 
ATOM      8  C7  BZF d   1       1.356  -0.294  -3.087  0.00  0.00     0.029 A 
ATOM      9  C7A BZF d   1       0.981  -0.965  -1.949  0.00  0.00     0.058 A 
ENDROOT
TORSDOF 0
ENDMDL
