MODEL 1
REMARK minimizedAffinity 3.29071975
REMARK minimizedRMSD -1
REMARK  0 active torsions:
REMARK  status: ('A' for Active; 'I' for Inactive)
ROOT
ATOM      1  O1  BZF d   1       0.857   0.320  -4.044  0.00  0.00    -0.204 OA
ATOM      2  C2  BZF d   1       1.207  -0.904  -4.579  0.00  0.00     0.174 A 
ATOM      3  C3  BZF d   1       1.468  -1.797  -3.603  0.00  0.00    -0.012 A 
ATOM      4  C3A BZF d   1       1.179  -1.112  -2.380  0.00  0.00    -0.107 A 
ATOM      5  C4  BZF d   1       1.229  -1.477  -1.065  0.00  0.00     0.055 A 
ATOM      6  C5  BZF d   1       0.954  -0.549  -0.111  0.00  0.00    -0.016 A 
ATOM      7  C6  BZF d   1       0.630   0.752  -0.436  0.00  0.00     0.022 A 
ATOM      8  C7  BZF d   1       0.563   1.160  -1.727  0.00  0.00     0.029 A 
ATOM      9  C7A BZF d   1       0.809   0.216  -2.694  0.00  0.00     0.058 A 
ENDROOT
TORSDOF 0
ENDMDL
