MODEL 1
REMARK minimizedAffinity 4.75783348
REMARK minimizedRMSD -1
REMARK  0 active torsions:
REMARK  status: ('A' for Active; 'I' for Inactive)
ROOT
ATOM      1  O1  BZF d   1       1.163  -1.833  -1.961  0.00  0.00    -0.204 OA
ATOM      2  C2  BZF d   1       0.915  -1.892  -0.604  0.00  0.00     0.174 A 
ATOM      3  C3  BZF d   1       0.724  -0.656  -0.098  0.00  0.00    -0.012 A 
ATOM      4  C3A BZF d   1       0.771   0.223  -1.226  0.00  0.00    -0.107 A 
ATOM      5  C4  BZF d   1       0.633   1.574  -1.370  0.00  0.00     0.055 A 
ATOM      6  C5  BZF d   1       0.807   2.129  -2.598  0.00  0.00    -0.016 A 
ATOM      7  C6  BZF d   1       1.123   1.365  -3.702  0.00  0.00     0.022 A 
ATOM      8  C7  BZF d   1       1.265   0.020  -3.610  0.00  0.00     0.029 A 
ATOM      9  C7A BZF d   1       1.058  -0.548  -2.376  0.00  0.00     0.058 A 
ENDROOT
TORSDOF 0
ENDMDL
