MODEL 1
REMARK minimizedAffinity -2.387954
REMARK minimizedRMSD -1
REMARK  0 active torsions:
REMARK  status: ('A' for Active; 'I' for Inactive)
ROOT
ATOM      1  O1  BZF d   1       1.427   1.052  -3.914  0.00  0.00    -0.204 OA
ATOM      2  C2  BZF d   1       1.778  -0.057  -4.659  0.00  0.00     0.174 A 
ATOM      3  C3  BZF d   1       1.810  -1.162  -3.887  0.00  0.00    -0.012 A 
ATOM      4  C3A BZF d   1       1.366  -0.733  -2.597  0.00  0.00    -0.107 A 
ATOM      5  C4  BZF d   1       1.168  -1.377  -1.409  0.00  0.00     0.055 A 
ATOM      6  C5  BZF d   1       0.799  -0.655  -0.319  0.00  0.00    -0.016 A 
ATOM      7  C6  BZF d   1       0.624   0.712  -0.379  0.00  0.00     0.022 A 
ATOM      8  C7  BZF d   1       0.803   1.395  -1.536  0.00  0.00     0.029 A 
ATOM      9  C7A BZF d   1       1.144   0.663  -2.647  0.00  0.00     0.058 A 
ENDROOT
TORSDOF 0
ENDMDL
