MODEL 1
REMARK minimizedAffinity 3.36678958
REMARK minimizedRMSD -1
REMARK  0 active torsions:
REMARK  status: ('A' for Active; 'I' for Inactive)
ROOT
ATOM      1  O1  BZF d   1       0.977   1.521  -3.396  0.00  0.00    -0.204 OA
ATOM      2  C2  BZF d   1       0.676   2.058  -2.159  0.00  0.00     0.174 A 
ATOM      3  C3  BZF d   1       0.540   1.086  -1.235  0.00  0.00    -0.012 A 
ATOM      4  C3A BZF d   1       0.862  -0.130  -1.918  0.00  0.00    -0.107 A 
ATOM      5  C4  BZF d   1       0.923  -1.438  -1.529  0.00  0.00     0.055 A 
ATOM      6  C5  BZF d   1       1.198  -2.391  -2.458  0.00  0.00    -0.016 A 
ATOM      7  C6  BZF d   1       1.412  -2.073  -3.783  0.00  0.00     0.022 A 
ATOM      8  C7  BZF d   1       1.366  -0.789  -4.215  0.00  0.00     0.029 A 
ATOM      9  C7A BZF d   1       1.121   0.180  -3.273  0.00  0.00     0.058 A 
ENDROOT
TORSDOF 0
ENDMDL
