MODEL 1
REMARK minimizedAffinity 3.19806194
REMARK minimizedRMSD -1
REMARK  0 active torsions:
REMARK  status: ('A' for Active; 'I' for Inactive)
ROOT
ATOM      1  O1  BZF d   1      -2.672   2.667   3.838  0.00  0.00    -0.204 OA
ATOM      2  C2  BZF d   1      -3.042   1.606   4.642  0.00  0.00     0.174 A 
ATOM      3  C3  BZF d   1      -3.870   2.016   5.624  0.00  0.00    -0.012 A 
ATOM      4  C3A BZF d   1      -4.100   3.405   5.367  0.00  0.00    -0.107 A 
ATOM      5  C4  BZF d   1      -4.850   4.363   5.987  0.00  0.00     0.055 A 
ATOM      6  C5  BZF d   1      -4.801   5.641   5.527  0.00  0.00    -0.016 A 
ATOM      7  C6  BZF d   1      -4.010   5.996   4.454  0.00  0.00     0.022 A 
ATOM      8  C7  BZF d   1      -3.252   5.080   3.804  0.00  0.00     0.029 A 
ATOM      9  C7A BZF d   1      -3.325   3.781   4.246  0.00  0.00     0.058 A 
ENDROOT
TORSDOF 0
ENDMDL
