MODEL 1
REMARK minimizedAffinity 1.09652925
REMARK minimizedRMSD -1
REMARK  0 active torsions:
REMARK  status: ('A' for Active; 'I' for Inactive)
ROOT
ATOM      1  O1  BZF d   1       0.981  -1.951  -1.972  0.00  0.00    -0.204 OA
ATOM      2  C2  BZF d   1       1.297  -2.245  -3.284  0.00  0.00     0.174 A 
ATOM      3  C3  BZF d   1       1.435  -1.116  -4.008  0.00  0.00    -0.012 A 
ATOM      4  C3A BZF d   1       1.280  -0.046  -3.070  0.00  0.00    -0.107 A 
ATOM      5  C4  BZF d   1       1.327   1.314  -3.181  0.00  0.00     0.055 A 
ATOM      6  C5  BZF d   1       1.061   2.075  -2.087  0.00  0.00    -0.016 A 
ATOM      7  C6  BZF d   1       0.739   1.510  -0.870  0.00  0.00     0.022 A 
ATOM      8  C7  BZF d   1       0.685   0.166  -0.710  0.00  0.00     0.029 A 
ATOM      9  C7A BZF d   1       0.986  -0.607  -1.805  0.00  0.00     0.058 A 
ENDROOT
TORSDOF 0
ENDMDL
