MODEL 1
REMARK minimizedAffinity 0.412953645
REMARK minimizedRMSD -1
REMARK  0 active torsions:
REMARK  status: ('A' for Active; 'I' for Inactive)
ROOT
ATOM      1  O1  BZF d   1       2.801  -0.670  -2.698  0.00  0.00    -0.204 OA
ATOM      2  C2  BZF d   1       1.541  -0.625  -3.262  0.00  0.00     0.174 A 
ATOM      3  C3  BZF d   1       1.613  -0.298  -4.569  0.00  0.00    -0.012 A 
ATOM      4  C3A BZF d   1       3.011  -0.218  -4.860  0.00  0.00    -0.107 A 
ATOM      5  C4  BZF d   1       3.720   0.054  -5.995  0.00  0.00     0.055 A 
ATOM      6  C5  BZF d   1       5.075   0.126  -5.927  0.00  0.00    -0.016 A 
ATOM      7  C6  BZF d   1       5.753  -0.064  -4.741  0.00  0.00     0.022 A 
ATOM      8  C7  BZF d   1       5.094  -0.341  -3.589  0.00  0.00     0.029 A 
ATOM      9  C7A BZF d   1       3.727  -0.447  -3.662  0.00  0.00     0.058 A 
ENDROOT
TORSDOF 0
ENDMDL
