MODEL 1
REMARK minimizedAffinity -3.83588386
REMARK minimizedRMSD -1
REMARK  1 active torsions:
REMARK  status: ('A' for Active; 'I' for Inactive)
REMARK    1  A    between atoms: C1_2  and  C2_3 
ROOT
ATOM      1  C2  UNL d   1       0.124   0.458   2.950  0.00  0.00    -0.073 A 
ATOM      2  C3  UNL d   1      -0.896  -0.465   3.203  0.00  0.00    -0.002 A 
ATOM      3  C4  UNL d   1      -1.560  -1.089   2.145  0.00  0.00     0.004 A 
ATOM      4  C5  UNL d   1      -1.205  -0.802   0.827  0.00  0.00    -0.004 A 
ATOM      5  C6  UNL d   1      -0.180   0.109   0.555  0.00  0.00    -0.075 A 
ATOM      6  C7  UNL d   1       0.212   0.431  -0.857  0.00  0.00     0.076 C 
ATOM      7  C8  UNL d   1       0.480   0.734   1.622  0.00  0.00     0.001 A 
ENDROOT
BRANCH   1   8
ATOM      8  C1  UNL d   1       0.848   1.129   4.089  0.00  0.00     0.053 C 
ATOM      9  C   UNL d   1       0.301   2.520   4.371  0.00  0.00     0.018 C 
ENDBRANCH   1   8
TORSDOF 1
ENDMDL
