MODEL 1
REMARK minimizedAffinity -3.8183043
REMARK minimizedRMSD -1
REMARK  1 active torsions:
REMARK  status: ('A' for Active; 'I' for Inactive)
REMARK    1  A    between atoms: C1_2  and  C2_3 
ROOT
ATOM      1  C2  UNL d   1       1.172   1.105   1.181  0.00  0.00    -0.073 A 
ATOM      2  C3  UNL d   1       0.672   1.166  -0.125  0.00  0.00    -0.002 A 
ATOM      3  C4  UNL d   1      -0.698   1.047  -0.362  0.00  0.00     0.004 A 
ATOM      4  C5  UNL d   1      -1.582   0.874   0.703  0.00  0.00    -0.004 A 
ATOM      5  C6  UNL d   1      -1.104   0.823   2.016  0.00  0.00    -0.075 A 
ATOM      6  C7  UNL d   1      -2.041   0.635   3.173  0.00  0.00     0.076 C 
ATOM      7  C8  UNL d   1       0.274   0.940   2.246  0.00  0.00     0.001 A 
ENDROOT
BRANCH   1   8
ATOM      8  C1  UNL d   1       2.650   1.238   1.442  0.00  0.00     0.053 C 
ATOM      9  C   UNL d   1       3.248   2.442   0.731  0.00  0.00     0.018 C 
ENDBRANCH   1   8
TORSDOF 1
ENDMDL
