MODEL 1
REMARK minimizedAffinity 0.0150196059
REMARK minimizedRMSD -1
REMARK  1 active torsions:
REMARK  status: ('A' for Active; 'I' for Inactive)
REMARK    1  A    between atoms: C1_2  and  C2_3 
ROOT
ATOM      1  C2  UNL d   1      -0.004  -0.931  -1.906  0.00  0.00    -0.073 A 
ATOM      2  C3  UNL d   1       1.014  -0.054  -1.514  0.00  0.00    -0.002 A 
ATOM      3  C4  UNL d   1       0.760   0.946  -0.574  0.00  0.00     0.004 A 
ATOM      4  C5  UNL d   1      -0.509   1.074  -0.011  0.00  0.00    -0.004 A 
ATOM      5  C6  UNL d   1      -1.537   0.200  -0.380  0.00  0.00    -0.075 A 
ATOM      6  C7  UNL d   1      -2.909   0.326   0.214  0.00  0.00     0.076 C 
ATOM      7  C8  UNL d   1      -1.275  -0.799  -1.327  0.00  0.00     0.001 A 
ENDROOT
BRANCH   1   8
ATOM      8  C1  UNL d   1       0.266  -2.016  -2.916  0.00  0.00     0.053 C 
ATOM      9  C   UNL d   1       1.480  -1.703  -3.777  0.00  0.00     0.018 C 
ENDBRANCH   1   8
TORSDOF 1
ENDMDL
