MODEL 1
REMARK minimizedAffinity -4.03223705
REMARK minimizedRMSD -1
REMARK  1 active torsions:
REMARK  status: ('A' for Active; 'I' for Inactive)
REMARK    1  A    between atoms: C1_2  and  C2_3 
ROOT
ATOM      1  C2  UNL d   1      -0.262  -0.041  -1.258  0.00  0.00    -0.073 A 
ATOM      2  C3  UNL d   1      -1.559   0.325  -1.636  0.00  0.00    -0.002 A 
ATOM      3  C4  UNL d   1      -2.595   0.313  -0.702  0.00  0.00     0.004 A 
ATOM      4  C5  UNL d   1      -2.345  -0.057   0.619  0.00  0.00    -0.004 A 
ATOM      5  C6  UNL d   1      -1.053  -0.415   1.019  0.00  0.00    -0.075 A 
ATOM      6  C7  UNL d   1      -0.768  -0.817   2.436  0.00  0.00     0.076 C 
ATOM      7  C8  UNL d   1      -0.018  -0.403   0.074  0.00  0.00     0.001 A 
ENDROOT
BRANCH   1   8
ATOM      8  C1  UNL d   1       0.861  -0.024  -2.262  0.00  0.00     0.053 C 
ATOM      9  C   UNL d   1       0.715  -1.125  -3.300  0.00  0.00     0.018 C 
ENDBRANCH   1   8
TORSDOF 1
ENDMDL
