MODEL 1
REMARK minimizedAffinity -5.02656221
REMARK minimizedRMSD -1
REMARK  1 active torsions:
REMARK  status: ('A' for Active; 'I' for Inactive)
REMARK    1  A    between atoms: C1_2  and  C2_3 
ROOT
ATOM      1  C2  UNL d   1       0.092  -0.001   0.023  0.00  0.00    -0.073 A 
ATOM      2  C3  UNL d   1      -1.047  -0.482   0.679  0.00  0.00    -0.002 A 
ATOM      3  C4  UNL d   1      -1.005  -0.772   2.044  0.00  0.00     0.004 A 
ATOM      4  C5  UNL d   1       0.172  -0.578   2.767  0.00  0.00    -0.004 A 
ATOM      5  C6  UNL d   1       1.317  -0.086   2.131  0.00  0.00    -0.075 A 
ATOM      6  C7  UNL d   1       2.592   0.126   2.894  0.00  0.00     0.076 C 
ATOM      7  C8  UNL d   1       1.268   0.200   0.760  0.00  0.00     0.001 A 
ENDROOT
BRANCH   1   8
ATOM      8  C1  UNL d   1       0.049   0.320  -1.448  0.00  0.00     0.053 C 
ATOM      9  C   UNL d   1       0.899  -0.640  -2.266  0.00  0.00     0.018 C 
ENDBRANCH   1   8
TORSDOF 1
ENDMDL
