MODEL 1
REMARK minimizedAffinity -4.72274399
REMARK minimizedRMSD -1
REMARK  1 active torsions:
REMARK  status: ('A' for Active; 'I' for Inactive)
REMARK    1  A    between atoms: C1_2  and  C2_3 
ROOT
ATOM      1  C2  UNL d   1       0.115   0.388   0.121  0.00  0.00    -0.073 A 
ATOM      2  C3  UNL d   1       1.419   0.736   0.492  0.00  0.00    -0.002 A 
ATOM      3  C4  UNL d   1       1.848   0.558   1.808  0.00  0.00     0.004 A 
ATOM      4  C5  UNL d   1       0.982   0.025   2.763  0.00  0.00    -0.004 A 
ATOM      5  C6  UNL d   1      -0.320  -0.340   2.409  0.00  0.00    -0.075 A 
ATOM      6  C7  UNL d   1      -1.265  -0.912   3.425  0.00  0.00     0.076 C 
ATOM      7  C8  UNL d   1      -0.745  -0.156   1.086  0.00  0.00     0.001 A 
ENDROOT
BRANCH   1   8
ATOM      8  C1  UNL d   1      -0.351   0.571  -1.300  0.00  0.00     0.053 C 
ATOM      9  C   UNL d   1       0.596  -0.075  -2.299  0.00  0.00     0.018 C 
ENDBRANCH   1   8
TORSDOF 1
ENDMDL
