MODEL 1
REMARK minimizedAffinity -3.96549463
REMARK minimizedRMSD -1
REMARK  1 active torsions:
REMARK  status: ('A' for Active; 'I' for Inactive)
REMARK    1  A    between atoms: C1_2  and  C2_3 
ROOT
ATOM      1  C2  UNL d   1       0.320   0.150  -0.947  0.00  0.00    -0.073 A 
ATOM      2  C3  UNL d   1      -0.958   0.675  -1.168  0.00  0.00    -0.002 A 
ATOM      3  C4  UNL d   1      -1.802   0.953  -0.091  0.00  0.00     0.004 A 
ATOM      4  C5  UNL d   1      -1.374   0.714   1.215  0.00  0.00    -0.004 A 
ATOM      5  C6  UNL d   1      -0.096   0.201   1.456  0.00  0.00    -0.075 A 
ATOM      6  C7  UNL d   1       0.378  -0.063   2.855  0.00  0.00     0.076 C 
ATOM      7  C8  UNL d   1       0.744  -0.078   0.370  0.00  0.00     0.001 A 
ENDROOT
BRANCH   1   8
ATOM      8  C1  UNL d   1       1.236  -0.145  -2.107  0.00  0.00     0.053 C 
ATOM      9  C   UNL d   1       0.776  -1.356  -2.903  0.00  0.00     0.018 C 
ENDBRANCH   1   8
TORSDOF 1
ENDMDL
