MODEL 1
REMARK minimizedAffinity -5.13517141
REMARK minimizedRMSD -1
REMARK  1 active torsions:
REMARK  status: ('A' for Active; 'I' for Inactive)
REMARK    1  A    between atoms: C1_2  and  C2_3 
ROOT
ATOM      1  C2  UNL d   1       0.363   0.216  -0.407  0.00  0.00    -0.073 A 
ATOM      2  C3  UNL d   1      -0.682   0.108   0.518  0.00  0.00    -0.002 A 
ATOM      3  C4  UNL d   1      -0.426   0.210   1.886  0.00  0.00     0.004 A 
ATOM      4  C5  UNL d   1       0.874   0.428   2.343  0.00  0.00    -0.004 A 
ATOM      5  C6  UNL d   1       1.930   0.551   1.434  0.00  0.00    -0.075 A 
ATOM      6  C7  UNL d   1       3.334   0.783   1.909  0.00  0.00     0.076 C 
ATOM      7  C8  UNL d   1       1.665   0.444   0.062  0.00  0.00     0.001 A 
ENDROOT
BRANCH   1   8
ATOM      8  C1  UNL d   1       0.091   0.112  -1.885  0.00  0.00     0.053 C 
ATOM      9  C   UNL d   1       1.319   0.449  -2.716  0.00  0.00     0.018 C 
ENDBRANCH   1   8
TORSDOF 1
ENDMDL
