MODEL 1
REMARK minimizedAffinity -1.43769491
REMARK minimizedRMSD -1
REMARK  1 active torsions:
REMARK  status: ('A' for Active; 'I' for Inactive)
REMARK    1  A    between atoms: C1_2  and  C2_3 
ROOT
ATOM      1  C2  UNL d   1       0.117  -0.079  -1.557  0.00  0.00    -0.073 A 
ATOM      2  C3  UNL d   1      -0.797   0.953  -1.800  0.00  0.00    -0.002 A 
ATOM      3  C4  UNL d   1      -1.749   1.292  -0.838  0.00  0.00     0.004 A 
ATOM      4  C5  UNL d   1      -1.794   0.610   0.377  0.00  0.00    -0.004 A 
ATOM      5  C6  UNL d   1      -0.882  -0.417   0.644  0.00  0.00    -0.075 A 
ATOM      6  C7  UNL d   1      -0.918  -1.162   1.946  0.00  0.00     0.076 C 
ATOM      7  C8  UNL d   1       0.070  -0.754  -0.328  0.00  0.00     0.001 A 
ENDROOT
BRANCH   1   8
ATOM      8  C1  UNL d   1       1.151  -0.445  -2.589  0.00  0.00     0.053 C 
ATOM      9  C   UNL d   1       0.642  -1.503  -3.556  0.00  0.00     0.018 C 
ENDBRANCH   1   8
TORSDOF 1
ENDMDL
