MODEL 1
REMARK minimizedAffinity -1.92397618
REMARK minimizedRMSD -1
REMARK  1 active torsions:
REMARK  status: ('A' for Active; 'I' for Inactive)
REMARK    1  A    between atoms: C1_2  and  C2_3 
ROOT
ATOM      1  C2  UNL d   1      -1.013   1.228   3.298  0.00  0.00    -0.073 A 
ATOM      2  C3  UNL d   1      -1.473   0.001   3.788  0.00  0.00    -0.002 A 
ATOM      3  C4  UNL d   1      -1.612  -1.093   2.933  0.00  0.00     0.004 A 
ATOM      4  C5  UNL d   1      -1.287  -0.973   1.582  0.00  0.00    -0.004 A 
ATOM      5  C6  UNL d   1      -0.815   0.241   1.075  0.00  0.00    -0.075 A 
ATOM      6  C7  UNL d   1      -0.463   0.387  -0.376  0.00  0.00     0.076 C 
ATOM      7  C8  UNL d   1      -0.680   1.336   1.940  0.00  0.00     0.001 A 
ENDROOT
BRANCH   1   8
ATOM      8  C1  UNL d   1      -0.855   2.410   4.219  0.00  0.00     0.053 C 
ATOM      9  C   UNL d   1       0.601   2.823   4.371  0.00  0.00     0.018 C 
ENDBRANCH   1   8
TORSDOF 1
ENDMDL
