MODEL 1
REMARK minimizedAffinity -3.35973644
REMARK minimizedRMSD -1
REMARK  1 active torsions:
REMARK  status: ('A' for Active; 'I' for Inactive)
REMARK    1  A    between atoms: C1_2  and  C2_3 
ROOT
ATOM      1  C2  UNL d   1      -0.433   0.220   2.727  0.00  0.00    -0.073 A 
ATOM      2  C3  UNL d   1      -1.380  -0.377   3.565  0.00  0.00    -0.002 A 
ATOM      3  C4  UNL d   1      -2.429  -1.124   3.025  0.00  0.00     0.004 A 
ATOM      4  C5  UNL d   1      -2.536  -1.286   1.644  0.00  0.00    -0.004 A 
ATOM      5  C6  UNL d   1      -1.592  -0.706   0.790  0.00  0.00    -0.075 A 
ATOM      6  C7  UNL d   1      -1.694  -0.869  -0.698  0.00  0.00     0.076 C 
ATOM      7  C8  UNL d   1      -0.544   0.044   1.340  0.00  0.00     0.001 A 
ENDROOT
BRANCH   1   8
ATOM      8  C1  UNL d   1       0.705   1.022   3.306  0.00  0.00     0.053 C 
ATOM      9  C   UNL d   1       1.911   1.051   2.380  0.00  0.00     0.018 C 
ENDBRANCH   1   8
TORSDOF 1
ENDMDL
