MODEL 1
REMARK minimizedAffinity -5.57931185
REMARK minimizedRMSD -1
REMARK  1 active torsions:
REMARK  status: ('A' for Active; 'I' for Inactive)
REMARK    1  A    between atoms: C1_2  and  C2_3 
ROOT
ATOM      1  C2  UNL d   1      -0.820   0.418   0.403  0.00  0.00    -0.073 A 
ATOM      2  C3  UNL d   1      -1.477  -0.023   1.557  0.00  0.00    -0.002 A 
ATOM      3  C4  UNL d   1      -0.784  -0.134   2.763  0.00  0.00     0.004 A 
ATOM      4  C5  UNL d   1       0.568   0.201   2.829  0.00  0.00    -0.004 A 
ATOM      5  C6  UNL d   1       1.239   0.656   1.689  0.00  0.00    -0.075 A 
ATOM      6  C7  UNL d   1       2.694   1.018   1.743  0.00  0.00     0.076 C 
ATOM      7  C8  UNL d   1       0.537   0.762   0.481  0.00  0.00     0.001 A 
ENDROOT
BRANCH   1   8
ATOM      8  C1  UNL d   1      -1.566   0.545  -0.901  0.00  0.00     0.053 C 
ATOM      9  C   UNL d   1      -3.071   0.600  -0.694  0.00  0.00     0.018 C 
ENDBRANCH   1   8
TORSDOF 1
ENDMDL
