MODEL 1
REMARK minimizedAffinity -5.41078949
REMARK minimizedRMSD -1
REMARK  0 active torsions:
REMARK  status: ('A' for Active; 'I' for Inactive)
ROOT
ATOM      1  C2' OXE d   1      -0.749  -1.374   2.130  0.00  0.00     0.078 C 
ATOM      2  C1' OXE d   1       0.346  -0.944  -0.418  0.00  0.00     0.078 C 
ATOM      3  C1  OXE d   1      -0.475   0.165   0.191  0.00  0.00    -0.078 A 
ATOM      4  C2  OXE d   1      -1.045  -0.072   1.419  0.00  0.00    -0.078 A 
ATOM      5  C3  OXE d   1      -1.766   0.938   2.050  0.00  0.00     0.003 A 
ATOM      6  C4  OXE d   1      -2.044   2.136   1.380  0.00  0.00    -0.002 A 
ATOM      7  C5  OXE d   1      -1.505   2.382   0.113  0.00  0.00    -0.002 A 
ATOM      8  C6  OXE d   1      -0.685   1.426  -0.476  0.00  0.00     0.003 A 
ENDROOT
TORSDOF 0
ENDMDL
