MODEL 1
REMARK minimizedAffinity -5.96633863
REMARK minimizedRMSD -1
REMARK  0 active torsions:
REMARK  status: ('A' for Active; 'I' for Inactive)
ROOT
ATOM      1  C2' OXE d   1      -0.941  -0.912   1.879  0.00  0.00     0.078 C 
ATOM      2  C1' OXE d   1       0.225  -0.690  -0.665  0.00  0.00     0.078 C 
ATOM      3  C1  OXE d   1      -0.313   0.566  -0.025  0.00  0.00    -0.078 A 
ATOM      4  C2  OXE d   1      -0.924   0.440   1.199  0.00  0.00    -0.078 A 
ATOM      5  C3  OXE d   1      -1.389   1.575   1.858  0.00  0.00     0.003 A 
ATOM      6  C4  OXE d   1      -1.378   2.820   1.217  0.00  0.00    -0.002 A 
ATOM      7  C5  OXE d   1      -0.796   2.963  -0.047  0.00  0.00    -0.002 A 
ATOM      8  C6  OXE d   1      -0.222   1.857  -0.662  0.00  0.00     0.003 A 
ENDROOT
TORSDOF 0
ENDMDL
