MODEL 1
REMARK minimizedAffinity -1.83014297
REMARK minimizedRMSD -1
REMARK  0 active torsions:
REMARK  status: ('A' for Active; 'I' for Inactive)
ROOT
ATOM      1  C2' OXE d   1      -0.228  -1.434   2.420  0.00  0.00     0.078 C 
ATOM      2  C1' OXE d   1      -1.402   1.045   1.825  0.00  0.00     0.078 C 
ATOM      3  C1  OXE d   1      -0.420   0.475   0.832  0.00  0.00    -0.078 A 
ATOM      4  C2  OXE d   1       0.184  -0.716   1.154  0.00  0.00    -0.078 A 
ATOM      5  C3  OXE d   1       1.057  -1.312   0.248  0.00  0.00     0.003 A 
ATOM      6  C4  OXE d   1       1.440  -0.637  -0.917  0.00  0.00    -0.002 A 
ATOM      7  C5  OXE d   1       0.866   0.596  -1.245  0.00  0.00    -0.002 A 
ATOM      8  C6  OXE d   1      -0.096   1.145  -0.403  0.00  0.00     0.003 A 
ENDROOT
TORSDOF 0
ENDMDL
