MODEL 1
REMARK minimizedAffinity -4.41720581
REMARK minimizedRMSD -1
REMARK  0 active torsions:
REMARK  status: ('A' for Active; 'I' for Inactive)
ROOT
ATOM      1  C2' OXE d   1       0.360  -0.855   2.094  0.00  0.00     0.078 C 
ATOM      2  C1' OXE d   1       1.133  -0.184  -0.519  0.00  0.00     0.078 C 
ATOM      3  C1  OXE d   1      -0.088   0.495   0.049  0.00  0.00    -0.078 A 
ATOM      4  C2  OXE d   1      -0.486   0.126   1.312  0.00  0.00    -0.078 A 
ATOM      5  C3  OXE d   1      -1.573   0.761   1.905  0.00  0.00     0.003 A 
ATOM      6  C4  OXE d   1      -2.356   1.660   1.170  0.00  0.00    -0.002 A 
ATOM      7  C5  OXE d   1      -1.991   2.020  -0.131  0.00  0.00    -0.002 A 
ATOM      8  C6  OXE d   1      -0.838   1.480  -0.690  0.00  0.00     0.003 A 
ENDROOT
TORSDOF 0
ENDMDL
