MODEL 1
REMARK minimizedAffinity -5.28449869
REMARK minimizedRMSD -1
REMARK  0 active torsions:
REMARK  status: ('A' for Active; 'I' for Inactive)
ROOT
ATOM      1  C2' OXE d   1       1.100  -0.301  -0.561  0.00  0.00     0.078 C 
ATOM      2  C1' OXE d   1       0.024   2.218  -1.173  0.00  0.00     0.078 C 
ATOM      3  C1  OXE d   1      -0.606   1.439  -0.045  0.00  0.00    -0.078 A 
ATOM      4  C2  OXE d   1      -0.103   0.187   0.216  0.00  0.00    -0.078 A 
ATOM      5  C3  OXE d   1      -0.612  -0.551   1.281  0.00  0.00     0.003 A 
ATOM      6  C4  OXE d   1      -1.731  -0.096   1.989  0.00  0.00    -0.002 A 
ATOM      7  C5  OXE d   1      -2.283   1.159   1.713  0.00  0.00    -0.002 A 
ATOM      8  C6  OXE d   1      -1.708   1.955   0.729  0.00  0.00     0.003 A 
ENDROOT
TORSDOF 0
ENDMDL
