MODEL 1
REMARK minimizedAffinity -2.33414841
REMARK minimizedRMSD -1
REMARK  0 active torsions:
REMARK  status: ('A' for Active; 'I' for Inactive)
ROOT
ATOM      1  C2' OXE d   1       0.060   2.281  -1.104  0.00  0.00     0.078 C 
ATOM      2  C1' OXE d   1      -1.375   1.295   1.098  0.00  0.00     0.078 C 
ATOM      3  C1  OXE d   1      -0.513   0.326   0.329  0.00  0.00    -0.078 A 
ATOM      4  C2  OXE d   1       0.149   0.807  -0.775  0.00  0.00    -0.078 A 
ATOM      5  C3  OXE d   1       1.001  -0.032  -1.488  0.00  0.00     0.003 A 
ATOM      6  C4  OXE d   1       1.070  -1.397  -1.183  0.00  0.00    -0.002 A 
ATOM      7  C5  OXE d   1       0.373  -1.916  -0.087  0.00  0.00    -0.002 A 
ATOM      8  C6  OXE d   1      -0.388  -1.061   0.703  0.00  0.00     0.003 A 
ENDROOT
TORSDOF 0
ENDMDL
