MODEL 1
REMARK minimizedAffinity -4.2171011
REMARK minimizedRMSD -1
REMARK  0 active torsions:
REMARK  status: ('A' for Active; 'I' for Inactive)
ROOT
ATOM      1  C2' OXE d   1      -1.915   2.411   1.261  0.00  0.00     0.078 C 
ATOM      2  C1' OXE d   1      -0.683   2.468  -1.261  0.00  0.00     0.078 C 
ATOM      3  C1  OXE d   1      -0.414   1.278  -0.374  0.00  0.00    -0.078 A 
ATOM      4  C2  OXE d   1      -0.984   1.281   0.877  0.00  0.00    -0.078 A 
ATOM      5  C3  OXE d   1      -0.814   0.182   1.714  0.00  0.00     0.003 A 
ATOM      6  C4  OXE d   1       0.057  -0.854   1.356  0.00  0.00    -0.002 A 
ATOM      7  C5  OXE d   1       0.679  -0.857   0.103  0.00  0.00    -0.002 A 
ATOM      8  C6  OXE d   1       0.421   0.179  -0.789  0.00  0.00     0.003 A 
ENDROOT
TORSDOF 0
ENDMDL
