MODEL 1
REMARK minimizedAffinity -4.74350214
REMARK minimizedRMSD -1
REMARK  0 active torsions:
REMARK  status: ('A' for Active; 'I' for Inactive)
ROOT
ATOM      1  C2' OXE d   1      -2.143   2.123   0.895  0.00  0.00     0.078 C 
ATOM      2  C1' OXE d   1      -0.822   2.112  -1.582  0.00  0.00     0.078 C 
ATOM      3  C1  OXE d   1      -0.431   1.063  -0.571  0.00  0.00    -0.078 A 
ATOM      4  C2  OXE d   1      -1.049   1.105   0.656  0.00  0.00    -0.078 A 
ATOM      5  C3  OXE d   1      -0.765   0.128   1.605  0.00  0.00     0.003 A 
ATOM      6  C4  OXE d   1       0.256  -0.804   1.379  0.00  0.00    -0.002 A 
ATOM      7  C5  OXE d   1       0.926  -0.839   0.152  0.00  0.00    -0.002 A 
ATOM      8  C6  OXE d   1       0.566   0.059  -0.847  0.00  0.00     0.003 A 
ENDROOT
TORSDOF 0
ENDMDL
