MODEL 1
REMARK minimizedAffinity -3.29496813
REMARK minimizedRMSD -1
REMARK  0 active torsions:
REMARK  status: ('A' for Active; 'I' for Inactive)
ROOT
ATOM      1  C2' OXE d   1      -1.987   2.101   1.106  0.00  0.00     0.078 C 
ATOM      2  C1' OXE d   1      -0.613   2.506  -1.308  0.00  0.00     0.078 C 
ATOM      3  C1  OXE d   1      -0.357   1.222  -0.560  0.00  0.00    -0.078 A 
ATOM      4  C2  OXE d   1      -0.998   1.053   0.644  0.00  0.00    -0.078 A 
ATOM      5  C3  OXE d   1      -0.840  -0.137   1.348  0.00  0.00     0.003 A 
ATOM      6  C4  OXE d   1       0.084  -1.097   0.919  0.00  0.00    -0.002 A 
ATOM      7  C5  OXE d   1       0.778  -0.927  -0.284  0.00  0.00    -0.002 A 
ATOM      8  C6  OXE d   1       0.537   0.205  -1.055  0.00  0.00     0.003 A 
ENDROOT
TORSDOF 0
ENDMDL
