MODEL 1
REMARK minimizedAffinity -4.53490257
REMARK minimizedRMSD -1
REMARK  0 active torsions:
REMARK  status: ('A' for Active; 'I' for Inactive)
ROOT
ATOM      1  C2' OXE d   1      -0.595  -0.823   2.179  0.00  0.00     0.078 C 
ATOM      2  C1' OXE d   1      -1.726   1.710   1.747  0.00  0.00     0.078 C 
ATOM      3  C1  OXE d   1      -0.817   1.154   0.679  0.00  0.00    -0.078 A 
ATOM      4  C2  OXE d   1      -0.231  -0.066   0.920  0.00  0.00    -0.078 A 
ATOM      5  C3  OXE d   1       0.572  -0.649  -0.056  0.00  0.00     0.003 A 
ATOM      6  C4  OXE d   1       0.911   0.062  -1.214  0.00  0.00    -0.002 A 
ATOM      7  C5  OXE d   1       0.356   1.323  -1.460  0.00  0.00    -0.002 A 
ATOM      8  C6  OXE d   1      -0.541   1.863  -0.546  0.00  0.00     0.003 A 
ENDROOT
TORSDOF 0
ENDMDL
