MODEL 1
REMARK minimizedAffinity -6.35075617
REMARK minimizedRMSD -1
REMARK  0 active torsions:
REMARK  status: ('A' for Active; 'I' for Inactive)
ROOT
ATOM      1  C2' OXE d   1      -0.107  -0.909   1.757  0.00  0.00     0.078 C 
ATOM      2  C1' OXE d   1       0.544  -0.423  -0.930  0.00  0.00     0.078 C 
ATOM      3  C1  OXE d   1      -0.177   0.664  -0.174  0.00  0.00    -0.078 A 
ATOM      4  C2  OXE d   1      -0.533   0.400   1.127  0.00  0.00    -0.078 A 
ATOM      5  C3  OXE d   1      -1.152   1.388   1.887  0.00  0.00     0.003 A 
ATOM      6  C4  OXE d   1      -1.552   2.592   1.294  0.00  0.00    -0.002 A 
ATOM      7  C5  OXE d   1      -1.234   2.866  -0.040  0.00  0.00    -0.002 A 
ATOM      8  C6  OXE d   1      -0.511   1.932  -0.774  0.00  0.00     0.003 A 
ENDROOT
TORSDOF 0
ENDMDL
