MODEL 1
REMARK minimizedAffinity -2.59459543
REMARK minimizedRMSD -1
REMARK  0 active torsions:
REMARK  status: ('A' for Active; 'I' for Inactive)
ROOT
ATOM      1  C2' OXE d   1      -0.540   0.335  -1.683  0.00  0.00     0.078 C 
ATOM      2  C1' OXE d   1      -2.671   1.413  -0.209  0.00  0.00     0.078 C 
ATOM      3  C1  OXE d   1      -1.452   0.954   0.551  0.00  0.00    -0.078 A 
ATOM      4  C2  OXE d   1      -0.433   0.385  -0.174  0.00  0.00    -0.078 A 
ATOM      5  C3  OXE d   1       0.737  -0.005   0.471  0.00  0.00     0.003 A 
ATOM      6  C4  OXE d   1       0.824   0.035   1.868  0.00  0.00    -0.002 A 
ATOM      7  C5  OXE d   1      -0.219   0.575   2.629  0.00  0.00    -0.002 A 
ATOM      8  C6  OXE d   1      -1.344   1.077   1.984  0.00  0.00     0.003 A 
ENDROOT
TORSDOF 0
ENDMDL
