MODEL 1
REMARK minimizedAffinity -6.30565071
REMARK minimizedRMSD -1
REMARK  0 active torsions:
REMARK  status: ('A' for Active; 'I' for Inactive)
ROOT
ATOM      1  C2' OXE d   1      -0.691  -0.521   1.844  0.00  0.00     0.078 C 
ATOM      2  C1' OXE d   1       0.890  -0.360  -0.471  0.00  0.00     0.078 C 
ATOM      3  C1  OXE d   1       0.214   0.900   0.009  0.00  0.00    -0.078 A 
ATOM      4  C2  OXE d   1      -0.595   0.802   1.115  0.00  0.00    -0.078 A 
ATOM      5  C3  OXE d   1      -1.199   1.946   1.631  0.00  0.00     0.003 A 
ATOM      6  C4  OXE d   1      -1.114   3.163   0.945  0.00  0.00    -0.002 A 
ATOM      7  C5  OXE d   1      -0.327   3.276  -0.206  0.00  0.00    -0.002 A 
ATOM      8  C6  OXE d   1       0.376   2.167  -0.663  0.00  0.00     0.003 A 
ENDROOT
TORSDOF 0
ENDMDL
