MODEL 1
REMARK minimizedAffinity -6.57012653
REMARK minimizedRMSD -1
REMARK  0 active torsions:
REMARK  status: ('A' for Active; 'I' for Inactive)
ROOT
ATOM      1  C2' OXE d   1      -0.457  -0.655   1.730  0.00  0.00     0.078 C 
ATOM      2  C1' OXE d   1       0.801  -0.365  -0.763  0.00  0.00     0.078 C 
ATOM      3  C1  OXE d   1       0.051   0.822  -0.210  0.00  0.00    -0.078 A 
ATOM      4  C2  OXE d   1      -0.601   0.656   0.988  0.00  0.00    -0.078 A 
ATOM      5  C3  OXE d   1      -1.261   1.736   1.568  0.00  0.00     0.003 A 
ATOM      6  C4  OXE d   1      -1.397   2.942   0.871  0.00  0.00    -0.002 A 
ATOM      7  C5  OXE d   1      -0.775   3.119  -0.369  0.00  0.00    -0.002 A 
ATOM      8  C6  OXE d   1      -0.013   2.085  -0.903  0.00  0.00     0.003 A 
ENDROOT
TORSDOF 0
ENDMDL
