MODEL 1
REMARK minimizedAffinity -4.49509239
REMARK minimizedRMSD -1
REMARK  0 active torsions:
REMARK  status: ('A' for Active; 'I' for Inactive)
ROOT
ATOM      1  C2' OXE d   1       1.023  -0.513  -0.390  0.00  0.00     0.078 C 
ATOM      2  C1' OXE d   1       0.165   2.055  -1.132  0.00  0.00     0.078 C 
ATOM      3  C1  OXE d   1      -0.587   1.353  -0.029  0.00  0.00    -0.078 A 
ATOM      4  C2  OXE d   1      -0.190   0.078   0.295  0.00  0.00    -0.078 A 
ATOM      5  C3  OXE d   1      -0.815  -0.594   1.342  0.00  0.00     0.003 A 
ATOM      6  C4  OXE d   1      -1.943  -0.044   1.964  0.00  0.00    -0.002 A 
ATOM      7  C5  OXE d   1      -2.389   1.237   1.621  0.00  0.00    -0.002 A 
ATOM      8  C6  OXE d   1      -1.698   1.964   0.658  0.00  0.00     0.003 A 
ENDROOT
TORSDOF 0
ENDMDL
