MODEL 1
REMARK minimizedAffinity -4.67831326
REMARK minimizedRMSD -1
REMARK  0 active torsions:
REMARK  status: ('A' for Active; 'I' for Inactive)
ROOT
ATOM      1  C2' OXE d   1      -0.416   2.411  -1.099  0.00  0.00     0.078 C 
ATOM      2  C1' OXE d   1      -1.866   2.005   1.271  0.00  0.00     0.078 C 
ATOM      3  C1  OXE d   1      -0.832   0.974   0.893  0.00  0.00    -0.078 A 
ATOM      4  C2  OXE d   1      -0.160   1.156  -0.292  0.00  0.00    -0.078 A 
ATOM      5  C3  OXE d   1       0.842   0.264  -0.661  0.00  0.00     0.003 A 
ATOM      6  C4  OXE d   1       1.065  -0.900   0.086  0.00  0.00    -0.002 A 
ATOM      7  C5  OXE d   1       0.364  -1.125   1.275  0.00  0.00    -0.002 A 
ATOM      8  C6  OXE d   1      -0.556  -0.179   1.714  0.00  0.00     0.003 A 
ENDROOT
TORSDOF 0
ENDMDL
