MODEL 1
REMARK minimizedAffinity -3.11573029
REMARK minimizedRMSD -1
REMARK  0 active torsions:
REMARK  status: ('A' for Active; 'I' for Inactive)
ROOT
ATOM      1  C2' OXE d   1       0.299  -1.156   2.288  0.00  0.00     0.078 C 
ATOM      2  C1' OXE d   1       0.754  -0.656  -0.437  0.00  0.00     0.078 C 
ATOM      3  C1  OXE d   1      -0.079   0.340   0.332  0.00  0.00    -0.078 A 
ATOM      4  C2  OXE d   1      -0.335   0.063   1.653  0.00  0.00    -0.078 A 
ATOM      5  C3  OXE d   1      -1.052   0.975   2.422  0.00  0.00     0.003 A 
ATOM      6  C4  OXE d   1      -1.643   2.095   1.825  0.00  0.00    -0.002 A 
ATOM      7  C5  OXE d   1      -1.428   2.375   0.472  0.00  0.00    -0.002 A 
ATOM      8  C6  OXE d   1      -0.614   1.532  -0.277  0.00  0.00     0.003 A 
ENDROOT
TORSDOF 0
ENDMDL
