MODEL 1
REMARK minimizedAffinity -4.37726259
REMARK minimizedRMSD -1
REMARK  0 active torsions:
REMARK  status: ('A' for Active; 'I' for Inactive)
ROOT
ATOM      1  C2' OXE d   1       0.001  -0.255  -1.031  0.00  0.00     0.078 C 
ATOM      2  C1' OXE d   1       0.151  -0.686   1.739  0.00  0.00     0.078 C 
ATOM      3  C1  OXE d   1      -0.636   0.506   1.254  0.00  0.00    -0.078 A 
ATOM      4  C2  OXE d   1      -0.665   0.736  -0.101  0.00  0.00    -0.078 A 
ATOM      5  C3  OXE d   1      -1.421   1.791  -0.605  0.00  0.00     0.003 A 
ATOM      6  C4  OXE d   1      -2.025   2.708   0.263  0.00  0.00    -0.002 A 
ATOM      7  C5  OXE d   1      -1.974   2.515   1.648  0.00  0.00    -0.002 A 
ATOM      8  C6  OXE d   1      -1.321   1.398   2.157  0.00  0.00     0.003 A 
ENDROOT
TORSDOF 0
ENDMDL
