MODEL 1
REMARK minimizedAffinity -5.52804852
REMARK minimizedRMSD -1
REMARK  0 active torsions:
REMARK  status: ('A' for Active; 'I' for Inactive)
ROOT
ATOM      1  C2' OXE d   1      -1.141  -0.157   1.960  0.00  0.00     0.078 C 
ATOM      2  C1' OXE d   1       0.195  -0.388  -0.498  0.00  0.00     0.078 C 
ATOM      3  C1  OXE d   1      -0.268   0.984  -0.075  0.00  0.00    -0.078 A 
ATOM      4  C2  OXE d   1      -0.962   1.080   1.108  0.00  0.00    -0.078 A 
ATOM      5  C3  OXE d   1      -1.363   2.330   1.571  0.00  0.00     0.003 A 
ATOM      6  C4  OXE d   1      -1.202   3.468   0.772  0.00  0.00    -0.002 A 
ATOM      7  C5  OXE d   1      -0.533   3.385  -0.454  0.00  0.00    -0.002 A 
ATOM      8  C6  OXE d   1      -0.023   2.161  -0.871  0.00  0.00     0.003 A 
ENDROOT
TORSDOF 0
ENDMDL
