MODEL 1
REMARK minimizedAffinity -0.280988216
REMARK minimizedRMSD -1
REMARK  0 active torsions:
REMARK  status: ('A' for Active; 'I' for Inactive)
ROOT
ATOM      1  C2' OXE d   1       3.715  -3.339  -4.079  0.00  0.00     0.078 C 
ATOM      2  C1' OXE d   1       2.190  -1.977  -2.156  0.00  0.00     0.078 C 
ATOM      3  C1  OXE d   1       3.075  -3.103  -1.683  0.00  0.00    -0.078 A 
ATOM      4  C2  OXE d   1       3.783  -3.794  -2.637  0.00  0.00    -0.078 A 
ATOM      5  C3  OXE d   1       4.657  -4.806  -2.249  0.00  0.00     0.003 A 
ATOM      6  C4  OXE d   1       4.705  -5.227  -0.915  0.00  0.00    -0.002 A 
ATOM      7  C5  OXE d   1       3.963  -4.563   0.067  0.00  0.00    -0.002 A 
ATOM      8  C6  OXE d   1       3.177  -3.473  -0.293  0.00  0.00     0.003 A 
ENDROOT
TORSDOF 0
ENDMDL
