MODEL 1
REMARK minimizedAffinity -2.91161895
REMARK minimizedRMSD -1
REMARK  0 active torsions:
REMARK  status: ('A' for Active; 'I' for Inactive)
ROOT
ATOM      1  C2' OXE d   1       4.875  -4.875  -4.140  0.00  0.00     0.078 C 
ATOM      2  C1' OXE d   1       2.787  -3.000  -4.068  0.00  0.00     0.078 C 
ATOM      3  C1  OXE d   1       3.345  -3.483  -2.752  0.00  0.00    -0.078 A 
ATOM      4  C2  OXE d   1       4.335  -4.435  -2.797  0.00  0.00    -0.078 A 
ATOM      5  C3  OXE d   1       4.922  -4.875  -1.614  0.00  0.00     0.003 A 
ATOM      6  C4  OXE d   1       4.409  -4.471  -0.375  0.00  0.00    -0.002 A 
ATOM      7  C5  OXE d   1       3.375  -3.532  -0.307  0.00  0.00    -0.002 A 
ATOM      8  C6  OXE d   1       2.862  -2.997  -1.483  0.00  0.00     0.003 A 
ENDROOT
TORSDOF 0
ENDMDL
