MODEL 1
REMARK minimizedAffinity -2.25003004
REMARK minimizedRMSD -1
REMARK  0 active torsions:
REMARK  status: ('A' for Active; 'I' for Inactive)
ROOT
ATOM      1  C2' OXE d   1       4.072  -4.730  -3.637  0.00  0.00     0.078 C 
ATOM      2  C1' OXE d   1       4.805  -4.783  -0.928  0.00  0.00     0.078 C 
ATOM      3  C1  OXE d   1       3.753  -3.790  -1.353  0.00  0.00    -0.078 A 
ATOM      4  C2  OXE d   1       3.434  -3.738  -2.688  0.00  0.00    -0.078 A 
ATOM      5  C3  OXE d   1       2.431  -2.878  -3.125  0.00  0.00     0.003 A 
ATOM      6  C4  OXE d   1       1.853  -1.957  -2.243  0.00  0.00    -0.002 A 
ATOM      7  C5  OXE d   1       2.192  -1.965  -0.886  0.00  0.00    -0.002 A 
ATOM      8  C6  OXE d   1       3.107  -2.902  -0.418  0.00  0.00     0.003 A 
ENDROOT
TORSDOF 0
ENDMDL
