MODEL 1
REMARK minimizedAffinity -0.194913432
REMARK minimizedRMSD -1
REMARK  0 active torsions:
REMARK  status: ('A' for Active; 'I' for Inactive)
ROOT
ATOM      1  C2' OXE d   1       4.563  -4.677   0.030  0.00  0.00     0.078 C 
ATOM      2  C1' OXE d   1       2.499  -2.774   0.005  0.00  0.00     0.078 C 
ATOM      3  C1  OXE d   1       2.892  -3.403  -1.308  0.00  0.00    -0.078 A 
ATOM      4  C2  OXE d   1       3.935  -4.298  -1.294  0.00  0.00    -0.078 A 
ATOM      5  C3  OXE d   1       4.301  -4.948  -2.469  0.00  0.00     0.003 A 
ATOM      6  C4  OXE d   1       3.722  -4.585  -3.690  0.00  0.00    -0.002 A 
ATOM      7  C5  OXE d   1       2.686  -3.646  -3.733  0.00  0.00    -0.002 A 
ATOM      8  C6  OXE d   1       2.231  -3.078  -2.548  0.00  0.00     0.003 A 
ENDROOT
TORSDOF 0
ENDMDL
