MODEL 1
REMARK minimizedAffinity -4.41614866
REMARK minimizedRMSD -1
REMARK  0 active torsions:
REMARK  status: ('A' for Active; 'I' for Inactive)
ROOT
ATOM      1  C2' OXE d   1       3.676  -4.901  -3.645  0.00  0.00     0.078 C 
ATOM      2  C1' OXE d   1       4.379  -5.252  -0.949  0.00  0.00     0.078 C 
ATOM      3  C1  OXE d   1       3.718  -3.954  -1.341  0.00  0.00    -0.078 A 
ATOM      4  C2  OXE d   1       3.420  -3.772  -2.670  0.00  0.00    -0.078 A 
ATOM      5  C3  OXE d   1       2.760  -2.616  -3.076  0.00  0.00     0.003 A 
ATOM      6  C4  OXE d   1       2.536  -1.572  -2.170  0.00  0.00    -0.002 A 
ATOM      7  C5  OXE d   1       2.867  -1.721  -0.820  0.00  0.00    -0.002 A 
ATOM      8  C6  OXE d   1       3.419  -2.920  -0.381  0.00  0.00     0.003 A 
ENDROOT
TORSDOF 0
ENDMDL
