MODEL 1
REMARK minimizedAffinity 10.0954819
REMARK minimizedRMSD -1
REMARK  0 active torsions:
REMARK  status: ('A' for Active; 'I' for Inactive)
ROOT
ATOM      1  C2' OXE d   1       4.694  -4.927  -0.210  0.00  0.00     0.078 C 
ATOM      2  C1' OXE d   1       2.584  -3.115   0.170  0.00  0.00     0.078 C 
ATOM      3  C1  OXE d   1       2.693  -3.797  -1.171  0.00  0.00    -0.078 A 
ATOM      4  C2  OXE d   1       3.756  -4.647  -1.364  0.00  0.00    -0.078 A 
ATOM      5  C3  OXE d   1       3.873  -5.343  -2.563  0.00  0.00     0.003 A 
ATOM      6  C4  OXE d   1       3.007  -5.071  -3.629  0.00  0.00    -0.002 A 
ATOM      7  C5  OXE d   1       1.941  -4.179  -3.467  0.00  0.00    -0.002 A 
ATOM      8  C6  OXE d   1       1.745  -3.568  -2.234  0.00  0.00     0.003 A 
ENDROOT
TORSDOF 0
ENDMDL
