MODEL 1
REMARK minimizedAffinity 2.16755056
REMARK minimizedRMSD -1
REMARK  0 active torsions:
REMARK  status: ('A' for Active; 'I' for Inactive)
ROOT
ATOM      1  C2' OXE d   1       2.213  -4.160  -3.828  0.00  0.00     0.078 C 
ATOM      2  C1' OXE d   1       5.014  -4.351  -3.815  0.00  0.00     0.078 C 
ATOM      3  C1  OXE d   1       4.301  -4.373  -2.486  0.00  0.00    -0.078 A 
ATOM      4  C2  OXE d   1       2.934  -4.232  -2.500  0.00  0.00    -0.078 A 
ATOM      5  C3  OXE d   1       2.222  -4.300  -1.305  0.00  0.00     0.003 A 
ATOM      6  C4  OXE d   1       2.898  -4.357  -0.080  0.00  0.00    -0.002 A 
ATOM      7  C5  OXE d   1       4.292  -4.461  -0.042  0.00  0.00    -0.002 A 
ATOM      8  C6  OXE d   1       5.004  -4.513  -1.235  0.00  0.00     0.003 A 
ENDROOT
TORSDOF 0
ENDMDL
