MODEL 1
REMARK minimizedAffinity 2.89993906
REMARK minimizedRMSD -1
REMARK  0 active torsions:
REMARK  status: ('A' for Active; 'I' for Inactive)
ROOT
ATOM      1  C2' OXE d   1       2.742  -0.621  -1.932  0.00  0.00     0.078 C 
ATOM      2  C1' OXE d   1       4.746  -1.406  -0.129  0.00  0.00     0.078 C 
ATOM      3  C1  OXE d   1       3.917  -2.488  -0.775  0.00  0.00    -0.078 A 
ATOM      4  C2  OXE d   1       2.908  -2.093  -1.620  0.00  0.00    -0.078 A 
ATOM      5  C3  OXE d   1       2.150  -3.053  -2.284  0.00  0.00     0.003 A 
ATOM      6  C4  OXE d   1       2.303  -4.411  -1.982  0.00  0.00    -0.002 A 
ATOM      7  C5  OXE d   1       3.298  -4.833  -1.094  0.00  0.00    -0.002 A 
ATOM      8  C6  OXE d   1       4.140  -3.889  -0.515  0.00  0.00     0.003 A 
ENDROOT
TORSDOF 0
ENDMDL
