MODEL 1
REMARK minimizedAffinity 5.86919689
REMARK minimizedRMSD -1
REMARK  0 active torsions:
REMARK  status: ('A' for Active; 'I' for Inactive)
ROOT
ATOM      1  C2' OXE d   1       3.396  -3.505  -0.010  0.00  0.00     0.078 C 
ATOM      2  C1' OXE d   1       6.000  -4.221  -0.779  0.00  0.00     0.078 C 
ATOM      3  C1  OXE d   1       4.966  -4.055  -1.865  0.00  0.00    -0.078 A 
ATOM      4  C2  OXE d   1       3.684  -3.751  -1.476  0.00  0.00    -0.078 A 
ATOM      5  C3  OXE d   1       2.704  -3.534  -2.441  0.00  0.00     0.003 A 
ATOM      6  C4  OXE d   1       2.976  -3.773  -3.793  0.00  0.00    -0.002 A 
ATOM      7  C5  OXE d   1       4.265  -4.123  -4.207  0.00  0.00    -0.002 A 
ATOM      8  C6  OXE d   1       5.280  -4.226  -3.262  0.00  0.00     0.003 A 
ENDROOT
TORSDOF 0
ENDMDL
