MODEL 1
REMARK minimizedAffinity 0.614692748
REMARK minimizedRMSD -1
REMARK  0 active torsions:
REMARK  status: ('A' for Active; 'I' for Inactive)
ROOT
ATOM      1  C2' OXE d   1      -1.118  -1.872   3.883  0.00  0.00     0.078 C 
ATOM      2  C1' OXE d   1       0.371  -0.785   6.000  0.00  0.00     0.078 C 
ATOM      3  C1  OXE d   1      -0.776   0.030   5.455  0.00  0.00    -0.078 A 
ATOM      4  C2  OXE d   1      -1.469  -0.489   4.388  0.00  0.00    -0.078 A 
ATOM      5  C3  OXE d   1      -2.570   0.196   3.883  0.00  0.00     0.003 A 
ATOM      6  C4  OXE d   1      -2.882   1.478   4.350  0.00  0.00    -0.002 A 
ATOM      7  C5  OXE d   1      -2.164   2.043   5.409  0.00  0.00    -0.002 A 
ATOM      8  C6  OXE d   1      -1.137   1.315   6.000  0.00  0.00     0.003 A 
ENDROOT
TORSDOF 0
ENDMDL
