MODEL 1
REMARK minimizedAffinity 0.24477832
REMARK minimizedRMSD -1
REMARK  0 active torsions:
REMARK  status: ('A' for Active; 'I' for Inactive)
ROOT
ATOM      1  C2' OXE d   1       1.466  -2.166   0.088  0.00  0.00     0.078 C 
ATOM      2  C1' OXE d   1      -0.558  -3.357  -1.450  0.00  0.00     0.078 C 
ATOM      3  C1  OXE d   1      -0.797  -3.206   0.031  0.00  0.00    -0.078 A 
ATOM      4  C2  OXE d   1       0.218  -2.664   0.783  0.00  0.00    -0.078 A 
ATOM      5  C3  OXE d   1       0.028  -2.452   2.146  0.00  0.00     0.003 A 
ATOM      6  C4  OXE d   1      -1.125  -2.925   2.783  0.00  0.00    -0.002 A 
ATOM      7  C5  OXE d   1      -2.155  -3.515   2.042  0.00  0.00    -0.002 A 
ATOM      8  C6  OXE d   1      -2.024  -3.624   0.662  0.00  0.00     0.003 A 
ENDROOT
TORSDOF 0
ENDMDL
