MODEL 1
REMARK minimizedAffinity 8.85061741
REMARK minimizedRMSD -1
REMARK  0 active torsions:
REMARK  status: ('A' for Active; 'I' for Inactive)
ROOT
ATOM      1  C2' OXE d   1      -2.820  -4.081  -5.377  0.00  0.00     0.078 C 
ATOM      2  C1' OXE d   1      -3.168  -2.062  -3.459  0.00  0.00     0.078 C 
ATOM      3  C1  OXE d   1      -2.564  -3.366  -3.005  0.00  0.00    -0.078 A 
ATOM      4  C2  OXE d   1      -2.440  -4.365  -3.940  0.00  0.00    -0.078 A 
ATOM      5  C3  OXE d   1      -1.838  -5.570  -3.587  0.00  0.00     0.003 A 
ATOM      6  C4  OXE d   1      -1.498  -5.828  -2.254  0.00  0.00    -0.002 A 
ATOM      7  C5  OXE d   1      -1.653  -4.839  -1.277  0.00  0.00    -0.002 A 
ATOM      8  C6  OXE d   1      -2.143  -3.590  -1.644  0.00  0.00     0.003 A 
ENDROOT
TORSDOF 0
ENDMDL
