MODEL 1
REMARK minimizedAffinity 8.37774563
REMARK minimizedRMSD -1
REMARK  0 active torsions:
REMARK  status: ('A' for Active; 'I' for Inactive)
ROOT
ATOM      1  C2' OXE d   1       1.609   3.246  -2.280  0.00  0.00     0.078 C 
ATOM      2  C1' OXE d   1       2.151   5.996  -2.117  0.00  0.00     0.078 C 
ATOM      3  C1  OXE d   1       1.856   5.260  -0.834  0.00  0.00    -0.078 A 
ATOM      4  C2  OXE d   1       1.545   3.924  -0.929  0.00  0.00    -0.078 A 
ATOM      5  C3  OXE d   1       1.318   3.186   0.229  0.00  0.00     0.003 A 
ATOM      6  C4  OXE d   1       1.252   3.823   1.474  0.00  0.00    -0.002 A 
ATOM      7  C5  OXE d   1       1.525   5.190   1.588  0.00  0.00    -0.002 A 
ATOM      8  C6  OXE d   1       1.870   5.913   0.451  0.00  0.00     0.003 A 
ENDROOT
TORSDOF 0
ENDMDL
