MODEL 1
REMARK minimizedAffinity 0.198255301
REMARK minimizedRMSD -1
REMARK  0 active torsions:
REMARK  status: ('A' for Active; 'I' for Inactive)
ROOT
ATOM      1  C2' OXE d   1      -4.649  -0.070   2.356  0.00  0.00     0.078 C 
ATOM      2  C1' OXE d   1      -2.730   1.755   3.288  0.00  0.00     0.078 C 
ATOM      3  C1  OXE d   1      -2.395   0.286   3.356  0.00  0.00    -0.078 A 
ATOM      4  C2  OXE d   1      -3.358  -0.602   2.942  0.00  0.00    -0.078 A 
ATOM      5  C3  OXE d   1      -3.080  -1.966   2.933  0.00  0.00     0.003 A 
ATOM      6  C4  OXE d   1      -1.888  -2.450   3.485  0.00  0.00    -0.002 A 
ATOM      7  C5  OXE d   1      -0.910  -1.564   3.950  0.00  0.00    -0.002 A 
ATOM      8  C6  OXE d   1      -1.130  -0.195   3.854  0.00  0.00     0.003 A 
ENDROOT
TORSDOF 0
ENDMDL
