MODEL 1
REMARK minimizedAffinity 1.60401237
REMARK minimizedRMSD -1
REMARK  0 active torsions:
REMARK  status: ('A' for Active; 'I' for Inactive)
ROOT
ATOM      1  C2' OXE d   1       2.527   6.000  -1.154  0.00  0.00     0.078 C 
ATOM      2  C1' OXE d   1       1.204   4.896   1.062  0.00  0.00     0.078 C 
ATOM      3  C1  OXE d   1       1.489   3.990  -0.110  0.00  0.00    -0.078 A 
ATOM      4  C2  OXE d   1       2.095   4.550  -1.209  0.00  0.00    -0.078 A 
ATOM      5  C3  OXE d   1       2.431   3.747  -2.295  0.00  0.00     0.003 A 
ATOM      6  C4  OXE d   1       2.019   2.410  -2.342  0.00  0.00    -0.002 A 
ATOM      7  C5  OXE d   1       1.365   1.829  -1.249  0.00  0.00    -0.002 A 
ATOM      8  C6  OXE d   1       1.131   2.593  -0.111  0.00  0.00     0.003 A 
ENDROOT
TORSDOF 0
ENDMDL
