MODEL 1
REMARK minimizedAffinity 3.00573826
REMARK minimizedRMSD -1
REMARK  0 active torsions:
REMARK  status: ('A' for Active; 'I' for Inactive)
ROOT
ATOM      1  C2' OXE d   1       1.723   3.580   1.040  0.00  0.00     0.078 C 
ATOM      2  C1' OXE d   1       2.687   1.330   2.415  0.00  0.00     0.078 C 
ATOM      3  C1  OXE d   1       2.478   1.208   0.926  0.00  0.00    -0.078 A 
ATOM      4  C2  OXE d   1       1.962   2.299   0.269  0.00  0.00    -0.078 A 
ATOM      5  C3  OXE d   1       1.801   2.259  -1.113  0.00  0.00     0.003 A 
ATOM      6  C4  OXE d   1       2.014   1.068  -1.817  0.00  0.00    -0.002 A 
ATOM      7  C5  OXE d   1       2.502  -0.067  -1.160  0.00  0.00    -0.002 A 
ATOM      8  C6  OXE d   1       2.779  -0.001   0.201  0.00  0.00     0.003 A 
ENDROOT
TORSDOF 0
ENDMDL
