MODEL 1
REMARK minimizedAffinity 1.53837621
REMARK minimizedRMSD -1
REMARK  0 active torsions:
REMARK  status: ('A' for Active; 'I' for Inactive)
ROOT
ATOM      1  C2' OXE d   1       0.542   1.394  -3.591  0.00  0.00     0.078 C 
ATOM      2  C1' OXE d   1      -0.899   3.792  -3.822  0.00  0.00     0.078 C 
ATOM      3  C1  OXE d   1       0.257   3.757  -2.854  0.00  0.00    -0.078 A 
ATOM      4  C2  OXE d   1       0.928   2.565  -2.713  0.00  0.00    -0.078 A 
ATOM      5  C3  OXE d   1       2.036   2.493  -1.874  0.00  0.00     0.003 A 
ATOM      6  C4  OXE d   1       2.380   3.577  -1.058  0.00  0.00    -0.002 A 
ATOM      7  C5  OXE d   1       1.685   4.788  -1.157  0.00  0.00    -0.002 A 
ATOM      8  C6  OXE d   1       0.651   4.907  -2.078  0.00  0.00     0.003 A 
ENDROOT
TORSDOF 0
ENDMDL
