MODEL 1
REMARK minimizedAffinity -3.61635089
REMARK minimizedRMSD -1
REMARK  0 active torsions:
REMARK  status: ('A' for Active; 'I' for Inactive)
ROOT
ATOM      1  O1  BZF d   1      -0.245  -1.158  -0.236  0.00  0.00    -0.204 OA
ATOM      2  C2  BZF d   1       0.841  -1.563   0.516  0.00  0.00     0.174 A 
ATOM      3  C3  BZF d   1       1.073  -0.700   1.526  0.00  0.00    -0.012 A 
ATOM      4  C3A BZF d   1       0.013   0.258   1.453  0.00  0.00    -0.107 A 
ATOM      5  C4  BZF d   1      -0.314   1.355   2.197  0.00  0.00     0.055 A 
ATOM      6  C5  BZF d   1      -1.371   2.120   1.817  0.00  0.00    -0.016 A 
ATOM      7  C6  BZF d   1      -2.118   1.821   0.698  0.00  0.00     0.022 A 
ATOM      8  C7  BZF d   1      -1.836   0.740  -0.070  0.00  0.00     0.029 A 
ATOM      9  C7A BZF d   1      -0.789  -0.054   0.330  0.00  0.00     0.058 A 
ENDROOT
TORSDOF 0
ENDMDL
