MODEL 1
REMARK minimizedAffinity -0.504980326
REMARK minimizedRMSD -1
REMARK  0 active torsions:
REMARK  status: ('A' for Active; 'I' for Inactive)
ROOT
ATOM      1  O1  BZF d   1      -2.150   2.129   1.712  0.00  0.00    -0.204 OA
ATOM      2  C2  BZF d   1      -2.648   2.257   0.430  0.00  0.00     0.174 A 
ATOM      3  C3  BZF d   1      -1.934   1.510  -0.437  0.00  0.00    -0.012 A 
ATOM      4  C3A BZF d   1      -0.984   0.805   0.368  0.00  0.00    -0.107 A 
ATOM      5  C4  BZF d   1      -0.005  -0.104   0.084  0.00  0.00     0.055 A 
ATOM      6  C5  BZF d   1       0.797  -0.546   1.089  0.00  0.00    -0.016 A 
ATOM      7  C6  BZF d   1       0.652  -0.096   2.385  0.00  0.00     0.022 A 
ATOM      8  C7  BZF d   1      -0.308   0.802   2.715  0.00  0.00     0.029 A 
ATOM      9  C7A BZF d   1      -1.141   1.225   1.709  0.00  0.00     0.058 A 
ENDROOT
TORSDOF 0
ENDMDL
