MODEL 1
REMARK minimizedAffinity -3.33397007
REMARK minimizedRMSD -1
REMARK  0 active torsions:
REMARK  status: ('A' for Active; 'I' for Inactive)
ROOT
ATOM      1  O1  BZF d   1      -0.801  -0.453   0.556  0.00  0.00    -0.204 OA
ATOM      2  C2  BZF d   1      -1.704   0.592   0.590  0.00  0.00     0.174 A 
ATOM      3  C3  BZF d   1      -1.240   1.648  -0.109  0.00  0.00    -0.012 A 
ATOM      4  C3A BZF d   1      -0.009   1.205  -0.688  0.00  0.00    -0.107 A 
ATOM      5  C4  BZF d   1       0.913   1.798  -1.502  0.00  0.00     0.055 A 
ATOM      6  C5  BZF d   1       2.043   1.117  -1.827  0.00  0.00    -0.016 A 
ATOM      7  C6  BZF d   1       2.285  -0.155  -1.352  0.00  0.00     0.022 A 
ATOM      8  C7  BZF d   1       1.398  -0.787  -0.545  0.00  0.00     0.029 A 
ATOM      9  C7A BZF d   1       0.240  -0.114  -0.241  0.00  0.00     0.058 A 
ENDROOT
TORSDOF 0
ENDMDL
