MODEL 1
REMARK minimizedAffinity -1.8143543
REMARK minimizedRMSD -1
REMARK  0 active torsions:
REMARK  status: ('A' for Active; 'I' for Inactive)
ROOT
ATOM      1  O1  BZF d   1      -0.186   0.134  -1.284  0.00  0.00    -0.204 OA
ATOM      2  C2  BZF d   1       0.694  -0.927  -1.195  0.00  0.00     0.174 A 
ATOM      3  C3  BZF d   1       1.057  -1.141   0.085  0.00  0.00    -0.012 A 
ATOM      4  C3A BZF d   1       0.289  -0.211   0.855  0.00  0.00    -0.107 A 
ATOM      5  C4  BZF d   1       0.196   0.050   2.192  0.00  0.00     0.055 A 
ATOM      6  C5  BZF d   1      -0.594   1.073   2.612  0.00  0.00    -0.016 A 
ATOM      7  C6  BZF d   1      -1.300   1.857   1.724  0.00  0.00     0.022 A 
ATOM      8  C7  BZF d   1      -1.244   1.633   0.388  0.00  0.00     0.029 A 
ATOM      9  C7A BZF d   1      -0.472   0.579  -0.037  0.00  0.00     0.058 A 
ENDROOT
TORSDOF 0
ENDMDL
