MODEL 1
REMARK minimizedAffinity -3.52764606
REMARK minimizedRMSD -1
REMARK  0 active torsions:
REMARK  status: ('A' for Active; 'I' for Inactive)
ROOT
ATOM      1  O1  BZF d   1      -0.361   0.479  -1.193  0.00  0.00    -0.204 OA
ATOM      2  C2  BZF d   1       0.479  -0.612  -1.076  0.00  0.00     0.174 A 
ATOM      3  C3  BZF d   1       0.701  -0.908   0.220  0.00  0.00    -0.012 A 
ATOM      4  C3A BZF d   1      -0.119   0.001   0.960  0.00  0.00    -0.107 A 
ATOM      5  C4  BZF d   1      -0.344   0.191   2.294  0.00  0.00     0.055 A 
ATOM      6  C5  BZF d   1      -1.148   1.213   2.689  0.00  0.00    -0.016 A 
ATOM      7  C6  BZF d   1      -1.738   2.066   1.780  0.00  0.00     0.022 A 
ATOM      8  C7  BZF d   1      -1.549   1.915   0.446  0.00  0.00     0.029 A 
ATOM      9  C7A BZF d   1      -0.763   0.863   0.042  0.00  0.00     0.058 A 
ENDROOT
TORSDOF 0
ENDMDL
