MODEL 1
REMARK minimizedAffinity -1.45590115
REMARK minimizedRMSD -1
REMARK  0 active torsions:
REMARK  status: ('A' for Active; 'I' for Inactive)
ROOT
ATOM      1  O1  BZF d   1      -1.427  -0.465   0.291  0.00  0.00    -0.204 OA
ATOM      2  C2  BZF d   1      -0.589  -1.416   0.841  0.00  0.00     0.174 A 
ATOM      3  C3  BZF d   1       0.701  -1.131   0.571  0.00  0.00    -0.012 A 
ATOM      4  C3A BZF d   1       0.673   0.123  -0.118  0.00  0.00    -0.107 A 
ATOM      5  C4  BZF d   1       1.644   0.933  -0.632  0.00  0.00     0.055 A 
ATOM      6  C5  BZF d   1       1.279   2.054  -1.309  0.00  0.00    -0.016 A 
ATOM      7  C6  BZF d   1      -0.045   2.391  -1.494  0.00  0.00     0.022 A 
ATOM      8  C7  BZF d   1      -1.044   1.621  -0.997  0.00  0.00     0.029 A 
ATOM      9  C7A BZF d   1      -0.678   0.506  -0.285  0.00  0.00     0.058 A 
ENDROOT
TORSDOF 0
ENDMDL
