MODEL 1
REMARK minimizedAffinity -4.41266012
REMARK minimizedRMSD -1
REMARK  0 active torsions:
REMARK  status: ('A' for Active; 'I' for Inactive)
ROOT
ATOM      1  O1  BZF d   1       0.767  -0.993   0.176  0.00  0.00    -0.204 OA
ATOM      2  C2  BZF d   1       0.127  -1.308  -1.007  0.00  0.00     0.174 A 
ATOM      3  C3  BZF d   1      -1.073  -0.697  -1.080  0.00  0.00    -0.012 A 
ATOM      4  C3A BZF d   1      -1.150   0.120   0.092  0.00  0.00    -0.107 A 
ATOM      5  C4  BZF d   1      -2.095   0.979   0.577  0.00  0.00     0.055 A 
ATOM      6  C5  BZF d   1      -1.896   1.565   1.788  0.00  0.00    -0.016 A 
ATOM      7  C6  BZF d   1      -0.768   1.310   2.541  0.00  0.00     0.022 A 
ATOM      8  C7  BZF d   1       0.199   0.469   2.099  0.00  0.00     0.029 A 
ATOM      9  C7A BZF d   1       0.016  -0.098   0.861  0.00  0.00     0.058 A 
ENDROOT
TORSDOF 0
ENDMDL
