MODEL 1
REMARK minimizedAffinity -2.62093234
REMARK minimizedRMSD -1
REMARK  0 active torsions:
REMARK  status: ('A' for Active; 'I' for Inactive)
ROOT
ATOM      1  O1  BZF d   1       0.030   1.840  -0.287  0.00  0.00    -0.204 OA
ATOM      2  C2  BZF d   1       0.615   0.823  -1.017  0.00  0.00     0.174 A 
ATOM      3  C3  BZF d   1       0.759  -0.285  -0.263  0.00  0.00    -0.012 A 
ATOM      4  C3A BZF d   1       0.146   0.031   0.991  0.00  0.00    -0.107 A 
ATOM      5  C4  BZF d   1      -0.043  -0.671   2.147  0.00  0.00     0.055 A 
ATOM      6  C5  BZF d   1      -0.612  -0.049   3.213  0.00  0.00    -0.016 A 
ATOM      7  C6  BZF d   1      -0.999   1.275   3.159  0.00  0.00     0.022 A 
ATOM      8  C7  BZF d   1      -0.836   2.011   2.033  0.00  0.00     0.029 A 
ATOM      9  C7A BZF d   1      -0.291   1.375   0.944  0.00  0.00     0.058 A 
ENDROOT
TORSDOF 0
ENDMDL
