MODEL 1
REMARK minimizedAffinity -1.50784969
REMARK minimizedRMSD -1
REMARK  0 active torsions:
REMARK  status: ('A' for Active; 'I' for Inactive)
ROOT
ATOM      1  O1  BZF d   1      -0.770  -0.011   2.263  0.00  0.00    -0.204 OA
ATOM      2  C2  BZF d   1      -1.347   1.200   2.597  0.00  0.00     0.174 A 
ATOM      3  C3  BZF d   1      -1.149   2.109   1.621  0.00  0.00    -0.012 A 
ATOM      4  C3A BZF d   1      -0.483   1.398   0.573  0.00  0.00    -0.107 A 
ATOM      5  C4  BZF d   1      -0.034   1.756  -0.666  0.00  0.00     0.055 A 
ATOM      6  C5  BZF d   1       0.640   0.843  -1.413  0.00  0.00    -0.016 A 
ATOM      7  C6  BZF d   1       0.888  -0.433  -0.951  0.00  0.00     0.022 A 
ATOM      8  C7  BZF d   1       0.458  -0.836   0.270  0.00  0.00     0.029 A 
ATOM      9  C7A BZF d   1      -0.252   0.075   1.014  0.00  0.00     0.058 A 
ENDROOT
TORSDOF 0
ENDMDL
