MODEL 1
REMARK minimizedAffinity -3.55332875
REMARK minimizedRMSD -1
REMARK  0 active torsions:
REMARK  status: ('A' for Active; 'I' for Inactive)
ROOT
ATOM      1  O1  BZF d   1      -1.130   2.119  -0.498  0.00  0.00    -0.204 OA
ATOM      2  C2  BZF d   1      -1.935   1.359   0.328  0.00  0.00     0.174 A 
ATOM      3  C3  BZF d   1      -1.414   0.128   0.505  0.00  0.00    -0.012 A 
ATOM      4  C3A BZF d   1      -0.160   0.148  -0.185  0.00  0.00    -0.107 A 
ATOM      5  C4  BZF d   1       0.829  -0.776  -0.360  0.00  0.00     0.055 A 
ATOM      6  C5  BZF d   1       1.891  -0.466  -1.149  0.00  0.00    -0.016 A 
ATOM      7  C6  BZF d   1       1.993   0.756  -1.782  0.00  0.00     0.022 A 
ATOM      8  C7  BZF d   1       1.039   1.707  -1.634  0.00  0.00     0.029 A 
ATOM      9  C7A BZF d   1      -0.019   1.408  -0.810  0.00  0.00     0.058 A 
ENDROOT
TORSDOF 0
ENDMDL
