MODEL 1
REMARK minimizedAffinity -2.74478722
REMARK minimizedRMSD -1
REMARK  0 active torsions:
REMARK  status: ('A' for Active; 'I' for Inactive)
ROOT
ATOM      1  O1  BZF d   1      -0.995   1.651   1.124  0.00  0.00    -0.204 OA
ATOM      2  C2  BZF d   1      -1.283   0.887   2.239  0.00  0.00     0.174 A 
ATOM      3  C3  BZF d   1      -0.710  -0.330   2.147  0.00  0.00    -0.012 A 
ATOM      4  C3A BZF d   1       0.056  -0.294   0.938  0.00  0.00    -0.107 A 
ATOM      5  C4  BZF d   1       0.863  -1.200   0.311  0.00  0.00     0.055 A 
ATOM      6  C5  BZF d   1       1.405  -0.879  -0.893  0.00  0.00    -0.016 A 
ATOM      7  C6  BZF d   1       1.158   0.334  -1.500  0.00  0.00     0.022 A 
ATOM      8  C7  BZF d   1       0.368   1.267  -0.914  0.00  0.00     0.029 A 
ATOM      9  C7A BZF d   1      -0.155   0.959   0.318  0.00  0.00     0.058 A 
ENDROOT
TORSDOF 0
ENDMDL
