MODEL 1
REMARK minimizedAffinity -5.646029
REMARK minimizedRMSD -1
REMARK  0 active torsions:
REMARK  status: ('A' for Active; 'I' for Inactive)
ROOT
ATOM      1  O1  BZF d   1       0.719  -1.441  -0.768  0.00  0.00    -0.204 OA
ATOM      2  C2  BZF d   1       1.943  -1.005  -1.237  0.00  0.00     0.174 A 
ATOM      3  C3  BZF d   1       1.957   0.338  -1.362  0.00  0.00    -0.012 A 
ATOM      4  C3A BZF d   1       0.692   0.776  -0.856  0.00  0.00    -0.107 A 
ATOM      5  C4  BZF d   1       0.118   2.005  -0.701  0.00  0.00     0.055 A 
ATOM      6  C5  BZF d   1      -1.160   2.084  -0.246  0.00  0.00    -0.016 A 
ATOM      7  C6  BZF d   1      -1.894   0.956   0.059  0.00  0.00     0.022 A 
ATOM      8  C7  BZF d   1      -1.365  -0.284  -0.073  0.00  0.00     0.029 A 
ATOM      9  C7A BZF d   1      -0.063  -0.366  -0.502  0.00  0.00     0.058 A 
ENDROOT
TORSDOF 0
ENDMDL
