MODEL 1
REMARK minimizedAffinity -4.97884464
REMARK minimizedRMSD -1
REMARK  0 active torsions:
REMARK  status: ('A' for Active; 'I' for Inactive)
ROOT
ATOM      1  O1  BZF d   1       1.502  -0.730   0.615  0.00  0.00    -0.204 OA
ATOM      2  C2  BZF d   1       1.581  -0.062  -0.591  0.00  0.00     0.174 A 
ATOM      3  C3  BZF d   1       0.515   0.747  -0.761  0.00  0.00    -0.012 A 
ATOM      4  C3A BZF d   1      -0.233   0.643   0.454  0.00  0.00    -0.107 A 
ATOM      5  C4  BZF d   1      -1.388   1.222   0.898  0.00  0.00     0.055 A 
ATOM      6  C5  BZF d   1      -1.891   0.852   2.105  0.00  0.00    -0.016 A 
ATOM      7  C6  BZF d   1      -1.269  -0.097   2.890  0.00  0.00     0.022 A 
ATOM      8  C7  BZF d   1      -0.119  -0.695   2.494  0.00  0.00     0.029 A 
ATOM      9  C7A BZF d   1       0.409  -0.299   1.290  0.00  0.00     0.058 A 
ENDROOT
TORSDOF 0
ENDMDL
