MODEL 1
REMARK minimizedAffinity -2.25395083
REMARK minimizedRMSD -1
REMARK  0 active torsions:
REMARK  status: ('A' for Active; 'I' for Inactive)
ROOT
ATOM      1  O1  BZF d   1      -0.885  -3.231  -0.756  0.00  0.00    -0.204 OA
ATOM      2  C2  BZF d   1      -0.213  -3.518  -1.928  0.00  0.00     0.174 A 
ATOM      3  C3  BZF d   1       0.515  -2.457  -2.334  0.00  0.00    -0.012 A 
ATOM      4  C3A BZF d   1       0.356  -1.476  -1.305  0.00  0.00    -0.107 A 
ATOM      5  C4  BZF d   1       0.848  -0.215  -1.126  0.00  0.00     0.055 A 
ATOM      6  C5  BZF d   1       0.441   0.507  -0.049  0.00  0.00    -0.016 A 
ATOM      7  C6  BZF d   1      -0.459   0.001   0.866  0.00  0.00     0.022 A 
ATOM      8  C7  BZF d   1      -0.971  -1.247   0.733  0.00  0.00     0.029 A 
ATOM      9  C7A BZF d   1      -0.537  -1.991  -0.337  0.00  0.00     0.058 A 
ENDROOT
TORSDOF 0
ENDMDL
