MODEL 1
REMARK minimizedAffinity -2.74771881
REMARK minimizedRMSD -1
REMARK  0 active torsions:
REMARK  status: ('A' for Active; 'I' for Inactive)
ROOT
ATOM      1  O1  BZF d   1      -0.009   0.739  -1.051  0.00  0.00    -0.204 OA
ATOM      2  C2  BZF d   1       0.783  -0.387  -1.171  0.00  0.00     0.174 A 
ATOM      3  C3  BZF d   1       0.963  -0.975   0.030  0.00  0.00    -0.012 A 
ATOM      4  C3A BZF d   1       0.163  -0.218   0.943  0.00  0.00    -0.107 A 
ATOM      5  C4  BZF d   1      -0.085  -0.322   2.282  0.00  0.00     0.055 A 
ATOM      6  C5  BZF d   1      -0.856   0.621   2.886  0.00  0.00    -0.016 A 
ATOM      7  C6  BZF d   1      -1.389   1.682   2.183  0.00  0.00     0.022 A 
ATOM      8  C7  BZF d   1      -1.175   1.824   0.853  0.00  0.00     0.029 A 
ATOM      9  C7A BZF d   1      -0.424   0.855   0.233  0.00  0.00     0.058 A 
ENDROOT
TORSDOF 0
ENDMDL
