MODEL 1
REMARK minimizedAffinity 12.2999554
REMARK minimizedRMSD -1
REMARK  0 active torsions:
REMARK  status: ('A' for Active; 'I' for Inactive)
ROOT
ATOM      1  C   UNL d   1       4.959  -5.879   5.809  0.00  0.00     0.020 A 
ATOM      2  C1  UNL d   1       5.973  -5.966   4.856  0.00  0.00     0.020 A 
ATOM      3  C2  UNL d   1       5.653  -5.992   3.497  0.00  0.00     0.034 A 
ATOM      4  C3  UNL d   1       4.316  -5.931   3.087  0.00  0.00     0.017 A 
ATOM      5  C4  UNL d   1       3.299  -5.844   4.045  0.00  0.00     0.017 A 
ATOM      6  C5  UNL d   1       3.625  -5.818   5.404  0.00  0.00     0.034 A 
ATOM      7 Cl   UNL d   1       1.627  -5.765   3.616  0.00  0.00    -0.070 Cl
ATOM      8 Cl1  UNL d   1       3.993  -5.968   1.390  0.00  0.00    -0.070 Cl
ENDROOT
TORSDOF 0
ENDMDL
