MODEL 1
REMARK minimizedAffinity 0.118541792
REMARK minimizedRMSD -1
REMARK  0 active torsions:
REMARK  status: ('A' for Active; 'I' for Inactive)
ROOT
ATOM      1  C   UNL d   1       3.642   6.000  -2.820  0.00  0.00     0.020 A 
ATOM      2  C1  UNL d   1       4.870   5.998  -2.159  0.00  0.00     0.020 A 
ATOM      3  C2  UNL d   1       4.928   5.703  -0.795  0.00  0.00     0.034 A 
ATOM      4  C3  UNL d   1       3.756   5.409  -0.088  0.00  0.00     0.017 A 
ATOM      5  C4  UNL d   1       2.525   5.411  -0.753  0.00  0.00     0.017 A 
ATOM      6  C5  UNL d   1       2.472   5.707  -2.119  0.00  0.00     0.034 A 
ATOM      7 Cl   UNL d   1       1.036   5.057   0.052  0.00  0.00    -0.070 Cl
ATOM      8 Cl1  UNL d   1       3.902   5.053   1.596  0.00  0.00    -0.070 Cl
ENDROOT
TORSDOF 0
ENDMDL
