MODEL 1
REMARK minimizedAffinity 4.35085249
REMARK minimizedRMSD -1
REMARK  0 active torsions:
REMARK  status: ('A' for Active; 'I' for Inactive)
ROOT
ATOM      1  C   UNL d   1       1.296   0.228  -1.318  0.00  0.00     0.020 A 
ATOM      2  C1  UNL d   1       2.272  -0.508  -1.989  0.00  0.00     0.020 A 
ATOM      3  C2  UNL d   1       2.752  -0.068  -3.224  0.00  0.00     0.034 A 
ATOM      4  C3  UNL d   1       2.257   1.111  -3.792  0.00  0.00     0.017 A 
ATOM      5  C4  UNL d   1       1.278   1.850  -3.118  0.00  0.00     0.017 A 
ATOM      6  C5  UNL d   1       0.800   1.405  -1.881  0.00  0.00     0.034 A 
ATOM      7 Cl   UNL d   1       0.619   3.315  -3.755  0.00  0.00    -0.070 Cl
ATOM      8 Cl1  UNL d   1       2.896   1.596  -5.323  0.00  0.00    -0.070 Cl
ENDROOT
TORSDOF 0
ENDMDL
