MODEL 1
REMARK minimizedAffinity 2.38256192
REMARK minimizedRMSD -1
REMARK  0 active torsions:
REMARK  status: ('A' for Active; 'I' for Inactive)
ROOT
ATOM      1  C   UNL d   1      -0.571   1.997  -0.611  0.00  0.00     0.020 A 
ATOM      2  C1  UNL d   1      -0.311   2.588   0.625  0.00  0.00     0.020 A 
ATOM      3  C2  UNL d   1       0.821   2.216   1.353  0.00  0.00     0.034 A 
ATOM      4  C3  UNL d   1       1.698   1.250   0.845  0.00  0.00     0.017 A 
ATOM      5  C4  UNL d   1       1.436   0.657  -0.396  0.00  0.00     0.017 A 
ATOM      6  C5  UNL d   1       0.301   1.034  -1.120  0.00  0.00     0.034 A 
ATOM      7 Cl   UNL d   1       2.472  -0.541  -1.087  0.00  0.00    -0.070 Cl
ATOM      8 Cl1  UNL d   1       3.079   0.838   1.799  0.00  0.00    -0.070 Cl
ENDROOT
TORSDOF 0
ENDMDL
