MODEL 1
REMARK minimizedAffinity 8.20841312
REMARK minimizedRMSD -1
REMARK  0 active torsions:
REMARK  status: ('A' for Active; 'I' for Inactive)
ROOT
ATOM      1  C   UNL d   1       1.902  -1.842  -1.259  0.00  0.00     0.020 A 
ATOM      2  C1  UNL d   1       2.561  -0.630  -1.461  0.00  0.00     0.020 A 
ATOM      3  C2  UNL d   1       1.836   0.563  -1.482  0.00  0.00     0.034 A 
ATOM      4  C3  UNL d   1       0.449   0.547  -1.301  0.00  0.00     0.017 A 
ATOM      5  C4  UNL d   1      -0.212  -0.670  -1.098  0.00  0.00     0.017 A 
ATOM      6  C5  UNL d   1       0.519  -1.862  -1.077  0.00  0.00     0.034 A 
ATOM      7 Cl   UNL d   1      -1.922  -0.769  -0.866  0.00  0.00    -0.070 Cl
ATOM      8 Cl1  UNL d   1      -0.384   2.061  -1.339  0.00  0.00    -0.070 Cl
ENDROOT
TORSDOF 0
ENDMDL
