MODEL 1
REMARK minimizedAffinity -0.304475754
REMARK minimizedRMSD -1
REMARK  0 active torsions:
REMARK  status: ('A' for Active; 'I' for Inactive)
ROOT
ATOM      1  C   UNL d   1      -0.022   0.543  -1.073  0.00  0.00     0.020 A 
ATOM      2  C1  UNL d   1       1.000   0.806  -1.984  0.00  0.00     0.020 A 
ATOM      3  C2  UNL d   1       2.071  -0.082  -2.108  0.00  0.00     0.034 A 
ATOM      4  C3  UNL d   1       2.121  -1.238  -1.319  0.00  0.00     0.017 A 
ATOM      5  C4  UNL d   1       1.094  -1.501  -0.406  0.00  0.00     0.017 A 
ATOM      6  C5  UNL d   1       0.025  -0.608  -0.286  0.00  0.00     0.034 A 
ATOM      7 Cl   UNL d   1       1.087  -2.906   0.601  0.00  0.00    -0.070 Cl
ATOM      8 Cl1  UNL d   1       3.475  -2.292  -1.525  0.00  0.00    -0.070 Cl
ENDROOT
TORSDOF 0
ENDMDL
