MODEL 1
REMARK minimizedAffinity 8.06887436
REMARK minimizedRMSD -1
REMARK  0 active torsions:
REMARK  status: ('A' for Active; 'I' for Inactive)
ROOT
ATOM      1  C   UNL d   1       1.282   0.006  -5.385  0.00  0.00     0.020 A 
ATOM      2  C1  UNL d   1       1.221  -1.350  -5.065  0.00  0.00     0.020 A 
ATOM      3  C2  UNL d   1       1.236  -1.754  -3.728  0.00  0.00     0.034 A 
ATOM      4  C3  UNL d   1       1.311  -0.800  -2.706  0.00  0.00     0.017 A 
ATOM      5  C4  UNL d   1       1.372   0.560  -3.028  0.00  0.00     0.017 A 
ATOM      6  C5  UNL d   1       1.357   0.959  -4.368  0.00  0.00     0.034 A 
ATOM      7 Cl   UNL d   1       1.467   1.795  -1.822  0.00  0.00    -0.070 Cl
ATOM      8 Cl1  UNL d   1       1.324  -1.371  -1.075  0.00  0.00    -0.070 Cl
ENDROOT
TORSDOF 0
ENDMDL
