MODEL 1
REMARK minimizedAffinity 9.21148396
REMARK minimizedRMSD -1
REMARK  0 active torsions:
REMARK  status: ('A' for Active; 'I' for Inactive)
ROOT
ATOM      1  C   UNL d   1       2.356  -2.374  -2.855  0.00  0.00     0.020 A 
ATOM      2  C1  UNL d   1       1.073  -2.415  -3.399  0.00  0.00     0.020 A 
ATOM      3  C2  UNL d   1      -0.012  -1.931  -2.666  0.00  0.00     0.034 A 
ATOM      4  C3  UNL d   1       0.184  -1.403  -1.384  0.00  0.00     0.017 A 
ATOM      5  C4  UNL d   1       1.472  -1.362  -0.839  0.00  0.00     0.017 A 
ATOM      6  C5  UNL d   1       2.555  -1.849  -1.578  0.00  0.00     0.034 A 
ATOM      7 Cl   UNL d   1       1.792  -0.726   0.736  0.00  0.00    -0.070 Cl
ATOM      8 Cl1  UNL d   1      -1.203  -0.822  -0.534  0.00  0.00    -0.070 Cl
ENDROOT
TORSDOF 0
ENDMDL
