MODEL 1
REMARK minimizedAffinity 10.0294018
REMARK minimizedRMSD -1
REMARK  0 active torsions:
REMARK  status: ('A' for Active; 'I' for Inactive)
ROOT
ATOM      1  C   UNL d   1       2.775  -1.826  -1.243  0.00  0.00     0.020 A 
ATOM      2  C1  UNL d   1       1.702  -2.543  -0.716  0.00  0.00     0.020 A 
ATOM      3  C2  UNL d   1       0.457  -1.929  -0.566  0.00  0.00     0.034 A 
ATOM      4  C3  UNL d   1       0.282  -0.593  -0.944  0.00  0.00     0.017 A 
ATOM      5  C4  UNL d   1       1.359   0.127  -1.474  0.00  0.00     0.017 A 
ATOM      6  C5  UNL d   1       2.604  -0.493  -1.621  0.00  0.00     0.034 A 
ATOM      7 Cl   UNL d   1       1.220   1.779  -1.963  0.00  0.00    -0.070 Cl
ATOM      8 Cl1  UNL d   1      -1.285   0.104  -0.731  0.00  0.00    -0.070 Cl
ENDROOT
TORSDOF 0
ENDMDL
