MODEL 1
REMARK minimizedAffinity 13.1351538
REMARK minimizedRMSD -1
REMARK  0 active torsions:
REMARK  status: ('A' for Active; 'I' for Inactive)
ROOT
ATOM      1  C   UNL d   1       2.719   1.865   0.716  0.00  0.00     0.020 A 
ATOM      2  C1  UNL d   1       2.192   2.265   1.944  0.00  0.00     0.020 A 
ATOM      3  C2  UNL d   1       0.870   2.705   2.026  0.00  0.00     0.034 A 
ATOM      4  C3  UNL d   1       0.068   2.746   0.880  0.00  0.00     0.017 A 
ATOM      5  C4  UNL d   1       0.597   2.344  -0.352  0.00  0.00     0.017 A 
ATOM      6  C5  UNL d   1       1.922   1.905  -0.430  0.00  0.00     0.034 A 
ATOM      7 Cl   UNL d   1      -0.330   2.366  -1.811  0.00  0.00    -0.070 Cl
ATOM      8 Cl1  UNL d   1      -1.559   3.300   1.056  0.00  0.00    -0.070 Cl
ENDROOT
TORSDOF 0
ENDMDL
