MODEL 1
REMARK minimizedAffinity 9.48534298
REMARK minimizedRMSD -1
REMARK  0 active torsions:
REMARK  status: ('A' for Active; 'I' for Inactive)
ROOT
ATOM      1  C   UNL d   1       2.457   1.445  -1.120  0.00  0.00     0.020 A 
ATOM      2  C1  UNL d   1       2.172   0.304  -1.869  0.00  0.00     0.020 A 
ATOM      3  C2  UNL d   1       0.903  -0.276  -1.803  0.00  0.00     0.034 A 
ATOM      4  C3  UNL d   1      -0.085   0.285  -0.985  0.00  0.00     0.017 A 
ATOM      5  C4  UNL d   1       0.202   1.430  -0.234  0.00  0.00     0.017 A 
ATOM      6  C5  UNL d   1       1.474   2.006  -0.304  0.00  0.00     0.034 A 
ATOM      7 Cl   UNL d   1      -0.965   2.179   0.798  0.00  0.00    -0.070 Cl
ATOM      8 Cl1  UNL d   1      -1.632  -0.484  -0.952  0.00  0.00    -0.070 Cl
ENDROOT
TORSDOF 0
ENDMDL
