MODEL 1
REMARK minimizedAffinity 5.27042103
REMARK minimizedRMSD -1
REMARK  0 active torsions:
REMARK  status: ('A' for Active; 'I' for Inactive)
ROOT
ATOM      1  C   UNL d   1       2.726  -4.731   1.458  0.00  0.00     0.020 A 
ATOM      2  C1  UNL d   1       1.680  -3.901   1.862  0.00  0.00     0.020 A 
ATOM      3  C2  UNL d   1       1.094  -3.022   0.949  0.00  0.00     0.034 A 
ATOM      4  C3  UNL d   1       1.552  -2.970  -0.372  0.00  0.00     0.017 A 
ATOM      5  C4  UNL d   1       2.602  -3.803  -0.777  0.00  0.00     0.017 A 
ATOM      6  C5  UNL d   1       3.185  -4.681   0.141  0.00  0.00     0.034 A 
ATOM      7 Cl   UNL d   1       3.222  -3.795  -2.390  0.00  0.00    -0.070 Cl
ATOM      8 Cl1  UNL d   1       0.781  -1.859  -1.447  0.00  0.00    -0.070 Cl
ENDROOT
TORSDOF 0
ENDMDL
