MODEL 1
REMARK minimizedAffinity 6.36572456
REMARK minimizedRMSD -1
REMARK  0 active torsions:
REMARK  status: ('A' for Active; 'I' for Inactive)
ROOT
ATOM      1  C   UNL d   1       2.530  -2.454  -1.315  0.00  0.00     0.020 A 
ATOM      2  C1  UNL d   1       1.352  -1.947  -0.768  0.00  0.00     0.020 A 
ATOM      3  C2  UNL d   1       0.986  -0.621  -1.006  0.00  0.00     0.034 A 
ATOM      4  C3  UNL d   1       1.799   0.203  -1.793  0.00  0.00     0.017 A 
ATOM      5  C4  UNL d   1       2.981  -0.307  -2.342  0.00  0.00     0.017 A 
ATOM      6  C5  UNL d   1       3.342  -1.636  -2.101  0.00  0.00     0.034 A 
ATOM      7 Cl   UNL d   1       4.034   0.649  -3.324  0.00  0.00    -0.070 Cl
ATOM      8 Cl1  UNL d   1       1.284   1.833  -2.046  0.00  0.00    -0.070 Cl
ENDROOT
TORSDOF 0
ENDMDL
