MODEL 1
REMARK minimizedAffinity 1.73735738
REMARK minimizedRMSD -1
REMARK  0 active torsions:
REMARK  status: ('A' for Active; 'I' for Inactive)
ROOT
ATOM      1  C   UNL d   1       3.007   1.151  -2.323  0.00  0.00     0.020 A 
ATOM      2  C1  UNL d   1       4.190   0.612  -1.818  0.00  0.00     0.020 A 
ATOM      3  C2  UNL d   1       4.210  -0.697  -1.333  0.00  0.00     0.034 A 
ATOM      4  C3  UNL d   1       3.044  -1.472  -1.351  0.00  0.00     0.017 A 
ATOM      5  C4  UNL d   1       1.857  -0.930  -1.858  0.00  0.00     0.017 A 
ATOM      6  C5  UNL d   1       1.844   0.381  -2.343  0.00  0.00     0.034 A 
ATOM      7 Cl   UNL d   1       0.380  -1.825  -1.914  0.00  0.00    -0.070 Cl
ATOM      8 Cl1  UNL d   1       3.141  -3.084  -0.735  0.00  0.00    -0.070 Cl
ENDROOT
TORSDOF 0
ENDMDL
