MODEL 1
REMARK minimizedAffinity -1.22897005
REMARK minimizedRMSD -1
REMARK  0 active torsions:
REMARK  status: ('A' for Active; 'I' for Inactive)
ROOT
ATOM      1  C   UNL d   1       2.746  -1.199  -1.910  0.00  0.00     0.020 A 
ATOM      2  C1  UNL d   1       2.180  -2.332  -1.327  0.00  0.00     0.020 A 
ATOM      3  C2  UNL d   1       0.884  -2.277  -0.809  0.00  0.00     0.034 A 
ATOM      4  C3  UNL d   1       0.150  -1.088  -0.873  0.00  0.00     0.017 A 
ATOM      5  C4  UNL d   1       0.719   0.049  -1.459  0.00  0.00     0.017 A 
ATOM      6  C5  UNL d   1       2.017  -0.011  -1.976  0.00  0.00     0.034 A 
ATOM      7 Cl   UNL d   1      -0.125   1.553  -1.575  0.00  0.00    -0.070 Cl
ATOM      8 Cl1  UNL d   1      -1.447  -1.092  -0.214  0.00  0.00    -0.070 Cl
ENDROOT
TORSDOF 0
ENDMDL
