MODEL 1
REMARK minimizedAffinity 8.19346046
REMARK minimizedRMSD -1
REMARK  0 active torsions:
REMARK  status: ('A' for Active; 'I' for Inactive)
ROOT
ATOM      1  C   UNL d   1       0.482  -1.772  -2.314  0.00  0.00     0.020 A 
ATOM      2  C1  UNL d   1       1.572  -0.939  -2.563  0.00  0.00     0.020 A 
ATOM      3  C2  UNL d   1       2.781  -1.153  -1.897  0.00  0.00     0.034 A 
ATOM      4  C3  UNL d   1       2.902  -2.203  -0.979  0.00  0.00     0.017 A 
ATOM      5  C4  UNL d   1       1.807  -3.038  -0.730  0.00  0.00     0.017 A 
ATOM      6  C5  UNL d   1       0.599  -2.819  -1.400  0.00  0.00     0.034 A 
ATOM      7 Cl   UNL d   1       1.880  -4.353   0.389  0.00  0.00    -0.070 Cl
ATOM      8 Cl1  UNL d   1       4.426  -2.409  -0.191  0.00  0.00    -0.070 Cl
ENDROOT
TORSDOF 0
ENDMDL
