MODEL 1
REMARK minimizedAffinity 9.23771572
REMARK minimizedRMSD -1
REMARK  0 active torsions:
REMARK  status: ('A' for Active; 'I' for Inactive)
ROOT
ATOM      1  C   UNL d   1      -2.190  -0.654   0.354  0.00  0.00     0.020 A 
ATOM      2  C1  UNL d   1      -2.192  -1.226   1.625  0.00  0.00     0.020 A 
ATOM      3  C2  UNL d   1      -3.378  -1.735   2.159  0.00  0.00     0.034 A 
ATOM      4  C3  UNL d   1      -4.566  -1.673   1.421  0.00  0.00     0.017 A 
ATOM      5  C4  UNL d   1      -4.562  -1.099   0.145  0.00  0.00     0.017 A 
ATOM      6  C5  UNL d   1      -3.372  -0.591  -0.385  0.00  0.00     0.034 A 
ATOM      7 Cl   UNL d   1      -5.988  -0.988  -0.826  0.00  0.00    -0.070 Cl
ATOM      8 Cl1  UNL d   1      -5.995  -2.322   2.143  0.00  0.00    -0.070 Cl
ENDROOT
TORSDOF 0
ENDMDL
