MODEL 1
REMARK minimizedAffinity -0.489929169
REMARK minimizedRMSD -1
REMARK  0 active torsions:
REMARK  status: ('A' for Active; 'I' for Inactive)
ROOT
ATOM      1  C   UNL d   1       1.745  -3.475   0.146  0.00  0.00     0.020 A 
ATOM      2  C1  UNL d   1       3.006  -3.120  -0.330  0.00  0.00     0.020 A 
ATOM      3  C2  UNL d   1       3.182  -1.912  -1.009  0.00  0.00     0.034 A 
ATOM      4  C3  UNL d   1       2.094  -1.055  -1.213  0.00  0.00     0.017 A 
ATOM      5  C4  UNL d   1       0.829  -1.413  -0.734  0.00  0.00     0.017 A 
ATOM      6  C5  UNL d   1       0.659  -2.623  -0.055  0.00  0.00     0.034 A 
ATOM      7 Cl   UNL d   1      -0.561  -0.407  -0.948  0.00  0.00    -0.070 Cl
ATOM      8 Cl1  UNL d   1       2.384   0.422  -2.060  0.00  0.00    -0.070 Cl
ENDROOT
TORSDOF 0
ENDMDL
