MODEL 1
REMARK minimizedAffinity -4.3918767
REMARK minimizedRMSD -1
REMARK  0 active torsions:
REMARK  status: ('A' for Active; 'I' for Inactive)
ROOT
ATOM      1  C1  BNZ d   1       0.429  -1.231  -0.926  0.00  0.00     0.000 A 
ATOM      2  C2  BNZ d   1      -0.211  -0.097  -0.501  0.00  0.00     0.000 A 
ATOM      3  C3  BNZ d   1       0.251   0.605   0.577  0.00  0.00     0.000 A 
ATOM      4  C4  BNZ d   1       1.327   0.151   1.252  0.00  0.00     0.000 A 
ATOM      5  C5  BNZ d   1       1.977  -0.996   0.842  0.00  0.00     0.000 A 
ATOM      6  C6  BNZ d   1       1.532  -1.678  -0.267  0.00  0.00     0.000 A 
ENDROOT
TORSDOF 0
ENDMDL
