MODEL 1
REMARK minimizedAffinity -3.80309796
REMARK minimizedRMSD -1
REMARK  0 active torsions:
REMARK  status: ('A' for Active; 'I' for Inactive)
ROOT
ATOM      1  C1  BNZ d   1       2.303  -1.696   1.493  0.00  0.00     0.000 A 
ATOM      2  C2  BNZ d   1       1.227  -1.873   2.321  0.00  0.00     0.000 A 
ATOM      3  C3  BNZ d   1       0.199  -0.972   2.337  0.00  0.00     0.000 A 
ATOM      4  C4  BNZ d   1       0.267   0.125   1.555  0.00  0.00     0.000 A 
ATOM      5  C5  BNZ d   1       1.350   0.323   0.721  0.00  0.00     0.000 A 
ATOM      6  C6  BNZ d   1       2.364  -0.607   0.680  0.00  0.00     0.000 A 
ENDROOT
TORSDOF 0
ENDMDL
