MODEL 1
REMARK minimizedAffinity -4.48911095
REMARK minimizedRMSD -1
REMARK  0 active torsions:
REMARK  status: ('A' for Active; 'I' for Inactive)
ROOT
ATOM      1  C1  BNZ d   1       1.723  -0.607   1.244  0.00  0.00     0.000 A 
ATOM      2  C2  BNZ d   1       0.432  -0.155   1.311  0.00  0.00     0.000 A 
ATOM      3  C3  BNZ d   1      -0.481  -0.502   0.356  0.00  0.00     0.000 A 
ATOM      4  C4  BNZ d   1      -0.094  -1.267  -0.686  0.00  0.00     0.000 A 
ATOM      5  C5  BNZ d   1       1.207  -1.722  -0.773  0.00  0.00     0.000 A 
ATOM      6  C6  BNZ d   1       2.114  -1.403   0.212  0.00  0.00     0.000 A 
ENDROOT
TORSDOF 0
ENDMDL
