MODEL 1
REMARK minimizedAffinity -5.15705395
REMARK minimizedRMSD -1
REMARK  0 active torsions:
REMARK  status: ('A' for Active; 'I' for Inactive)
ROOT
ATOM      1  C1  BNZ d   1       1.472   0.574   0.609  0.00  0.00     0.000 A 
ATOM      2  C2  BNZ d   1       0.237   0.787   0.055  0.00  0.00     0.000 A 
ATOM      3  C3  BNZ d   1      -0.444  -0.233  -0.548  0.00  0.00     0.000 A 
ATOM      4  C4  BNZ d   1       0.125  -1.452  -0.632  0.00  0.00     0.000 A 
ATOM      5  C5  BNZ d   1       1.372  -1.681  -0.086  0.00  0.00     0.000 A 
ATOM      6  C6  BNZ d   1       2.039  -0.661   0.554  0.00  0.00     0.000 A 
ENDROOT
TORSDOF 0
ENDMDL
