MODEL 1
REMARK minimizedAffinity -4.58983421
REMARK minimizedRMSD -1
REMARK  0 active torsions:
REMARK  status: ('A' for Active; 'I' for Inactive)
ROOT
ATOM      1  C1  BNZ d   1       1.524  -2.259  -0.100  0.00  0.00     0.000 A 
ATOM      2  C2  BNZ d   1       0.241  -2.017  -0.515  0.00  0.00     0.000 A 
ATOM      3  C3  BNZ d   1      -0.319  -0.778  -0.373  0.00  0.00     0.000 A 
ATOM      4  C4  BNZ d   1       0.389   0.205   0.221  0.00  0.00     0.000 A 
ATOM      5  C5  BNZ d   1       1.680  -0.026   0.653  0.00  0.00     0.000 A 
ATOM      6  C6  BNZ d   1       2.254  -1.263   0.472  0.00  0.00     0.000 A 
ENDROOT
TORSDOF 0
ENDMDL
