MODEL 1
REMARK minimizedAffinity -4.32455873
REMARK minimizedRMSD -1
REMARK  0 active torsions:
REMARK  status: ('A' for Active; 'I' for Inactive)
ROOT
ATOM      1  C1  BNZ d   1       1.510  -0.044   0.504  0.00  0.00     0.000 A 
ATOM      2  C2  BNZ d   1       0.784   1.105   0.332  0.00  0.00     0.000 A 
ATOM      3  C3  BNZ d   1      -0.483   1.062  -0.180  0.00  0.00     0.000 A 
ATOM      4  C4  BNZ d   1      -1.006  -0.123  -0.557  0.00  0.00     0.000 A 
ATOM      5  C5  BNZ d   1      -0.283  -1.288  -0.399  0.00  0.00     0.000 A 
ATOM      6  C6  BNZ d   1       0.977  -1.246   0.153  0.00  0.00     0.000 A 
ENDROOT
TORSDOF 0
ENDMDL
