MODEL 1
REMARK minimizedAffinity -3.30237675
REMARK minimizedRMSD -1
REMARK  0 active torsions:
REMARK  status: ('A' for Active; 'I' for Inactive)
ROOT
ATOM      1  C1  BNZ d   1      -4.143   0.370  -0.621  0.00  0.00     0.000 A 
ATOM      2  C2  BNZ d   1      -3.048   1.122  -0.290  0.00  0.00     0.000 A 
ATOM      3  C3  BNZ d   1      -2.642   1.234   1.010  0.00  0.00     0.000 A 
ATOM      4  C4  BNZ d   1      -3.354   0.627   1.982  0.00  0.00     0.000 A 
ATOM      5  C5  BNZ d   1      -4.466  -0.127   1.665  0.00  0.00     0.000 A 
ATOM      6  C6  BNZ d   1      -4.849  -0.270   0.351  0.00  0.00     0.000 A 
ENDROOT
TORSDOF 0
ENDMDL
