MODEL 1
REMARK minimizedAffinity 10.6172247
REMARK minimizedRMSD -1
REMARK  0 active torsions:
REMARK  status: ('A' for Active; 'I' for Inactive)
ROOT
ATOM      1  C2' OXE d   1      -3.791  -0.315   1.700  0.00  0.00     0.078 C 
ATOM      2  C1' OXE d   1      -3.627   1.762   3.582  0.00  0.00     0.078 C 
ATOM      3  C1  OXE d   1      -2.382   1.417   2.804  0.00  0.00    -0.078 A 
ATOM      4  C2  OXE d   1      -2.458   0.369   1.919  0.00  0.00    -0.078 A 
ATOM      5  C3  OXE d   1      -1.354   0.045   1.136  0.00  0.00     0.003 A 
ATOM      6  C4  OXE d   1      -0.123   0.676   1.352  0.00  0.00    -0.002 A 
ATOM      7  C5  OXE d   1      -0.012   1.720   2.278  0.00  0.00    -0.002 A 
ATOM      8  C6  OXE d   1      -1.140   2.130   2.979  0.00  0.00     0.003 A 
ENDROOT
TORSDOF 0
ENDMDL
