MODEL 1
REMARK minimizedAffinity 15.6252842
REMARK minimizedRMSD -1
REMARK  0 active torsions:
REMARK  status: ('A' for Active; 'I' for Inactive)
ROOT
ATOM      1  C2' OXE d   1       1.108  -3.509  -2.496  0.00  0.00     0.078 C 
ATOM      2  C1' OXE d   1       2.535  -3.490  -0.078  0.00  0.00     0.078 C 
ATOM      3  C1  OXE d   1       2.041  -2.169  -0.614  0.00  0.00    -0.078 A 
ATOM      4  C2  OXE d   1       1.385  -2.182  -1.821  0.00  0.00    -0.078 A 
ATOM      5  C3  OXE d   1       0.861  -0.999  -2.334  0.00  0.00     0.003 A 
ATOM      6  C4  OXE d   1       1.130   0.225  -1.709  0.00  0.00    -0.002 A 
ATOM      7  C5  OXE d   1       1.831   0.265  -0.499  0.00  0.00    -0.002 A 
ATOM      8  C6  OXE d   1       2.256  -0.925   0.082  0.00  0.00     0.003 A 
ENDROOT
TORSDOF 0
ENDMDL
