MODEL 1
REMARK minimizedAffinity 7.83493185
REMARK minimizedRMSD -1
REMARK  0 active torsions:
REMARK  status: ('A' for Active; 'I' for Inactive)
ROOT
ATOM      1  C2' OXE d   1       2.720   1.785  -0.147  0.00  0.00     0.078 C 
ATOM      2  C1' OXE d   1       1.396   0.005  -1.867  0.00  0.00     0.078 C 
ATOM      3  C1  OXE d   1       2.374  -0.572  -0.874  0.00  0.00    -0.078 A 
ATOM      4  C2  OXE d   1       3.052   0.311  -0.068  0.00  0.00    -0.078 A 
ATOM      5  C3  OXE d   1       3.925  -0.172   0.903  0.00  0.00     0.003 A 
ATOM      6  C4  OXE d   1       4.234  -1.537   0.962  0.00  0.00    -0.002 A 
ATOM      7  C5  OXE d   1       3.584  -2.449   0.124  0.00  0.00    -0.002 A 
ATOM      8  C6  OXE d   1       2.622  -1.989  -0.769  0.00  0.00     0.003 A 
ENDROOT
TORSDOF 0
ENDMDL
