MODEL 1
REMARK minimizedAffinity 12.5518579
REMARK minimizedRMSD -1
REMARK  0 active torsions:
REMARK  status: ('A' for Active; 'I' for Inactive)
ROOT
ATOM      1  C2' OXE d   1       1.546  -1.358  -2.423  0.00  0.00     0.078 C 
ATOM      2  C1' OXE d   1       2.867  -2.327  -0.144  0.00  0.00     0.078 C 
ATOM      3  C1  OXE d   1       3.124  -0.898  -0.551  0.00  0.00    -0.078 A 
ATOM      4  C2  OXE d   1       2.509  -0.446  -1.695  0.00  0.00    -0.078 A 
ATOM      5  C3  OXE d   1       2.669   0.880  -2.085  0.00  0.00     0.003 A 
ATOM      6  C4  OXE d   1       3.570   1.714  -1.411  0.00  0.00    -0.002 A 
ATOM      7  C5  OXE d   1       4.236   1.262  -0.267  0.00  0.00    -0.002 A 
ATOM      8  C6  OXE d   1       3.992  -0.025   0.199  0.00  0.00     0.003 A 
ENDROOT
TORSDOF 0
ENDMDL
