MODEL 1
REMARK minimizedAffinity 10.8342438
REMARK minimizedRMSD -1
REMARK  0 active torsions:
REMARK  status: ('A' for Active; 'I' for Inactive)
ROOT
ATOM      1  C2' OXE d   1       3.989  -4.926   0.800  0.00  0.00     0.078 C 
ATOM      2  C1' OXE d   1       5.997  -2.967   0.905  0.00  0.00     0.078 C 
ATOM      3  C1  OXE d   1       4.586  -2.514   0.625  0.00  0.00    -0.078 A 
ATOM      4  C2  OXE d   1       3.618  -3.484   0.529  0.00  0.00    -0.078 A 
ATOM      5  C3  OXE d   1       2.291  -3.116   0.326  0.00  0.00     0.003 A 
ATOM      6  C4  OXE d   1       1.957  -1.781   0.066  0.00  0.00    -0.002 A 
ATOM      7  C5  OXE d   1       2.935  -0.782   0.120  0.00  0.00    -0.002 A 
ATOM      8  C6  OXE d   1       4.244  -1.126   0.439  0.00  0.00     0.003 A 
ENDROOT
TORSDOF 0
ENDMDL
