MODEL 1
REMARK minimizedAffinity 8.87501335
REMARK minimizedRMSD -1
REMARK  0 active torsions:
REMARK  status: ('A' for Active; 'I' for Inactive)
ROOT
ATOM      1  C2' OXE d   1      -2.291  -5.089  -1.876  0.00  0.00     0.078 C 
ATOM      2  C1' OXE d   1      -0.201  -3.404  -2.695  0.00  0.00     0.078 C 
ATOM      3  C1  OXE d   1      -1.525  -3.279  -3.406  0.00  0.00    -0.078 A 
ATOM      4  C2  OXE d   1      -2.528  -4.140  -3.031  0.00  0.00    -0.078 A 
ATOM      5  C3  OXE d   1      -3.786  -4.030  -3.617  0.00  0.00     0.003 A 
ATOM      6  C4  OXE d   1      -3.993  -3.156  -4.691  0.00  0.00    -0.002 A 
ATOM      7  C5  OXE d   1      -2.973  -2.298  -5.116  0.00  0.00    -0.002 A 
ATOM      8  C6  OXE d   1      -1.749  -2.317  -4.457  0.00  0.00     0.003 A 
ENDROOT
TORSDOF 0
ENDMDL
