MODEL 1
REMARK minimizedAffinity 10.1472378
REMARK minimizedRMSD -1
REMARK  0 active torsions:
REMARK  status: ('A' for Active; 'I' for Inactive)
ROOT
ATOM      1  C2' OXE d   1      -3.786   5.362  -5.800  0.00  0.00     0.078 C 
ATOM      2  C1' OXE d   1      -2.075   5.992  -3.666  0.00  0.00     0.078 C 
ATOM      3  C1  OXE d   1      -1.922   4.639  -4.314  0.00  0.00    -0.078 A 
ATOM      4  C2  OXE d   1      -2.794   4.321  -5.327  0.00  0.00    -0.078 A 
ATOM      5  C3  OXE d   1      -2.661   3.108  -5.996  0.00  0.00     0.003 A 
ATOM      6  C4  OXE d   1      -1.748   2.147  -5.546  0.00  0.00    -0.002 A 
ATOM      7  C5  OXE d   1      -0.877   2.435  -4.491  0.00  0.00    -0.002 A 
ATOM      8  C6  OXE d   1      -0.922   3.689  -3.893  0.00  0.00     0.003 A 
ENDROOT
TORSDOF 0
ENDMDL
