MODEL 1
REMARK minimizedAffinity 14.3210945
REMARK minimizedRMSD -1
REMARK  0 active torsions:
REMARK  status: ('A' for Active; 'I' for Inactive)
ROOT
ATOM      1  C2' OXE d   1       4.057   1.170   0.753  0.00  0.00     0.078 C 
ATOM      2  C1' OXE d   1       1.863   0.187  -0.697  0.00  0.00     0.078 C 
ATOM      3  C1  OXE d   1       1.608   0.715   0.693  0.00  0.00    -0.078 A 
ATOM      4  C2  OXE d   1       2.695   1.151   1.412  0.00  0.00    -0.078 A 
ATOM      5  C3  OXE d   1       2.508   1.699   2.678  0.00  0.00     0.003 A 
ATOM      6  C4  OXE d   1       1.247   1.669   3.285  0.00  0.00    -0.002 A 
ATOM      7  C5  OXE d   1       0.134   1.193   2.585  0.00  0.00    -0.002 A 
ATOM      8  C6  OXE d   1       0.290   0.753   1.275  0.00  0.00     0.003 A 
ENDROOT
TORSDOF 0
ENDMDL
