MODEL 1
REMARK minimizedAffinity 14.1303196
REMARK minimizedRMSD -1
REMARK  0 active torsions:
REMARK  status: ('A' for Active; 'I' for Inactive)
ROOT
ATOM      1  C2' OXE d   1       3.873   0.694   0.894  0.00  0.00     0.078 C 
ATOM      2  C1' OXE d   1       4.242  -2.065   0.535  0.00  0.00     0.078 C 
ATOM      3  C1  OXE d   1       3.268  -1.361  -0.376  0.00  0.00    -0.078 A 
ATOM      4  C2  OXE d   1       3.059  -0.020  -0.163  0.00  0.00    -0.078 A 
ATOM      5  C3  OXE d   1       2.212   0.689  -1.010  0.00  0.00     0.003 A 
ATOM      6  C4  OXE d   1       1.455   0.019  -1.979  0.00  0.00    -0.002 A 
ATOM      7  C5  OXE d   1       1.624  -1.354  -2.187  0.00  0.00    -0.002 A 
ATOM      8  C6  OXE d   1       2.555  -2.049  -1.424  0.00  0.00     0.003 A 
ENDROOT
TORSDOF 0
ENDMDL
