MODEL 1
REMARK minimizedAffinity 13.7714643
REMARK minimizedRMSD -1
REMARK  0 active torsions:
REMARK  status: ('A' for Active; 'I' for Inactive)
ROOT
ATOM      1  C2' OXE d   1      -2.710  -4.883  -2.539  0.00  0.00     0.078 C 
ATOM      2  C1' OXE d   1      -0.665  -3.445  -3.816  0.00  0.00     0.078 C 
ATOM      3  C1  OXE d   1      -2.063  -3.321  -4.368  0.00  0.00    -0.078 A 
ATOM      4  C2  OXE d   1      -3.049  -4.065  -3.766  0.00  0.00    -0.078 A 
ATOM      5  C3  OXE d   1      -4.366  -3.945  -4.202  0.00  0.00     0.003 A 
ATOM      6  C4  OXE d   1      -4.669  -3.194  -5.344  0.00  0.00    -0.002 A 
ATOM      7  C5  OXE d   1      -3.673  -2.461  -5.996  0.00  0.00    -0.002 A 
ATOM      8  C6  OXE d   1      -2.375  -2.479  -5.497  0.00  0.00     0.003 A 
ENDROOT
TORSDOF 0
ENDMDL
