MODEL 1
REMARK minimizedAffinity 12.6619873
REMARK minimizedRMSD -1
REMARK  0 active torsions:
REMARK  status: ('A' for Active; 'I' for Inactive)
ROOT
ATOM      1  C2' OXE d   1       1.579   1.128   5.981  0.00  0.00     0.078 C 
ATOM      2  C1' OXE d   1      -0.572   2.932   5.986  0.00  0.00     0.078 C 
ATOM      3  C1  OXE d   1      -0.212   2.270   4.679  0.00  0.00    -0.078 A 
ATOM      4  C2  OXE d   1       0.871   1.424   4.677  0.00  0.00    -0.078 A 
ATOM      5  C3  OXE d   1       1.213   0.745   3.511  0.00  0.00     0.003 A 
ATOM      6  C4  OXE d   1       0.560   1.033   2.306  0.00  0.00    -0.002 A 
ATOM      7  C5  OXE d   1      -0.520   1.921   2.278  0.00  0.00    -0.002 A 
ATOM      8  C6  OXE d   1      -0.945   2.515   3.462  0.00  0.00     0.003 A 
ENDROOT
TORSDOF 0
ENDMDL
