MODEL 1
REMARK minimizedAffinity 12.1525202
REMARK minimizedRMSD -1
REMARK  0 active torsions:
REMARK  status: ('A' for Active; 'I' for Inactive)
ROOT
ATOM      1  C2' OXE d   1       3.267   1.474  -0.527  0.00  0.00     0.078 C 
ATOM      2  C1' OXE d   1       1.587  -0.250  -1.971  0.00  0.00     0.078 C 
ATOM      3  C1  OXE d   1       2.509  -0.862  -0.946  0.00  0.00    -0.078 A 
ATOM      4  C2  OXE d   1       3.361  -0.016  -0.277  0.00  0.00    -0.078 A 
ATOM      5  C3  OXE d   1       4.193  -0.520   0.717  0.00  0.00     0.003 A 
ATOM      6  C4  OXE d   1       4.281  -1.901   0.935  0.00  0.00    -0.002 A 
ATOM      7  C5  OXE d   1       3.451  -2.784   0.237  0.00  0.00    -0.002 A 
ATOM      8  C6  OXE d   1       2.531  -2.278  -0.675  0.00  0.00     0.003 A 
ENDROOT
TORSDOF 0
ENDMDL
