MODEL 1
REMARK minimizedAffinity 7.28080463
REMARK minimizedRMSD -1
REMARK  0 active torsions:
REMARK  status: ('A' for Active; 'I' for Inactive)
ROOT
ATOM      1  C2' OXE d   1       1.524   0.081  -0.778  0.00  0.00     0.078 C 
ATOM      2  C1' OXE d   1       3.386   1.131   1.041  0.00  0.00     0.078 C 
ATOM      3  C1  OXE d   1       1.928   1.176   1.422  0.00  0.00    -0.078 A 
ATOM      4  C2  OXE d   1       1.020   0.702   0.506  0.00  0.00    -0.078 A 
ATOM      5  C3  OXE d   1      -0.334   0.669   0.830  0.00  0.00     0.003 A 
ATOM      6  C4  OXE d   1      -0.793   1.255   2.016  0.00  0.00    -0.002 A 
ATOM      7  C5  OXE d   1       0.112   1.779   2.946  0.00  0.00    -0.002 A 
ATOM      8  C6  OXE d   1       1.476   1.709   2.684  0.00  0.00     0.003 A 
ENDROOT
TORSDOF 0
ENDMDL
