MODEL 1
REMARK minimizedAffinity 17.8707695
REMARK minimizedRMSD -1
REMARK  0 active torsions:
REMARK  status: ('A' for Active; 'I' for Inactive)
ROOT
ATOM      1  C2' OXE d   1      -0.472   2.232   5.266  0.00  0.00     0.078 C 
ATOM      2  C1' OXE d   1      -1.752   1.770   2.810  0.00  0.00     0.078 C 
ATOM      3  C1  OXE d   1      -0.252   1.614   2.863  0.00  0.00    -0.078 A 
ATOM      4  C2  OXE d   1       0.370   1.888   4.057  0.00  0.00    -0.078 A 
ATOM      5  C3  OXE d   1       1.745   1.706   4.175  0.00  0.00     0.003 A 
ATOM      6  C4  OXE d   1       2.518   1.397   3.049  0.00  0.00    -0.002 A 
ATOM      7  C5  OXE d   1       1.908   1.153   1.814  0.00  0.00    -0.002 A 
ATOM      8  C6  OXE d   1       0.523   1.216   1.714  0.00  0.00     0.003 A 
ENDROOT
TORSDOF 0
ENDMDL
