MODEL 1
REMARK minimizedAffinity 6.27775192
REMARK minimizedRMSD -1
REMARK  0 active torsions:
REMARK  status: ('A' for Active; 'I' for Inactive)
ROOT
ATOM      1  C2' OXE d   1       2.696   2.059  -2.179  0.00  0.00     0.078 C 
ATOM      2  C1' OXE d   1       0.853  -0.045  -1.941  0.00  0.00     0.078 C 
ATOM      3  C1  OXE d   1       2.167  -0.174  -1.211  0.00  0.00    -0.078 A 
ATOM      4  C2  OXE d   1       3.082   0.839  -1.371  0.00  0.00    -0.078 A 
ATOM      5  C3  OXE d   1       4.287   0.796  -0.677  0.00  0.00     0.003 A 
ATOM      6  C4  OXE d   1       4.640  -0.341   0.060  0.00  0.00    -0.002 A 
ATOM      7  C5  OXE d   1       3.740  -1.402   0.203  0.00  0.00    -0.002 A 
ATOM      8  C6  OXE d   1       2.485  -1.316  -0.389  0.00  0.00     0.003 A 
ENDROOT
TORSDOF 0
ENDMDL
