MODEL 1
REMARK minimizedAffinity 13.4328909
REMARK minimizedRMSD -1
REMARK  0 active torsions:
REMARK  status: ('A' for Active; 'I' for Inactive)
ROOT
ATOM      1  C2' OXE d   1      -4.360   1.667   3.396  0.00  0.00     0.078 C 
ATOM      2  C1' OXE d   1      -3.392  -0.962   3.568  0.00  0.00     0.078 C 
ATOM      3  C1  OXE d   1      -2.420   0.121   3.172  0.00  0.00    -0.078 A 
ATOM      4  C2  OXE d   1      -2.913   1.397   3.045  0.00  0.00    -0.078 A 
ATOM      5  C3  OXE d   1      -2.048   2.443   2.736  0.00  0.00     0.003 A 
ATOM      6  C4  OXE d   1      -0.713   2.183   2.403  0.00  0.00    -0.002 A 
ATOM      7  C5  OXE d   1      -0.200   0.885   2.487  0.00  0.00    -0.002 A 
ATOM      8  C6  OXE d   1      -1.028  -0.149   2.911  0.00  0.00     0.003 A 
ENDROOT
TORSDOF 0
ENDMDL
