MODEL 1
REMARK minimizedAffinity 15.9147682
REMARK minimizedRMSD -1
REMARK  0 active torsions:
REMARK  status: ('A' for Active; 'I' for Inactive)
ROOT
ATOM      1  C2' OXE d   1       5.294  -3.332  -3.562  0.00  0.00     0.078 C 
ATOM      2  C1' OXE d   1       5.999  -3.828  -0.890  0.00  0.00     0.078 C 
ATOM      3  C1  OXE d   1       4.683  -3.139  -1.154  0.00  0.00    -0.078 A 
ATOM      4  C2  OXE d   1       4.368  -2.858  -2.462  0.00  0.00    -0.078 A 
ATOM      5  C3  OXE d   1       3.142  -2.274  -2.765  0.00  0.00     0.003 A 
ATOM      6  C4  OXE d   1       2.295  -1.830  -1.742  0.00  0.00    -0.002 A 
ATOM      7  C5  OXE d   1       2.616  -2.071  -0.401  0.00  0.00    -0.002 A 
ATOM      8  C6  OXE d   1       3.783  -2.760  -0.093  0.00  0.00     0.003 A 
ENDROOT
TORSDOF 0
ENDMDL
