MODEL 1
REMARK minimizedAffinity 10.0300741
REMARK minimizedRMSD -1
REMARK  0 active torsions:
REMARK  status: ('A' for Active; 'I' for Inactive)
ROOT
ATOM      1  C2' OXE d   1       2.073  -2.871   0.073  0.00  0.00     0.078 C 
ATOM      2  C1' OXE d   1       0.780  -2.686  -2.412  0.00  0.00     0.078 C 
ATOM      3  C1  OXE d   1       1.568  -1.490  -1.938  0.00  0.00    -0.078 A 
ATOM      4  C2  OXE d   1       2.159  -1.572  -0.700  0.00  0.00    -0.078 A 
ATOM      5  C3  OXE d   1       2.943  -0.519  -0.239  0.00  0.00     0.003 A 
ATOM      6  C4  OXE d   1       3.009   0.682  -0.956  0.00  0.00    -0.002 A 
ATOM      7  C5  OXE d   1       2.382   0.801  -2.201  0.00  0.00    -0.002 A 
ATOM      8  C6  OXE d   1       1.695  -0.288  -2.725  0.00  0.00     0.003 A 
ENDROOT
TORSDOF 0
ENDMDL
