MODEL 1
REMARK minimizedAffinity 1.17293704
REMARK minimizedRMSD -1
REMARK  0 active torsions:
REMARK  status: ('A' for Active; 'I' for Inactive)
ROOT
ATOM      1  C   UNL d   1      -1.343   0.114  -1.855  0.00  0.00     0.023 A 
ATOM      2  C1  UNL d   1      -0.300   0.307  -0.949  0.00  0.00     0.003 A 
ATOM      3  C2  UNL d   1       0.084   1.601  -0.591  0.00  0.00     0.048 A 
ATOM      4  C3  UNL d   1      -0.579   2.697  -1.142  0.00  0.00     0.023 A 
ATOM      5  C4  UNL d   1      -1.624   2.508  -2.048  0.00  0.00     0.048 A 
ATOM      6  C5  UNL d   1      -2.004   1.213  -2.404  0.00  0.00     0.003 A 
ATOM      7  I   UNL d   1      -0.009   4.623  -0.610  0.00  0.00    -0.146 I 
ENDROOT
TORSDOF 0
ENDMDL
