MODEL 1
REMARK minimizedAffinity 7.14878511
REMARK minimizedRMSD -1
REMARK  0 active torsions:
REMARK  status: ('A' for Active; 'I' for Inactive)
ROOT
ATOM      1  C   UNL d   1      -1.585   5.902  -1.872  0.00  0.00     0.023 A 
ATOM      2  C1  UNL d   1      -0.770   4.908  -2.414  0.00  0.00     0.003 A 
ATOM      3  C2  UNL d   1      -0.112   4.008  -1.573  0.00  0.00     0.048 A 
ATOM      4  C3  UNL d   1      -0.274   4.107  -0.191  0.00  0.00     0.023 A 
ATOM      5  C4  UNL d   1      -1.090   5.099   0.355  0.00  0.00     0.048 A 
ATOM      6  C5  UNL d   1      -1.745   5.998  -0.490  0.00  0.00     0.003 A 
ATOM      7  I   UNL d   1       0.703   2.769   1.063  0.00  0.00    -0.146 I 
ENDROOT
TORSDOF 0
ENDMDL
