MODEL 1
REMARK minimizedAffinity -0.203139991
REMARK minimizedRMSD -1
REMARK  0 active torsions:
REMARK  status: ('A' for Active; 'I' for Inactive)
ROOT
ATOM      1  C   UNL d   1       0.168   3.755   0.740  0.00  0.00     0.023 A 
ATOM      2  C1  UNL d   1      -1.116   4.282   0.595  0.00  0.00     0.003 A 
ATOM      3  C2  UNL d   1      -1.478   4.927  -0.590  0.00  0.00     0.048 A 
ATOM      4  C3  UNL d   1      -0.551   5.041  -1.626  0.00  0.00     0.023 A 
ATOM      5  C4  UNL d   1       0.734   4.515  -1.486  0.00  0.00     0.048 A 
ATOM      6  C5  UNL d   1       1.092   3.872  -0.299  0.00  0.00     0.003 A 
ATOM      7  I   UNL d   1      -1.087   6.000  -3.390  0.00  0.00    -0.146 I 
ENDROOT
TORSDOF 0
ENDMDL
