MODEL 1
REMARK minimizedAffinity 10.1127682
REMARK minimizedRMSD -1
REMARK  0 active torsions:
REMARK  status: ('A' for Active; 'I' for Inactive)
ROOT
ATOM      1  C   UNL d   1      -0.375  -2.160  -1.448  0.00  0.00     0.023 A 
ATOM      2  C1  UNL d   1       0.493  -1.069  -1.484  0.00  0.00     0.003 A 
ATOM      3  C2  UNL d   1       1.865  -1.260  -1.305  0.00  0.00     0.048 A 
ATOM      4  C3  UNL d   1       2.362  -2.545  -1.092  0.00  0.00     0.023 A 
ATOM      5  C4  UNL d   1       1.497  -3.640  -1.056  0.00  0.00     0.048 A 
ATOM      6  C5  UNL d   1       0.126  -3.444  -1.234  0.00  0.00     0.003 A 
ATOM      7  I   UNL d   1       4.403  -2.832  -0.826  0.00  0.00    -0.146 I 
ENDROOT
TORSDOF 0
ENDMDL
