MODEL 1
REMARK minimizedAffinity 1.85205781
REMARK minimizedRMSD -1
REMARK  0 active torsions:
REMARK  status: ('A' for Active; 'I' for Inactive)
ROOT
ATOM      1  C   UNL d   1      -4.418  -2.554   5.597  0.00  0.00     0.023 A 
ATOM      2  C1  UNL d   1      -3.754  -2.241   4.411  0.00  0.00     0.003 A 
ATOM      3  C2  UNL d   1      -4.207  -1.189   3.612  0.00  0.00     0.048 A 
ATOM      4  C3  UNL d   1      -5.324  -0.453   4.006  0.00  0.00     0.023 A 
ATOM      5  C4  UNL d   1      -5.991  -0.762   5.193  0.00  0.00     0.048 A 
ATOM      6  C5  UNL d   1      -5.535  -1.815   5.988  0.00  0.00     0.003 A 
ATOM      7  I   UNL d   1      -5.999   1.113   2.819  0.00  0.00    -0.146 I 
ENDROOT
TORSDOF 0
ENDMDL
