MODEL 1
REMARK minimizedAffinity 2.86881971
REMARK minimizedRMSD -1
REMARK  0 active torsions:
REMARK  status: ('A' for Active; 'I' for Inactive)
ROOT
ATOM      1  C   UNL d   1       0.026   1.085   3.673  0.00  0.00     0.023 A 
ATOM      2  C1  UNL d   1       1.212   1.558   3.111  0.00  0.00     0.003 A 
ATOM      3  C2  UNL d   1       1.171   2.420   2.013  0.00  0.00     0.048 A 
ATOM      4  C3  UNL d   1      -0.059   2.804   1.482  0.00  0.00     0.023 A 
ATOM      5  C4  UNL d   1      -1.249   2.334   2.041  0.00  0.00     0.048 A 
ATOM      6  C5  UNL d   1      -1.203   1.473   3.139  0.00  0.00     0.003 A 
ATOM      7  I   UNL d   1      -0.123   4.086  -0.153  0.00  0.00    -0.146 I 
ENDROOT
TORSDOF 0
ENDMDL
