MODEL 1
REMARK minimizedAffinity 8.26297855
REMARK minimizedRMSD -1
REMARK  0 active torsions:
REMARK  status: ('A' for Active; 'I' for Inactive)
ROOT
ATOM      1  C   UNL d   1       5.491  -2.556  -0.059  0.00  0.00     0.023 A 
ATOM      2  C1  UNL d   1       4.491  -2.246  -0.980  0.00  0.00     0.003 A 
ATOM      3  C2  UNL d   1       3.998  -3.233  -1.835  0.00  0.00     0.048 A 
ATOM      4  C3  UNL d   1       4.508  -4.529  -1.764  0.00  0.00     0.023 A 
ATOM      5  C4  UNL d   1       5.509  -4.844  -0.843  0.00  0.00     0.048 A 
ATOM      6  C5  UNL d   1       6.000  -3.853   0.010  0.00  0.00     0.003 A 
ATOM      7  I   UNL d   1       3.776  -6.000  -3.036  0.00  0.00    -0.146 I 
ENDROOT
TORSDOF 0
ENDMDL
