MODEL 1
REMARK minimizedAffinity 0.294508636
REMARK minimizedRMSD -1
REMARK  0 active torsions:
REMARK  status: ('A' for Active; 'I' for Inactive)
ROOT
ATOM      1  C   UNL d   1       0.549   4.514  -5.058  0.00  0.00     0.172 C 
ATOM      2  N   UNL d   1       1.927   4.879  -5.294  0.00  0.00    -0.070 N 
ATOM      3  C1  UNL d   1       3.022   4.172  -4.876  0.00  0.00    -0.004 A 
ATOM      4  C2  UNL d   1       4.147   4.847  -5.300  0.00  0.00    -0.047 A 
ATOM      5  C3  UNL d   1       3.712   6.000  -5.995  0.00  0.00    -0.047 A 
ATOM      6  C4  UNL d   1       2.333   5.995  -5.977  0.00  0.00    -0.004 A 
ENDROOT
TORSDOF 0
ENDMDL
