MODEL 1
REMARK minimizedAffinity 3.66035867
REMARK minimizedRMSD -1
REMARK  0 active torsions:
REMARK  status: ('A' for Active; 'I' for Inactive)
ROOT
ATOM      1  C   UNL d   1       4.141  -2.510   5.908  0.00  0.00     0.172 C 
ATOM      2  N   UNL d   1       4.146  -3.803   5.265  0.00  0.00    -0.070 N 
ATOM      3  C1  UNL d   1       4.195  -5.013   5.904  0.00  0.00    -0.004 A 
ATOM      4  C2  UNL d   1       4.181  -6.000   4.942  0.00  0.00    -0.047 A 
ATOM      5  C3  UNL d   1       4.124  -5.361   3.681  0.00  0.00    -0.047 A 
ATOM      6  C4  UNL d   1       4.103  -4.001   3.910  0.00  0.00    -0.004 A 
ENDROOT
TORSDOF 0
ENDMDL
