MODEL 1
REMARK minimizedAffinity 2.91085768
REMARK minimizedRMSD -1
REMARK  0 active torsions:
REMARK  status: ('A' for Active; 'I' for Inactive)
ROOT
ATOM      1  C   UNL d   1       4.389  -2.434   5.959  0.00  0.00     0.172 C 
ATOM      2  N   UNL d   1       4.399  -3.878   5.974  0.00  0.00    -0.070 N 
ATOM      3  C1  UNL d   1       3.293  -4.685   5.978  0.00  0.00    -0.004 A 
ATOM      4  C2  UNL d   1       3.724  -5.994   5.994  0.00  0.00    -0.047 A 
ATOM      5  C3  UNL d   1       5.139  -5.973   6.000  0.00  0.00    -0.047 A 
ATOM      6  C4  UNL d   1       5.531  -4.651   5.988  0.00  0.00    -0.004 A 
ENDROOT
TORSDOF 0
ENDMDL
