MODEL 1
REMARK minimizedAffinity -0.805704415
REMARK minimizedRMSD -1
REMARK  0 active torsions:
REMARK  status: ('A' for Active; 'I' for Inactive)
ROOT
ATOM      1  C   UNL d   1      -3.336   5.997   4.751  0.00  0.00     0.172 C 
ATOM      2  N   UNL d   1      -1.895   5.998   4.832  0.00  0.00    -0.070 N 
ATOM      3  C1  UNL d   1      -1.035   5.996   3.766  0.00  0.00    -0.004 A 
ATOM      4  C2  UNL d   1       0.251   5.998   4.261  0.00  0.00    -0.047 A 
ATOM      5  C3  UNL d   1       0.161   5.999   5.673  0.00  0.00    -0.047 A 
ATOM      6  C4  UNL d   1      -1.178   5.999   6.000  0.00  0.00    -0.004 A 
ENDROOT
TORSDOF 0
ENDMDL
