MODEL 1
REMARK minimizedAffinity 1.16133678
REMARK minimizedRMSD -1
REMARK  0 active torsions:
REMARK  status: ('A' for Active; 'I' for Inactive)
ROOT
ATOM      1  C   UNL d   1       0.921  -4.874   0.667  0.00  0.00     0.172 C 
ATOM      2  N   UNL d   1       1.359  -3.504   0.547  0.00  0.00    -0.070 N 
ATOM      3  C1  UNL d   1       1.179  -2.523   1.485  0.00  0.00    -0.004 A 
ATOM      4  C2  UNL d   1       1.738  -1.362   0.995  0.00  0.00    -0.047 A 
ATOM      5  C3  UNL d   1       2.273  -1.656  -0.282  0.00  0.00    -0.047 A 
ATOM      6  C4  UNL d   1       2.024  -2.988  -0.534  0.00  0.00    -0.004 A 
ENDROOT
TORSDOF 0
ENDMDL
