MODEL 1
REMARK minimizedAffinity 4.35997152
REMARK minimizedRMSD -1
REMARK  0 active torsions:
REMARK  status: ('A' for Active; 'I' for Inactive)
ROOT
ATOM      1  C   UNL d   1       0.030  -1.348   1.390  0.00  0.00     0.172 C 
ATOM      2  N   UNL d   1       1.126  -2.240   1.094  0.00  0.00    -0.070 N 
ATOM      3  C1  UNL d   1       2.452  -1.899   1.082  0.00  0.00    -0.004 A 
ATOM      4  C2  UNL d   1       3.175  -3.027   0.756  0.00  0.00    -0.047 A 
ATOM      5  C3  UNL d   1       2.251  -4.081   0.565  0.00  0.00    -0.047 A 
ATOM      6  C4  UNL d   1       0.990  -3.567   0.781  0.00  0.00    -0.004 A 
ENDROOT
TORSDOF 0
ENDMDL
