MODEL 1
REMARK minimizedAffinity 0.463858008
REMARK minimizedRMSD -1
REMARK  0 active torsions:
REMARK  status: ('A' for Active; 'I' for Inactive)
ROOT
ATOM      1  C   UNL d   1       4.518  -2.342   5.284  0.00  0.00     0.172 C 
ATOM      2  N   UNL d   1       4.845  -3.741   5.429  0.00  0.00    -0.070 N 
ATOM      3  C1  UNL d   1       4.064  -4.790   5.022  0.00  0.00    -0.004 A 
ATOM      4  C2  UNL d   1       4.726  -5.956   5.337  0.00  0.00    -0.047 A 
ATOM      5  C3  UNL d   1       5.947  -5.597   5.956  0.00  0.00    -0.047 A 
ATOM      6  C4  UNL d   1       5.995  -4.219   6.000  0.00  0.00    -0.004 A 
ENDROOT
TORSDOF 0
ENDMDL
