MODEL 1
REMARK minimizedAffinity 11.2555847
REMARK minimizedRMSD -1
REMARK  2 active torsions:
REMARK  status: ('A' for Active; 'I' for Inactive)
REMARK    1  A    between atoms: C1_2  and  C2_3 
REMARK    2  A    between atoms: C2_3  and  C3_4 
ROOT
ATOM      1  C3  UNL d   1      -5.352  -2.444   0.817  0.00  0.00    -0.075 A 
ATOM      2  C4  UNL d   1      -5.995  -1.669  -0.159  0.00  0.00     0.002 A 
ATOM      3  C5  UNL d   1      -5.754  -1.893  -1.514  0.00  0.00     0.002 A 
ATOM      4  C6  UNL d   1      -4.862  -2.887  -1.911  0.00  0.00    -0.004 A 
ATOM      5  C7  UNL d   1      -4.205  -3.653  -0.951  0.00  0.00     0.002 A 
ATOM      6  C8  UNL d   1      -4.447  -3.433   0.406  0.00  0.00     0.002 A 
ENDROOT
BRANCH   1   7
ATOM      7  C2  UNL d   1      -5.630  -2.226   2.285  0.00  0.00     0.056 C 
BRANCH   7   8
ATOM      8  C1  UNL d   1      -5.675  -3.516   3.110  0.00  0.00     0.007 C 
ATOM      9  C   UNL d   1      -4.989  -3.388   4.463  0.00  0.00     0.009 C 
ENDBRANCH   7   8
ENDBRANCH   1   7
TORSDOF 2
ENDMDL
