MODEL 1
REMARK minimizedAffinity 6.24360561
REMARK minimizedRMSD -1
REMARK  2 active torsions:
REMARK  status: ('A' for Active; 'I' for Inactive)
REMARK    1  A    between atoms: C1_2  and  C2_3 
REMARK    2  A    between atoms: C2_3  and  C3_4 
ROOT
ATOM      1  C3  UNL d   1      -1.993  -0.286  -0.439  0.00  0.00    -0.075 A 
ATOM      2  C4  UNL d   1      -2.867  -0.197  -1.532  0.00  0.00     0.002 A 
ATOM      3  C5  UNL d   1      -3.602  -1.309  -1.944  0.00  0.00     0.002 A 
ATOM      4  C6  UNL d   1      -3.464  -2.524  -1.278  0.00  0.00    -0.004 A 
ATOM      5  C7  UNL d   1      -2.586  -2.629  -0.201  0.00  0.00     0.002 A 
ATOM      6  C8  UNL d   1      -1.853  -1.517   0.217  0.00  0.00     0.002 A 
ENDROOT
BRANCH   1   7
ATOM      7  C2  UNL d   1      -1.218   0.922   0.031  0.00  0.00     0.056 C 
BRANCH   7   8
ATOM      8  C1  UNL d   1      -1.668   1.461   1.393  0.00  0.00     0.007 C 
ATOM      9  C   UNL d   1      -0.712   1.107   2.525  0.00  0.00     0.009 C 
ENDBRANCH   7   8
ENDBRANCH   1   7
TORSDOF 2
ENDMDL
