MODEL 1
REMARK minimizedAffinity 20.0852795
REMARK minimizedRMSD -1
REMARK  2 active torsions:
REMARK  status: ('A' for Active; 'I' for Inactive)
REMARK    1  A    between atoms: C1_2  and  C2_3 
REMARK    2  A    between atoms: C2_3  and  C3_4 
ROOT
ATOM      1  C3  UNL d   1      -1.008   0.570   2.007  0.00  0.00    -0.075 A 
ATOM      2  C4  UNL d   1      -1.004  -0.464   1.059  0.00  0.00     0.002 A 
ATOM      3  C5  UNL d   1      -2.028  -0.566   0.118  0.00  0.00     0.002 A 
ATOM      4  C6  UNL d   1      -3.073   0.355   0.117  0.00  0.00    -0.004 A 
ATOM      5  C7  UNL d   1      -3.096   1.377   1.065  0.00  0.00     0.002 A 
ATOM      6  C8  UNL d   1      -2.070   1.484   2.005  0.00  0.00     0.002 A 
ENDROOT
BRANCH   1   7
ATOM      7  C2  UNL d   1       0.112   0.704   3.010  0.00  0.00     0.056 C 
BRANCH   7   8
ATOM      8  C1  UNL d   1       1.085   1.849   2.710  0.00  0.00     0.007 C 
ATOM      9  C   UNL d   1       0.971   3.006   3.693  0.00  0.00     0.009 C 
ENDBRANCH   7   8
ENDBRANCH   1   7
TORSDOF 2
ENDMDL
