MODEL 1
REMARK minimizedAffinity 12.7677116
REMARK minimizedRMSD -1
REMARK  2 active torsions:
REMARK  status: ('A' for Active; 'I' for Inactive)
REMARK    1  A    between atoms: C1_2  and  C2_3 
REMARK    2  A    between atoms: C2_3  and  C3_4 
ROOT
ATOM      1  C3  UNL d   1      -3.193  -3.407  -5.649  0.00  0.00    -0.075 A 
ATOM      2  C4  UNL d   1      -3.747  -4.648  -5.994  0.00  0.00     0.002 A 
ATOM      3  C5  UNL d   1      -5.081  -4.934  -5.702  0.00  0.00     0.002 A 
ATOM      4  C6  UNL d   1      -5.874  -3.990  -5.054  0.00  0.00    -0.004 A 
ATOM      5  C7  UNL d   1      -5.329  -2.760  -4.691  0.00  0.00     0.002 A 
ATOM      6  C8  UNL d   1      -3.996  -2.469  -4.986  0.00  0.00     0.002 A 
ENDROOT
BRANCH   1   7
ATOM      7  C2  UNL d   1      -1.759  -3.079  -5.989  0.00  0.00     0.056 C 
BRANCH   7   8
ATOM      8  C1  UNL d   1      -1.311  -1.687  -5.530  0.00  0.00     0.007 C 
ATOM      9  C   UNL d   1      -0.100  -1.720  -4.608  0.00  0.00     0.009 C 
ENDBRANCH   7   8
ENDBRANCH   1   7
TORSDOF 2
ENDMDL
