MODEL 1
REMARK minimizedAffinity 2.67637515
REMARK minimizedRMSD -1
REMARK  2 active torsions:
REMARK  status: ('A' for Active; 'I' for Inactive)
REMARK    1  A    between atoms: C1_2  and  C2_3 
REMARK    2  A    between atoms: C2_3  and  C3_4 
ROOT
ATOM      1  C3  UNL d   1      -3.082   1.949   1.859  0.00  0.00    -0.075 A 
ATOM      2  C4  UNL d   1      -3.122   3.296   2.247  0.00  0.00     0.002 A 
ATOM      3  C5  UNL d   1      -4.323   4.006   2.220  0.00  0.00     0.002 A 
ATOM      4  C6  UNL d   1      -5.494   3.383   1.795  0.00  0.00    -0.004 A 
ATOM      5  C7  UNL d   1      -5.463   2.050   1.391  0.00  0.00     0.002 A 
ATOM      6  C8  UNL d   1      -4.264   1.336   1.422  0.00  0.00     0.002 A 
ENDROOT
BRANCH   1   7
ATOM      7  C2  UNL d   1      -1.792   1.166   1.914  0.00  0.00     0.056 C 
BRANCH   7   8
ATOM      8  C1  UNL d   1      -1.976  -0.318   2.246  0.00  0.00     0.007 C 
ATOM      9  C   UNL d   1      -1.605  -0.663   3.682  0.00  0.00     0.009 C 
ENDBRANCH   7   8
ENDBRANCH   1   7
TORSDOF 2
ENDMDL
