MODEL 1
REMARK minimizedAffinity 11.7979822
REMARK minimizedRMSD -1
REMARK  2 active torsions:
REMARK  status: ('A' for Active; 'I' for Inactive)
REMARK    1  A    between atoms: C1_2  and  C2_3 
REMARK    2  A    between atoms: C2_3  and  C3_4 
ROOT
ATOM      1  C3  UNL d   1      -0.333  -0.955  -5.079  0.00  0.00    -0.075 A 
ATOM      2  C4  UNL d   1      -1.046   0.240  -5.260  0.00  0.00     0.002 A 
ATOM      3  C5  UNL d   1      -2.366   0.216  -5.711  0.00  0.00     0.002 A 
ATOM      4  C6  UNL d   1      -2.985  -0.999  -5.996  0.00  0.00    -0.004 A 
ATOM      5  C7  UNL d   1      -2.281  -2.191  -5.837  0.00  0.00     0.002 A 
ATOM      6  C8  UNL d   1      -0.962  -2.170  -5.381  0.00  0.00     0.002 A 
ENDROOT
BRANCH   1   7
ATOM      7  C2  UNL d   1       1.086  -0.937  -4.564  0.00  0.00     0.056 C 
BRANCH   7   8
ATOM      8  C1  UNL d   1       1.263  -0.168  -3.250  0.00  0.00     0.007 C 
ATOM      9  C   UNL d   1       2.702   0.260  -2.993  0.00  0.00     0.009 C 
ENDBRANCH   7   8
ENDBRANCH   1   7
TORSDOF 2
ENDMDL
