MODEL 1
REMARK minimizedAffinity 6.82703257
REMARK minimizedRMSD -1
REMARK  2 active torsions:
REMARK  status: ('A' for Active; 'I' for Inactive)
REMARK    1  A    between atoms: C1_2  and  C2_3 
REMARK    2  A    between atoms: C2_3  and  C3_4 
ROOT
ATOM      1  C3  UNL d   1      -4.514   0.154   1.441  0.00  0.00    -0.075 A 
ATOM      2  C4  UNL d   1      -4.516   1.554   1.528  0.00  0.00     0.002 A 
ATOM      3  C5  UNL d   1      -3.319   2.257   1.674  0.00  0.00     0.002 A 
ATOM      4  C6  UNL d   1      -2.109   1.570   1.746  0.00  0.00    -0.004 A 
ATOM      5  C7  UNL d   1      -2.097   0.179   1.678  0.00  0.00     0.002 A 
ATOM      6  C8  UNL d   1      -3.292  -0.527   1.527  0.00  0.00     0.002 A 
ENDROOT
BRANCH   1   7
ATOM      7  C2  UNL d   1      -5.802  -0.610   1.253  0.00  0.00     0.056 C 
BRANCH   7   8
ATOM      8  C1  UNL d   1      -5.616  -2.010   0.659  0.00  0.00     0.007 C 
ATOM      9  C   UNL d   1      -5.876  -2.065  -0.841  0.00  0.00     0.009 C 
ENDBRANCH   7   8
ENDBRANCH   1   7
TORSDOF 2
ENDMDL
