MODEL 1
REMARK minimizedAffinity 7.72259092
REMARK minimizedRMSD -1
REMARK  2 active torsions:
REMARK  status: ('A' for Active; 'I' for Inactive)
REMARK    1  A    between atoms: C1_2  and  C2_3 
REMARK    2  A    between atoms: C2_3  and  C3_4 
ROOT
ATOM      1  C3  UNL d   1      -5.831  -3.066  -3.900  0.00  0.00    -0.075 A 
ATOM      2  C4  UNL d   1      -5.509  -3.996  -2.900  0.00  0.00     0.002 A 
ATOM      3  C5  UNL d   1      -5.382  -3.592  -1.571  0.00  0.00     0.002 A 
ATOM      4  C6  UNL d   1      -5.564  -2.255  -1.226  0.00  0.00    -0.004 A 
ATOM      5  C7  UNL d   1      -5.867  -1.319  -2.213  0.00  0.00     0.002 A 
ATOM      6  C8  UNL d   1      -6.000  -1.722  -3.543  0.00  0.00     0.002 A 
ENDROOT
BRANCH   1   7
ATOM      7  C2  UNL d   1      -6.000  -3.503  -5.336  0.00  0.00     0.056 C 
BRANCH   7   8
ATOM      8  C1  UNL d   1      -4.738  -4.114  -5.954  0.00  0.00     0.007 C 
ATOM      9  C   UNL d   1      -3.561  -3.148  -5.996  0.00  0.00     0.009 C 
ENDBRANCH   7   8
ENDBRANCH   1   7
TORSDOF 2
ENDMDL
