MODEL 1
REMARK minimizedAffinity 5.15601444
REMARK minimizedRMSD -1
REMARK  2 active torsions:
REMARK  status: ('A' for Active; 'I' for Inactive)
REMARK    1  A    between atoms: C1_2  and  C2_3 
REMARK    2  A    between atoms: C2_3  and  C3_4 
ROOT
ATOM      1  C3  UNL d   1       1.432   0.356  -4.447  0.00  0.00    -0.075 A 
ATOM      2  C4  UNL d   1       1.098  -0.853  -5.074  0.00  0.00     0.002 A 
ATOM      3  C5  UNL d   1       1.969  -1.942  -5.022  0.00  0.00     0.002 A 
ATOM      4  C6  UNL d   1       3.186  -1.833  -4.354  0.00  0.00    -0.004 A 
ATOM      5  C7  UNL d   1       3.536  -0.631  -3.742  0.00  0.00     0.002 A 
ATOM      6  C8  UNL d   1       2.665   0.459  -3.789  0.00  0.00     0.002 A 
ENDROOT
BRANCH   1   7
ATOM      7  C2  UNL d   1       0.481   1.529  -4.475  0.00  0.00     0.056 C 
BRANCH   7   8
ATOM      8  C1  UNL d   1      -0.704   1.393  -3.513  0.00  0.00     0.007 C 
ATOM      9  C   UNL d   1      -1.963   0.857  -4.183  0.00  0.00     0.009 C 
ENDBRANCH   7   8
ENDBRANCH   1   7
TORSDOF 2
ENDMDL
