MODEL 1
REMARK minimizedAffinity 8.11263084
REMARK minimizedRMSD -1
REMARK  2 active torsions:
REMARK  status: ('A' for Active; 'I' for Inactive)
REMARK    1  A    between atoms: C1_2  and  C2_3 
REMARK    2  A    between atoms: C2_3  and  C3_4 
ROOT
ATOM      1  C3  UNL d   1      -3.517   0.842   2.232  0.00  0.00    -0.075 A 
ATOM      2  C4  UNL d   1      -4.645   0.391   1.532  0.00  0.00     0.002 A 
ATOM      3  C5  UNL d   1      -5.831   0.104   2.209  0.00  0.00     0.002 A 
ATOM      4  C6  UNL d   1      -5.901   0.256   3.592  0.00  0.00    -0.004 A 
ATOM      5  C7  UNL d   1      -4.782   0.688   4.300  0.00  0.00     0.002 A 
ATOM      6  C8  UNL d   1      -3.595   0.980   3.625  0.00  0.00     0.002 A 
ENDROOT
BRANCH   1   7
ATOM      7  C2  UNL d   1      -2.239   1.182   1.503  0.00  0.00     0.056 C 
BRANCH   7   8
ATOM      8  C1  UNL d   1      -0.977   0.610   2.156  0.00  0.00     0.007 C 
ATOM      9  C   UNL d   1       0.165   1.615   2.239  0.00  0.00     0.009 C 
ENDBRANCH   7   8
ENDBRANCH   1   7
TORSDOF 2
ENDMDL
