MODEL 1
REMARK minimizedAffinity -3.79333735
REMARK minimizedRMSD -1
REMARK  0 active torsions:
REMARK  status: ('A' for Active; 'I' for Inactive)
ROOT
ATOM      1  O1  BZF d   1       0.147   1.537  -3.223  0.00  0.00    -0.204 OA
ATOM      2  C2  BZF d   1       0.857   0.665  -4.025  0.00  0.00     0.174 A 
ATOM      3  C3  BZF d   1       1.163  -0.463  -3.352  0.00  0.00    -0.012 A 
ATOM      4  C3A BZF d   1       0.529  -0.324  -2.077  0.00  0.00    -0.107 A 
ATOM      5  C4  BZF d   1       0.454  -1.125  -0.973  0.00  0.00     0.055 A 
ATOM      6  C5  BZF d   1      -0.182  -0.664   0.136  0.00  0.00    -0.016 A 
ATOM      7  C6  BZF d   1      -0.748   0.593   0.178  0.00  0.00     0.022 A 
ATOM      8  C7  BZF d   1      -0.703   1.422  -0.893  0.00  0.00     0.029 A 
ATOM      9  C7A BZF d   1      -0.090   0.946  -2.027  0.00  0.00     0.058 A 
ENDROOT
TORSDOF 0
ENDMDL
