MODEL 1
REMARK minimizedAffinity -1.87011361
REMARK minimizedRMSD -1
REMARK  0 active torsions:
REMARK  status: ('A' for Active; 'I' for Inactive)
ROOT
ATOM      1  O1  BZF d   1       1.814  -0.714   2.002  0.00  0.00    -0.204 OA
ATOM      2  C2  BZF d   1       1.590  -0.584   3.359  0.00  0.00     0.174 A 
ATOM      3  C3  BZF d   1       0.360  -0.084   3.595  0.00  0.00    -0.012 A 
ATOM      4  C3A BZF d   1      -0.256   0.024   2.309  0.00  0.00    -0.107 A 
ATOM      5  C4  BZF d   1      -1.486   0.442   1.889  0.00  0.00     0.055 A 
ATOM      6  C5  BZF d   1      -1.747   0.494   0.556  0.00  0.00    -0.016 A 
ATOM      7  C6  BZF d   1      -0.800   0.141  -0.383  0.00  0.00     0.022 A 
ATOM      8  C7  BZF d   1       0.433  -0.285  -0.015  0.00  0.00     0.029 A 
ATOM      9  C7A BZF d   1       0.688  -0.370   1.332  0.00  0.00     0.058 A 
ENDROOT
TORSDOF 0
ENDMDL
