MODEL 1
REMARK minimizedAffinity -4.30176735
REMARK minimizedRMSD -1
REMARK  0 active torsions:
REMARK  status: ('A' for Active; 'I' for Inactive)
ROOT
ATOM      1  O1  BZF d   1       1.130  -0.958  -0.148  0.00  0.00    -0.204 OA
ATOM      2  C2  BZF d   1      -0.064  -0.680  -0.785  0.00  0.00     0.174 A 
ATOM      3  C3  BZF d   1      -1.014  -0.334   0.108  0.00  0.00    -0.012 A 
ATOM      4  C3A BZF d   1      -0.348  -0.310   1.375  0.00  0.00    -0.107 A 
ATOM      5  C4  BZF d   1      -0.758  -0.022   2.645  0.00  0.00     0.055 A 
ATOM      6  C5  BZF d   1       0.122  -0.164   3.671  0.00  0.00    -0.016 A 
ATOM      7  C6  BZF d   1       1.415  -0.598   3.463  0.00  0.00     0.022 A 
ATOM      8  C7  BZF d   1       1.869  -0.891   2.220  0.00  0.00     0.029 A 
ATOM      9  C7A BZF d   1       0.992  -0.717   1.178  0.00  0.00     0.058 A 
ENDROOT
TORSDOF 0
ENDMDL
