MODEL 1
REMARK minimizedAffinity -4.58549786
REMARK minimizedRMSD -1
REMARK  0 active torsions:
REMARK  status: ('A' for Active; 'I' for Inactive)
ROOT
ATOM      1  O1  BZF d   1       0.302   0.389  -0.367  0.00  0.00    -0.204 OA
ATOM      2  C2  BZF d   1       1.678   0.497  -0.409  0.00  0.00     0.174 A 
ATOM      3  C3  BZF d   1       2.185   0.637   0.833  0.00  0.00    -0.012 A 
ATOM      4  C3A BZF d   1       1.062   0.524   1.713  0.00  0.00    -0.107 A 
ATOM      5  C4  BZF d   1       0.925   0.564   3.071  0.00  0.00     0.055 A 
ATOM      6  C5  BZF d   1      -0.319   0.495   3.612  0.00  0.00    -0.016 A 
ATOM      7  C6  BZF d   1      -1.448   0.391   2.825  0.00  0.00     0.022 A 
ATOM      8  C7  BZF d   1      -1.363   0.343   1.474  0.00  0.00     0.029 A 
ATOM      9  C7A BZF d   1      -0.104   0.379   0.925  0.00  0.00     0.058 A 
ENDROOT
TORSDOF 0
ENDMDL
