MODEL 1
REMARK minimizedAffinity -3.89841413
REMARK minimizedRMSD -1
REMARK  0 active torsions:
REMARK  status: ('A' for Active; 'I' for Inactive)
ROOT
ATOM      1  O1  BZF d   1       5.625   2.733   5.220  0.00  0.00    -0.204 OA
ATOM      2  C2  BZF d   1       5.389   1.581   4.494  0.00  0.00     0.174 A 
ATOM      3  C3  BZF d   1       4.878   1.877   3.281  0.00  0.00    -0.012 A 
ATOM      4  C3A BZF d   1       4.875   3.306   3.212  0.00  0.00    -0.107 A 
ATOM      5  C4  BZF d   1       4.498   4.199   2.250  0.00  0.00     0.055 A 
ATOM      6  C5  BZF d   1       4.554   5.529   2.525  0.00  0.00    -0.016 A 
ATOM      7  C6  BZF d   1       4.976   6.000   3.751  0.00  0.00     0.022 A 
ATOM      8  C7  BZF d   1       5.365   5.153   4.735  0.00  0.00     0.029 A 
ATOM      9  C7A BZF d   1       5.341   3.810   4.449  0.00  0.00     0.058 A 
ENDROOT
TORSDOF 0
ENDMDL
