MODEL 1
REMARK minimizedAffinity -3.02354097
REMARK minimizedRMSD -1
REMARK  0 active torsions:
REMARK  status: ('A' for Active; 'I' for Inactive)
ROOT
ATOM      1  O1  BZF d   1      -0.464  -0.924   0.107  0.00  0.00    -0.204 OA
ATOM      2  C2  BZF d   1      -1.674  -0.355  -0.241  0.00  0.00     0.174 A 
ATOM      3  C3  BZF d   1      -2.230   0.271   0.817  0.00  0.00    -0.012 A 
ATOM      4  C3A BZF d   1      -1.267   0.159   1.869  0.00  0.00    -0.107 A 
ATOM      5  C4  BZF d   1      -1.234   0.595   3.162  0.00  0.00     0.055 A 
ATOM      6  C5  BZF d   1      -0.178   0.256   3.948  0.00  0.00    -0.016 A 
ATOM      7  C6  BZF d   1       0.858  -0.521   3.475  0.00  0.00     0.022 A 
ATOM      8  C7  BZF d   1       0.873  -0.974   2.197  0.00  0.00     0.029 A 
ATOM      9  C7A BZF d   1      -0.177  -0.605   1.392  0.00  0.00     0.058 A 
ENDROOT
TORSDOF 0
ENDMDL
