MODEL 1
REMARK minimizedAffinity 6.34676981
REMARK minimizedRMSD -1
REMARK  1 active torsions:
REMARK  status: ('A' for Active; 'I' for Inactive)
REMARK    1  A    between atoms: N_2  and  C1_3 
ROOT
ATOM      1  C1  UNL d   1       4.208  -0.454  -2.520  0.00  0.00     0.143 A 
ATOM      2  C2  UNL d   1       3.184  -1.158  -1.878  0.00  0.00    -0.057 A 
ATOM      3  C3  UNL d   1       2.882  -0.932  -0.529  0.00  0.00     0.033 A 
ATOM      4  C4  UNL d   1       3.622  -0.016   0.211  0.00  0.00    -0.042 A 
ATOM      5  C5  UNL d   1       4.661   0.677  -0.400  0.00  0.00     0.033 A 
ATOM      6  C6  UNL d   1       4.953   0.452  -1.749  0.00  0.00    -0.057 A 
ENDROOT
BRANCH   1   7
ATOM      7  N   UNL d   1       4.620  -0.704  -3.831  0.00  0.00    -0.732 N 
ATOM      8  C   UNL d   1       5.998  -1.040  -4.120  0.00  0.00     0.284 C 
ATOM      9  H3  UNL d   1       3.940  -1.252  -4.354  0.00  0.00     0.395 HD
ENDBRANCH   1   7
TORSDOF 1
ENDMDL
