MODEL 1
REMARK minimizedAffinity 10.5728369
REMARK minimizedRMSD -1
REMARK  1 active torsions:
REMARK  status: ('A' for Active; 'I' for Inactive)
REMARK    1  A    between atoms: N_2  and  C1_3 
ROOT
ATOM      1  C1  UNL d   1       2.517   0.214  -0.358  0.00  0.00     0.143 A 
ATOM      2  C2  UNL d   1       3.457   1.242  -0.492  0.00  0.00    -0.057 A 
ATOM      3  C3  UNL d   1       4.829   0.991  -0.377  0.00  0.00     0.033 A 
ATOM      4  C4  UNL d   1       5.286  -0.292  -0.096  0.00  0.00    -0.042 A 
ATOM      5  C5  UNL d   1       4.369  -1.325   0.066  0.00  0.00     0.033 A 
ATOM      6  C6  UNL d   1       3.000  -1.069  -0.057  0.00  0.00    -0.057 A 
ENDROOT
BRANCH   1   7
ATOM      7  N   UNL d   1       1.135   0.418  -0.364  0.00  0.00    -0.732 N 
ATOM      8  C   UNL d   1       0.429   0.717   0.863  0.00  0.00     0.284 C 
ATOM      9  H3  UNL d   1       0.827   0.965  -1.165  0.00  0.00     0.395 HD
ENDBRANCH   1   7
TORSDOF 1
ENDMDL
