MODEL 1
REMARK minimizedAffinity 10.8561993
REMARK minimizedRMSD -1
REMARK  1 active torsions:
REMARK  status: ('A' for Active; 'I' for Inactive)
REMARK    1  A    between atoms: N_2  and  C1_3 
ROOT
ATOM      1  C1  UNL d   1       0.904  -3.275  -1.574  0.00  0.00     0.143 A 
ATOM      2  C2  UNL d   1       0.551  -4.564  -1.162  0.00  0.00    -0.057 A 
ATOM      3  C3  UNL d   1      -0.700  -5.110  -1.477  0.00  0.00     0.033 A 
ATOM      4  C4  UNL d   1      -1.633  -4.361  -2.187  0.00  0.00    -0.042 A 
ATOM      5  C5  UNL d   1      -1.312  -3.068  -2.585  0.00  0.00     0.033 A 
ATOM      6  C6  UNL d   1      -0.059  -2.532  -2.274  0.00  0.00    -0.057 A 
ENDROOT
BRANCH   1   7
ATOM      7  N   UNL d   1       2.094  -2.640  -1.208  0.00  0.00    -0.732 N 
ATOM      8  C   UNL d   1       2.375  -1.291  -1.649  0.00  0.00     0.284 C 
ATOM      9  H3  UNL d   1       2.350  -2.824  -0.241  0.00  0.00     0.395 HD
ENDBRANCH   1   7
TORSDOF 1
ENDMDL
