MODEL 1
REMARK minimizedAffinity 1.78296185
REMARK minimizedRMSD -1
REMARK  1 active torsions:
REMARK  status: ('A' for Active; 'I' for Inactive)
REMARK    1  A    between atoms: N_2  and  C1_3 
ROOT
ATOM      1  C1  UNL d   1      -3.669   1.845  -0.191  0.00  0.00     0.143 A 
ATOM      2  C2  UNL d   1      -3.710   3.183  -0.597  0.00  0.00    -0.057 A 
ATOM      3  C3  UNL d   1      -4.811   3.697  -1.292  0.00  0.00     0.033 A 
ATOM      4  C4  UNL d   1      -5.881   2.872  -1.621  0.00  0.00    -0.042 A 
ATOM      5  C5  UNL d   1      -5.851   1.532  -1.250  0.00  0.00     0.033 A 
ATOM      6  C6  UNL d   1      -4.752   1.026  -0.549  0.00  0.00    -0.057 A 
ENDROOT
BRANCH   1   7
ATOM      7  N   UNL d   1      -2.561   1.250   0.417  0.00  0.00    -0.732 N 
ATOM      8  C   UNL d   1      -1.236   1.805   0.239  0.00  0.00     0.284 C 
ATOM      9  H3  UNL d   1      -2.758   0.941   1.366  0.00  0.00     0.395 HD
ENDBRANCH   1   7
TORSDOF 1
ENDMDL
