MODEL 1
REMARK minimizedAffinity 10.2263851
REMARK minimizedRMSD -1
REMARK  1 active torsions:
REMARK  status: ('A' for Active; 'I' for Inactive)
REMARK    1  A    between atoms: N_2  and  C1_3 
ROOT
ATOM      1  C1  UNL d   1       5.215   3.079  -0.980  0.00  0.00     0.143 A 
ATOM      2  C2  UNL d   1       5.246   3.681   0.282  0.00  0.00    -0.057 A 
ATOM      3  C3  UNL d   1       5.621   5.021   0.439  0.00  0.00     0.033 A 
ATOM      4  C4  UNL d   1       6.000   5.777  -0.666  0.00  0.00    -0.042 A 
ATOM      5  C5  UNL d   1       6.000   5.192  -1.927  0.00  0.00     0.033 A 
ATOM      6  C6  UNL d   1       5.619   3.855  -2.078  0.00  0.00    -0.057 A 
ENDROOT
BRANCH   1   7
ATOM      7  N   UNL d   1       4.947   1.724  -1.189  0.00  0.00    -0.732 N 
ATOM      8  C   UNL d   1       4.856   0.810  -0.071  0.00  0.00     0.284 C 
ATOM      9  H3  UNL d   1       4.242   1.574  -1.907  0.00  0.00     0.395 HD
ENDBRANCH   1   7
TORSDOF 1
ENDMDL
