MODEL 1
REMARK minimizedAffinity 13.5829105
REMARK minimizedRMSD -1
REMARK  1 active torsions:
REMARK  status: ('A' for Active; 'I' for Inactive)
REMARK    1  A    between atoms: N_2  and  C1_3 
ROOT
ATOM      1  C1  UNL d   1      -5.871   2.779   4.165  0.00  0.00     0.143 A 
ATOM      2  C2  UNL d   1      -5.936   3.066   5.533  0.00  0.00    -0.057 A 
ATOM      3  C3  UNL d   1      -5.987   4.386   5.996  0.00  0.00     0.033 A 
ATOM      4  C4  UNL d   1      -5.944   5.447   5.097  0.00  0.00    -0.042 A 
ATOM      5  C5  UNL d   1      -5.854   5.186   3.735  0.00  0.00     0.033 A 
ATOM      6  C6  UNL d   1      -5.810   3.866   3.278  0.00  0.00    -0.057 A 
ENDROOT
BRANCH   1   7
ATOM      7  N   UNL d   1      -5.718   1.491   3.647  0.00  0.00    -0.732 N 
ATOM      8  C   UNL d   1      -4.667   1.198   2.697  0.00  0.00     0.284 C 
ATOM      9  H3  UNL d   1      -5.854   0.770   4.352  0.00  0.00     0.395 HD
ENDBRANCH   1   7
TORSDOF 1
ENDMDL
