MODEL 1
REMARK minimizedAffinity 7.39518976
REMARK minimizedRMSD -1
REMARK  1 active torsions:
REMARK  status: ('A' for Active; 'I' for Inactive)
REMARK    1  A    between atoms: N_2  and  C1_3 
ROOT
ATOM      1  C1  UNL d   1      -5.189   2.517  -4.131  0.00  0.00     0.143 A 
ATOM      2  C2  UNL d   1      -5.989   1.370  -4.097  0.00  0.00    -0.057 A 
ATOM      3  C3  UNL d   1      -5.589   0.186  -4.729  0.00  0.00     0.033 A 
ATOM      4  C4  UNL d   1      -4.391   0.137  -5.433  0.00  0.00    -0.042 A 
ATOM      5  C5  UNL d   1      -3.591   1.272  -5.501  0.00  0.00     0.033 A 
ATOM      6  C6  UNL d   1      -3.992   2.449  -4.862  0.00  0.00    -0.057 A 
ENDROOT
BRANCH   1   7
ATOM      7  N   UNL d   1      -5.577   3.752  -3.606  0.00  0.00    -0.732 N 
ATOM      8  C   UNL d   1      -5.894   4.859  -4.483  0.00  0.00     0.284 C 
ATOM      9  H3  UNL d   1      -6.207   3.657  -2.813  0.00  0.00     0.395 HD
ENDBRANCH   1   7
TORSDOF 1
ENDMDL
