MODEL 1
REMARK minimizedAffinity 8.96182537
REMARK minimizedRMSD -1
REMARK  1 active torsions:
REMARK  status: ('A' for Active; 'I' for Inactive)
REMARK    1  A    between atoms: N_2  and  C1_3 
ROOT
ATOM      1  C1  UNL d   1       4.475   1.380  -0.237  0.00  0.00     0.143 A 
ATOM      2  C2  UNL d   1       4.963   0.467  -1.178  0.00  0.00    -0.057 A 
ATOM      3  C3  UNL d   1       4.229  -0.671  -1.533  0.00  0.00     0.033 A 
ATOM      4  C4  UNL d   1       3.003  -0.932  -0.930  0.00  0.00    -0.042 A 
ATOM      5  C5  UNL d   1       2.510  -0.052   0.027  0.00  0.00     0.033 A 
ATOM      6  C6  UNL d   1       3.245   1.087   0.372  0.00  0.00    -0.057 A 
ENDROOT
BRANCH   1   7
ATOM      7  N   UNL d   1       5.202   2.478   0.231  0.00  0.00    -0.732 N 
ATOM      8  C   UNL d   1       4.950   3.804  -0.290  0.00  0.00     0.284 C 
ATOM      9  H3  UNL d   1       5.346   2.447   1.238  0.00  0.00     0.395 HD
ENDBRANCH   1   7
TORSDOF 1
ENDMDL
