MODEL 1
REMARK minimizedAffinity 5.39999437
REMARK minimizedRMSD -1
REMARK  1 active torsions:
REMARK  status: ('A' for Active; 'I' for Inactive)
REMARK    1  A    between atoms: N_2  and  C1_3 
ROOT
ATOM      1  C1  UNL d   1       1.972  -2.718  -1.333  0.00  0.00     0.143 A 
ATOM      2  C2  UNL d   1       1.850  -2.794   0.059  0.00  0.00    -0.057 A 
ATOM      3  C3  UNL d   1       2.445  -1.840   0.893  0.00  0.00     0.033 A 
ATOM      4  C4  UNL d   1       3.199  -0.805   0.349  0.00  0.00    -0.042 A 
ATOM      5  C5  UNL d   1       3.354  -0.724  -1.030  0.00  0.00     0.033 A 
ATOM      6  C6  UNL d   1       2.752  -1.677  -1.858  0.00  0.00    -0.057 A 
ENDROOT
BRANCH   1   7
ATOM      7  N   UNL d   1       1.487  -3.691  -2.210  0.00  0.00    -0.732 N 
ATOM      8  C   UNL d   1       0.368  -4.530  -1.836  0.00  0.00     0.284 C 
ATOM      9  H3  UNL d   1       1.458  -3.366  -3.173  0.00  0.00     0.395 HD
ENDBRANCH   1   7
TORSDOF 1
ENDMDL
