MODEL 1
REMARK minimizedAffinity 3.6917882
REMARK minimizedRMSD -1
REMARK  1 active torsions:
REMARK  status: ('A' for Active; 'I' for Inactive)
REMARK    1  A    between atoms: N_2  and  C1_3 
ROOT
ATOM      1  C1  UNL d   1       5.426   3.392  -0.181  0.00  0.00     0.143 A 
ATOM      2  C2  UNL d   1       6.000   2.997   1.032  0.00  0.00    -0.057 A 
ATOM      3  C3  UNL d   1       5.731   1.740   1.587  0.00  0.00     0.033 A 
ATOM      4  C4  UNL d   1       4.858   0.864   0.951  0.00  0.00    -0.042 A 
ATOM      5  C5  UNL d   1       4.256   1.246  -0.243  0.00  0.00     0.033 A 
ATOM      6  C6  UNL d   1       4.533   2.500  -0.796  0.00  0.00    -0.057 A 
ENDROOT
BRANCH   1   7
ATOM      7  N   UNL d   1       5.576   4.666  -0.734  0.00  0.00    -0.732 N 
ATOM      8  C   UNL d   1       5.502   5.846   0.101  0.00  0.00     0.284 C 
ATOM      9  H3  UNL d   1       6.310   4.700  -1.437  0.00  0.00     0.395 HD
ENDBRANCH   1   7
TORSDOF 1
ENDMDL
