MODEL 1
REMARK minimizedAffinity 12.2586117
REMARK minimizedRMSD -1
REMARK  1 active torsions:
REMARK  status: ('A' for Active; 'I' for Inactive)
REMARK    1  A    between atoms: N_2  and  C1_3 
ROOT
ATOM      1  C1  UNL d   1       3.583   0.457  -0.775  0.00  0.00     0.143 A 
ATOM      2  C2  UNL d   1       4.262   0.765  -1.958  0.00  0.00    -0.057 A 
ATOM      3  C3  UNL d   1       5.467   1.479  -1.939  0.00  0.00     0.033 A 
ATOM      4  C4  UNL d   1       6.000   1.923  -0.734  0.00  0.00    -0.042 A 
ATOM      5  C5  UNL d   1       5.329   1.649   0.453  0.00  0.00     0.033 A 
ATOM      6  C6  UNL d   1       4.130   0.931   0.428  0.00  0.00    -0.057 A 
ENDROOT
BRANCH   1   7
ATOM      7  N   UNL d   1       2.331  -0.163  -0.735  0.00  0.00    -0.732 N 
ATOM      8  C   UNL d   1       1.117   0.624  -0.757  0.00  0.00     0.284 C 
ATOM      9  H3  UNL d   1       2.294  -1.001  -1.312  0.00  0.00     0.395 HD
ENDBRANCH   1   7
TORSDOF 1
ENDMDL
