MODEL 1
REMARK minimizedAffinity 11.065156
REMARK minimizedRMSD -1
REMARK  1 active torsions:
REMARK  status: ('A' for Active; 'I' for Inactive)
REMARK    1  A    between atoms: C1_2  and  C2_3 
ROOT
ATOM      1  C2  UNL d   1       2.100   1.896   5.845  0.00  0.00    -0.081 A 
ATOM      2  C3  UNL d   1       3.446   2.191   5.596  0.00  0.00     0.006 A 
ATOM      3  C4  UNL d   1       3.878   3.517   5.512  0.00  0.00     0.002 A 
ATOM      4  C5  UNL d   1       2.973   4.570   5.684  0.00  0.00    -0.080 A 
ATOM      5  C6  UNL d   1       3.428   5.998   5.627  0.00  0.00     0.076 C 
ATOM      6  C7  UNL d   1       1.625   4.276   5.916  0.00  0.00     0.002 A 
ATOM      7  C8  UNL d   1       1.193   2.950   5.999  0.00  0.00     0.006 A 
ENDROOT
BRANCH   1   8
ATOM      8  C1  UNL d   1       1.644   0.468   6.000  0.00  0.00     0.054 C 
ATOM      9  C   UNL d   1       2.087  -0.385   4.820  0.00  0.00     0.018 C 
ENDBRANCH   1   8
TORSDOF 1
ENDMDL
