MODEL 1
REMARK minimizedAffinity 3.20417595
REMARK minimizedRMSD -1
REMARK  1 active torsions:
REMARK  status: ('A' for Active; 'I' for Inactive)
REMARK    1  A    between atoms: C1_2  and  C2_3 
ROOT
ATOM      1  C2  UNL d   1       1.811   4.573   5.937  0.00  0.00    -0.081 A 
ATOM      2  C3  UNL d   1       1.882   3.176   5.997  0.00  0.00     0.006 A 
ATOM      3  C4  UNL d   1       3.120   2.529   6.000  0.00  0.00     0.002 A 
ATOM      4  C5  UNL d   1       4.307   3.268   5.951  0.00  0.00    -0.080 A 
ATOM      5  C6  UNL d   1       5.643   2.588   5.983  0.00  0.00     0.076 C 
ATOM      6  C7  UNL d   1       4.236   4.663   5.873  0.00  0.00     0.002 A 
ATOM      7  C8  UNL d   1       2.998   5.311   5.870  0.00  0.00     0.006 A 
ENDROOT
BRANCH   1   8
ATOM      8  C1  UNL d   1       0.479   5.277   6.000  0.00  0.00     0.054 C 
ATOM      9  C   UNL d   1       0.007   5.692   4.614  0.00  0.00     0.018 C 
ENDBRANCH   1   8
TORSDOF 1
ENDMDL
