MODEL 1
REMARK minimizedAffinity 1.43916166
REMARK minimizedRMSD -1
REMARK  1 active torsions:
REMARK  status: ('A' for Active; 'I' for Inactive)
REMARK    1  A    between atoms: C1_2  and  C2_3 
ROOT
ATOM      1  C2  UNL d   1       0.803  -3.256   4.239  0.00  0.00    -0.081 A 
ATOM      2  C3  UNL d   1       0.204  -3.000   5.478  0.00  0.00     0.006 A 
ATOM      3  C4  UNL d   1      -0.748  -3.879   6.000  0.00  0.00     0.002 A 
ATOM      4  C5  UNL d   1      -1.111  -5.032   5.295  0.00  0.00    -0.080 A 
ATOM      5  C6  UNL d   1      -2.109  -6.000   5.858  0.00  0.00     0.076 C 
ATOM      6  C7  UNL d   1      -0.525  -5.279   4.049  0.00  0.00     0.002 A 
ATOM      7  C8  UNL d   1       0.426  -4.400   3.527  0.00  0.00     0.006 A 
ENDROOT
BRANCH   1   8
ATOM      8  C1  UNL d   1       1.877  -2.344   3.703  0.00  0.00     0.054 C 
ATOM      9  C   UNL d   1       2.491  -2.901   2.427  0.00  0.00     0.018 C 
ENDBRANCH   1   8
TORSDOF 1
ENDMDL
