MODEL 1
REMARK minimizedAffinity 0.152105153
REMARK minimizedRMSD -1
REMARK  1 active torsions:
REMARK  status: ('A' for Active; 'I' for Inactive)
REMARK    1  A    between atoms: C1_2  and  C2_3 
ROOT
ATOM      1  C2  UNL d   1       2.291   5.017   5.866  0.00  0.00    -0.081 A 
ATOM      2  C3  UNL d   1       2.058   3.643   6.000  0.00  0.00     0.006 A 
ATOM      3  C4  UNL d   1       3.124   2.740   6.000  0.00  0.00     0.002 A 
ATOM      4  C5  UNL d   1       4.440   3.197   5.875  0.00  0.00    -0.080 A 
ATOM      5  C6  UNL d   1       5.596   2.241   5.904  0.00  0.00     0.076 C 
ATOM      6  C7  UNL d   1       4.672   4.568   5.724  0.00  0.00     0.002 A 
ATOM      7  C8  UNL d   1       3.607   5.471   5.723  0.00  0.00     0.006 A 
ENDROOT
BRANCH   1   8
ATOM      8  C1  UNL d   1       1.148   5.998   5.931  0.00  0.00     0.054 C 
ATOM      9  C   UNL d   1       0.341   5.992   4.641  0.00  0.00     0.018 C 
ENDBRANCH   1   8
TORSDOF 1
ENDMDL
