MODEL 1
REMARK minimizedAffinity 9.08613873
REMARK minimizedRMSD -1
REMARK  1 active torsions:
REMARK  status: ('A' for Active; 'I' for Inactive)
REMARK    1  A    between atoms: C1_2  and  C2_3 
ROOT
ATOM      1  C2  UNL d   1       3.106  -0.560  -0.767  0.00  0.00    -0.081 A 
ATOM      2  C3  UNL d   1       4.072   0.039  -1.585  0.00  0.00     0.006 A 
ATOM      3  C4  UNL d   1       4.586   1.299  -1.268  0.00  0.00     0.002 A 
ATOM      4  C5  UNL d   1       4.149   1.976  -0.124  0.00  0.00    -0.080 A 
ATOM      5  C6  UNL d   1       4.715   3.315   0.244  0.00  0.00     0.076 C 
ATOM      6  C7  UNL d   1       3.172   1.385   0.683  0.00  0.00     0.002 A 
ATOM      7  C8  UNL d   1       2.657   0.126   0.366  0.00  0.00     0.006 A 
ENDROOT
BRANCH   1   8
ATOM      8  C1  UNL d   1       2.598  -1.946  -1.071  0.00  0.00     0.054 C 
ATOM      9  C   UNL d   1       2.627  -2.231  -2.566  0.00  0.00     0.018 C 
ENDBRANCH   1   8
TORSDOF 1
ENDMDL
