MODEL 1
REMARK minimizedAffinity 4.32093668
REMARK minimizedRMSD -1
REMARK  0 active torsions:
REMARK  status: ('A' for Active; 'I' for Inactive)
ROOT
ATOM      1  C   UNL d   1      -1.631  -0.033   3.294  0.00  0.00     0.172 C 
ATOM      2  N   UNL d   1      -2.924   0.554   3.556  0.00  0.00    -0.070 N 
ATOM      3  C1  UNL d   1      -3.793   1.026   2.609  0.00  0.00    -0.004 A 
ATOM      4  C2  UNL d   1      -4.910   1.503   3.261  0.00  0.00    -0.047 A 
ATOM      5  C3  UNL d   1      -4.704   1.312   4.648  0.00  0.00    -0.047 A 
ATOM      6  C4  UNL d   1      -3.467   0.723   4.802  0.00  0.00    -0.004 A 
ENDROOT
TORSDOF 0
ENDMDL
