MODEL 1
REMARK minimizedAffinity 7.81282711
REMARK minimizedRMSD -1
REMARK  0 active torsions:
REMARK  status: ('A' for Active; 'I' for Inactive)
ROOT
ATOM      1  C   UNL d   1       3.391  -2.174  -0.392  0.00  0.00     0.172 C 
ATOM      2  N   UNL d   1       2.985  -0.822  -0.696  0.00  0.00    -0.070 N 
ATOM      3  C1  UNL d   1       1.786  -0.453  -1.244  0.00  0.00    -0.004 A 
ATOM      4  C2  UNL d   1       1.787   0.919  -1.377  0.00  0.00    -0.047 A 
ATOM      5  C3  UNL d   1       3.031   1.390  -0.892  0.00  0.00    -0.047 A 
ATOM      6  C4  UNL d   1       3.753   0.291  -0.477  0.00  0.00    -0.004 A 
ENDROOT
TORSDOF 0
ENDMDL
