MODEL 1
REMARK minimizedAffinity 1.8402493
REMARK minimizedRMSD -1
REMARK  0 active torsions:
REMARK  status: ('A' for Active; 'I' for Inactive)
ROOT
ATOM      1  C   UNL d   1       4.594  -4.918   2.561  0.00  0.00     0.172 C 
ATOM      2  N   UNL d   1       4.912  -4.371   3.859  0.00  0.00    -0.070 N 
ATOM      3  C1  UNL d   1       5.256  -5.096   4.968  0.00  0.00    -0.004 A 
ATOM      4  C2  UNL d   1       5.483  -4.210   5.999  0.00  0.00    -0.047 A 
ATOM      5  C3  UNL d   1       5.267  -2.906   5.491  0.00  0.00    -0.047 A 
ATOM      6  C4  UNL d   1       4.915  -3.036   4.165  0.00  0.00    -0.004 A 
ENDROOT
TORSDOF 0
ENDMDL
