MODEL 1
REMARK minimizedAffinity 1.84279156
REMARK minimizedRMSD -1
REMARK  0 active torsions:
REMARK  status: ('A' for Active; 'I' for Inactive)
ROOT
ATOM      1  C   UNL d   1       2.219  -0.335  -1.305  0.00  0.00     0.172 C 
ATOM      2  N   UNL d   1       2.150  -1.268  -0.205  0.00  0.00    -0.070 N 
ATOM      3  C1  UNL d   1       2.896  -2.409  -0.078  0.00  0.00    -0.004 A 
ATOM      4  C2  UNL d   1       2.537  -3.020   1.104  0.00  0.00    -0.047 A 
ATOM      5  C3  UNL d   1       1.540  -2.218   1.709  0.00  0.00    -0.047 A 
ATOM      6  C4  UNL d   1       1.320  -1.140   0.877  0.00  0.00    -0.004 A 
ENDROOT
TORSDOF 0
ENDMDL
