MODEL 1
REMARK minimizedAffinity 0.748996496
REMARK minimizedRMSD -1
REMARK  0 active torsions:
REMARK  status: ('A' for Active; 'I' for Inactive)
ROOT
ATOM      1  C   UNL d   1       3.751   4.446   2.579  0.00  0.00     0.172 C 
ATOM      2  N   UNL d   1       2.584   4.742   3.376  0.00  0.00    -0.070 N 
ATOM      3  C1  UNL d   1       1.701   3.820   3.873  0.00  0.00    -0.004 A 
ATOM      4  C2  UNL d   1       0.732   4.500   4.577  0.00  0.00    -0.047 A 
ATOM      5  C3  UNL d   1       1.042   5.879   4.500  0.00  0.00    -0.047 A 
ATOM      6  C4  UNL d   1       2.193   6.000   3.751  0.00  0.00    -0.004 A 
ENDROOT
TORSDOF 0
ENDMDL
