MODEL 1
REMARK minimizedAffinity -2.3280139
REMARK minimizedRMSD -1
REMARK  0 active torsions:
REMARK  status: ('A' for Active; 'I' for Inactive)
ROOT
ATOM      1  C1  DEN d   1       0.736  -0.873  -2.390  0.00  0.00     0.130 A 
ATOM      2  C2  DEN d   1       2.051  -0.281  -2.620  0.00  0.00    -0.031 A 
ATOM      3  C3  DEN d   1       2.432   0.469  -1.406  0.00  0.00     0.027 A 
ATOM      4  C4  DEN d   1       1.123   0.764   0.797  0.00  0.00     0.027 A 
ATOM      5  C5  DEN d   1      -0.046   0.457   1.458  0.00  0.00    -0.003 A 
ATOM      6  C6  DEN d   1      -1.042  -0.280   0.875  0.00  0.00     0.001 A 
ATOM      7  C7  DEN d   1      -0.869  -0.774  -0.391  0.00  0.00     0.017 A 
ATOM      8  C8  DEN d   1       0.303  -0.462  -1.067  0.00  0.00    -0.094 A 
ATOM      9  C9  DEN d   1       1.304   0.274  -0.456  0.00  0.00    -0.072 A 
ENDROOT
TORSDOF 0
ENDMDL
