MODEL 1
REMARK minimizedAffinity -1.63311028
REMARK minimizedRMSD -1
REMARK  0 active torsions:
REMARK  status: ('A' for Active; 'I' for Inactive)
ROOT
ATOM      1  C1  DEN d   1      -1.757   2.378   3.842  0.00  0.00     0.130 A 
ATOM      2  C2  DEN d   1      -3.008   3.082   4.109  0.00  0.00    -0.031 A 
ATOM      3  C3  DEN d   1      -4.083   2.402   3.358  0.00  0.00     0.027 A 
ATOM      4  C4  DEN d   1      -3.933   0.337   1.820  0.00  0.00     0.027 A 
ATOM      5  C5  DEN d   1      -3.080  -0.598   1.277  0.00  0.00    -0.003 A 
ATOM      6  C6  DEN d   1      -1.732  -0.586   1.521  0.00  0.00     0.001 A 
ATOM      7  C7  DEN d   1      -1.203   0.353   2.366  0.00  0.00     0.017 A 
ATOM      8  C8  DEN d   1      -2.056   1.304   2.912  0.00  0.00    -0.094 A 
ATOM      9  C9  DEN d   1      -3.417   1.268   2.663  0.00  0.00    -0.072 A 
ENDROOT
TORSDOF 0
ENDMDL
