MODEL 1
REMARK minimizedAffinity -3.59956956
REMARK minimizedRMSD -1
REMARK  0 active torsions:
REMARK  status: ('A' for Active; 'I' for Inactive)
ROOT
ATOM      1  C1  DEN d   1       0.739  -0.455  -2.828  0.00  0.00     0.130 A 
ATOM      2  C2  DEN d   1       2.133  -0.031  -2.911  0.00  0.00    -0.031 A 
ATOM      3  C3  DEN d   1       2.512   0.549  -1.607  0.00  0.00     0.027 A 
ATOM      4  C4  DEN d   1       1.083   0.825   0.523  0.00  0.00     0.027 A 
ATOM      5  C5  DEN d   1      -0.164   0.625   1.071  0.00  0.00    -0.003 A 
ATOM      6  C6  DEN d   1      -1.199   0.086   0.354  0.00  0.00     0.001 A 
ATOM      7  C7  DEN d   1      -0.993  -0.313  -0.940  0.00  0.00     0.017 A 
ATOM      8  C8  DEN d   1       0.260  -0.107  -1.503  0.00  0.00    -0.094 A 
ATOM      9  C9  DEN d   1       1.297   0.428  -0.757  0.00  0.00    -0.072 A 
ENDROOT
TORSDOF 0
ENDMDL
