MODEL 1
REMARK minimizedAffinity -3.27288008
REMARK minimizedRMSD -1
REMARK  0 active torsions:
REMARK  status: ('A' for Active; 'I' for Inactive)
ROOT
ATOM      1  C1  DEN d   1       1.484   1.874   0.208  0.00  0.00     0.130 A 
ATOM      2  C2  DEN d   1       0.496   0.847  -0.109  0.00  0.00    -0.031 A 
ATOM      3  C3  DEN d   1       0.055   0.230   1.158  0.00  0.00     0.027 A 
ATOM      4  C4  DEN d   1       0.799   0.767   3.569  0.00  0.00     0.027 A 
ATOM      5  C5  DEN d   1       1.626   1.554   4.339  0.00  0.00    -0.003 A 
ATOM      6  C6  DEN d   1       2.482   2.472   3.789  0.00  0.00     0.001 A 
ATOM      7  C7  DEN d   1       2.497   2.657   2.432  0.00  0.00     0.017 A 
ATOM      8  C8  DEN d   1       1.671   1.862   1.648  0.00  0.00    -0.094 A 
ATOM      9  C9  DEN d   1       0.805   0.949   2.224  0.00  0.00    -0.072 A 
ENDROOT
TORSDOF 0
ENDMDL
