MODEL 1
REMARK minimizedAffinity 0.803102851
REMARK minimizedRMSD -1
REMARK  0 active torsions:
REMARK  status: ('A' for Active; 'I' for Inactive)
ROOT
ATOM      1  C1  DEN d   1       3.445   1.281  -1.099  0.00  0.00     0.130 A 
ATOM      2  C2  DEN d   1       3.263   1.895   0.213  0.00  0.00    -0.031 A 
ATOM      3  C3  DEN d   1       1.917   1.536   0.703  0.00  0.00     0.027 A 
ATOM      4  C4  DEN d   1       0.108   0.092  -0.435  0.00  0.00     0.027 A 
ATOM      5  C5  DEN d   1      -0.202  -0.637  -1.562  0.00  0.00    -0.003 A 
ATOM      6  C6  DEN d   1       0.661  -0.748  -2.619  0.00  0.00     0.001 A 
ATOM      7  C7  DEN d   1       1.896  -0.158  -2.553  0.00  0.00     0.017 A 
ATOM      8  C8  DEN d   1       2.213   0.584  -1.423  0.00  0.00    -0.094 A 
ATOM      9  C9  DEN d   1       1.332   0.675  -0.359  0.00  0.00    -0.072 A 
ENDROOT
TORSDOF 0
ENDMDL
