MODEL 1
REMARK minimizedAffinity -0.423505217
REMARK minimizedRMSD -1
REMARK  0 active torsions:
REMARK  status: ('A' for Active; 'I' for Inactive)
ROOT
ATOM      1  C1  DEN d   1      -3.976   2.121   3.690  0.00  0.00     0.130 A 
ATOM      2  C2  DEN d   1      -2.707   2.473   4.320  0.00  0.00    -0.031 A 
ATOM      3  C3  DEN d   1      -1.625   1.791   3.581  0.00  0.00     0.027 A 
ATOM      4  C4  DEN d   1      -1.793   0.236   1.530  0.00  0.00     0.027 A 
ATOM      5  C5  DEN d   1      -2.660  -0.367   0.646  0.00  0.00    -0.003 A 
ATOM      6  C6  DEN d   1      -4.018  -0.212   0.735  0.00  0.00     0.001 A 
ATOM      7  C7  DEN d   1      -4.546   0.602   1.702  0.00  0.00     0.017 A 
ATOM      8  C8  DEN d   1      -3.678   1.207   2.601  0.00  0.00    -0.094 A 
ATOM      9  C9  DEN d   1      -2.308   1.048   2.487  0.00  0.00    -0.072 A 
ENDROOT
TORSDOF 0
ENDMDL
