MODEL 1
REMARK minimizedAffinity -5.07875776
REMARK minimizedRMSD -1
REMARK  0 active torsions:
REMARK  status: ('A' for Active; 'I' for Inactive)
ROOT
ATOM      1  C1  DEN d   1       1.127  -0.786  -2.357  0.00  0.00     0.130 A 
ATOM      2  C2  DEN d   1       2.170   0.167  -2.726  0.00  0.00    -0.031 A 
ATOM      3  C3  DEN d   1       2.263   1.179  -1.654  0.00  0.00     0.027 A 
ATOM      4  C4  DEN d   1       0.905   1.357   0.531  0.00  0.00     0.027 A 
ATOM      5  C5  DEN d   1      -0.100   0.784   1.278  0.00  0.00    -0.003 A 
ATOM      6  C6  DEN d   1      -0.785  -0.324   0.853  0.00  0.00     0.001 A 
ATOM      7  C7  DEN d   1      -0.441  -0.921  -0.331  0.00  0.00     0.017 A 
ATOM      8  C8  DEN d   1       0.566  -0.344  -1.093  0.00  0.00    -0.094 A 
ATOM      9  C9  DEN d   1       1.254   0.768  -0.640  0.00  0.00    -0.072 A 
ENDROOT
TORSDOF 0
ENDMDL
