MODEL 1
REMARK minimizedAffinity -4.35432577
REMARK minimizedRMSD -1
REMARK  0 active torsions:
REMARK  status: ('A' for Active; 'I' for Inactive)
ROOT
ATOM      1  C1  DEN d   1       0.443   0.984  -1.670  0.00  0.00     0.130 A 
ATOM      2  C2  DEN d   1       1.074   0.341  -2.819  0.00  0.00    -0.031 A 
ATOM      3  C3  DEN d   1       1.123  -1.112  -2.560  0.00  0.00     0.027 A 
ATOM      4  C4  DEN d   1       0.283  -2.422  -0.503  0.00  0.00     0.027 A 
ATOM      5  C5  DEN d   1      -0.314  -2.309   0.733  0.00  0.00    -0.003 A 
ATOM      6  C6  DEN d   1      -0.667  -1.097   1.265  0.00  0.00     0.001 A 
ATOM      7  C7  DEN d   1      -0.466   0.047   0.539  0.00  0.00     0.017 A 
ATOM      8  C8  DEN d   1       0.142  -0.058  -0.705  0.00  0.00    -0.094 A 
ATOM      9  C9  DEN d   1       0.480  -1.294  -1.231  0.00  0.00    -0.072 A 
ENDROOT
TORSDOF 0
ENDMDL
