MODEL 1
REMARK minimizedAffinity -1.31973529
REMARK minimizedRMSD -1
REMARK  0 active torsions:
REMARK  status: ('A' for Active; 'I' for Inactive)
ROOT
ATOM      1  C1  DEN d   1      -0.419  -0.570   1.029  0.00  0.00     0.130 A 
ATOM      2  C2  DEN d   1      -0.348  -0.364  -0.415  0.00  0.00    -0.031 A 
ATOM      3  C3  DEN d   1       0.655   0.687  -0.677  0.00  0.00     0.027 A 
ATOM      4  C4  DEN d   1       2.101   2.005   1.003  0.00  0.00     0.027 A 
ATOM      5  C5  DEN d   1       2.385   2.188   2.339  0.00  0.00    -0.003 A 
ATOM      6  C6  DEN d   1       1.735   1.494   3.325  0.00  0.00     0.001 A 
ATOM      7  C7  DEN d   1       0.799   0.552   2.988  0.00  0.00     0.017 A 
ATOM      8  C8  DEN d   1       0.503   0.367   1.644  0.00  0.00    -0.094 A 
ATOM      9  C9  DEN d   1       1.180   1.070   0.662  0.00  0.00    -0.072 A 
ENDROOT
TORSDOF 0
ENDMDL
