MODEL 1
REMARK minimizedAffinity -1.88378751
REMARK minimizedRMSD -1
REMARK  0 active torsions:
REMARK  status: ('A' for Active; 'I' for Inactive)
ROOT
ATOM      1  C1  DEN d   1      -1.228  -0.650  -0.448  0.00  0.00     0.130 A 
ATOM      2  C2  DEN d   1      -1.319  -0.110   0.906  0.00  0.00    -0.031 A 
ATOM      3  C3  DEN d   1      -0.070   0.626   1.188  0.00  0.00     0.027 A 
ATOM      4  C4  DEN d   1       1.981   0.986  -0.333  0.00  0.00     0.027 A 
ATOM      5  C5  DEN d   1       2.526   0.709  -1.567  0.00  0.00    -0.003 A 
ATOM      6  C6  DEN d   1       1.877  -0.063  -2.495  0.00  0.00     0.001 A 
ATOM      7  C7  DEN d   1       0.626  -0.547  -2.219  0.00  0.00     0.017 A 
ATOM      8  C8  DEN d   1       0.073  -0.277  -0.974  0.00  0.00    -0.094 A 
ATOM      9  C9  DEN d   1       0.740   0.515  -0.055  0.00  0.00    -0.072 A 
ENDROOT
TORSDOF 0
ENDMDL
