MODEL 1
REMARK minimizedAffinity -0.994969606
REMARK minimizedRMSD -1
REMARK  0 active torsions:
REMARK  status: ('A' for Active; 'I' for Inactive)
ROOT
ATOM      1  C1  DEN d   1       1.109  -0.815  -2.454  0.00  0.00     0.130 A 
ATOM      2  C2  DEN d   1       2.274   0.040  -2.667  0.00  0.00    -0.031 A 
ATOM      3  C3  DEN d   1       2.488   0.834  -1.440  0.00  0.00     0.027 A 
ATOM      4  C4  DEN d   1       1.139   0.818   0.759  0.00  0.00     0.027 A 
ATOM      5  C5  DEN d   1       0.057   0.266   1.408  0.00  0.00    -0.003 A 
ATOM      6  C6  DEN d   1      -0.763  -0.653   0.809  0.00  0.00     0.001 A 
ATOM      7  C7  DEN d   1      -0.488  -1.081  -0.463  0.00  0.00     0.017 A 
ATOM      8  C8  DEN d   1       0.597  -0.523  -1.127  0.00  0.00    -0.094 A 
ATOM      9  C9  DEN d   1       1.421   0.395  -0.500  0.00  0.00    -0.072 A 
ENDROOT
TORSDOF 0
ENDMDL
