MODEL 1
REMARK minimizedAffinity -0.095438011
REMARK minimizedRMSD -1
REMARK  0 active torsions:
REMARK  status: ('A' for Active; 'I' for Inactive)
ROOT
ATOM      1  C1  DEN d   1      -2.187   5.415  -5.303  0.00  0.00     0.130 A 
ATOM      2  C2  DEN d   1      -1.445   4.173  -5.107  0.00  0.00    -0.031 A 
ATOM      3  C3  DEN d   1      -2.391   3.048  -5.248  0.00  0.00     0.027 A 
ATOM      4  C4  DEN d   1      -4.920   3.109  -5.754  0.00  0.00     0.027 A 
ATOM      5  C5  DEN d   1      -5.998   3.933  -5.988  0.00  0.00    -0.003 A 
ATOM      6  C6  DEN d   1      -5.889   5.298  -5.977  0.00  0.00     0.001 A 
ATOM      7  C7  DEN d   1      -4.667   5.881  -5.771  0.00  0.00     0.017 A 
ATOM      8  C8  DEN d   1      -3.576   5.056  -5.527  0.00  0.00    -0.094 A 
ATOM      9  C9  DEN d   1      -3.704   3.678  -5.554  0.00  0.00    -0.072 A 
ENDROOT
TORSDOF 0
ENDMDL
