MODEL 1
REMARK minimizedAffinity -0.30026871
REMARK minimizedRMSD -1
REMARK  0 active torsions:
REMARK  status: ('A' for Active; 'I' for Inactive)
ROOT
ATOM      1  C1  DEN d   1      -0.882  -1.221   0.754  0.00  0.00     0.130 A 
ATOM      2  C2  DEN d   1      -0.101  -0.017   0.486  0.00  0.00    -0.031 A 
ATOM      3  C3  DEN d   1      -0.981   1.152   0.684  0.00  0.00     0.027 A 
ATOM      4  C4  DEN d   1      -3.465   1.214   1.379  0.00  0.00     0.027 A 
ATOM      5  C5  DEN d   1      -4.559   0.443   1.704  0.00  0.00    -0.003 A 
ATOM      6  C6  DEN d   1      -4.514  -0.926   1.702  0.00  0.00     0.001 A 
ATOM      7  C7  DEN d   1      -3.338  -1.567   1.413  0.00  0.00     0.017 A 
ATOM      8  C8  DEN d   1      -2.232  -0.796   1.076  0.00  0.00    -0.094 A 
ATOM      9  C9  DEN d   1      -2.295   0.587   1.096  0.00  0.00    -0.072 A 
ENDROOT
TORSDOF 0
ENDMDL
