MODEL 1
REMARK minimizedAffinity -1.29845631
REMARK minimizedRMSD -1
REMARK  0 active torsions:
REMARK  status: ('A' for Active; 'I' for Inactive)
ROOT
ATOM      1  C1  DEN d   1      -3.030   1.417   3.189  0.00  0.00     0.130 A 
ATOM      2  C2  DEN d   1      -4.091   0.990   2.281  0.00  0.00    -0.031 A 
ATOM      3  C3  DEN d   1      -3.465   0.270   1.154  0.00  0.00     0.027 A 
ATOM      4  C4  DEN d   1      -0.970  -0.227   0.731  0.00  0.00     0.027 A 
ATOM      5  C5  DEN d   1       0.307  -0.055   1.217  0.00  0.00    -0.003 A 
ATOM      6  C6  DEN d   1       0.563   0.644   2.368  0.00  0.00     0.001 A 
ATOM      7  C7  DEN d   1      -0.479   1.157   3.095  0.00  0.00     0.017 A 
ATOM      8  C8  DEN d   1      -1.768   0.994   2.607  0.00  0.00    -0.094 A 
ATOM      9  C9  DEN d   1      -2.007   0.274   1.448  0.00  0.00    -0.072 A 
ENDROOT
TORSDOF 0
ENDMDL
