MODEL 1
REMARK minimizedAffinity -4.92062616
REMARK minimizedRMSD -1
REMARK  0 active torsions:
REMARK  status: ('A' for Active; 'I' for Inactive)
ROOT
ATOM      1  C1  DEN d   1       2.325   2.644   1.992  0.00  0.00     0.130 A 
ATOM      2  C2  DEN d   1       1.980   2.373   3.385  0.00  0.00    -0.031 A 
ATOM      3  C3  DEN d   1       0.894   1.372   3.401  0.00  0.00     0.027 A 
ATOM      4  C4  DEN d   1      -0.277   0.218   1.414  0.00  0.00     0.027 A 
ATOM      5  C5  DEN d   1      -0.335   0.133   0.040  0.00  0.00    -0.003 A 
ATOM      6  C6  DEN d   1       0.459   0.898  -0.773  0.00  0.00     0.001 A 
ATOM      7  C7  DEN d   1       1.378   1.749  -0.218  0.00  0.00     0.017 A 
ATOM      8  C8  DEN d   1       1.438   1.845   1.166  0.00  0.00    -0.094 A 
ATOM      9  C9  DEN d   1       0.635   1.055   1.971  0.00  0.00    -0.072 A 
ENDROOT
TORSDOF 0
ENDMDL
