MODEL 1
REMARK minimizedAffinity -3.10110497
REMARK minimizedRMSD -1
REMARK  0 active torsions:
REMARK  status: ('A' for Active; 'I' for Inactive)
ROOT
ATOM      1  C1  DEN d   1       1.918  -1.109  -2.478  0.00  0.00     0.130 A 
ATOM      2  C2  DEN d   1       0.952  -2.180  -2.253  0.00  0.00    -0.031 A 
ATOM      3  C3  DEN d   1       0.079  -1.779  -1.131  0.00  0.00     0.027 A 
ATOM      4  C4  DEN d   1       0.128   0.387   0.268  0.00  0.00     0.027 A 
ATOM      5  C5  DEN d   1       0.777   1.587   0.456  0.00  0.00    -0.003 A 
ATOM      6  C6  DEN d   1       1.864   1.955  -0.291  0.00  0.00     0.001 A 
ATOM      7  C7  DEN d   1       2.308   1.133  -1.294  0.00  0.00     0.017 A 
ATOM      8  C8  DEN d   1       1.663  -0.082  -1.485  0.00  0.00    -0.094 A 
ATOM      9  C9  DEN d   1       0.558  -0.430  -0.727  0.00  0.00    -0.072 A 
ENDROOT
TORSDOF 0
ENDMDL
