MODEL 1
REMARK minimizedAffinity -5.41381502
REMARK minimizedRMSD -1
REMARK  0 active torsions:
REMARK  status: ('A' for Active; 'I' for Inactive)
ROOT
ATOM      1  C1  DEN d   1       1.097  -0.807  -2.367  0.00  0.00     0.130 A 
ATOM      2  C2  DEN d   1       2.071   0.200  -2.781  0.00  0.00    -0.031 A 
ATOM      3  C3  DEN d   1       2.191   1.193  -1.694  0.00  0.00     0.027 A 
ATOM      4  C4  DEN d   1       0.975   1.266   0.579  0.00  0.00     0.027 A 
ATOM      5  C5  DEN d   1       0.046   0.634   1.376  0.00  0.00    -0.003 A 
ATOM      6  C6  DEN d   1      -0.616  -0.495   0.971  0.00  0.00     0.001 A 
ATOM      7  C7  DEN d   1      -0.327  -1.052  -0.246  0.00  0.00     0.017 A 
ATOM      8  C8  DEN d   1       0.603  -0.415  -1.059  0.00  0.00    -0.094 A 
ATOM      9  C9  DEN d   1       1.271   0.718  -0.627  0.00  0.00    -0.072 A 
ENDROOT
TORSDOF 0
ENDMDL
