MODEL 1
REMARK minimizedAffinity -6.12535334
REMARK minimizedRMSD -1
REMARK  0 active torsions:
REMARK  status: ('A' for Active; 'I' for Inactive)
ROOT
ATOM      1  C1  DEN d   1      -0.033   1.477   3.564  0.00  0.00     0.130 A 
ATOM      2  C2  DEN d   1       0.723   0.604   2.671  0.00  0.00    -0.031 A 
ATOM      3  C3  DEN d   1      -0.233  -0.056   1.760  0.00  0.00     0.027 A 
ATOM      4  C4  DEN d   1      -2.798   0.190   1.644  0.00  0.00     0.027 A 
ATOM      5  C5  DEN d   1      -3.893   0.807   2.207  0.00  0.00    -0.003 A 
ATOM      6  C6  DEN d   1      -3.783   1.658   3.274  0.00  0.00     0.001 A 
ATOM      7  C7  DEN d   1      -2.545   1.950   3.785  0.00  0.00     0.017 A 
ATOM      8  C8  DEN d   1      -1.437   1.326   3.227  0.00  0.00    -0.094 A 
ATOM      9  C9  DEN d   1      -1.568   0.478   2.140  0.00  0.00    -0.072 A 
ENDROOT
TORSDOF 0
ENDMDL
