MODEL 1
REMARK minimizedAffinity 13.2758837
REMARK minimizedRMSD -1
REMARK  0 active torsions:
REMARK  status: ('A' for Active; 'I' for Inactive)
ROOT
ATOM      1  C   UNL d   1      -3.492   0.396   3.640  0.00  0.00    -0.002 A 
ATOM      2  C1  UNL d   1      -2.360   0.750   2.921  0.00  0.00     0.010 A 
ATOM      3  C2  UNL d   1      -2.444   1.666   1.870  0.00  0.00     0.041 A 
ATOM      4  C3  UNL d   1      -3.697   2.226   1.552  0.00  0.00    -0.075 A 
ATOM      5  S   UNL d   1      -4.039   3.368   0.307  0.00  0.00     0.015 SA
ATOM      6  C4  UNL d   1      -5.696   3.413   0.701  0.00  0.00     0.022 A 
ATOM      7  C5  UNL d   1      -5.999   2.583   1.754  0.00  0.00     0.026 A 
ATOM      8  C6  UNL d   1      -4.851   1.885   2.263  0.00  0.00    -0.082 A 
ATOM      9  C7  UNL d   1      -4.734   0.954   3.322  0.00  0.00     0.045 A 
ENDROOT
TORSDOF 0
ENDMDL
