MODEL 1
REMARK minimizedAffinity 14.7587299
REMARK minimizedRMSD -1
REMARK  0 active torsions:
REMARK  status: ('A' for Active; 'I' for Inactive)
ROOT
ATOM      1  C   UNL d   1      -4.648   2.079   1.715  0.00  0.00    -0.002 A 
ATOM      2  C1  UNL d   1      -3.326   2.351   2.042  0.00  0.00     0.010 A 
ATOM      3  C2  UNL d   1      -2.389   1.319   2.124  0.00  0.00     0.041 A 
ATOM      4  C3  UNL d   1      -2.806  -0.002   1.869  0.00  0.00    -0.075 A 
ATOM      5  S   UNL d   1      -1.833  -1.425   1.910  0.00  0.00     0.015 SA
ATOM      6  C4  UNL d   1      -3.148  -2.426   1.494  0.00  0.00     0.022 A 
ATOM      7  C5  UNL d   1      -4.309  -1.709   1.325  0.00  0.00     0.026 A 
ATOM      8  C6  UNL d   1      -4.130  -0.300   1.537  0.00  0.00    -0.082 A 
ATOM      9  C7  UNL d   1      -5.057   0.768   1.462  0.00  0.00     0.045 A 
ENDROOT
TORSDOF 0
ENDMDL
