MODEL 1
REMARK minimizedAffinity 10.9926386
REMARK minimizedRMSD -1
REMARK  0 active torsions:
REMARK  status: ('A' for Active; 'I' for Inactive)
ROOT
ATOM      1  C   UNL d   1      -0.432   5.343  -2.813  0.00  0.00    -0.002 A 
ATOM      2  C1  UNL d   1       0.773   4.757  -3.174  0.00  0.00     0.010 A 
ATOM      3  C2  UNL d   1       0.799   3.488  -3.757  0.00  0.00     0.041 A 
ATOM      4  C3  UNL d   1      -0.418   2.814  -3.976  0.00  0.00    -0.075 A 
ATOM      5  S   UNL d   1      -0.630   1.253  -4.676  0.00  0.00     0.015 SA
ATOM      6  C4  UNL d   1      -2.325   1.329  -4.515  0.00  0.00     0.022 A 
ATOM      7  C5  UNL d   1      -2.737   2.509  -3.942  0.00  0.00     0.026 A 
ATOM      8  C6  UNL d   1      -1.644   3.385  -3.622  0.00  0.00    -0.082 A 
ATOM      9  C7  UNL d   1      -1.637   4.671  -3.032  0.00  0.00     0.045 A 
ENDROOT
TORSDOF 0
ENDMDL
