MODEL 1
REMARK minimizedAffinity 9.84926987
REMARK minimizedRMSD -1
REMARK  0 active torsions:
REMARK  status: ('A' for Active; 'I' for Inactive)
ROOT
ATOM      1  C   UNL d   1      -0.675   5.362  -3.722  0.00  0.00    -0.002 A 
ATOM      2  C1  UNL d   1      -1.510   4.254  -3.715  0.00  0.00     0.010 A 
ATOM      3  C2  UNL d   1      -2.023   3.759  -2.515  0.00  0.00     0.041 A 
ATOM      4  C3  UNL d   1      -1.681   4.404  -1.310  0.00  0.00    -0.075 A 
ATOM      5  S   UNL d   1      -2.192   3.975   0.280  0.00  0.00     0.015 SA
ATOM      6  C4  UNL d   1      -1.315   5.254   0.987  0.00  0.00     0.022 A 
ATOM      7  C5  UNL d   1      -0.643   6.000   0.048  0.00  0.00     0.026 A 
ATOM      8  C6  UNL d   1      -0.843   5.523  -1.291  0.00  0.00    -0.082 A 
ATOM      9  C7  UNL d   1      -0.338   6.000  -2.525  0.00  0.00     0.045 A 
ENDROOT
TORSDOF 0
ENDMDL
