MODEL 1
REMARK minimizedAffinity 9.62142086
REMARK minimizedRMSD -1
REMARK  0 active torsions:
REMARK  status: ('A' for Active; 'I' for Inactive)
ROOT
ATOM      1  C   UNL d   1      -0.779   5.998  -2.123  0.00  0.00    -0.002 A 
ATOM      2  C1  UNL d   1      -2.163   5.956  -2.030  0.00  0.00     0.010 A 
ATOM      3  C2  UNL d   1      -2.880   4.898  -2.592  0.00  0.00     0.041 A 
ATOM      4  C3  UNL d   1      -2.177   3.873  -3.254  0.00  0.00    -0.075 A 
ATOM      5  S   UNL d   1      -2.846   2.479  -4.016  0.00  0.00     0.015 SA
ATOM      6  C4  UNL d   1      -1.310   1.906  -4.484  0.00  0.00     0.022 A 
ATOM      7  C5  UNL d   1      -0.301   2.746  -4.076  0.00  0.00     0.026 A 
ATOM      8  C6  UNL d   1      -0.784   3.893  -3.360  0.00  0.00    -0.082 A 
ATOM      9  C7  UNL d   1      -0.084   4.979  -2.781  0.00  0.00     0.045 A 
ENDROOT
TORSDOF 0
ENDMDL
