MODEL 1
REMARK minimizedAffinity 20.5127602
REMARK minimizedRMSD -1
REMARK  0 active torsions:
REMARK  status: ('A' for Active; 'I' for Inactive)
ROOT
ATOM      1  C   UNL d   1      -1.612   2.309  -3.100  0.00  0.00    -0.002 A 
ATOM      2  C1  UNL d   1      -1.128   1.302  -3.922  0.00  0.00     0.010 A 
ATOM      3  C2  UNL d   1       0.107   1.437  -4.559  0.00  0.00     0.041 A 
ATOM      4  C3  UNL d   1       0.856   2.612  -4.352  0.00  0.00    -0.075 A 
ATOM      5  S   UNL d   1       2.395   2.997  -5.027  0.00  0.00     0.015 SA
ATOM      6  C4  UNL d   1       2.446   4.507  -4.239  0.00  0.00     0.022 A 
ATOM      7  C5  UNL d   1       1.324   4.729  -3.476  0.00  0.00     0.026 A 
ATOM      8  C6  UNL d   1       0.389   3.641  -3.528  0.00  0.00    -0.082 A 
ATOM      9  C7  UNL d   1      -0.867   3.474  -2.897  0.00  0.00     0.045 A 
ENDROOT
TORSDOF 0
ENDMDL
