MODEL 1
REMARK minimizedAffinity 22.3786888
REMARK minimizedRMSD -1
REMARK  0 active torsions:
REMARK  status: ('A' for Active; 'I' for Inactive)
ROOT
ATOM      1  C   UNL d   1      -0.943   1.700  -3.406  0.00  0.00    -0.002 A 
ATOM      2  C1  UNL d   1      -1.255   2.912  -2.808  0.00  0.00     0.010 A 
ATOM      3  C2  UNL d   1      -0.402   4.010  -2.940  0.00  0.00     0.041 A 
ATOM      4  C3  UNL d   1       0.780   3.867  -3.693  0.00  0.00    -0.075 A 
ATOM      5  S   UNL d   1       1.974   5.075  -3.992  0.00  0.00     0.015 SA
ATOM      6  C4  UNL d   1       2.926   4.010  -4.922  0.00  0.00     0.022 A 
ATOM      7  C5  UNL d   1       2.362   2.759  -5.013  0.00  0.00     0.026 A 
ATOM      8  C6  UNL d   1       1.116   2.657  -4.306  0.00  0.00    -0.082 A 
ATOM      9  C7  UNL d   1       0.231   1.562  -4.153  0.00  0.00     0.045 A 
ENDROOT
TORSDOF 0
ENDMDL
