MODEL 1
REMARK minimizedAffinity 15.3698664
REMARK minimizedRMSD -1
REMARK  0 active torsions:
REMARK  status: ('A' for Active; 'I' for Inactive)
ROOT
ATOM      1  C   UNL d   1       4.104  -0.736  -1.064  0.00  0.00    -0.002 A 
ATOM      2  C1  UNL d   1       5.204  -0.575  -1.895  0.00  0.00     0.010 A 
ATOM      3  C2  UNL d   1       5.309  -1.303  -3.082  0.00  0.00     0.041 A 
ATOM      4  C3  UNL d   1       4.279  -2.201  -3.425  0.00  0.00    -0.075 A 
ATOM      5  S   UNL d   1       4.193  -3.196  -4.830  0.00  0.00     0.015 SA
ATOM      6  C4  UNL d   1       2.694  -3.857  -4.361  0.00  0.00     0.022 A 
ATOM      7  C5  UNL d   1       2.255  -3.342  -3.164  0.00  0.00     0.026 A 
ATOM      8  C6  UNL d   1       3.161  -2.378  -2.605  0.00  0.00    -0.082 A 
ATOM      9  C7  UNL d   1       3.085  -1.627  -1.408  0.00  0.00     0.045 A 
ENDROOT
TORSDOF 0
ENDMDL
