MODEL 1
REMARK minimizedAffinity 10.2212629
REMARK minimizedRMSD -1
REMARK  0 active torsions:
REMARK  status: ('A' for Active; 'I' for Inactive)
ROOT
ATOM      1  N1  IND d   1       0.916   2.917  -2.248  0.00  0.00    -0.196 N 
ATOM      2  C2  IND d   1       1.725   3.384  -3.246  0.00  0.00     0.054 A 
ATOM      3  C3  IND d   1       3.004   3.004  -3.031  0.00  0.00    -0.031 A 
ATOM      4  C4  IND d   1       3.980   1.527  -1.162  0.00  0.00     0.051 A 
ATOM      5  C5  IND d   1       3.638   0.893  -0.001  0.00  0.00    -0.031 A 
ATOM      6  C6  IND d   1       2.344   0.899   0.480  0.00  0.00     0.015 A 
ATOM      7  C7  IND d   1       1.338   1.533  -0.193  0.00  0.00    -0.016 A 
ATOM      8  C8  IND d   1       1.683   2.183  -1.369  0.00  0.00    -0.047 A 
ATOM      9  C9  IND d   1       3.002   2.216  -1.839  0.00  0.00    -0.096 A 
ATOM     10  HN1 IND d   1       0.070   3.057  -2.180  0.00  0.00     0.298 HD
ENDROOT
TORSDOF 0
ENDMDL
