MODEL 1
REMARK minimizedAffinity 1.77356267
REMARK minimizedRMSD -1
REMARK  0 active torsions:
REMARK  status: ('A' for Active; 'I' for Inactive)
ROOT
ATOM      1  N1  IND d   1      -1.939   0.400   4.063  0.00  0.00    -0.196 N 
ATOM      2  C2  IND d   1      -1.885   1.035   5.272  0.00  0.00     0.054 A 
ATOM      3  C3  IND d   1      -3.016   0.804   5.975  0.00  0.00    -0.031 A 
ATOM      4  C4  IND d   1      -5.041  -0.669   5.379  0.00  0.00     0.051 A 
ATOM      5  C5  IND d   1      -5.565  -1.421   4.365  0.00  0.00    -0.031 A 
ATOM      6  C6  IND d   1      -4.891  -1.612   3.176  0.00  0.00     0.015 A 
ATOM      7  C7  IND d   1      -3.659  -1.063   2.960  0.00  0.00    -0.016 A 
ATOM      8  C8  IND d   1      -3.128  -0.292   3.984  0.00  0.00    -0.047 A 
ATOM      9  C9  IND d   1      -3.825  -0.061   5.177  0.00  0.00    -0.096 A 
ATOM     10  HN1 IND d   1      -1.332   0.427   3.454  0.00  0.00     0.298 HD
ENDROOT
TORSDOF 0
ENDMDL
