MODEL 1
REMARK minimizedAffinity 0.0782879815
REMARK minimizedRMSD -1
REMARK  0 active torsions:
REMARK  status: ('A' for Active; 'I' for Inactive)
ROOT
ATOM      1  N1  IND d   1      -1.334  -0.514   2.964  0.00  0.00    -0.196 N 
ATOM      2  C2  IND d   1      -1.155   0.576   3.769  0.00  0.00     0.054 A 
ATOM      3  C3  IND d   1      -2.347   1.033   4.215  0.00  0.00    -0.031 A 
ATOM      4  C4  IND d   1      -4.709   0.084   3.830  0.00  0.00     0.051 A 
ATOM      5  C5  IND d   1      -5.383  -0.880   3.134  0.00  0.00    -0.031 A 
ATOM      6  C6  IND d   1      -4.728  -1.792   2.331  0.00  0.00     0.015 A 
ATOM      7  C7  IND d   1      -3.368  -1.780   2.203  0.00  0.00    -0.016 A 
ATOM      8  C8  IND d   1      -2.681  -0.798   2.903  0.00  0.00    -0.047 A 
ATOM      9  C9  IND d   1      -3.344   0.156   3.686  0.00  0.00    -0.096 A 
ATOM     10  HN1 IND d   1      -0.711  -0.949   2.562  0.00  0.00     0.298 HD
ENDROOT
TORSDOF 0
ENDMDL
