MODEL 1
REMARK minimizedAffinity 10.6334925
REMARK minimizedRMSD -1
REMARK  0 active torsions:
REMARK  status: ('A' for Active; 'I' for Inactive)
ROOT
ATOM      1  N1  IND d   1      -1.256   0.716   4.537  0.00  0.00    -0.196 N 
ATOM      2  C2  IND d   1      -2.501   0.774   5.098  0.00  0.00     0.054 A 
ATOM      3  C3  IND d   1      -3.396   0.118   4.326  0.00  0.00    -0.031 A 
ATOM      4  C4  IND d   1      -3.018  -1.209   2.152  0.00  0.00     0.051 A 
ATOM      5  C5  IND d   1      -2.056  -1.517   1.231  0.00  0.00    -0.031 A 
ATOM      6  C6  IND d   1      -0.751  -1.089   1.369  0.00  0.00     0.015 A 
ATOM      7  C7  IND d   1      -0.355  -0.345   2.444  0.00  0.00    -0.016 A 
ATOM      8  C8  IND d   1      -1.331  -0.025   3.378  0.00  0.00    -0.047 A 
ATOM      9  C9  IND d   1      -2.666  -0.420   3.221  0.00  0.00    -0.096 A 
ATOM     10  HN1 IND d   1      -0.545   1.081   4.855  0.00  0.00     0.298 HD
ENDROOT
TORSDOF 0
ENDMDL
