MODEL 1
REMARK minimizedAffinity 1.28025305
REMARK minimizedRMSD -1
REMARK  0 active torsions:
REMARK  status: ('A' for Active; 'I' for Inactive)
ROOT
ATOM      1  N1  IND d   1      -5.243   5.953  -4.565  0.00  0.00    -0.196 N 
ATOM      2  C2  IND d   1      -5.506   5.461  -3.316  0.00  0.00     0.054 A 
ATOM      3  C3  IND d   1      -4.399   4.885  -2.795  0.00  0.00    -0.031 A 
ATOM      4  C4  IND d   1      -2.023   4.726  -3.772  0.00  0.00     0.051 A 
ATOM      5  C5  IND d   1      -1.302   4.999  -4.901  0.00  0.00    -0.031 A 
ATOM      6  C6  IND d   1      -1.869   5.618  -5.996  0.00  0.00     0.015 A 
ATOM      7  C7  IND d   1      -3.180   6.000  -5.999  0.00  0.00    -0.016 A 
ATOM      8  C8  IND d   1      -3.917   5.718  -4.858  0.00  0.00    -0.047 A 
ATOM      9  C9  IND d   1      -3.359   5.052  -3.759  0.00  0.00    -0.096 A 
ATOM     10  HN1 IND d   1      -5.810   6.343  -5.080  0.00  0.00     0.298 HD
ENDROOT
TORSDOF 0
ENDMDL
