MODEL 1
REMARK minimizedAffinity 6.6336565
REMARK minimizedRMSD -1
REMARK  0 active torsions:
REMARK  status: ('A' for Active; 'I' for Inactive)
ROOT
ATOM      1  N1  IND d   1       4.390   4.283   1.855  0.00  0.00    -0.196 N 
ATOM      2  C2  IND d   1       5.668   4.446   1.399  0.00  0.00     0.054 A 
ATOM      3  C3  IND d   1       5.980   3.473   0.514  0.00  0.00    -0.031 A 
ATOM      4  C4  IND d   1       4.512   1.571  -0.409  0.00  0.00     0.051 A 
ATOM      5  C5  IND d   1       3.282   0.991  -0.264  0.00  0.00    -0.031 A 
ATOM      6  C6  IND d   1       2.340   1.491   0.611  0.00  0.00     0.015 A 
ATOM      7  C7  IND d   1       2.588   2.600   1.368  0.00  0.00    -0.016 A 
ATOM      8  C8  IND d   1       3.837   3.187   1.228  0.00  0.00    -0.047 A 
ATOM      9  C9  IND d   1       4.814   2.660   0.373  0.00  0.00    -0.096 A 
ATOM     10  HN1 IND d   1       3.997   4.780   2.436  0.00  0.00     0.298 HD
ENDROOT
TORSDOF 0
ENDMDL
