MODEL 1
REMARK minimizedAffinity 10.463295
REMARK minimizedRMSD -1
REMARK  0 active torsions:
REMARK  status: ('A' for Active; 'I' for Inactive)
ROOT
ATOM      1  N1  IND d   1      -1.878   1.020   3.941  0.00  0.00    -0.196 N 
ATOM      2  C2  IND d   1      -2.059   1.037   2.586  0.00  0.00     0.054 A 
ATOM      3  C3  IND d   1      -1.550  -0.084   2.029  0.00  0.00    -0.031 A 
ATOM      4  C4  IND d   1      -0.465  -2.126   3.161  0.00  0.00     0.051 A 
ATOM      5  C5  IND d   1      -0.046  -2.587   4.377  0.00  0.00    -0.031 A 
ATOM      6  C6  IND d   1      -0.223  -1.856   5.534  0.00  0.00     0.015 A 
ATOM      7  C7  IND d   1      -0.837  -0.636   5.519  0.00  0.00    -0.016 A 
ATOM      8  C8  IND d   1      -1.258  -0.161   4.285  0.00  0.00    -0.047 A 
ATOM      9  C9  IND d   1      -1.043  -0.880   3.101  0.00  0.00    -0.096 A 
ATOM     10  HN1 IND d   1      -2.112   1.642   4.487  0.00  0.00     0.298 HD
ENDROOT
TORSDOF 0
ENDMDL
