MODEL 1
REMARK minimizedAffinity 8.82480145
REMARK minimizedRMSD -1
REMARK  0 active torsions:
REMARK  status: ('A' for Active; 'I' for Inactive)
ROOT
ATOM      1  N1  IND d   1      -1.506   5.256  -0.670  0.00  0.00    -0.196 N 
ATOM      2  C2  IND d   1      -0.184   5.520  -0.440  0.00  0.00     0.054 A 
ATOM      3  C3  IND d   1       0.327   4.629   0.439  0.00  0.00    -0.031 A 
ATOM      4  C4  IND d   1      -0.798   2.596   1.547  0.00  0.00     0.051 A 
ATOM      5  C5  IND d   1      -2.006   1.968   1.673  0.00  0.00    -0.031 A 
ATOM      6  C6  IND d   1      -3.131   2.413   1.009  0.00  0.00     0.015 A 
ATOM      7  C7  IND d   1      -3.087   3.499   0.181  0.00  0.00    -0.016 A 
ATOM      8  C8  IND d   1      -1.864   4.142   0.056  0.00  0.00    -0.047 A 
ATOM      9  C9  IND d   1      -0.729   3.722   0.761  0.00  0.00    -0.096 A 
ATOM     10  HN1 IND d   1      -2.026   5.710  -1.183  0.00  0.00     0.298 HD
ENDROOT
TORSDOF 0
ENDMDL
