MODEL 1
REMARK minimizedAffinity 6.27428102
REMARK minimizedRMSD -1
REMARK  0 active torsions:
REMARK  status: ('A' for Active; 'I' for Inactive)
ROOT
ATOM      1  N1  IND d   1       3.747  -5.811   0.256  0.00  0.00    -0.196 N 
ATOM      2  C2  IND d   1       5.034  -5.998  -0.165  0.00  0.00     0.054 A 
ATOM      3  C3  IND d   1       5.637  -4.808  -0.379  0.00  0.00    -0.031 A 
ATOM      4  C4  IND d   1       4.734  -2.426  -0.005  0.00  0.00     0.051 A 
ATOM      5  C5  IND d   1       3.599  -1.746   0.337  0.00  0.00    -0.031 A 
ATOM      6  C6  IND d   1       2.433  -2.399   0.679  0.00  0.00     0.015 A 
ATOM      7  C7  IND d   1       2.361  -3.763   0.702  0.00  0.00    -0.016 A 
ATOM      8  C8  IND d   1       3.509  -4.457   0.349  0.00  0.00    -0.047 A 
ATOM      9  C9  IND d   1       4.684  -3.800  -0.039  0.00  0.00    -0.096 A 
ATOM     10  HN1 IND d   1       3.182  -6.434   0.433  0.00  0.00     0.298 HD
ENDROOT
TORSDOF 0
ENDMDL
