MODEL 1
REMARK minimizedAffinity 5.22659636
REMARK minimizedRMSD -1
REMARK  0 active torsions:
REMARK  status: ('A' for Active; 'I' for Inactive)
ROOT
ATOM      1  N1  IND d   1       4.218  -5.995  -0.225  0.00  0.00    -0.196 N 
ATOM      2  C2  IND d   1       5.581  -5.918  -0.151  0.00  0.00     0.054 A 
ATOM      3  C3  IND d   1       5.972  -4.631  -0.019  0.00  0.00    -0.031 A 
ATOM      4  C4  IND d   1       4.543  -2.501   0.200  0.00  0.00     0.051 A 
ATOM      5  C5  IND d   1       3.249  -2.062   0.152  0.00  0.00    -0.031 A 
ATOM      6  C6  IND d   1       2.191  -2.930  -0.024  0.00  0.00     0.015 A 
ATOM      7  C7  IND d   1       2.387  -4.276  -0.149  0.00  0.00    -0.016 A 
ATOM      8  C8  IND d   1       3.699  -4.724  -0.108  0.00  0.00    -0.047 A 
ATOM      9  C9  IND d   1       4.780  -3.844   0.028  0.00  0.00    -0.096 A 
ATOM     10  HN1 IND d   1       3.761  -6.717  -0.327  0.00  0.00     0.298 HD
ENDROOT
TORSDOF 0
ENDMDL
