MODEL 1
REMARK minimizedAffinity 4.41884947
REMARK minimizedRMSD -1
REMARK  0 active torsions:
REMARK  status: ('A' for Active; 'I' for Inactive)
ROOT
ATOM      1  N1  IND d   1      -2.213   0.353   2.591  0.00  0.00    -0.196 N 
ATOM      2  C2  IND d   1      -1.770   1.511   3.168  0.00  0.00     0.054 A 
ATOM      3  C3  IND d   1      -2.250   2.583   2.501  0.00  0.00    -0.031 A 
ATOM      4  C4  IND d   1      -3.863   2.674   0.496  0.00  0.00     0.051 A 
ATOM      5  C5  IND d   1      -4.511   1.874  -0.402  0.00  0.00    -0.031 A 
ATOM      6  C6  IND d   1      -4.427   0.498  -0.345  0.00  0.00     0.015 A 
ATOM      7  C7  IND d   1      -3.697  -0.132   0.623  0.00  0.00    -0.016 A 
ATOM      8  C8  IND d   1      -3.032   0.678   1.532  0.00  0.00    -0.047 A 
ATOM      9  C9  IND d   1      -3.079   2.076   1.454  0.00  0.00    -0.096 A 
ATOM     10  HN1 IND d   1      -2.013  -0.443   2.847  0.00  0.00     0.298 HD
ENDROOT
TORSDOF 0
ENDMDL
