MODEL 1
REMARK minimizedAffinity 11.1579905
REMARK minimizedRMSD -1
REMARK  0 active torsions:
REMARK  status: ('A' for Active; 'I' for Inactive)
ROOT
ATOM      1  N1  IND d   1       2.826  -3.466  -0.924  0.00  0.00    -0.196 N 
ATOM      2  C2  IND d   1       1.488  -3.472  -0.647  0.00  0.00     0.054 A 
ATOM      3  C3  IND d   1       1.210  -2.604   0.351  0.00  0.00    -0.031 A 
ATOM      4  C4  IND d   1       2.781  -0.997   1.606  0.00  0.00     0.051 A 
ATOM      5  C5  IND d   1       4.099  -0.656   1.729  0.00  0.00    -0.031 A 
ATOM      6  C6  IND d   1       5.079  -1.244   0.956  0.00  0.00     0.015 A 
ATOM      7  C7  IND d   1       4.775  -2.191   0.020  0.00  0.00    -0.016 A 
ATOM      8  C8  IND d   1       3.439  -2.545  -0.103  0.00  0.00    -0.047 A 
ATOM      9  C9  IND d   1       2.445  -1.982   0.708  0.00  0.00    -0.096 A 
ATOM     10  HN1 IND d   1       3.219  -3.955  -1.512  0.00  0.00     0.298 HD
ENDROOT
TORSDOF 0
ENDMDL
