MODEL 1
REMARK minimizedAffinity 6.35555553
REMARK minimizedRMSD -1
REMARK  0 active torsions:
REMARK  status: ('A' for Active; 'I' for Inactive)
ROOT
ATOM      1  N1  IND d   1       3.605  -6.000   0.558  0.00  0.00    -0.196 N 
ATOM      2  C2  IND d   1       4.823  -5.768  -0.018  0.00  0.00     0.054 A 
ATOM      3  C3  IND d   1       4.920  -4.478  -0.410  0.00  0.00    -0.031 A 
ATOM      4  C4  IND d   1       3.243  -2.548  -0.114  0.00  0.00     0.051 A 
ATOM      5  C5  IND d   1       1.976  -2.280   0.322  0.00  0.00    -0.031 A 
ATOM      6  C6  IND d   1       1.172  -3.257   0.873  0.00  0.00     0.015 A 
ATOM      7  C7  IND d   1       1.611  -4.542   1.019  0.00  0.00    -0.016 A 
ATOM      8  C8  IND d   1       2.895  -4.820   0.571  0.00  0.00    -0.047 A 
ATOM      9  C9  IND d   1       3.700  -3.842  -0.028  0.00  0.00    -0.096 A 
ATOM     10  HN1 IND d   1       3.330  -6.756   0.862  0.00  0.00     0.298 HD
ENDROOT
TORSDOF 0
ENDMDL
