MODEL 1
REMARK minimizedAffinity 4.27855968
REMARK minimizedRMSD -1
REMARK  0 active torsions:
REMARK  status: ('A' for Active; 'I' for Inactive)
ROOT
ATOM      1  N1  IND d   1       5.998  -4.720   0.000  0.00  0.00    -0.196 N 
ATOM      2  C2  IND d   1       5.553  -5.997   0.204  0.00  0.00     0.054 A 
ATOM      3  C3  IND d   1       4.222  -5.999   0.441  0.00  0.00    -0.031 A 
ATOM      4  C4  IND d   1       2.558  -4.036   0.441  0.00  0.00     0.051 A 
ATOM      5  C5  IND d   1       2.498  -2.674   0.342  0.00  0.00    -0.031 A 
ATOM      6  C6  IND d   1       3.624  -1.909   0.116  0.00  0.00     0.015 A 
ATOM      7  C7  IND d   1       4.856  -2.482  -0.030  0.00  0.00    -0.016 A 
ATOM      8  C8  IND d   1       4.922  -3.864   0.077  0.00  0.00    -0.047 A 
ATOM      9  C9  IND d   1       3.788  -4.641   0.348  0.00  0.00    -0.096 A 
ATOM     10  HN1 IND d   1       6.813  -4.491  -0.150  0.00  0.00     0.298 HD
ENDROOT
TORSDOF 0
ENDMDL
