MODEL 1
REMARK minimizedAffinity 1.13841295
REMARK minimizedRMSD -1
REMARK  0 active torsions:
REMARK  status: ('A' for Active; 'I' for Inactive)
ROOT
ATOM      1  N1  IND d   1      -0.519  -1.818   1.938  0.00  0.00    -0.196 N 
ATOM      2  C2  IND d   1      -1.878  -1.719   1.829  0.00  0.00     0.054 A 
ATOM      3  C3  IND d   1      -2.329  -2.514   0.832  0.00  0.00    -0.031 A 
ATOM      4  C4  IND d   1      -1.026  -4.139  -0.680  0.00  0.00     0.051 A 
ATOM      5  C5  IND d   1       0.243  -4.549  -0.980  0.00  0.00    -0.031 A 
ATOM      6  C6  IND d   1       1.345  -4.062  -0.307  0.00  0.00     0.015 A 
ATOM      7  C7  IND d   1       1.217  -3.151   0.703  0.00  0.00    -0.016 A 
ATOM      8  C8  IND d   1      -0.069  -2.727   1.006  0.00  0.00    -0.047 A 
ATOM      9  C9  IND d   1      -1.188  -3.186   0.298  0.00  0.00    -0.096 A 
ATOM     10  HN1 IND d   1      -0.028  -1.386   2.496  0.00  0.00     0.298 HD
ENDROOT
TORSDOF 0
ENDMDL
