MODEL 1
REMARK minimizedAffinity 4.54451561
REMARK minimizedRMSD -1
REMARK  0 active torsions:
REMARK  status: ('A' for Active; 'I' for Inactive)
ROOT
ATOM      1  N1  IND d   1       3.562  -5.223  -0.414  0.00  0.00    -0.196 N 
ATOM      2  C2  IND d   1       4.872  -4.863  -0.261  0.00  0.00     0.054 A 
ATOM      3  C3  IND d   1       4.960  -3.588   0.182  0.00  0.00    -0.031 A 
ATOM      4  C4  IND d   1       3.085  -1.944   0.819  0.00  0.00     0.051 A 
ATOM      5  C5  IND d   1       1.725  -1.806   0.813  0.00  0.00    -0.031 A 
ATOM      6  C6  IND d   1       0.891  -2.822   0.393  0.00  0.00     0.015 A 
ATOM      7  C7  IND d   1       1.388  -4.023  -0.029  0.00  0.00    -0.016 A 
ATOM      8  C8  IND d   1       2.768  -4.163  -0.032  0.00  0.00    -0.047 A 
ATOM      9  C9  IND d   1       3.621  -3.121   0.353  0.00  0.00    -0.096 A 
ATOM     10  HN1 IND d   1       3.281  -5.983  -0.701  0.00  0.00     0.298 HD
ENDROOT
TORSDOF 0
ENDMDL
