MODEL 1
REMARK minimizedAffinity 16.8475208
REMARK minimizedRMSD -1
REMARK  0 active torsions:
REMARK  status: ('A' for Active; 'I' for Inactive)
ROOT
ATOM      1  N1  IND d   1      -6.000  -0.503  -1.079  0.00  0.00    -0.196 N 
ATOM      2  C2  IND d   1      -5.299  -0.827  -2.208  0.00  0.00     0.054 A 
ATOM      3  C3  IND d   1      -4.443   0.168  -2.531  0.00  0.00    -0.031 A 
ATOM      4  C4  IND d   1      -3.953   2.372  -1.294  0.00  0.00     0.051 A 
ATOM      5  C5  IND d   1      -4.370   3.128  -0.235  0.00  0.00    -0.031 A 
ATOM      6  C6  IND d   1      -5.369   2.702   0.616  0.00  0.00     0.015 A 
ATOM      7  C7  IND d   1      -5.984   1.495   0.445  0.00  0.00    -0.016 A 
ATOM      8  C8  IND d   1      -5.569   0.727  -0.634  0.00  0.00    -0.047 A 
ATOM      9  C9  IND d   1      -4.585   1.172  -1.526  0.00  0.00    -0.096 A 
ATOM     10  HN1 IND d   1      -6.607  -0.986  -0.710  0.00  0.00     0.298 HD
ENDROOT
TORSDOF 0
ENDMDL
