MODEL 1
REMARK minimizedAffinity 4.58284044
REMARK minimizedRMSD -1
REMARK  0 active torsions:
REMARK  status: ('A' for Active; 'I' for Inactive)
ROOT
ATOM      1  N1  IND d   1       3.981   2.057  -2.258  0.00  0.00    -0.196 N 
ATOM      2  C2  IND d   1       3.182   0.948  -2.256  0.00  0.00     0.054 A 
ATOM      3  C3  IND d   1       2.387   0.943  -1.162  0.00  0.00    -0.031 A 
ATOM      4  C4  IND d   1       2.157   2.704   0.702  0.00  0.00     0.051 A 
ATOM      5  C5  IND d   1       2.703   3.873   1.152  0.00  0.00    -0.031 A 
ATOM      6  C6  IND d   1       3.722   4.511   0.474  0.00  0.00     0.015 A 
ATOM      7  C7  IND d   1       4.226   4.007  -0.692  0.00  0.00    -0.016 A 
ATOM      8  C8  IND d   1       3.679   2.816  -1.148  0.00  0.00    -0.047 A 
ATOM      9  C9  IND d   1       2.675   2.142  -0.442  0.00  0.00    -0.096 A 
ATOM     10  HN1 IND d   1       4.572   2.249  -2.852  0.00  0.00     0.298 HD
ENDROOT
TORSDOF 0
ENDMDL
