MODEL 1
REMARK minimizedAffinity -1.36520123
REMARK minimizedRMSD -1
REMARK  0 active torsions:
REMARK  status: ('A' for Active; 'I' for Inactive)
ROOT
ATOM      1  C   UNL d   1      -0.800   2.146  -0.107  0.00  0.00     0.020 A 
ATOM      2  C1  UNL d   1      -1.100   2.111   1.254  0.00  0.00     0.020 A 
ATOM      3  C2  UNL d   1      -0.700   1.020   2.029  0.00  0.00     0.034 A 
ATOM      4  C3  UNL d   1       0.002  -0.039   1.444  0.00  0.00     0.017 A 
ATOM      5  C4  UNL d   1       0.304  -0.003   0.078  0.00  0.00     0.017 A 
ATOM      6  C5  UNL d   1      -0.099   1.092  -0.694  0.00  0.00     0.034 A 
ATOM      7 Cl   UNL d   1       1.168  -1.272  -0.715  0.00  0.00    -0.070 Cl
ATOM      8 Cl1  UNL d   1       0.466  -1.356   2.462  0.00  0.00    -0.070 Cl
ENDROOT
TORSDOF 0
ENDMDL
