MODEL 1
REMARK minimizedAffinity -3.13826537
REMARK minimizedRMSD -1
REMARK  0 active torsions:
REMARK  status: ('A' for Active; 'I' for Inactive)
ROOT
ATOM      1  C   UNL d   1      -0.945   0.819   1.967  0.00  0.00     0.020 A 
ATOM      2  C1  UNL d   1      -0.765   2.138   1.552  0.00  0.00     0.020 A 
ATOM      3  C2  UNL d   1      -0.068   2.410   0.374  0.00  0.00     0.034 A 
ATOM      4  C3  UNL d   1       0.454   1.362  -0.394  0.00  0.00     0.017 A 
ATOM      5  C4  UNL d   1       0.273   0.038   0.024  0.00  0.00     0.017 A 
ATOM      6  C5  UNL d   1      -0.427  -0.228   1.205  0.00  0.00     0.034 A 
ATOM      7 Cl   UNL d   1       0.887  -1.307  -0.870  0.00  0.00    -0.070 Cl
ATOM      8 Cl1  UNL d   1       1.306   1.772  -1.840  0.00  0.00    -0.070 Cl
ENDROOT
TORSDOF 0
ENDMDL
