MODEL 1
REMARK minimizedAffinity -3.48480797
REMARK minimizedRMSD -1
REMARK  0 active torsions:
REMARK  status: ('A' for Active; 'I' for Inactive)
ROOT
ATOM      1  C   UNL d   1      -1.276   1.646   1.529  0.00  0.00     0.020 A 
ATOM      2  C1  UNL d   1      -1.041   0.430   2.169  0.00  0.00     0.020 A 
ATOM      3  C2  UNL d   1      -0.250  -0.542   1.551  0.00  0.00     0.034 A 
ATOM      4  C3  UNL d   1       0.307  -0.299   0.291  0.00  0.00     0.017 A 
ATOM      5  C4  UNL d   1       0.070   0.923  -0.350  0.00  0.00     0.017 A 
ATOM      6  C5  UNL d   1      -0.722   1.892   0.273  0.00  0.00     0.034 A 
ATOM      7 Cl   UNL d   1       0.724   1.295  -1.906  0.00  0.00    -0.070 Cl
ATOM      8 Cl1  UNL d   1       1.275  -1.545  -0.414  0.00  0.00    -0.070 Cl
ENDROOT
TORSDOF 0
ENDMDL
