MODEL 1
REMARK minimizedAffinity 0.55030781
REMARK minimizedRMSD -1
REMARK  0 active torsions:
REMARK  status: ('A' for Active; 'I' for Inactive)
ROOT
ATOM      1  C   UNL d   1       0.877  -0.785  -1.082  0.00  0.00     0.020 A 
ATOM      2  C1  UNL d   1       0.315  -1.163   0.136  0.00  0.00     0.020 A 
ATOM      3  C2  UNL d   1      -0.411  -0.236   0.887  0.00  0.00     0.034 A 
ATOM      4  C3  UNL d   1      -0.577   1.073   0.421  0.00  0.00     0.017 A 
ATOM      5  C4  UNL d   1      -0.012   1.451  -0.803  0.00  0.00     0.017 A 
ATOM      6  C5  UNL d   1       0.714   0.519  -1.551  0.00  0.00     0.034 A 
ATOM      7 Cl   UNL d   1      -0.174   3.048  -1.444  0.00  0.00    -0.070 Cl
ATOM      8 Cl1  UNL d   1      -1.487   2.166   1.401  0.00  0.00    -0.070 Cl
ENDROOT
TORSDOF 0
ENDMDL
