MODEL 1
REMARK minimizedAffinity -1.57290888
REMARK minimizedRMSD -1
REMARK  0 active torsions:
REMARK  status: ('A' for Active; 'I' for Inactive)
ROOT
ATOM      1  C   UNL d   1      -1.285   1.397   1.994  0.00  0.00     0.020 A 
ATOM      2  C1  UNL d   1      -1.027   0.030   2.077  0.00  0.00     0.020 A 
ATOM      3  C2  UNL d   1      -0.344  -0.616   1.044  0.00  0.00     0.034 A 
ATOM      4  C3  UNL d   1       0.083   0.107  -0.076  0.00  0.00     0.017 A 
ATOM      5  C4  UNL d   1      -0.177   1.479  -0.159  0.00  0.00     0.017 A 
ATOM      6  C5  UNL d   1      -0.861   2.121   0.879  0.00  0.00     0.034 A 
ATOM      7 Cl   UNL d   1       0.318   2.437  -1.509  0.00  0.00    -0.070 Cl
ATOM      8 Cl1  UNL d   1       0.922  -0.756  -1.316  0.00  0.00    -0.070 Cl
ENDROOT
TORSDOF 0
ENDMDL
