MODEL 1
REMARK minimizedAffinity -1.33627498
REMARK minimizedRMSD -1
REMARK  0 active torsions:
REMARK  status: ('A' for Active; 'I' for Inactive)
ROOT
ATOM      1  C   UNL d   1      -1.305   0.055   2.042  0.00  0.00     0.020 A 
ATOM      2  C1  UNL d   1      -0.550  -1.083   1.762  0.00  0.00     0.020 A 
ATOM      3  C2  UNL d   1       0.365  -1.072   0.707  0.00  0.00     0.034 A 
ATOM      4  C3  UNL d   1       0.527   0.080  -0.072  0.00  0.00     0.017 A 
ATOM      5  C4  UNL d   1      -0.232   1.222   0.210  0.00  0.00     0.017 A 
ATOM      6  C5  UNL d   1      -1.147   1.204   1.267  0.00  0.00     0.034 A 
ATOM      7 Cl   UNL d   1      -0.088   2.680  -0.707  0.00  0.00    -0.070 Cl
ATOM      8 Cl1  UNL d   1       1.677   0.024  -1.361  0.00  0.00    -0.070 Cl
ENDROOT
TORSDOF 0
ENDMDL
