MODEL 1
REMARK minimizedAffinity -0.178861082
REMARK minimizedRMSD -1
REMARK  0 active torsions:
REMARK  status: ('A' for Active; 'I' for Inactive)
ROOT
ATOM      1  C   UNL d   1      -0.237   0.874  -1.357  0.00  0.00     0.020 A 
ATOM      2  C1  UNL d   1       0.607  -0.230  -1.250  0.00  0.00     0.020 A 
ATOM      3  C2  UNL d   1       0.884  -0.779   0.004  0.00  0.00     0.034 A 
ATOM      4  C3  UNL d   1       0.316  -0.223   1.156  0.00  0.00     0.017 A 
ATOM      5  C4  UNL d   1      -0.532   0.886   1.048  0.00  0.00     0.017 A 
ATOM      6  C5  UNL d   1      -0.805   1.431  -0.210  0.00  0.00     0.034 A 
ATOM      7 Cl   UNL d   1      -1.270   1.626   2.424  0.00  0.00    -0.070 Cl
ATOM      8 Cl1  UNL d   1       0.701  -0.953   2.674  0.00  0.00    -0.070 Cl
ENDROOT
TORSDOF 0
ENDMDL
