MODEL 1
REMARK minimizedAffinity -2.40523338
REMARK minimizedRMSD -1
REMARK  0 active torsions:
REMARK  status: ('A' for Active; 'I' for Inactive)
ROOT
ATOM      1  C   UNL d   1       1.712  -0.748  -1.255  0.00  0.00     0.020 A 
ATOM      2  C1  UNL d   1       1.117  -1.462  -0.216  0.00  0.00     0.020 A 
ATOM      3  C2  UNL d   1       0.247  -0.818   0.666  0.00  0.00     0.034 A 
ATOM      4  C3  UNL d   1      -0.029   0.546   0.512  0.00  0.00     0.017 A 
ATOM      5  C4  UNL d   1       0.569   1.262  -0.531  0.00  0.00     0.017 A 
ATOM      6  C5  UNL d   1       1.438   0.612  -1.412  0.00  0.00     0.034 A 
ATOM      7 Cl   UNL d   1       0.276   2.947  -0.786  0.00  0.00    -0.070 Cl
ATOM      8 Cl1  UNL d   1      -1.115   1.278   1.639  0.00  0.00    -0.070 Cl
ENDROOT
TORSDOF 0
ENDMDL
