MODEL 1
REMARK minimizedAffinity -1.9698236
REMARK minimizedRMSD -1
REMARK  0 active torsions:
REMARK  status: ('A' for Active; 'I' for Inactive)
ROOT
ATOM      1  C   UNL d   1      -0.935   1.973   1.052  0.00  0.00     0.020 A 
ATOM      2  C1  UNL d   1      -0.377   1.918  -0.224  0.00  0.00     0.020 A 
ATOM      3  C2  UNL d   1       0.099   0.705  -0.727  0.00  0.00     0.034 A 
ATOM      4  C3  UNL d   1       0.019  -0.458   0.048  0.00  0.00     0.017 A 
ATOM      5  C4  UNL d   1      -0.542  -0.402   1.329  0.00  0.00     0.017 A 
ATOM      6  C5  UNL d   1      -1.017   0.815   1.827  0.00  0.00     0.034 A 
ATOM      7 Cl   UNL d   1      -0.676  -1.795   2.344  0.00  0.00    -0.070 Cl
ATOM      8 Cl1  UNL d   1       0.627  -1.923  -0.637  0.00  0.00    -0.070 Cl
ENDROOT
TORSDOF 0
ENDMDL
