MODEL 1
REMARK minimizedAffinity -1.56421423
REMARK minimizedRMSD -1
REMARK  0 active torsions:
REMARK  status: ('A' for Active; 'I' for Inactive)
ROOT
ATOM      1  C   UNL d   1      -0.871   1.110   1.831  0.00  0.00     0.020 A 
ATOM      2  C1  UNL d   1      -1.463  -0.148   1.935  0.00  0.00     0.020 A 
ATOM      3  C2  UNL d   1      -1.172  -1.137   0.993  0.00  0.00     0.034 A 
ATOM      4  C3  UNL d   1      -0.288  -0.869  -0.058  0.00  0.00     0.017 A 
ATOM      5  C4  UNL d   1       0.306   0.394  -0.163  0.00  0.00     0.017 A 
ATOM      6  C5  UNL d   1       0.011   1.380   0.784  0.00  0.00     0.034 A 
ATOM      7 Cl   UNL d   1       1.407   0.799  -1.432  0.00  0.00    -0.070 Cl
ATOM      8 Cl1  UNL d   1       0.026  -2.139  -1.187  0.00  0.00    -0.070 Cl
ENDROOT
TORSDOF 0
ENDMDL
