MODEL 1
REMARK minimizedAffinity 0.0888557732
REMARK minimizedRMSD -1
REMARK  0 active torsions:
REMARK  status: ('A' for Active; 'I' for Inactive)
ROOT
ATOM      1  C   UNL d   1      -1.049   0.896   2.023  0.00  0.00     0.020 A 
ATOM      2  C1  UNL d   1      -1.030  -0.473   2.285  0.00  0.00     0.020 A 
ATOM      3  C2  UNL d   1      -0.363  -1.341   1.417  0.00  0.00     0.034 A 
ATOM      4  C3  UNL d   1       0.288  -0.840   0.283  0.00  0.00     0.017 A 
ATOM      5  C4  UNL d   1       0.268   0.535   0.021  0.00  0.00     0.017 A 
ATOM      6  C5  UNL d   1      -0.402   1.399   0.893  0.00  0.00     0.034 A 
ATOM      7 Cl   UNL d   1       1.047   1.227  -1.357  0.00  0.00    -0.070 Cl
ATOM      8 Cl1  UNL d   1       1.093  -1.970  -0.746  0.00  0.00    -0.070 Cl
ENDROOT
TORSDOF 0
ENDMDL
