MODEL 1
REMARK minimizedAffinity -4.02372074
REMARK minimizedRMSD -1
REMARK  0 active torsions:
REMARK  status: ('A' for Active; 'I' for Inactive)
ROOT
ATOM      1  C   UNL d   1      -0.421   3.295   0.423  0.00  0.00     0.020 A 
ATOM      2  C1  UNL d   1       0.378   2.996  -0.680  0.00  0.00     0.020 A 
ATOM      3  C2  UNL d   1       0.710   1.670  -0.963  0.00  0.00     0.034 A 
ATOM      4  C3  UNL d   1       0.243   0.637  -0.142  0.00  0.00     0.017 A 
ATOM      5  C4  UNL d   1      -0.560   0.938   0.965  0.00  0.00     0.017 A 
ATOM      6  C5  UNL d   1      -0.889   2.268   1.243  0.00  0.00     0.034 A 
ATOM      7 Cl   UNL d   1      -1.174  -0.283   2.024  0.00  0.00    -0.070 Cl
ATOM      8 Cl1  UNL d   1       0.692  -0.981  -0.551  0.00  0.00    -0.070 Cl
ENDROOT
TORSDOF 0
ENDMDL
