MODEL 1
REMARK minimizedAffinity -5.65058088
REMARK minimizedRMSD -1
REMARK  0 active torsions:
REMARK  status: ('A' for Active; 'I' for Inactive)
ROOT
ATOM      1  C   UNL d   1      -1.176   3.528   0.199  0.00  0.00     0.020 A 
ATOM      2  C1  UNL d   1      -1.910   2.873   1.187  0.00  0.00     0.020 A 
ATOM      3  C2  UNL d   1      -1.610   1.550   1.518  0.00  0.00     0.034 A 
ATOM      4  C3  UNL d   1      -0.572   0.878   0.862  0.00  0.00     0.017 A 
ATOM      5  C4  UNL d   1       0.165   1.537  -0.129  0.00  0.00     0.017 A 
ATOM      6  C5  UNL d   1      -0.141   2.861  -0.457  0.00  0.00     0.034 A 
ATOM      7 Cl   UNL d   1       1.459   0.773  -0.983  0.00  0.00    -0.070 Cl
ATOM      8 Cl1  UNL d   1      -0.255  -0.757   1.323  0.00  0.00    -0.070 Cl
ENDROOT
TORSDOF 0
ENDMDL
