MODEL 1
REMARK minimizedAffinity -3.44637418
REMARK minimizedRMSD -1
REMARK  0 active torsions:
REMARK  status: ('A' for Active; 'I' for Inactive)
ROOT
ATOM      1  C   UNL d   1      -0.624   1.847   0.536  0.00  0.00     0.020 A 
ATOM      2  C1  UNL d   1       0.055   1.663  -0.668  0.00  0.00     0.020 A 
ATOM      3  C2  UNL d   1       0.670   0.439  -0.943  0.00  0.00     0.034 A 
ATOM      4  C3  UNL d   1       0.607  -0.605  -0.012  0.00  0.00     0.017 A 
ATOM      5  C4  UNL d   1      -0.075  -0.419   1.196  0.00  0.00     0.017 A 
ATOM      6  C5  UNL d   1      -0.689   0.808   1.466  0.00  0.00     0.034 A 
ATOM      7 Cl   UNL d   1      -0.196  -1.660   2.392  0.00  0.00    -0.070 Cl
ATOM      8 Cl1  UNL d   1       1.389  -2.091  -0.418  0.00  0.00    -0.070 Cl
ENDROOT
TORSDOF 0
ENDMDL
