MODEL 1
REMARK minimizedAffinity -0.611922979
REMARK minimizedRMSD -1
REMARK  0 active torsions:
REMARK  status: ('A' for Active; 'I' for Inactive)
ROOT
ATOM      1  C   UNL d   1      -1.010  -0.143   2.074  0.00  0.00     0.020 A 
ATOM      2  C1  UNL d   1      -0.909   1.214   1.771  0.00  0.00     0.020 A 
ATOM      3  C2  UNL d   1      -0.294   1.621   0.585  0.00  0.00     0.034 A 
ATOM      4  C3  UNL d   1       0.224   0.669  -0.302  0.00  0.00     0.017 A 
ATOM      5  C4  UNL d   1       0.122  -0.693   0.004  0.00  0.00     0.017 A 
ATOM      6  C5  UNL d   1      -0.495  -1.094   1.193  0.00  0.00     0.034 A 
ATOM      7 Cl   UNL d   1       0.737  -1.925  -1.040  0.00  0.00    -0.070 Cl
ATOM      8 Cl1  UNL d   1       0.972   1.243  -1.750  0.00  0.00    -0.070 Cl
ENDROOT
TORSDOF 0
ENDMDL
