MODEL 1
REMARK minimizedAffinity -3.34904194
REMARK minimizedRMSD -1
REMARK  0 active torsions:
REMARK  status: ('A' for Active; 'I' for Inactive)
ROOT
ATOM      1  C   UNL d   1      -1.212   2.388   1.213  0.00  0.00     0.020 A 
ATOM      2  C1  UNL d   1      -0.614   2.431  -0.046  0.00  0.00     0.020 A 
ATOM      3  C2  UNL d   1      -0.012   1.285  -0.572  0.00  0.00     0.034 A 
ATOM      4  C3  UNL d   1      -0.007   0.093   0.161  0.00  0.00     0.017 A 
ATOM      5  C4  UNL d   1      -0.607   0.051   1.424  0.00  0.00     0.017 A 
ATOM      6  C5  UNL d   1      -1.208   1.201   1.946  0.00  0.00     0.034 A 
ATOM      7 Cl   UNL d   1      -0.641  -1.383   2.388  0.00  0.00    -0.070 Cl
ATOM      8 Cl1  UNL d   1       0.755  -1.285  -0.552  0.00  0.00    -0.070 Cl
ENDROOT
TORSDOF 0
ENDMDL
