MODEL 1
REMARK minimizedAffinity 1.23883772
REMARK minimizedRMSD -1
REMARK  0 active torsions:
REMARK  status: ('A' for Active; 'I' for Inactive)
ROOT
ATOM      1  C   UNL d   1       1.211  -0.822   0.190  0.00  0.00     0.124 A 
ATOM      2  C1  UNL d   1       1.092   0.546  -0.008  0.00  0.00     0.062 A 
ATOM      3  C2  UNL d   1      -0.103   1.085  -0.476  0.00  0.00     0.162 A 
ATOM      4  C3  UNL d   1      -1.190   0.254  -0.748  0.00  0.00    -0.034 A 
ATOM      5  C4  UNL d   1      -1.063  -1.121  -0.548  0.00  0.00     0.162 A 
ATOM      6  C5  UNL d   1       0.134  -1.655  -0.080  0.00  0.00     0.062 A 
ATOM      7  F   UNL d   1       0.247  -2.977   0.110  0.00  0.00    -0.097 F 
ATOM      8  F1  UNL d   1      -2.088  -1.949  -0.800  0.00  0.00    -0.096 F 
ATOM      9  I   UNL d   1      -2.979   1.056  -1.448  0.00  0.00    -0.060 I 
ATOM     10  F2  UNL d   1      -0.190   2.411  -0.658  0.00  0.00    -0.096 F 
ATOM     11  F3  UNL d   1       2.131   1.353   0.251  0.00  0.00    -0.097 F 
ATOM     12  F4  UNL d   1       2.362  -1.338   0.639  0.00  0.00    -0.092 F 
ENDROOT
TORSDOF 0
ENDMDL
