MODEL 1
REMARK minimizedAffinity 1.04192424
REMARK minimizedRMSD -1
REMARK  0 active torsions:
REMARK  status: ('A' for Active; 'I' for Inactive)
ROOT
ATOM      1  C   UNL d   1       1.231  -1.877   0.924  0.00  0.00     0.124 A 
ATOM      2  C1  UNL d   1      -0.146  -1.833   0.759  0.00  0.00     0.062 A 
ATOM      3  C2  UNL d   1      -0.726  -0.838  -0.023  0.00  0.00     0.162 A 
ATOM      4  C3  UNL d   1       0.072   0.121  -0.647  0.00  0.00    -0.034 A 
ATOM      5  C4  UNL d   1       1.456   0.071  -0.475  0.00  0.00     0.162 A 
ATOM      6  C5  UNL d   1       2.031  -0.926   0.307  0.00  0.00     0.062 A 
ATOM      7  F   UNL d   1       3.362  -0.967   0.465  0.00  0.00    -0.097 F 
ATOM      8  F1  UNL d   1       2.253   0.977  -1.061  0.00  0.00    -0.096 F 
ATOM      9  I   UNL d   1      -0.791   1.610  -1.816  0.00  0.00    -0.060 I 
ATOM     10  F2  UNL d   1      -2.060  -0.819  -0.165  0.00  0.00    -0.096 F 
ATOM     11  F3  UNL d   1      -0.921  -2.750   1.355  0.00  0.00    -0.097 F 
ATOM     12  F4  UNL d   1       1.786  -2.835   1.678  0.00  0.00    -0.092 F 
ENDROOT
TORSDOF 0
ENDMDL
