MODEL 1
REMARK minimizedAffinity -1.10989177
REMARK minimizedRMSD -1
REMARK  0 active torsions:
REMARK  status: ('A' for Active; 'I' for Inactive)
ROOT
ATOM      1  C   UNL d   1       0.778  -2.176   0.979  0.00  0.00     0.124 A 
ATOM      2  C1  UNL d   1      -0.477  -1.642   1.237  0.00  0.00     0.062 A 
ATOM      3  C2  UNL d   1      -0.891  -0.482   0.590  0.00  0.00     0.162 A 
ATOM      4  C3  UNL d   1      -0.049   0.154  -0.323  0.00  0.00    -0.034 A 
ATOM      5  C4  UNL d   1       1.212  -0.388  -0.577  0.00  0.00     0.162 A 
ATOM      6  C5  UNL d   1       1.621  -1.549   0.072  0.00  0.00     0.062 A 
ATOM      7  F   UNL d   1       2.834  -2.063  -0.179  0.00  0.00    -0.097 F 
ATOM      8  F1  UNL d   1       2.046   0.197  -1.449  0.00  0.00    -0.096 F 
ATOM      9  I   UNL d   1      -0.664   1.890  -1.292  0.00  0.00    -0.060 I 
ATOM     10  F2  UNL d   1      -2.109   0.012   0.860  0.00  0.00    -0.096 F 
ATOM     11  F3  UNL d   1      -1.293  -2.246   2.113  0.00  0.00    -0.097 F 
ATOM     12  F4  UNL d   1       1.174  -3.293   1.603  0.00  0.00    -0.092 F 
ENDROOT
TORSDOF 0
ENDMDL
