MODEL 1
REMARK minimizedAffinity 4.17385769
REMARK minimizedRMSD -1
REMARK  0 active torsions:
REMARK  status: ('A' for Active; 'I' for Inactive)
ROOT
ATOM      1  C   UNL d   1       1.011  -1.537   1.716  0.00  0.00     0.124 A 
ATOM      2  C1  UNL d   1      -0.242  -0.983   1.938  0.00  0.00     0.062 A 
ATOM      3  C2  UNL d   1      -0.724   0.017   1.099  0.00  0.00     0.162 A 
ATOM      4  C3  UNL d   1       0.047   0.469   0.028  0.00  0.00    -0.034 A 
ATOM      5  C4  UNL d   1       1.306  -0.093  -0.189  0.00  0.00     0.162 A 
ATOM      6  C5  UNL d   1       1.783  -1.092   0.653  0.00  0.00     0.062 A 
ATOM      7  F   UNL d   1       2.994  -1.626   0.437  0.00  0.00    -0.097 F 
ATOM      8  F1  UNL d   1       2.074   0.318  -1.209  0.00  0.00    -0.096 F 
ATOM      9  I   UNL d   1      -0.670   1.965  -1.230  0.00  0.00    -0.060 I 
ATOM     10  F2  UNL d   1      -1.938   0.535   1.337  0.00  0.00    -0.096 F 
ATOM     11  F3  UNL d   1      -0.991  -1.411   2.965  0.00  0.00    -0.097 F 
ATOM     12  F4  UNL d   1       1.472  -2.499   2.526  0.00  0.00    -0.092 F 
ENDROOT
TORSDOF 0
ENDMDL
