MODEL 1
REMARK minimizedAffinity -3.48380208
REMARK minimizedRMSD -1
REMARK  0 active torsions:
REMARK  status: ('A' for Active; 'I' for Inactive)
ROOT
ATOM      1  C   UNL d   1       0.682  -1.790   0.857  0.00  0.00     0.124 A 
ATOM      2  C1  UNL d   1       1.555  -1.278  -0.093  0.00  0.00     0.062 A 
ATOM      3  C2  UNL d   1       1.206  -0.149  -0.828  0.00  0.00     0.162 A 
ATOM      4  C3  UNL d   1      -0.022   0.477  -0.615  0.00  0.00    -0.034 A 
ATOM      5  C4  UNL d   1      -0.896  -0.044   0.341  0.00  0.00     0.162 A 
ATOM      6  C5  UNL d   1      -0.542  -1.173   1.073  0.00  0.00     0.062 A 
ATOM      7  F   UNL d   1      -1.387  -1.667   1.990  0.00  0.00    -0.097 F 
ATOM      8  F1  UNL d   1      -2.085   0.533   0.571  0.00  0.00    -0.096 F 
ATOM      9  I   UNL d   1      -0.548   2.166  -1.712  0.00  0.00    -0.060 I 
ATOM     10  F2  UNL d   1       2.069   0.324  -1.739  0.00  0.00    -0.096 F 
ATOM     11  F3  UNL d   1       2.738  -1.873  -0.304  0.00  0.00    -0.097 F 
ATOM     12  F4  UNL d   1       1.019  -2.878   1.562  0.00  0.00    -0.092 F 
ENDROOT
TORSDOF 0
ENDMDL
