MODEL 1
REMARK minimizedAffinity -2.20122004
REMARK minimizedRMSD -1
REMARK  0 active torsions:
REMARK  status: ('A' for Active; 'I' for Inactive)
ROOT
ATOM      1  C   UNL d   1       1.830  -2.348   0.754  0.00  0.00     0.124 A 
ATOM      2  C1  UNL d   1       2.234  -1.511  -0.277  0.00  0.00     0.062 A 
ATOM      3  C2  UNL d   1       1.408  -0.475  -0.702  0.00  0.00     0.162 A 
ATOM      4  C3  UNL d   1       0.169  -0.268  -0.095  0.00  0.00    -0.034 A 
ATOM      5  C4  UNL d   1      -0.231  -1.115   0.940  0.00  0.00     0.162 A 
ATOM      6  C5  UNL d   1       0.598  -2.149   1.361  0.00  0.00     0.062 A 
ATOM      7  F   UNL d   1       0.205  -2.957   2.357  0.00  0.00    -0.097 F 
ATOM      8  F1  UNL d   1      -1.416  -0.945   1.546  0.00  0.00    -0.096 F 
ATOM      9  I   UNL d   1      -1.069   1.280  -0.728  0.00  0.00    -0.060 I 
ATOM     10  F2  UNL d   1       1.824   0.318  -1.700  0.00  0.00    -0.096 F 
ATOM     11  F3  UNL d   1       3.423  -1.702  -0.866  0.00  0.00    -0.097 F 
ATOM     12  F4  UNL d   1       2.626  -3.345   1.160  0.00  0.00    -0.092 F 
ENDROOT
TORSDOF 0
ENDMDL
