MODEL 1
REMARK minimizedAffinity -2.31764293
REMARK minimizedRMSD -1
REMARK  0 active torsions:
REMARK  status: ('A' for Active; 'I' for Inactive)
ROOT
ATOM      1  C   UNL d   1       1.179  -1.796   1.417  0.00  0.00     0.124 A 
ATOM      2  C1  UNL d   1      -0.061  -1.372   1.876  0.00  0.00     0.062 A 
ATOM      3  C2  UNL d   1      -0.754  -0.373   1.198  0.00  0.00     0.162 A 
ATOM      4  C3  UNL d   1      -0.211   0.207   0.052  0.00  0.00    -0.034 A 
ATOM      5  C4  UNL d   1       1.036  -0.224  -0.403  0.00  0.00     0.162 A 
ATOM      6  C5  UNL d   1       1.726  -1.222   0.278  0.00  0.00     0.062 A 
ATOM      7  F   UNL d   1       2.923  -1.630  -0.167  0.00  0.00    -0.097 F 
ATOM      8  F1  UNL d   1       1.588   0.313  -1.502  0.00  0.00    -0.096 F 
ATOM      9  I   UNL d   1      -1.245   1.700  -0.964  0.00  0.00    -0.060 I 
ATOM     10  F2  UNL d   1      -1.950   0.017   1.665  0.00  0.00    -0.096 F 
ATOM     11  F3  UNL d   1      -0.591  -1.924   2.977  0.00  0.00    -0.097 F 
ATOM     12  F4  UNL d   1       1.844  -2.756   2.072  0.00  0.00    -0.092 F 
ENDROOT
TORSDOF 0
ENDMDL
