MODEL 1
REMARK minimizedAffinity 0.209067076
REMARK minimizedRMSD -1
REMARK  0 active torsions:
REMARK  status: ('A' for Active; 'I' for Inactive)
ROOT
ATOM      1  C   UNL d   1       0.825  -1.695   2.089  0.00  0.00     0.124 A 
ATOM      2  C1  UNL d   1       1.539  -1.364   0.946  0.00  0.00     0.062 A 
ATOM      3  C2  UNL d   1       1.038  -0.415   0.058  0.00  0.00     0.162 A 
ATOM      4  C3  UNL d   1      -0.183   0.209   0.311  0.00  0.00    -0.034 A 
ATOM      5  C4  UNL d   1      -0.896  -0.130   1.462  0.00  0.00     0.162 A 
ATOM      6  C5  UNL d   1      -0.392  -1.078   2.346  0.00  0.00     0.062 A 
ATOM      7  F   UNL d   1      -1.083  -1.397   3.450  0.00  0.00    -0.097 F 
ATOM      8  F1  UNL d   1      -2.073   0.452   1.735  0.00  0.00    -0.096 F 
ATOM      9  I   UNL d   1      -0.935   1.628  -1.014  0.00  0.00    -0.060 I 
ATOM     10  F2  UNL d   1       1.750  -0.115  -1.038  0.00  0.00    -0.096 F 
ATOM     11  F3  UNL d   1       2.713  -1.959   0.695  0.00  0.00    -0.097 F 
ATOM     12  F4  UNL d   1       1.308  -2.609   2.941  0.00  0.00    -0.092 F 
ENDROOT
TORSDOF 0
ENDMDL
