MODEL 1
REMARK minimizedAffinity -4.2964983
REMARK minimizedRMSD -1
REMARK  0 active torsions:
REMARK  status: ('A' for Active; 'I' for Inactive)
ROOT
ATOM      1  C   UNL d   1       0.680  -2.166   1.914  0.00  0.00     0.124 A 
ATOM      2  C1  UNL d   1       1.396  -1.726   0.809  0.00  0.00     0.062 A 
ATOM      3  C2  UNL d   1       1.033  -0.548   0.164  0.00  0.00     0.162 A 
ATOM      4  C3  UNL d   1      -0.051   0.201   0.623  0.00  0.00    -0.034 A 
ATOM      5  C4  UNL d   1      -0.767  -0.248   1.734  0.00  0.00     0.162 A 
ATOM      6  C5  UNL d   1      -0.400  -1.427   2.375  0.00  0.00     0.062 A 
ATOM      7  F   UNL d   1      -1.093  -1.850   3.443  0.00  0.00    -0.097 F 
ATOM      8  F1  UNL d   1      -1.814   0.447   2.201  0.00  0.00    -0.096 F 
ATOM      9  I   UNL d   1      -0.597   1.963  -0.340  0.00  0.00    -0.060 I 
ATOM     10  F2  UNL d   1       1.742  -0.147  -0.901  0.00  0.00    -0.096 F 
ATOM     11  F3  UNL d   1       2.439  -2.439   0.361  0.00  0.00    -0.097 F 
ATOM     12  F4  UNL d   1       1.031  -3.301   2.533  0.00  0.00    -0.092 F 
ENDROOT
TORSDOF 0
ENDMDL
