MODEL 1
REMARK minimizedAffinity -4.48383284
REMARK minimizedRMSD -1
REMARK  0 active torsions:
REMARK  status: ('A' for Active; 'I' for Inactive)
ROOT
ATOM      1  C   UNL d   1       0.716  -2.681   2.000  0.00  0.00     0.124 A 
ATOM      2  C1  UNL d   1      -0.208  -1.807   2.555  0.00  0.00     0.062 A 
ATOM      3  C2  UNL d   1      -0.646  -0.701   1.833  0.00  0.00     0.162 A 
ATOM      4  C3  UNL d   1      -0.162  -0.464   0.546  0.00  0.00    -0.034 A 
ATOM      5  C4  UNL d   1       0.768  -1.347  -0.005  0.00  0.00     0.162 A 
ATOM      6  C5  UNL d   1       1.203  -2.451   0.721  0.00  0.00     0.062 A 
ATOM      7  F   UNL d   1       2.096  -3.295   0.184  0.00  0.00    -0.097 F 
ATOM      8  F1  UNL d   1       1.254  -1.149  -1.239  0.00  0.00    -0.096 F 
ATOM      9  I   UNL d   1      -0.815   1.189  -0.537  0.00  0.00    -0.060 I 
ATOM     10  F2  UNL d   1      -1.540   0.128   2.394  0.00  0.00    -0.096 F 
ATOM     11  F3  UNL d   1      -0.679  -2.027   3.791  0.00  0.00    -0.097 F 
ATOM     12  F4  UNL d   1       1.137  -3.744   2.698  0.00  0.00    -0.092 F 
ENDROOT
TORSDOF 0
ENDMDL
