MODEL 1
REMARK minimizedAffinity -2.96453404
REMARK minimizedRMSD -1
REMARK  0 active torsions:
REMARK  status: ('A' for Active; 'I' for Inactive)
ROOT
ATOM      1  C   UNL d   1       0.949  -2.674   1.914  0.00  0.00     0.124 A 
ATOM      2  C1  UNL d   1      -0.173  -2.051   2.441  0.00  0.00     0.062 A 
ATOM      3  C2  UNL d   1      -0.700  -0.920   1.824  0.00  0.00     0.162 A 
ATOM      4  C3  UNL d   1      -0.106  -0.406   0.672  0.00  0.00    -0.034 A 
ATOM      5  C4  UNL d   1       1.023  -1.038   0.148  0.00  0.00     0.162 A 
ATOM      6  C5  UNL d   1       1.546  -2.167   0.768  0.00  0.00     0.062 A 
ATOM      7  F   UNL d   1       2.631  -2.768   0.258  0.00  0.00    -0.097 F 
ATOM      8  F1  UNL d   1       1.619  -0.569  -0.959  0.00  0.00    -0.096 F 
ATOM      9  I   UNL d   1      -0.892   1.285  -0.254  0.00  0.00    -0.060 I 
ATOM     10  F2  UNL d   1      -1.786  -0.338   2.356  0.00  0.00    -0.096 F 
ATOM     11  F3  UNL d   1      -0.751  -2.538   3.549  0.00  0.00    -0.097 F 
ATOM     12  F4  UNL d   1       1.455  -3.762   2.510  0.00  0.00    -0.092 F 
ENDROOT
TORSDOF 0
ENDMDL
