MODEL 1
REMARK minimizedAffinity -4.71895075
REMARK minimizedRMSD -1
REMARK  0 active torsions:
REMARK  status: ('A' for Active; 'I' for Inactive)
ROOT
ATOM      1  C   UNL d   1       0.424  -2.149   1.798  0.00  0.00     0.124 A 
ATOM      2  C1  UNL d   1      -0.490  -1.220   2.278  0.00  0.00     0.062 A 
ATOM      3  C2  UNL d   1      -0.924  -0.179   1.462  0.00  0.00     0.162 A 
ATOM      4  C3  UNL d   1      -0.446  -0.062   0.156  0.00  0.00    -0.034 A 
ATOM      5  C4  UNL d   1       0.473  -1.000  -0.318  0.00  0.00     0.162 A 
ATOM      6  C5  UNL d   1       0.904  -2.038   0.501  0.00  0.00     0.062 A 
ATOM      7  F   UNL d   1       1.786  -2.934   0.036  0.00  0.00    -0.097 F 
ATOM      8  F1  UNL d   1       0.953  -0.917  -1.568  0.00  0.00    -0.096 F 
ATOM      9  I   UNL d   1      -1.093   1.492  -1.067  0.00  0.00    -0.060 I 
ATOM     10  F2  UNL d   1      -1.807   0.704   1.951  0.00  0.00    -0.096 F 
ATOM     11  F3  UNL d   1      -0.954  -1.324   3.531  0.00  0.00    -0.097 F 
ATOM     12  F4  UNL d   1       0.840  -3.148   2.586  0.00  0.00    -0.092 F 
ENDROOT
TORSDOF 0
ENDMDL
