MODEL 1
REMARK minimizedAffinity -1.34419072
REMARK minimizedRMSD -1
REMARK  0 active torsions:
REMARK  status: ('A' for Active; 'I' for Inactive)
ROOT
ATOM      1  C   UNL d   1       1.575   0.337  -0.336  0.00  0.00     0.124 A 
ATOM      2  C1  UNL d   1       1.879  -0.887   0.244  0.00  0.00     0.062 A 
ATOM      3  C2  UNL d   1       0.933  -1.545   1.025  0.00  0.00     0.162 A 
ATOM      4  C3  UNL d   1      -0.326  -0.981   1.231  0.00  0.00    -0.034 A 
ATOM      5  C4  UNL d   1      -0.624   0.251   0.645  0.00  0.00     0.162 A 
ATOM      6  C5  UNL d   1       0.325   0.905  -0.135  0.00  0.00     0.062 A 
ATOM      7  F   UNL d   1       0.030   2.087  -0.694  0.00  0.00    -0.097 F 
ATOM      8  F1  UNL d   1      -1.824   0.822   0.822  0.00  0.00    -0.096 F 
ATOM      9  I   UNL d   1      -1.742  -1.962   2.398  0.00  0.00    -0.060 I 
ATOM     10  F2  UNL d   1       1.254  -2.727   1.573  0.00  0.00    -0.096 F 
ATOM     11  F3  UNL d   1       3.086  -1.437   0.052  0.00  0.00    -0.097 F 
ATOM     12  F4  UNL d   1       2.487   0.969  -1.086  0.00  0.00    -0.092 F 
ENDROOT
TORSDOF 0
ENDMDL
