MODEL 1
REMARK minimizedAffinity -0.166057825
REMARK minimizedRMSD -1
REMARK  0 active torsions:
REMARK  status: ('A' for Active; 'I' for Inactive)
ROOT
ATOM      1  C   UNL d   1       0.614  -0.665   1.085  0.00  0.00     0.124 A 
ATOM      2  C1  UNL d   1      -0.600  -0.079   1.415  0.00  0.00     0.062 A 
ATOM      3  C2  UNL d   1      -1.359   0.557   0.437  0.00  0.00     0.162 A 
ATOM      4  C3  UNL d   1      -0.906   0.611  -0.882  0.00  0.00    -0.034 A 
ATOM      5  C4  UNL d   1       0.317   0.020  -1.206  0.00  0.00     0.162 A 
ATOM      6  C5  UNL d   1       1.071  -0.615  -0.225  0.00  0.00     0.062 A 
ATOM      7  F   UNL d   1       2.244  -1.180  -0.545  0.00  0.00    -0.097 F 
ATOM      8  F1  UNL d   1       0.782   0.053  -2.463  0.00  0.00    -0.096 F 
ATOM      9  I   UNL d   1      -2.038   1.562  -2.347  0.00  0.00    -0.060 I 
ATOM     10  F2  UNL d   1      -2.528   1.115   0.784  0.00  0.00    -0.096 F 
ATOM     11  F3  UNL d   1      -1.044  -0.126   2.679  0.00  0.00    -0.097 F 
ATOM     12  F4  UNL d   1       1.343  -1.276   2.028  0.00  0.00    -0.092 F 
ENDROOT
TORSDOF 0
ENDMDL
