MODEL 1
REMARK minimizedAffinity 0.298515707
REMARK minimizedRMSD -1
REMARK  0 active torsions:
REMARK  status: ('A' for Active; 'I' for Inactive)
ROOT
ATOM      1  C   UNL d   1      -2.358   1.027  -4.804  0.00  0.00     0.023 A 
ATOM      2  C1  UNL d   1      -2.082   0.981  -3.437  0.00  0.00     0.003 A 
ATOM      3  C2  UNL d   1      -3.034   1.422  -2.516  0.00  0.00     0.048 A 
ATOM      4  C3  UNL d   1      -4.260   1.907  -2.967  0.00  0.00     0.023 A 
ATOM      5  C4  UNL d   1      -4.542   1.955  -4.334  0.00  0.00     0.048 A 
ATOM      6  C5  UNL d   1      -3.587   1.514  -5.251  0.00  0.00     0.003 A 
ATOM      7  I   UNL d   1      -5.679   2.564  -1.598  0.00  0.00    -0.146 I 
ENDROOT
TORSDOF 0
ENDMDL
