MODEL 1
REMARK minimizedAffinity 9.00062656
REMARK minimizedRMSD -1
REMARK  0 active torsions:
REMARK  status: ('A' for Active; 'I' for Inactive)
ROOT
ATOM      1  C   UNL d   1      -0.625   3.947   1.086  0.00  0.00     0.023 A 
ATOM      2  C1  UNL d   1       0.507   4.112   0.288  0.00  0.00     0.003 A 
ATOM      3  C2  UNL d   1       1.109   3.004  -0.312  0.00  0.00     0.048 A 
ATOM      4  C3  UNL d   1       0.572   1.733  -0.110  0.00  0.00     0.023 A 
ATOM      5  C4  UNL d   1      -0.562   1.562   0.687  0.00  0.00     0.048 A 
ATOM      6  C5  UNL d   1      -1.159   2.673   1.285  0.00  0.00     0.003 A 
ATOM      7  I   UNL d   1       1.464   0.081  -1.003  0.00  0.00    -0.146 I 
ENDROOT
TORSDOF 0
ENDMDL
