MODEL 1
REMARK minimizedAffinity 5.12648582
REMARK minimizedRMSD -1
REMARK  0 active torsions:
REMARK  status: ('A' for Active; 'I' for Inactive)
ROOT
ATOM      1  C   UNL d   1       3.243  -2.356   0.930  0.00  0.00     0.023 A 
ATOM      2  C1  UNL d   1       3.017  -1.854  -0.352  0.00  0.00     0.003 A 
ATOM      3  C2  UNL d   1       2.323  -0.655  -0.521  0.00  0.00     0.048 A 
ATOM      4  C3  UNL d   1       1.857   0.039   0.596  0.00  0.00     0.023 A 
ATOM      5  C4  UNL d   1       2.081  -0.459   1.880  0.00  0.00     0.048 A 
ATOM      6  C5  UNL d   1       2.775  -1.660   2.045  0.00  0.00     0.003 A 
ATOM      7  I   UNL d   1       0.824   1.824   0.346  0.00  0.00    -0.146 I 
ENDROOT
TORSDOF 0
ENDMDL
