MODEL 1
REMARK minimizedAffinity 1.81723833
REMARK minimizedRMSD -1
REMARK  0 active torsions:
REMARK  status: ('A' for Active; 'I' for Inactive)
ROOT
ATOM      1  C   UNL d   1       0.973   3.362   0.185  0.00  0.00     0.023 A 
ATOM      2  C1  UNL d   1       0.100   2.353  -0.221  0.00  0.00     0.003 A 
ATOM      3  C2  UNL d   1       0.523   1.023  -0.230  0.00  0.00     0.048 A 
ATOM      4  C3  UNL d   1       1.821   0.708   0.170  0.00  0.00     0.023 A 
ATOM      5  C4  UNL d   1       2.698   1.713   0.579  0.00  0.00     0.048 A 
ATOM      6  C5  UNL d   1       2.271   3.042   0.585  0.00  0.00     0.003 A 
ATOM      7  I   UNL d   1       2.453  -1.272   0.159  0.00  0.00    -0.146 I 
ENDROOT
TORSDOF 0
ENDMDL
