MODEL 1
REMARK minimizedAffinity 1.68526351
REMARK minimizedRMSD -1
REMARK  0 active torsions:
REMARK  status: ('A' for Active; 'I' for Inactive)
ROOT
ATOM      1  C   UNL d   1       3.361  -0.137   0.534  0.00  0.00     0.023 A 
ATOM      2  C1  UNL d   1       2.714   1.078   0.756  0.00  0.00     0.003 A 
ATOM      3  C2  UNL d   1       1.479   1.333   0.157  0.00  0.00     0.048 A 
ATOM      4  C3  UNL d   1       0.896   0.367  -0.662  0.00  0.00     0.023 A 
ATOM      5  C4  UNL d   1       1.539  -0.851  -0.887  0.00  0.00     0.048 A 
ATOM      6  C5  UNL d   1       2.775  -1.101  -0.287  0.00  0.00     0.003 A 
ATOM      7  I   UNL d   1      -0.943   0.743  -1.555  0.00  0.00    -0.146 I 
ENDROOT
TORSDOF 0
ENDMDL
