MODEL 1
REMARK minimizedAffinity 1.82184517
REMARK minimizedRMSD -1
REMARK  0 active torsions:
REMARK  status: ('A' for Active; 'I' for Inactive)
ROOT
ATOM      1  C   UNL d   1       3.733   2.834   0.306  0.00  0.00     0.023 A 
ATOM      2  C1  UNL d   1       2.342   2.721   0.321  0.00  0.00     0.003 A 
ATOM      3  C2  UNL d   1       1.740   1.472   0.163  0.00  0.00     0.048 A 
ATOM      4  C3  UNL d   1       2.534   0.338  -0.009  0.00  0.00     0.023 A 
ATOM      5  C4  UNL d   1       3.925   0.446  -0.024  0.00  0.00     0.048 A 
ATOM      6  C5  UNL d   1       4.523   1.698   0.134  0.00  0.00     0.003 A 
ATOM      7  I   UNL d   1       1.639  -1.523  -0.244  0.00  0.00    -0.146 I 
ENDROOT
TORSDOF 0
ENDMDL
