MODEL 1
REMARK minimizedAffinity 10.352458
REMARK minimizedRMSD -1
REMARK  0 active torsions:
REMARK  status: ('A' for Active; 'I' for Inactive)
ROOT
ATOM      1  C2' OXE d   1      -0.357  -5.616   1.852  0.00  0.00     0.078 C 
ATOM      2  C1' OXE d   1      -1.346  -3.221   2.930  0.00  0.00     0.078 C 
ATOM      3  C1  OXE d   1      -1.245  -3.328   1.429  0.00  0.00    -0.078 A 
ATOM      4  C2  OXE d   1      -0.716  -4.486   0.912  0.00  0.00    -0.078 A 
ATOM      5  C3  OXE d   1      -0.651  -4.659  -0.467  0.00  0.00     0.003 A 
ATOM      6  C4  OXE d   1      -0.976  -3.605  -1.330  0.00  0.00    -0.002 A 
ATOM      7  C5  OXE d   1      -1.479  -2.402  -0.823  0.00  0.00    -0.002 A 
ATOM      8  C6  OXE d   1      -1.660  -2.263   0.549  0.00  0.00     0.003 A 
ENDROOT
TORSDOF 0
ENDMDL
