MODEL 1
REMARK minimizedAffinity 12.7467613
REMARK minimizedRMSD -1
REMARK  0 active torsions:
REMARK  status: ('A' for Active; 'I' for Inactive)
ROOT
ATOM      1  C2' OXE d   1      -0.411  -6.000   1.068  0.00  0.00     0.078 C 
ATOM      2  C1' OXE d   1      -0.598  -5.417  -1.672  0.00  0.00     0.078 C 
ATOM      3  C1  OXE d   1      -0.967  -4.329  -0.695  0.00  0.00    -0.078 A 
ATOM      4  C2  OXE d   1      -0.917  -4.638   0.643  0.00  0.00    -0.078 A 
ATOM      5  C3  OXE d   1      -1.195  -3.654   1.588  0.00  0.00     0.003 A 
ATOM      6  C4  OXE d   1      -1.672  -2.401   1.187  0.00  0.00    -0.002 A 
ATOM      7  C5  OXE d   1      -1.769  -2.079  -0.170  0.00  0.00    -0.002 A 
ATOM      8  C6  OXE d   1      -1.380  -3.015  -1.122  0.00  0.00     0.003 A 
ENDROOT
TORSDOF 0
ENDMDL
