MODEL 1
REMARK minimizedAffinity 4.55558157
REMARK minimizedRMSD -1
REMARK  0 active torsions:
REMARK  status: ('A' for Active; 'I' for Inactive)
ROOT
ATOM      1  C2' OXE d   1      -1.142  -2.302  -0.643  0.00  0.00     0.078 C 
ATOM      2  C1' OXE d   1      -0.977  -4.903   0.397  0.00  0.00     0.078 C 
ATOM      3  C1  OXE d   1      -1.363  -3.792   1.341  0.00  0.00    -0.078 A 
ATOM      4  C2  OXE d   1      -1.396  -2.515   0.833  0.00  0.00    -0.078 A 
ATOM      5  C3  OXE d   1      -1.798  -1.460   1.647  0.00  0.00     0.003 A 
ATOM      6  C4  OXE d   1      -2.021  -1.664   3.014  0.00  0.00    -0.002 A 
ATOM      7  C5  OXE d   1      -1.955  -2.951   3.560  0.00  0.00    -0.002 A 
ATOM      8  C6  OXE d   1      -1.669  -4.029   2.730  0.00  0.00     0.003 A 
ENDROOT
TORSDOF 0
ENDMDL
