MODEL 1
REMARK minimizedAffinity 3.75322795
REMARK minimizedRMSD -1
REMARK  0 active torsions:
REMARK  status: ('A' for Active; 'I' for Inactive)
ROOT
ATOM      1  C2' OXE d   1      -0.602  -4.375   1.212  0.00  0.00     0.078 C 
ATOM      2  C1' OXE d   1      -2.076  -2.008   1.531  0.00  0.00     0.078 C 
ATOM      3  C1  OXE d   1      -1.814  -2.489   0.126  0.00  0.00    -0.078 A 
ATOM      4  C2  OXE d   1      -1.052  -3.623  -0.022  0.00  0.00    -0.078 A 
ATOM      5  C3  OXE d   1      -0.827  -4.141  -1.294  0.00  0.00     0.003 A 
ATOM      6  C4  OXE d   1      -1.238  -3.434  -2.430  0.00  0.00    -0.002 A 
ATOM      7  C5  OXE d   1      -1.982  -2.256  -2.303  0.00  0.00    -0.002 A 
ATOM      8  C6  OXE d   1      -2.314  -1.794  -1.034  0.00  0.00     0.003 A 
ENDROOT
TORSDOF 0
ENDMDL
