MODEL 1
REMARK minimizedAffinity 8.20318127
REMARK minimizedRMSD -1
REMARK  0 active torsions:
REMARK  status: ('A' for Active; 'I' for Inactive)
ROOT
ATOM      1  C2' OXE d   1       2.258   1.843  -1.134  0.00  0.00     0.078 C 
ATOM      2  C1' OXE d   1       4.675   3.077  -0.415  0.00  0.00     0.078 C 
ATOM      3  C1  OXE d   1       4.747   1.808  -1.227  0.00  0.00    -0.078 A 
ATOM      4  C2  OXE d   1       3.561   1.186  -1.534  0.00  0.00    -0.078 A 
ATOM      5  C3  OXE d   1       3.568   0.042  -2.327  0.00  0.00     0.003 A 
ATOM      6  C4  OXE d   1       4.778  -0.565  -2.685  0.00  0.00    -0.002 A 
ATOM      7  C5  OXE d   1       5.998   0.031  -2.349  0.00  0.00    -0.002 A 
ATOM      8  C6  OXE d   1       6.000   1.238  -1.658  0.00  0.00     0.003 A 
ENDROOT
TORSDOF 0
ENDMDL
