MODEL 1
REMARK minimizedAffinity 6.45294762
REMARK minimizedRMSD -1
REMARK  0 active torsions:
REMARK  status: ('A' for Active; 'I' for Inactive)
ROOT
ATOM      1  C2' OXE d   1       3.251   0.100  -2.290  0.00  0.00     0.078 C 
ATOM      2  C1' OXE d   1       1.243  -0.528  -0.431  0.00  0.00     0.078 C 
ATOM      3  C1  OXE d   1       2.185   0.600  -0.094  0.00  0.00    -0.078 A 
ATOM      4  C2  OXE d   1       3.193   0.870  -0.988  0.00  0.00    -0.078 A 
ATOM      5  C3  OXE d   1       4.057   1.936  -0.751  0.00  0.00     0.003 A 
ATOM      6  C4  OXE d   1       4.004   2.636   0.460  0.00  0.00    -0.002 A 
ATOM      7  C5  OXE d   1       3.009   2.351   1.402  0.00  0.00    -0.002 A 
ATOM      8  C6  OXE d   1       2.068   1.367   1.122  0.00  0.00     0.003 A 
ENDROOT
TORSDOF 0
ENDMDL
