MODEL 1
REMARK minimizedAffinity 13.635047
REMARK minimizedRMSD -1
REMARK  0 active torsions:
REMARK  status: ('A' for Active; 'I' for Inactive)
ROOT
ATOM      1  C2' OXE d   1      -2.544  -0.080   1.229  0.00  0.00     0.078 C 
ATOM      2  C1' OXE d   1      -2.049  -1.681   3.481  0.00  0.00     0.078 C 
ATOM      3  C1  OXE d   1      -1.572  -2.184   2.142  0.00  0.00    -0.078 A 
ATOM      4  C2  OXE d   1      -1.860  -1.417   1.039  0.00  0.00    -0.078 A 
ATOM      5  C3  OXE d   1      -1.396  -1.808  -0.214  0.00  0.00     0.003 A 
ATOM      6  C4  OXE d   1      -0.773  -3.051  -0.382  0.00  0.00    -0.002 A 
ATOM      7  C5  OXE d   1      -0.506  -3.867   0.722  0.00  0.00    -0.002 A 
ATOM      8  C6  OXE d   1      -0.860  -3.430   1.994  0.00  0.00     0.003 A 
ENDROOT
TORSDOF 0
ENDMDL
