MODEL 1
REMARK minimizedAffinity 10.6291409
REMARK minimizedRMSD -1
REMARK  0 active torsions:
REMARK  status: ('A' for Active; 'I' for Inactive)
ROOT
ATOM      1  C2' OXE d   1      -0.575  -5.135   1.512  0.00  0.00     0.078 C 
ATOM      2  C1' OXE d   1      -1.991  -3.281   3.073  0.00  0.00     0.078 C 
ATOM      3  C1  OXE d   1      -1.765  -2.949   1.619  0.00  0.00    -0.078 A 
ATOM      4  C2  OXE d   1      -1.031  -3.841   0.874  0.00  0.00    -0.078 A 
ATOM      5  C3  OXE d   1      -0.841  -3.610  -0.485  0.00  0.00     0.003 A 
ATOM      6  C4  OXE d   1      -1.258  -2.405  -1.065  0.00  0.00    -0.002 A 
ATOM      7  C5  OXE d   1      -1.973  -1.466  -0.314  0.00  0.00    -0.002 A 
ATOM      8  C6  OXE d   1      -2.271  -1.741   1.016  0.00  0.00     0.003 A 
ENDROOT
TORSDOF 0
ENDMDL
