MODEL 1
REMARK minimizedAffinity 26.8881969
REMARK minimizedRMSD -1
REMARK  0 active torsions:
REMARK  status: ('A' for Active; 'I' for Inactive)
ROOT
ATOM      1  C2' OXE d   1       0.571  -0.528  -4.007  0.00  0.00     0.078 C 
ATOM      2  C1' OXE d   1       0.432   2.274  -4.075  0.00  0.00     0.078 C 
ATOM      3  C1  OXE d   1       1.271   1.638  -2.995  0.00  0.00    -0.078 A 
ATOM      4  C2  OXE d   1       1.296   0.265  -2.941  0.00  0.00    -0.078 A 
ATOM      5  C3  OXE d   1       2.097  -0.374  -1.999  0.00  0.00     0.003 A 
ATOM      6  C4  OXE d   1       2.756   0.367  -1.010  0.00  0.00    -0.002 A 
ATOM      7  C5  OXE d   1       2.712   1.765  -1.023  0.00  0.00    -0.002 A 
ATOM      8  C6  OXE d   1       2.010   2.416  -2.032  0.00  0.00     0.003 A 
ENDROOT
TORSDOF 0
ENDMDL
