MODEL 1
REMARK minimizedAffinity 11.0791264
REMARK minimizedRMSD -1
REMARK  0 active torsions:
REMARK  status: ('A' for Active; 'I' for Inactive)
ROOT
ATOM      1  C2' OXE d   1      -2.114  -1.855   0.474  0.00  0.00     0.078 C 
ATOM      2  C1' OXE d   1      -2.676  -2.821   3.050  0.00  0.00     0.078 C 
ATOM      3  C1  OXE d   1      -1.818  -3.675   2.150  0.00  0.00    -0.078 A 
ATOM      4  C2  OXE d   1      -1.587  -3.216   0.875  0.00  0.00    -0.078 A 
ATOM      5  C3  OXE d   1      -0.757  -3.939   0.022  0.00  0.00     0.003 A 
ATOM      6  C4  OXE d   1      -0.282  -5.201   0.397  0.00  0.00    -0.002 A 
ATOM      7  C5  OXE d   1      -0.539  -5.705   1.677  0.00  0.00    -0.002 A 
ATOM      8  C6  OXE d   1      -1.268  -4.937   2.578  0.00  0.00     0.003 A 
ENDROOT
TORSDOF 0
ENDMDL
