MODEL 1
REMARK minimizedAffinity 13.2580204
REMARK minimizedRMSD -1
REMARK  0 active torsions:
REMARK  status: ('A' for Active; 'I' for Inactive)
ROOT
ATOM      1  C2' OXE d   1       6.000   1.815  -1.344  0.00  0.00     0.078 C 
ATOM      2  C1' OXE d   1       3.542   1.526  -0.019  0.00  0.00     0.078 C 
ATOM      3  C1  OXE d   1       4.174   2.895  -0.039  0.00  0.00    -0.078 A 
ATOM      4  C2  OXE d   1       5.399   3.017  -0.650  0.00  0.00    -0.078 A 
ATOM      5  C3  OXE d   1       6.000   4.269  -0.744  0.00  0.00     0.003 A 
ATOM      6  C4  OXE d   1       5.442   5.375  -0.090  0.00  0.00    -0.002 A 
ATOM      7  C5  OXE d   1       4.215   5.263   0.572  0.00  0.00    -0.002 A 
ATOM      8  C6  OXE d   1       3.548   4.043   0.570  0.00  0.00     0.003 A 
ENDROOT
TORSDOF 0
ENDMDL
