MODEL 1
REMARK minimizedAffinity 12.0275946
REMARK minimizedRMSD -1
REMARK  0 active torsions:
REMARK  status: ('A' for Active; 'I' for Inactive)
ROOT
ATOM      1  C2' OXE d   1      -0.654  -2.071  -3.900  0.00  0.00     0.078 C 
ATOM      2  C1' OXE d   1      -1.596  -1.061  -1.456  0.00  0.00     0.078 C 
ATOM      3  C1  OXE d   1      -0.252  -0.581  -1.945  0.00  0.00    -0.078 A 
ATOM      4  C2  OXE d   1       0.222  -1.116  -3.118  0.00  0.00    -0.078 A 
ATOM      5  C3  OXE d   1       1.431  -0.666  -3.642  0.00  0.00     0.003 A 
ATOM      6  C4  OXE d   1       2.239   0.210  -2.908  0.00  0.00    -0.002 A 
ATOM      7  C5  OXE d   1       1.793   0.736  -1.691  0.00  0.00    -0.002 A 
ATOM      8  C6  OXE d   1       0.534   0.384  -1.217  0.00  0.00     0.003 A 
ENDROOT
TORSDOF 0
ENDMDL
