MODEL 1
REMARK minimizedAffinity 15.5369148
REMARK minimizedRMSD -1
REMARK  0 active torsions:
REMARK  status: ('A' for Active; 'I' for Inactive)
ROOT
ATOM      1  C2' OXE d   1      -0.767  -2.092  -1.534  0.00  0.00     0.078 C 
ATOM      2  C1' OXE d   1      -0.306  -4.490  -0.150  0.00  0.00     0.078 C 
ATOM      3  C1  OXE d   1      -0.942  -3.352   0.608  0.00  0.00    -0.078 A 
ATOM      4  C2  OXE d   1      -1.121  -2.167  -0.065  0.00  0.00    -0.078 A 
ATOM      5  C3  OXE d   1      -1.753  -1.102   0.571  0.00  0.00     0.003 A 
ATOM      6  C4  OXE d   1      -2.068  -1.176   1.933  0.00  0.00    -0.002 A 
ATOM      7  C5  OXE d   1      -1.858  -2.360   2.648  0.00  0.00    -0.002 A 
ATOM      8  C6  OXE d   1      -1.336  -3.469   1.990  0.00  0.00     0.003 A 
ENDROOT
TORSDOF 0
ENDMDL
