MODEL 1
REMARK minimizedAffinity 8.02326488
REMARK minimizedRMSD -1
REMARK  0 active torsions:
REMARK  status: ('A' for Active; 'I' for Inactive)
ROOT
ATOM      1  C2' OXE d   1      -2.143  -2.713   0.321  0.00  0.00     0.078 C 
ATOM      2  C1' OXE d   1      -3.023  -2.841   2.984  0.00  0.00     0.078 C 
ATOM      3  C1  OXE d   1      -2.096  -3.926   2.497  0.00  0.00    -0.078 A 
ATOM      4  C2  OXE d   1      -1.708  -3.882   1.179  0.00  0.00    -0.078 A 
ATOM      5  C3  OXE d   1      -0.810  -4.828   0.693  0.00  0.00     0.003 A 
ATOM      6  C4  OXE d   1      -0.420  -5.911   1.490  0.00  0.00    -0.002 A 
ATOM      7  C5  OXE d   1      -0.836  -5.997   2.823  0.00  0.00    -0.002 A 
ATOM      8  C6  OXE d   1      -1.638  -4.992   3.353  0.00  0.00     0.003 A 
ENDROOT
TORSDOF 0
ENDMDL
