MODEL 1
REMARK minimizedAffinity 10.1249619
REMARK minimizedRMSD -1
REMARK  0 active torsions:
REMARK  status: ('A' for Active; 'I' for Inactive)
ROOT
ATOM      1  C2' OXE d   1       3.001   2.525   2.230  0.00  0.00     0.078 C 
ATOM      2  C1' OXE d   1       4.668   3.425   0.159  0.00  0.00     0.078 C 
ATOM      3  C1  OXE d   1       3.760   2.256  -0.127  0.00  0.00    -0.078 A 
ATOM      4  C2  OXE d   1       2.982   1.792   0.906  0.00  0.00    -0.078 A 
ATOM      5  C3  OXE d   1       2.086   0.751   0.681  0.00  0.00     0.003 A 
ATOM      6  C4  OXE d   1       2.082   0.072  -0.544  0.00  0.00    -0.002 A 
ATOM      7  C5  OXE d   1       2.895   0.503  -1.597  0.00  0.00    -0.002 A 
ATOM      8  C6  OXE d   1       3.708   1.617  -1.419  0.00  0.00     0.003 A 
ENDROOT
TORSDOF 0
ENDMDL
