MODEL 1
REMARK minimizedAffinity 10.1144209
REMARK minimizedRMSD -1
REMARK  0 active torsions:
REMARK  status: ('A' for Active; 'I' for Inactive)
ROOT
ATOM      1  C2' OXE d   1      -1.057  -4.689  -0.349  0.00  0.00     0.078 C 
ATOM      2  C1' OXE d   1      -3.481  -3.650   0.610  0.00  0.00     0.078 C 
ATOM      3  C1  OXE d   1      -2.362  -2.679   0.330  0.00  0.00    -0.078 A 
ATOM      4  C2  OXE d   1      -1.164  -3.201  -0.095  0.00  0.00    -0.078 A 
ATOM      5  C3  OXE d   1      -0.115  -2.345  -0.420  0.00  0.00     0.003 A 
ATOM      6  C4  OXE d   1      -0.219  -0.971  -0.172  0.00  0.00    -0.002 A 
ATOM      7  C5  OXE d   1      -1.417  -0.423   0.299  0.00  0.00    -0.002 A 
ATOM      8  C6  OXE d   1      -2.510  -1.257   0.514  0.00  0.00     0.003 A 
ENDROOT
TORSDOF 0
ENDMDL
