MODEL 1
REMARK minimizedAffinity 8.45897579
REMARK minimizedRMSD -1
REMARK  0 active torsions:
REMARK  status: ('A' for Active; 'I' for Inactive)
ROOT
ATOM      1  C2' OXE d   1       2.449   2.616   1.912  0.00  0.00     0.078 C 
ATOM      2  C1' OXE d   1       4.070   3.571  -0.171  0.00  0.00     0.078 C 
ATOM      3  C1  OXE d   1       3.241   2.338  -0.433  0.00  0.00    -0.078 A 
ATOM      4  C2  OXE d   1       2.487   1.851   0.607  0.00  0.00    -0.078 A 
ATOM      5  C3  OXE d   1       1.662   0.748   0.403  0.00  0.00     0.003 A 
ATOM      6  C4  OXE d   1       1.711   0.041  -0.805  0.00  0.00    -0.002 A 
ATOM      7  C5  OXE d   1       2.502   0.497  -1.864  0.00  0.00    -0.002 A 
ATOM      8  C6  OXE d   1       3.239   1.666  -1.709  0.00  0.00     0.003 A 
ENDROOT
TORSDOF 0
ENDMDL
