MODEL 1
REMARK minimizedAffinity -1.69206166
REMARK minimizedRMSD -1
REMARK  1 active torsions:
REMARK  status: ('A' for Active; 'I' for Inactive)
REMARK    1  A    between atoms: N_2  and  C1_3 
ROOT
ATOM      1  C1  UNL d   1      -1.829   0.807   1.777  0.00  0.00     0.143 A 
ATOM      2  C2  UNL d   1      -2.315  -0.072   2.750  0.00  0.00    -0.057 A 
ATOM      3  C3  UNL d   1      -2.642   0.376   4.036  0.00  0.00     0.033 A 
ATOM      4  C4  UNL d   1      -2.460   1.712   4.380  0.00  0.00    -0.042 A 
ATOM      5  C5  UNL d   1      -1.954   2.599   3.437  0.00  0.00     0.033 A 
ATOM      6  C6  UNL d   1      -1.636   2.146   2.152  0.00  0.00    -0.057 A 
ENDROOT
BRANCH   1   7
ATOM      7  N   UNL d   1      -1.394   0.404   0.512  0.00  0.00    -0.732 N 
ATOM      8  C   UNL d   1      -0.105  -0.231   0.344  0.00  0.00     0.284 C 
ATOM      9  H3  UNL d   1      -2.139  -0.015  -0.040  0.00  0.00     0.395 HD
ENDBRANCH   1   7
TORSDOF 1
ENDMDL
