MODEL 1
REMARK minimizedAffinity -1.89758527
REMARK minimizedRMSD -1
REMARK  1 active torsions:
REMARK  status: ('A' for Active; 'I' for Inactive)
REMARK    1  A    between atoms: N_2  and  C1_3 
ROOT
ATOM      1  C1  UNL d   1       0.554  -1.263  -0.753  0.00  0.00     0.143 A 
ATOM      2  C2  UNL d   1       0.517   0.043  -0.254  0.00  0.00    -0.057 A 
ATOM      3  C3  UNL d   1      -0.416   0.423   0.718  0.00  0.00     0.033 A 
ATOM      4  C4  UNL d   1      -1.351  -0.493   1.189  0.00  0.00    -0.042 A 
ATOM      5  C5  UNL d   1      -1.349  -1.790   0.689  0.00  0.00     0.033 A 
ATOM      6  C6  UNL d   1      -0.410  -2.165  -0.277  0.00  0.00    -0.057 A 
ENDROOT
BRANCH   1   7
ATOM      7  N   UNL d   1       1.394  -1.676  -1.790  0.00  0.00    -0.732 N 
ATOM      8  C   UNL d   1       0.977  -2.717  -2.705  0.00  0.00     0.284 C 
ATOM      9  H3  UNL d   1       1.871  -0.897  -2.237  0.00  0.00     0.395 HD
ENDBRANCH   1   7
TORSDOF 1
ENDMDL
