MODEL 1
REMARK minimizedAffinity -2.96600223
REMARK minimizedRMSD -1
REMARK  1 active torsions:
REMARK  status: ('A' for Active; 'I' for Inactive)
REMARK    1  A    between atoms: N_2  and  C1_3 
ROOT
ATOM      1  C1  UNL d   1       0.479   0.653  -0.456  0.00  0.00     0.143 A 
ATOM      2  C2  UNL d   1       1.089  -0.594  -0.279  0.00  0.00    -0.057 A 
ATOM      3  C3  UNL d   1       2.182  -0.985  -1.061  0.00  0.00     0.033 A 
ATOM      4  C4  UNL d   1       2.667  -0.146  -2.059  0.00  0.00    -0.042 A 
ATOM      5  C5  UNL d   1       2.060   1.087  -2.270  0.00  0.00     0.033 A 
ATOM      6  C6  UNL d   1       0.974   1.475  -1.480  0.00  0.00    -0.057 A 
ENDROOT
BRANCH   1   7
ATOM      7  N   UNL d   1      -0.672   1.059   0.223  0.00  0.00    -0.732 N 
ATOM      8  C   UNL d   1      -1.280   0.205   1.221  0.00  0.00     0.284 C 
ATOM      9  H3  UNL d   1      -0.644   2.043   0.480  0.00  0.00     0.395 HD
ENDBRANCH   1   7
TORSDOF 1
ENDMDL
