MODEL 1
REMARK minimizedAffinity -1.15397787
REMARK minimizedRMSD -1
REMARK  1 active torsions:
REMARK  status: ('A' for Active; 'I' for Inactive)
REMARK    1  A    between atoms: N_2  and  C1_3 
ROOT
ATOM      1  C1  UNL d   1       0.532   0.392  -0.462  0.00  0.00     0.143 A 
ATOM      2  C2  UNL d   1       0.545   1.467  -1.358  0.00  0.00    -0.057 A 
ATOM      3  C3  UNL d   1       1.361   1.455  -2.496  0.00  0.00     0.033 A 
ATOM      4  C4  UNL d   1       2.203   0.375  -2.743  0.00  0.00    -0.042 A 
ATOM      5  C5  UNL d   1       2.225  -0.693  -1.854  0.00  0.00     0.033 A 
ATOM      6  C6  UNL d   1       1.403  -0.677  -0.723  0.00  0.00    -0.057 A 
ENDROOT
BRANCH   1   7
ATOM      7  N   UNL d   1      -0.183   0.389   0.738  0.00  0.00    -0.732 N 
ATOM      8  C   UNL d   1      -1.620   0.555   0.740  0.00  0.00     0.284 C 
ATOM      9  H3  UNL d   1       0.155  -0.317   1.389  0.00  0.00     0.395 HD
ENDBRANCH   1   7
TORSDOF 1
ENDMDL
