MODEL 1
REMARK minimizedAffinity -3.51160026
REMARK minimizedRMSD -1
REMARK  1 active torsions:
REMARK  status: ('A' for Active; 'I' for Inactive)
REMARK    1  A    between atoms: N_2  and  C1_3 
ROOT
ATOM      1  C1  UNL d   1       0.669  -0.298  -0.149  0.00  0.00     0.143 A 
ATOM      2  C2  UNL d   1       1.572   0.727  -0.453  0.00  0.00    -0.057 A 
ATOM      3  C3  UNL d   1       2.523   0.579  -1.469  0.00  0.00     0.033 A 
ATOM      4  C4  UNL d   1       2.608  -0.612  -2.183  0.00  0.00    -0.042 A 
ATOM      5  C5  UNL d   1       1.738  -1.653  -1.881  0.00  0.00     0.033 A 
ATOM      6  C6  UNL d   1       0.785  -1.497  -0.869  0.00  0.00    -0.057 A 
ENDROOT
BRANCH   1   7
ATOM      7  N   UNL d   1      -0.234  -0.248   0.915  0.00  0.00    -0.732 N 
ATOM      8  C   UNL d   1      -1.371   0.646   0.876  0.00  0.00     0.284 C 
ATOM      9  H3  UNL d   1      -0.444  -1.171   1.290  0.00  0.00     0.395 HD
ENDBRANCH   1   7
TORSDOF 1
ENDMDL
