MODEL 1
REMARK minimizedAffinity -2.41218019
REMARK minimizedRMSD -1
REMARK  1 active torsions:
REMARK  status: ('A' for Active; 'I' for Inactive)
REMARK    1  A    between atoms: N_2  and  C1_3 
ROOT
ATOM      1  C1  UNL d   1       0.055  -0.186   0.644  0.00  0.00     0.143 A 
ATOM      2  C2  UNL d   1      -0.615   0.443  -0.411  0.00  0.00    -0.057 A 
ATOM      3  C3  UNL d   1      -1.855   1.063  -0.218  0.00  0.00     0.033 A 
ATOM      4  C4  UNL d   1      -2.463   1.039   1.033  0.00  0.00    -0.042 A 
ATOM      5  C5  UNL d   1      -1.828   0.399   2.090  0.00  0.00     0.033 A 
ATOM      6  C6  UNL d   1      -0.587  -0.213   1.893  0.00  0.00    -0.057 A 
ENDROOT
BRANCH   1   7
ATOM      7  N   UNL d   1       1.243  -0.905   0.493  0.00  0.00    -0.732 N 
ATOM      8  C   UNL d   1       1.456  -1.741  -0.669  0.00  0.00     0.284 C 
ATOM      9  H3  UNL d   1       2.060  -0.368   0.775  0.00  0.00     0.395 HD
ENDBRANCH   1   7
TORSDOF 1
ENDMDL
