MODEL 1
REMARK minimizedAffinity -3.68012428
REMARK minimizedRMSD -1
REMARK  1 active torsions:
REMARK  status: ('A' for Active; 'I' for Inactive)
REMARK    1  A    between atoms: N_2  and  C1_3 
ROOT
ATOM      1  C1  UNL d   1      -0.096  -0.125   0.196  0.00  0.00     0.143 A 
ATOM      2  C2  UNL d   1       0.859  -0.212   1.215  0.00  0.00    -0.057 A 
ATOM      3  C3  UNL d   1       2.118  -0.778   0.985  0.00  0.00     0.033 A 
ATOM      4  C4  UNL d   1       2.436  -1.296  -0.267  0.00  0.00    -0.042 A 
ATOM      5  C5  UNL d   1       1.494  -1.243  -1.288  0.00  0.00     0.033 A 
ATOM      6  C6  UNL d   1       0.240  -0.671  -1.053  0.00  0.00    -0.057 A 
ENDROOT
BRANCH   1   7
ATOM      7  N   UNL d   1      -1.400   0.337   0.389  0.00  0.00    -0.732 N 
ATOM      8  C   UNL d   1      -1.894   0.615   1.720  0.00  0.00     0.284 C 
ATOM      9  H3  UNL d   1      -1.676   1.024  -0.309  0.00  0.00     0.395 HD
ENDBRANCH   1   7
TORSDOF 1
ENDMDL
