MODEL 1
REMARK minimizedAffinity -1.99944115
REMARK minimizedRMSD -1
REMARK  1 active torsions:
REMARK  status: ('A' for Active; 'I' for Inactive)
REMARK    1  A    between atoms: N_2  and  C1_3 
ROOT
ATOM      1  C1  UNL d   1      -0.808   0.558   1.743  0.00  0.00     0.143 A 
ATOM      2  C2  UNL d   1       0.315  -0.264   1.883  0.00  0.00    -0.057 A 
ATOM      3  C3  UNL d   1       0.891  -0.901   0.777  0.00  0.00     0.033 A 
ATOM      4  C4  UNL d   1       0.334  -0.749  -0.488  0.00  0.00    -0.042 A 
ATOM      5  C5  UNL d   1      -0.797   0.043  -0.647  0.00  0.00     0.033 A 
ATOM      6  C6  UNL d   1      -1.364   0.682   0.460  0.00  0.00    -0.057 A 
ENDROOT
BRANCH   1   7
ATOM      7  N   UNL d   1      -1.486   1.139   2.818  0.00  0.00    -0.732 N 
ATOM      8  C   UNL d   1      -1.852   0.348   3.973  0.00  0.00     0.284 C 
ATOM      9  H3  UNL d   1      -1.133   2.066   3.044  0.00  0.00     0.395 HD
ENDBRANCH   1   7
TORSDOF 1
ENDMDL
