MODEL 1
REMARK minimizedAffinity -3.14916086
REMARK minimizedRMSD -1
REMARK  1 active torsions:
REMARK  status: ('A' for Active; 'I' for Inactive)
REMARK    1  A    between atoms: N_2  and  C1_3 
ROOT
ATOM      1  C1  UNL d   1       0.609  -0.260   0.265  0.00  0.00     0.143 A 
ATOM      2  C2  UNL d   1       0.748  -1.346  -0.606  0.00  0.00    -0.057 A 
ATOM      3  C3  UNL d   1       1.996  -1.699  -1.132  0.00  0.00     0.033 A 
ATOM      4  C4  UNL d   1       3.127  -0.952  -0.818  0.00  0.00    -0.042 A 
ATOM      5  C5  UNL d   1       3.008   0.147   0.026  0.00  0.00     0.033 A 
ATOM      6  C6  UNL d   1       1.760   0.490   0.553  0.00  0.00    -0.057 A 
ENDROOT
BRANCH   1   7
ATOM      7  N   UNL d   1      -0.620   0.201   0.743  0.00  0.00    -0.732 N 
ATOM      8  C   UNL d   1      -0.767   0.615   2.122  0.00  0.00     0.284 C 
ATOM      9  H3  UNL d   1      -1.095   0.805   0.075  0.00  0.00     0.395 HD
ENDBRANCH   1   7
TORSDOF 1
ENDMDL
