MODEL 1
REMARK minimizedAffinity -3.86011457
REMARK minimizedRMSD -1
REMARK  1 active torsions:
REMARK  status: ('A' for Active; 'I' for Inactive)
REMARK    1  A    between atoms: N_2  and  C1_3 
ROOT
ATOM      1  C1  UNL d   1      -0.368  -0.428   0.221  0.00  0.00     0.143 A 
ATOM      2  C2  UNL d   1      -0.044  -1.780   0.060  0.00  0.00    -0.057 A 
ATOM      3  C3  UNL d   1       1.120  -2.173  -0.612  0.00  0.00     0.033 A 
ATOM      4  C4  UNL d   1       1.969  -1.218  -1.162  0.00  0.00    -0.042 A 
ATOM      5  C5  UNL d   1       1.654   0.131  -1.036  0.00  0.00     0.033 A 
ATOM      6  C6  UNL d   1       0.494   0.517  -0.358  0.00  0.00    -0.057 A 
ENDROOT
BRANCH   1   7
ATOM      7  N   UNL d   1      -1.560   0.023   0.792  0.00  0.00    -0.732 N 
ATOM      8  C   UNL d   1      -1.558   0.672   2.086  0.00  0.00     0.284 C 
ATOM      9  H3  UNL d   1      -2.177   0.458   0.110  0.00  0.00     0.395 HD
ENDBRANCH   1   7
TORSDOF 1
ENDMDL
