MODEL 1
REMARK minimizedAffinity -2.18353581
REMARK minimizedRMSD -1
REMARK  0 active torsions:
REMARK  status: ('A' for Active; 'I' for Inactive)
ROOT
ATOM      1  C   UNL d   1      -1.453   0.925  -0.402  0.00  0.00     0.020 A 
ATOM      2  C1  UNL d   1      -0.822   0.721  -1.629  0.00  0.00     0.020 A 
ATOM      3  C2  UNL d   1       0.357  -0.024  -1.692  0.00  0.00     0.034 A 
ATOM      4  C3  UNL d   1       0.910  -0.567  -0.527  0.00  0.00     0.017 A 
ATOM      5  C4  UNL d   1       0.277  -0.361   0.704  0.00  0.00     0.017 A 
ATOM      6  C5  UNL d   1      -0.904   0.386   0.762  0.00  0.00     0.034 A 
ATOM      7 Cl   UNL d   1       0.899  -0.999   2.185  0.00  0.00    -0.070 Cl
ATOM      8 Cl1  UNL d   1       2.371  -1.477  -0.679  0.00  0.00    -0.070 Cl
ENDROOT
TORSDOF 0
ENDMDL
