MODEL 1
REMARK minimizedAffinity -1.3556726
REMARK minimizedRMSD -1
REMARK  0 active torsions:
REMARK  status: ('A' for Active; 'I' for Inactive)
ROOT
ATOM      1  C   UNL d   1      -0.684   0.397   0.864  0.00  0.00     0.020 A 
ATOM      2  C1  UNL d   1      -1.578  -0.621   0.534  0.00  0.00     0.020 A 
ATOM      3  C2  UNL d   1      -1.540  -1.835   1.223  0.00  0.00     0.034 A 
ATOM      4  C3  UNL d   1      -0.605  -2.034   2.246  0.00  0.00     0.017 A 
ATOM      5  C4  UNL d   1       0.292  -1.012   2.576  0.00  0.00     0.017 A 
ATOM      6  C5  UNL d   1       0.249   0.201   1.883  0.00  0.00     0.034 A 
ATOM      7 Cl   UNL d   1       1.474  -1.185   3.826  0.00  0.00    -0.070 Cl
ATOM      8 Cl1  UNL d   1      -0.615  -3.560   3.056  0.00  0.00    -0.070 Cl
ENDROOT
TORSDOF 0
ENDMDL
