MODEL 1
REMARK minimizedAffinity -4.09042311
REMARK minimizedRMSD -1
REMARK  0 active torsions:
REMARK  status: ('A' for Active; 'I' for Inactive)
ROOT
ATOM      1  C   UNL d   1      -0.064  -0.657   2.489  0.00  0.00     0.020 A 
ATOM      2  C1  UNL d   1      -1.050  -0.149   1.644  0.00  0.00     0.020 A 
ATOM      3  C2  UNL d   1      -0.909  -0.265   0.260  0.00  0.00     0.034 A 
ATOM      4  C3  UNL d   1       0.219  -0.889  -0.284  0.00  0.00     0.017 A 
ATOM      5  C4  UNL d   1       1.208  -1.398   0.566  0.00  0.00     0.017 A 
ATOM      6  C5  UNL d   1       1.062  -1.280   1.951  0.00  0.00     0.034 A 
ATOM      7 Cl   UNL d   1       2.629  -2.182  -0.031  0.00  0.00    -0.070 Cl
ATOM      8 Cl1  UNL d   1       0.327  -0.997  -2.005  0.00  0.00    -0.070 Cl
ENDROOT
TORSDOF 0
ENDMDL
