MODEL 1
REMARK minimizedAffinity 1.90273607
REMARK minimizedRMSD -1
REMARK  0 active torsions:
REMARK  status: ('A' for Active; 'I' for Inactive)
ROOT
ATOM      1  C   UNL d   1       0.795  -0.226   0.208  0.00  0.00     0.020 A 
ATOM      2  C1  UNL d   1      -0.513  -0.709   0.220  0.00  0.00     0.020 A 
ATOM      3  C2  UNL d   1      -1.494  -0.088  -0.556  0.00  0.00     0.034 A 
ATOM      4  C3  UNL d   1      -1.169   1.020  -1.348  0.00  0.00     0.017 A 
ATOM      5  C4  UNL d   1       0.144   1.504  -1.359  0.00  0.00     0.017 A 
ATOM      6  C5  UNL d   1       1.123   0.878  -0.580  0.00  0.00     0.034 A 
ATOM      7 Cl   UNL d   1       0.621   2.866  -2.311  0.00  0.00    -0.070 Cl
ATOM      8 Cl1  UNL d   1      -2.432   1.738  -2.283  0.00  0.00    -0.070 Cl
ENDROOT
TORSDOF 0
ENDMDL
