MODEL 1
REMARK minimizedAffinity -5.21215582
REMARK minimizedRMSD -1
REMARK  0 active torsions:
REMARK  status: ('A' for Active; 'I' for Inactive)
ROOT
ATOM      1  C   UNL d   1       0.355  -0.743   2.681  0.00  0.00     0.020 A 
ATOM      2  C1  UNL d   1      -0.586  -0.288   1.758  0.00  0.00     0.020 A 
ATOM      3  C2  UNL d   1      -0.327  -0.390   0.389  0.00  0.00     0.034 A 
ATOM      4  C3  UNL d   1       0.876  -0.948  -0.060  0.00  0.00     0.017 A 
ATOM      5  C4  UNL d   1       1.819  -1.404   0.868  0.00  0.00     0.017 A 
ATOM      6  C5  UNL d   1       1.555  -1.300   2.237  0.00  0.00     0.034 A 
ATOM      7 Cl   UNL d   1       3.325  -2.104   0.390  0.00  0.00    -0.070 Cl
ATOM      8 Cl1  UNL d   1       1.129  -1.043  -1.766  0.00  0.00    -0.070 Cl
ENDROOT
TORSDOF 0
ENDMDL
