MODEL 1
REMARK minimizedAffinity -3.89877987
REMARK minimizedRMSD -1
REMARK  0 active torsions:
REMARK  status: ('A' for Active; 'I' for Inactive)
ROOT
ATOM      1  C   UNL d   1       0.895  -0.750   2.987  0.00  0.00     0.020 A 
ATOM      2  C1  UNL d   1       2.006  -1.586   2.887  0.00  0.00     0.020 A 
ATOM      3  C2  UNL d   1       2.540  -1.890   1.633  0.00  0.00     0.034 A 
ATOM      4  C3  UNL d   1       1.964  -1.357   0.474  0.00  0.00     0.017 A 
ATOM      5  C4  UNL d   1       0.849  -0.518   0.576  0.00  0.00     0.017 A 
ATOM      6  C5  UNL d   1       0.318  -0.217   1.834  0.00  0.00     0.034 A 
ATOM      7 Cl   UNL d   1       0.083   0.178  -0.809  0.00  0.00    -0.070 Cl
ATOM      8 Cl1  UNL d   1       2.676  -1.775  -1.043  0.00  0.00    -0.070 Cl
ENDROOT
TORSDOF 0
ENDMDL
