MODEL 1
REMARK minimizedAffinity -2.99798131
REMARK minimizedRMSD -1
REMARK  0 active torsions:
REMARK  status: ('A' for Active; 'I' for Inactive)
ROOT
ATOM      1  C   UNL d   1      -1.306  -0.119   1.314  0.00  0.00     0.020 A 
ATOM      2  C1  UNL d   1      -1.008  -0.735   2.529  0.00  0.00     0.020 A 
ATOM      3  C2  UNL d   1       0.088  -1.596   2.626  0.00  0.00     0.034 A 
ATOM      4  C3  UNL d   1       0.890  -1.843   1.506  0.00  0.00     0.017 A 
ATOM      5  C4  UNL d   1       0.590  -1.224   0.286  0.00  0.00     0.017 A 
ATOM      6  C5  UNL d   1      -0.508  -0.364   0.195  0.00  0.00     0.034 A 
ATOM      7 Cl   UNL d   1       1.532  -1.481  -1.140  0.00  0.00    -0.070 Cl
ATOM      8 Cl1  UNL d   1       2.229  -2.918   1.697  0.00  0.00    -0.070 Cl
ENDROOT
TORSDOF 0
ENDMDL
