MODEL 1
REMARK minimizedAffinity 0.605288208
REMARK minimizedRMSD -1
REMARK  0 active torsions:
REMARK  status: ('A' for Active; 'I' for Inactive)
ROOT
ATOM      1  C   UNL d   1      -0.391  -1.515   2.828  0.00  0.00     0.020 A 
ATOM      2  C1  UNL d   1      -1.136  -0.337   2.833  0.00  0.00     0.020 A 
ATOM      3  C2  UNL d   1      -1.243   0.427   1.669  0.00  0.00     0.034 A 
ATOM      4  C3  UNL d   1      -0.602   0.014   0.495  0.00  0.00     0.017 A 
ATOM      5  C4  UNL d   1       0.146  -1.169   0.491  0.00  0.00     0.017 A 
ATOM      6  C5  UNL d   1       0.249  -1.930   1.659  0.00  0.00     0.034 A 
ATOM      7 Cl   UNL d   1       0.964  -1.743  -0.919  0.00  0.00    -0.070 Cl
ATOM      8 Cl1  UNL d   1      -0.777   1.008  -0.908  0.00  0.00    -0.070 Cl
ENDROOT
TORSDOF 0
ENDMDL
