MODEL 1
REMARK minimizedAffinity -3.46368766
REMARK minimizedRMSD -1
REMARK  0 active torsions:
REMARK  status: ('A' for Active; 'I' for Inactive)
ROOT
ATOM      1  C   UNL d   1      -1.502   1.291   1.881  0.00  0.00    -0.002 A 
ATOM      2  C1  UNL d   1      -0.228   1.111   2.401  0.00  0.00     0.010 A 
ATOM      3  C2  UNL d   1       0.816   0.671   1.585  0.00  0.00     0.041 A 
ATOM      4  C3  UNL d   1       0.556   0.414   0.224  0.00  0.00    -0.075 A 
ATOM      5  S   UNL d   1       1.680  -0.131  -0.964  0.00  0.00     0.015 SA
ATOM      6  C4  UNL d   1       0.495  -0.137  -2.189  0.00  0.00     0.022 A 
ATOM      7  C5  UNL d   1      -0.733   0.264  -1.721  0.00  0.00     0.026 A 
ATOM      8  C6  UNL d   1      -0.718   0.589  -0.322  0.00  0.00    -0.082 A 
ATOM      9  C7  UNL d   1      -1.756   1.035   0.531  0.00  0.00     0.045 A 
ENDROOT
TORSDOF 0
ENDMDL
