MODEL 1
REMARK minimizedAffinity -5.48958445
REMARK minimizedRMSD -1
REMARK  0 active torsions:
REMARK  status: ('A' for Active; 'I' for Inactive)
ROOT
ATOM      1  C   UNL d   1      -0.380   1.111   3.374  0.00  0.00    -0.002 A 
ATOM      2  C1  UNL d   1       0.992   1.044   3.178  0.00  0.00     0.010 A 
ATOM      3  C2  UNL d   1       1.517   0.441   2.033  0.00  0.00     0.041 A 
ATOM      4  C3  UNL d   1       0.632  -0.098   1.079  0.00  0.00    -0.075 A 
ATOM      5  S   UNL d   1       1.047  -0.882  -0.399  0.00  0.00     0.015 SA
ATOM      6  C4  UNL d   1      -0.587  -1.147  -0.804  0.00  0.00     0.022 A 
ATOM      7  C5  UNL d   1      -1.442  -0.656   0.154  0.00  0.00     0.026 A 
ATOM      8  C6  UNL d   1      -0.754  -0.042   1.255  0.00  0.00    -0.082 A 
ATOM      9  C7  UNL d   1      -1.255   0.575   2.426  0.00  0.00     0.045 A 
ENDROOT
TORSDOF 0
ENDMDL
