MODEL 1
REMARK minimizedAffinity -1.26941633
REMARK minimizedRMSD -1
REMARK  0 active torsions:
REMARK  status: ('A' for Active; 'I' for Inactive)
ROOT
ATOM      1  O1  BZF d   1       1.055   0.744  -0.050  0.00  0.00    -0.204 OA
ATOM      2  C2  BZF d   1       0.005   0.065   0.536  0.00  0.00     0.174 A 
ATOM      3  C3  BZF d   1      -0.806  -0.465  -0.402  0.00  0.00    -0.012 A 
ATOM      4  C3A BZF d   1      -0.176  -0.172  -1.653  0.00  0.00    -0.107 A 
ATOM      5  C4  BZF d   1      -0.491  -0.452  -2.952  0.00  0.00     0.055 A 
ATOM      6  C5  BZF d   1       0.296   0.040  -3.944  0.00  0.00    -0.016 A 
ATOM      7  C6  BZF d   1       1.403   0.818  -3.674  0.00  0.00     0.022 A 
ATOM      8  C7  BZF d   1       1.759   1.119  -2.401  0.00  0.00     0.029 A 
ATOM      9  C7A BZF d   1       0.984   0.595  -1.395  0.00  0.00     0.058 A 
ENDROOT
TORSDOF 0
ENDMDL
