MODEL 1
REMARK minimizedAffinity -5.22754478
REMARK minimizedRMSD -1
REMARK  0 active torsions:
REMARK  status: ('A' for Active; 'I' for Inactive)
ROOT
ATOM      1  O1  BZF d   1       0.964  -0.242  -0.335  0.00  0.00    -0.204 OA
ATOM      2  C2  BZF d   1       0.037  -0.770  -1.212  0.00  0.00     0.174 A 
ATOM      3  C3  BZF d   1      -1.217  -0.584  -0.751  0.00  0.00    -0.012 A 
ATOM      4  C3A BZF d   1      -1.068   0.185   0.446  0.00  0.00    -0.107 A 
ATOM      5  C4  BZF d   1      -1.955   0.700   1.348  0.00  0.00     0.055 A 
ATOM      6  C5  BZF d   1      -1.481   1.341   2.448  0.00  0.00    -0.016 A 
ATOM      7  C6  BZF d   1      -0.128   1.481   2.680  0.00  0.00     0.022 A 
ATOM      8  C7  BZF d   1       0.790   0.993   1.811  0.00  0.00     0.029 A 
ATOM      9  C7A BZF d   1       0.313   0.373   0.682  0.00  0.00     0.058 A 
ENDROOT
TORSDOF 0
ENDMDL
