MODEL 1
REMARK minimizedAffinity -4.02894306
REMARK minimizedRMSD -1
REMARK  0 active torsions:
REMARK  status: ('A' for Active; 'I' for Inactive)
ROOT
ATOM      1  O1  BZF d   1       1.420  -0.421   0.367  0.00  0.00    -0.204 OA
ATOM      2  C2  BZF d   1       0.816  -0.793  -0.818  0.00  0.00     0.174 A 
ATOM      3  C3  BZF d   1      -0.497  -0.489  -0.801  0.00  0.00    -0.012 A 
ATOM      4  C3A BZF d   1      -0.710   0.195   0.438  0.00  0.00    -0.107 A 
ATOM      5  C4  BZF d   1      -1.808   0.758   1.023  0.00  0.00     0.055 A 
ATOM      6  C5  BZF d   1      -1.695   1.282   2.272  0.00  0.00    -0.016 A 
ATOM      7  C6  BZF d   1      -0.503   1.254   2.965  0.00  0.00     0.022 A 
ATOM      8  C7  BZF d   1       0.615   0.710   2.424  0.00  0.00     0.029 A 
ATOM      9  C7A BZF d   1       0.512   0.210   1.149  0.00  0.00     0.058 A 
ENDROOT
TORSDOF 0
ENDMDL
