MODEL 1
REMARK minimizedAffinity -5.72474813
REMARK minimizedRMSD -1
REMARK  0 active torsions:
REMARK  status: ('A' for Active; 'I' for Inactive)
ROOT
ATOM      1  O1  BZF d   1       1.679  -0.534   0.335  0.00  0.00    -0.204 OA
ATOM      2  C2  BZF d   1       1.173  -1.048  -0.843  0.00  0.00     0.174 A 
ATOM      3  C3  BZF d   1      -0.131  -0.735  -0.981  0.00  0.00    -0.012 A 
ATOM      4  C3A BZF d   1      -0.438   0.101   0.139  0.00  0.00    -0.107 A 
ATOM      5  C4  BZF d   1      -1.571   0.743   0.550  0.00  0.00     0.055 A 
ATOM      6  C5  BZF d   1      -1.558   1.419   1.728  0.00  0.00    -0.016 A 
ATOM      7  C6  BZF d   1      -0.431   1.471   2.522  0.00  0.00     0.022 A 
ATOM      8  C7  BZF d   1       0.719   0.855   2.155  0.00  0.00     0.029 A 
ATOM      9  C7A BZF d   1       0.718   0.198   0.948  0.00  0.00     0.058 A 
ENDROOT
TORSDOF 0
ENDMDL
