MODEL 1
REMARK minimizedAffinity 2.91815948
REMARK minimizedRMSD -1
REMARK  0 active torsions:
REMARK  status: ('A' for Active; 'I' for Inactive)
ROOT
ATOM      1  C1  DEN d   1      -2.415   2.538   2.896  0.00  0.00     0.130 A 
ATOM      2  C2  DEN d   1      -3.284   1.558   3.540  0.00  0.00    -0.031 A 
ATOM      3  C3  DEN d   1      -2.663   0.227   3.388  0.00  0.00     0.027 A 
ATOM      4  C4  DEN d   1      -0.449  -0.407   2.227  0.00  0.00     0.027 A 
ATOM      5  C5  DEN d   1       0.631   0.082   1.525  0.00  0.00    -0.003 A 
ATOM      6  C6  DEN d   1       0.753   1.408   1.204  0.00  0.00     0.001 A 
ATOM      7  C7  DEN d   1      -0.199   2.298   1.624  0.00  0.00     0.017 A 
ATOM      8  C8  DEN d   1      -1.294   1.812   2.326  0.00  0.00    -0.094 A 
ATOM      9  C9  DEN d   1      -1.393   0.470   2.652  0.00  0.00    -0.072 A 
ENDROOT
TORSDOF 0
ENDMDL
