MODEL 1
REMARK minimizedAffinity 9.22091866
REMARK minimizedRMSD -1
REMARK  0 active torsions:
REMARK  status: ('A' for Active; 'I' for Inactive)
ROOT
ATOM      1  C1  DEN d   1      -0.228  -0.896   3.578  0.00  0.00     0.130 A 
ATOM      2  C2  DEN d   1      -0.625  -2.119   2.886  0.00  0.00    -0.031 A 
ATOM      3  C3  DEN d   1      -0.606  -1.849   1.435  0.00  0.00     0.027 A 
ATOM      4  C4  DEN d   1       0.003   0.331   0.198  0.00  0.00     0.027 A 
ATOM      5  C5  DEN d   1       0.392   1.642   0.360  0.00  0.00    -0.003 A 
ATOM      6  C6  DEN d   1       0.568   2.205   1.596  0.00  0.00     0.001 A 
ATOM      7  C7  DEN d   1       0.398   1.440   2.720  0.00  0.00     0.017 A 
ATOM      8  C8  DEN d   1      -0.002   0.119   2.565  0.00  0.00    -0.094 A 
ATOM      9  C9  DEN d   1      -0.163  -0.434   1.306  0.00  0.00    -0.072 A 
ENDROOT
TORSDOF 0
ENDMDL
