MODEL 1
REMARK minimizedAffinity 2.97673154
REMARK minimizedRMSD -1
REMARK  0 active torsions:
REMARK  status: ('A' for Active; 'I' for Inactive)
ROOT
ATOM      1  C1  DEN d   1      -3.445   3.091   5.003  0.00  0.00     0.130 A 
ATOM      2  C2  DEN d   1      -4.680   2.387   5.337  0.00  0.00    -0.031 A 
ATOM      3  C3  DEN d   1      -4.778   1.199   4.466  0.00  0.00     0.027 A 
ATOM      4  C4  DEN d   1      -3.144   0.384   2.644  0.00  0.00     0.027 A 
ATOM      5  C5  DEN d   1      -1.963   0.658   1.991  0.00  0.00    -0.003 A 
ATOM      6  C6  DEN d   1      -1.216   1.772   2.270  0.00  0.00     0.001 A 
ATOM      7  C7  DEN d   1      -1.620   2.630   3.259  0.00  0.00     0.017 A 
ATOM      8  C8  DEN d   1      -2.814   2.363   3.917  0.00  0.00    -0.094 A 
ATOM      9  C9  DEN d   1      -3.548   1.226   3.629  0.00  0.00    -0.072 A 
ENDROOT
TORSDOF 0
ENDMDL
