MODEL 1
REMARK minimizedAffinity 8.58739281
REMARK minimizedRMSD -1
REMARK  0 active torsions:
REMARK  status: ('A' for Active; 'I' for Inactive)
ROOT
ATOM      1  C1  DEN d   1      -0.298  -4.132  -1.198  0.00  0.00     0.130 A 
ATOM      2  C2  DEN d   1       0.417  -5.097  -0.367  0.00  0.00    -0.031 A 
ATOM      3  C3  DEN d   1      -0.579  -5.998   0.246  0.00  0.00     0.027 A 
ATOM      4  C4  DEN d   1      -3.145  -5.997  -0.014  0.00  0.00     0.027 A 
ATOM      5  C5  DEN d   1      -4.213  -5.360  -0.607  0.00  0.00    -0.003 A 
ATOM      6  C6  DEN d   1      -4.055  -4.258  -1.404  0.00  0.00     0.001 A 
ATOM      7  C7  DEN d   1      -2.796  -3.786  -1.668  0.00  0.00     0.017 A 
ATOM      8  C8  DEN d   1      -1.715  -4.418  -1.067  0.00  0.00    -0.094 A 
ATOM      9  C9  DEN d   1      -1.895  -5.538  -0.274  0.00  0.00    -0.072 A 
ENDROOT
TORSDOF 0
ENDMDL
