MODEL 1
REMARK minimizedAffinity -1.31779146
REMARK minimizedRMSD -1
REMARK  0 active torsions:
REMARK  status: ('A' for Active; 'I' for Inactive)
ROOT
ATOM      1  C1  DEN d   1      -2.082   2.540   2.445  0.00  0.00     0.130 A 
ATOM      2  C2  DEN d   1      -2.938   1.628   3.199  0.00  0.00    -0.031 A 
ATOM      3  C3  DEN d   1      -2.334   0.282   3.141  0.00  0.00     0.027 A 
ATOM      4  C4  DEN d   1      -0.166  -0.475   1.967  0.00  0.00     0.027 A 
ATOM      5  C5  DEN d   1       0.893  -0.060   1.190  0.00  0.00    -0.003 A 
ATOM      6  C6  DEN d   1       1.016   1.232   0.752  0.00  0.00     0.001 A 
ATOM      7  C7  DEN d   1       0.087   2.166   1.126  0.00  0.00     0.017 A 
ATOM      8  C8  DEN d   1      -0.988   1.754   1.903  0.00  0.00    -0.094 A 
ATOM      9  C9  DEN d   1      -1.088   0.446   2.346  0.00  0.00    -0.072 A 
ENDROOT
TORSDOF 0
ENDMDL
