MODEL 1
REMARK minimizedAffinity 1.47678053
REMARK minimizedRMSD -1
REMARK  0 active torsions:
REMARK  status: ('A' for Active; 'I' for Inactive)
ROOT
ATOM      1  C1  DEN d   1      -1.422   2.887   1.499  0.00  0.00     0.130 A 
ATOM      2  C2  DEN d   1      -2.427   2.390   2.434  0.00  0.00    -0.031 A 
ATOM      3  C3  DEN d   1      -2.134   0.969   2.707  0.00  0.00     0.027 A 
ATOM      4  C4  DEN d   1      -0.229  -0.502   1.779  0.00  0.00     0.027 A 
ATOM      5  C5  DEN d   1       0.865  -0.526   0.943  0.00  0.00    -0.003 A 
ATOM      6  C6  DEN d   1       1.250   0.567   0.213  0.00  0.00     0.001 A 
ATOM      7  C7  DEN d   1       0.562   1.745   0.340  0.00  0.00     0.017 A 
ATOM      8  C8  DEN d   1      -0.547   1.775   1.176  0.00  0.00    -0.094 A 
ATOM      9  C9  DEN d   1      -0.913   0.662   1.914  0.00  0.00    -0.072 A 
ENDROOT
TORSDOF 0
ENDMDL
