MODEL 1
REMARK minimizedAffinity -0.682015359
REMARK minimizedRMSD -1
REMARK  0 active torsions:
REMARK  status: ('A' for Active; 'I' for Inactive)
ROOT
ATOM      1  C1  DEN d   1      -1.106  -3.254   2.812  0.00  0.00     0.130 A 
ATOM      2  C2  DEN d   1      -1.963  -2.074   2.732  0.00  0.00    -0.031 A 
ATOM      3  C3  DEN d   1      -2.802  -2.200   1.523  0.00  0.00     0.027 A 
ATOM      4  C4  DEN d   1      -2.861  -4.100  -0.220  0.00  0.00     0.027 A 
ATOM      5  C5  DEN d   1      -2.308  -5.309  -0.582  0.00  0.00    -0.003 A 
ATOM      6  C6  DEN d   1      -1.300  -5.896   0.136  0.00  0.00     0.001 A 
ATOM      7  C7  DEN d   1      -0.845  -5.296   1.281  0.00  0.00     0.017 A 
ATOM      8  C8  DEN d   1      -1.393  -4.074   1.649  0.00  0.00    -0.094 A 
ATOM      9  C9  DEN d   1      -2.419  -3.503   0.916  0.00  0.00    -0.072 A 
ENDROOT
TORSDOF 0
ENDMDL
