MODEL 1
REMARK minimizedAffinity -3.51591492
REMARK minimizedRMSD -1
REMARK  0 active torsions:
REMARK  status: ('A' for Active; 'I' for Inactive)
ROOT
ATOM      1  C1  DEN d   1      -2.020   2.884   2.615  0.00  0.00     0.130 A 
ATOM      2  C2  DEN d   1      -3.138   2.291   3.343  0.00  0.00    -0.031 A 
ATOM      3  C3  DEN d   1      -3.098   0.831   3.131  0.00  0.00     0.027 A 
ATOM      4  C4  DEN d   1      -1.419  -0.564   1.756  0.00  0.00     0.027 A 
ATOM      5  C5  DEN d   1      -0.304  -0.503   0.950  0.00  0.00    -0.003 A 
ATOM      6  C6  DEN d   1       0.292   0.684   0.617  0.00  0.00     0.001 A 
ATOM      7  C7  DEN d   1      -0.197   1.857   1.130  0.00  0.00     0.017 A 
ATOM      8  C8  DEN d   1      -1.325   1.804   1.938  0.00  0.00    -0.094 A 
ATOM      9  C9  DEN d   1      -1.907   0.593   2.272  0.00  0.00    -0.072 A 
ENDROOT
TORSDOF 0
ENDMDL
