MODEL 1
REMARK minimizedAffinity -0.0306769293
REMARK minimizedRMSD -1
REMARK  0 active torsions:
REMARK  status: ('A' for Active; 'I' for Inactive)
ROOT
ATOM      1  C1  DEN d   1      -1.845   2.774   2.668  0.00  0.00     0.130 A 
ATOM      2  C2  DEN d   1      -3.064   2.282   3.303  0.00  0.00    -0.031 A 
ATOM      3  C3  DEN d   1      -3.094   0.813   3.155  0.00  0.00     0.027 A 
ATOM      4  C4  DEN d   1      -1.377  -0.739   2.017  0.00  0.00     0.027 A 
ATOM      5  C5  DEN d   1      -0.186  -0.780   1.327  0.00  0.00    -0.003 A 
ATOM      6  C6  DEN d   1       0.513   0.354   1.008  0.00  0.00     0.001 A 
ATOM      7  C7  DEN d   1       0.049   1.575   1.420  0.00  0.00     0.017 A 
ATOM      8  C8  DEN d   1      -1.155   1.625   2.110  0.00  0.00    -0.094 A 
ATOM      9  C9  DEN d   1      -1.840   0.467   2.433  0.00  0.00    -0.072 A 
ENDROOT
TORSDOF 0
ENDMDL
