MODEL 1
REMARK minimizedAffinity 10.3549728
REMARK minimizedRMSD -1
REMARK  0 active torsions:
REMARK  status: ('A' for Active; 'I' for Inactive)
ROOT
ATOM      1  C1  DEN d   1      -1.809   2.037   3.249  0.00  0.00     0.130 A 
ATOM      2  C2  DEN d   1      -1.812   3.390   2.699  0.00  0.00    -0.031 A 
ATOM      3  C3  DEN d   1      -0.871   3.421   1.561  0.00  0.00     0.027 A 
ATOM      4  C4  DEN d   1       0.577   1.515   0.600  0.00  0.00     0.027 A 
ATOM      5  C5  DEN d   1       0.927   0.191   0.741  0.00  0.00    -0.003 A 
ATOM      6  C6  DEN d   1       0.420  -0.596   1.741  0.00  0.00     0.001 A 
ATOM      7  C7  DEN d   1      -0.501  -0.076   2.612  0.00  0.00     0.017 A 
ATOM      8  C8  DEN d   1      -0.853   1.261   2.481  0.00  0.00    -0.094 A 
ATOM      9  C9  DEN d   1      -0.338   2.036   1.456  0.00  0.00    -0.072 A 
ENDROOT
TORSDOF 0
ENDMDL
