MODEL 1
REMARK minimizedAffinity -0.435114205
REMARK minimizedRMSD -1
REMARK  0 active torsions:
REMARK  status: ('A' for Active; 'I' for Inactive)
ROOT
ATOM      1  C1  DEN d   1      -1.006   2.822   1.612  0.00  0.00     0.130 A 
ATOM      2  C2  DEN d   1      -2.276   2.305   2.115  0.00  0.00    -0.031 A 
ATOM      3  C3  DEN d   1      -2.214   0.830   2.082  0.00  0.00     0.027 A 
ATOM      4  C4  DEN d   1      -0.283  -0.696   1.311  0.00  0.00     0.027 A 
ATOM      5  C5  DEN d   1       0.993  -0.717   0.791  0.00  0.00    -0.003 A 
ATOM      6  C6  DEN d   1       1.673   0.431   0.479  0.00  0.00     0.001 A 
ATOM      7  C7  DEN d   1       1.098   1.649   0.726  0.00  0.00     0.017 A 
ATOM      8  C8  DEN d   1      -0.191   1.678   1.243  0.00  0.00    -0.094 A 
ATOM      9  C9  DEN d   1      -0.857   0.507   1.563  0.00  0.00    -0.072 A 
ENDROOT
TORSDOF 0
ENDMDL
