MODEL 1
REMARK minimizedAffinity -1.63137555
REMARK minimizedRMSD -1
REMARK  0 active torsions:
REMARK  status: ('A' for Active; 'I' for Inactive)
ROOT
ATOM      1  C1  DEN d   1      -0.712  -0.425   1.573  0.00  0.00     0.130 A 
ATOM      2  C2  DEN d   1       0.299   0.403   0.921  0.00  0.00    -0.031 A 
ATOM      3  C3  DEN d   1      -0.023   1.818   1.197  0.00  0.00     0.027 A 
ATOM      4  C4  DEN d   1      -1.975   2.801   2.566  0.00  0.00     0.027 A 
ATOM      5  C5  DEN d   1      -3.098   2.491   3.301  0.00  0.00    -0.003 A 
ATOM      6  C6  DEN d   1      -3.520   1.201   3.482  0.00  0.00     0.001 A 
ATOM      7  C7  DEN d   1      -2.788   0.168   2.958  0.00  0.00     0.017 A 
ATOM      8  C8  DEN d   1      -1.659   0.472   2.209  0.00  0.00    -0.094 A 
ATOM      9  C9  DEN d   1      -1.242   1.783   2.048  0.00  0.00    -0.072 A 
ENDROOT
TORSDOF 0
ENDMDL
