MODEL 1
REMARK minimizedAffinity 4.31918859
REMARK minimizedRMSD -1
REMARK  0 active torsions:
REMARK  status: ('A' for Active; 'I' for Inactive)
ROOT
ATOM      1  C4' PXY d   1       0.007   1.443   0.921  0.00  0.00     0.077 C 
ATOM      2  C1' PXY d   1       2.595  -3.388   2.759  0.00  0.00     0.077 C 
ATOM      3  C1  PXY d   1       1.910  -2.120   2.288  0.00  0.00    -0.082 A 
ATOM      4  C2  PXY d   1       1.777  -1.891   0.992  0.00  0.00     0.003 A 
ATOM      5  C3  PXY d   1       1.189  -0.734   0.549  0.00  0.00     0.003 A 
ATOM      6  C4  PXY d   1       0.683   0.172   1.442  0.00  0.00    -0.082 A 
ATOM      7  C5  PXY d   1       0.805  -0.060   2.766  0.00  0.00     0.003 A 
ATOM      8  C6  PXY d   1       1.442  -1.221   3.195  0.00  0.00     0.003 A 
ENDROOT
TORSDOF 0
ENDMDL
