MODEL 1
REMARK minimizedAffinity 9.09948444
REMARK minimizedRMSD -1
REMARK  0 active torsions:
REMARK  status: ('A' for Active; 'I' for Inactive)
ROOT
ATOM      1  C4' PXY d   1       0.945  -0.043   2.332  0.00  0.00     0.077 C 
ATOM      2  C1' PXY d   1      -3.480  -0.044  -1.388  0.00  0.00     0.077 C 
ATOM      3  C1  PXY d   1      -2.312  -0.036  -0.420  0.00  0.00    -0.082 A 
ATOM      4  C2  PXY d   1      -2.170  -1.030   0.441  0.00  0.00     0.003 A 
ATOM      5  C3  PXY d   1      -1.138  -1.023   1.344  0.00  0.00     0.003 A 
ATOM      6  C4  PXY d   1      -0.213  -0.014   1.330  0.00  0.00    -0.082 A 
ATOM      7  C5  PXY d   1      -0.345   0.999   0.448  0.00  0.00     0.003 A 
ATOM      8  C6  PXY d   1      -1.423   0.994  -0.433  0.00  0.00     0.003 A 
ENDROOT
TORSDOF 0
ENDMDL
