MODEL 1
REMARK minimizedAffinity 5.86115074
REMARK minimizedRMSD -1
REMARK  0 active torsions:
REMARK  status: ('A' for Active; 'I' for Inactive)
ROOT
ATOM      1  C4' PXY d   1       1.255   1.375   4.609  0.00  0.00     0.077 C 
ATOM      2  C1' PXY d   1       2.477  -2.866   0.876  0.00  0.00     0.077 C 
ATOM      3  C1  PXY d   1       2.155  -1.746   1.845  0.00  0.00    -0.082 A 
ATOM      4  C2  PXY d   1       2.555  -1.834   3.103  0.00  0.00     0.003 A 
ATOM      5  C3  PXY d   1       2.245  -0.845   4.000  0.00  0.00     0.003 A 
ATOM      6  C4  PXY d   1       1.565   0.272   3.593  0.00  0.00    -0.082 A 
ATOM      7  C5  PXY d   1       1.163   0.374   2.309  0.00  0.00     0.003 A 
ATOM      8  C6  PXY d   1       1.452  -0.660   1.423  0.00  0.00     0.003 A 
ENDROOT
TORSDOF 0
ENDMDL
