MODEL 1
REMARK minimizedAffinity 8.18677425
REMARK minimizedRMSD -1
REMARK  0 active torsions:
REMARK  status: ('A' for Active; 'I' for Inactive)
ROOT
ATOM      1  C4' PXY d   1       2.593  -2.996   3.717  0.00  0.00     0.077 C 
ATOM      2  C1' PXY d   1      -0.090   0.785   0.264  0.00  0.00     0.077 C 
ATOM      3  C1  PXY d   1       0.619  -0.197   1.176  0.00  0.00    -0.082 A 
ATOM      4  C2  PXY d   1       0.904  -1.411   0.735  0.00  0.00     0.003 A 
ATOM      5  C3  PXY d   1       1.516  -2.322   1.557  0.00  0.00     0.003 A 
ATOM      6  C4  PXY d   1       1.887  -1.969   2.827  0.00  0.00    -0.082 A 
ATOM      7  C5  PXY d   1       1.609  -0.729   3.281  0.00  0.00     0.003 A 
ATOM      8  C6  PXY d   1       0.950   0.168   2.445  0.00  0.00     0.003 A 
ENDROOT
TORSDOF 0
ENDMDL
