MODEL 1
REMARK minimizedAffinity 9.11811161
REMARK minimizedRMSD -1
REMARK  0 active torsions:
REMARK  status: ('A' for Active; 'I' for Inactive)
ROOT
ATOM      1  C4' PXY d   1       1.523  -2.595   6.000  0.00  0.00     0.077 C 
ATOM      2  C1' PXY d   1       0.677   0.044   0.926  0.00  0.00     0.077 C 
ATOM      3  C1  PXY d   1       0.899  -0.637   2.263  0.00  0.00    -0.082 A 
ATOM      4  C2  PXY d   1       1.469  -1.830   2.303  0.00  0.00     0.003 A 
ATOM      5  C3  PXY d   1       1.648  -2.473   3.500  0.00  0.00     0.003 A 
ATOM      6  C4  PXY d   1       1.288  -1.866   4.674  0.00  0.00    -0.082 A 
ATOM      7  C5  PXY d   1       0.715  -0.644   4.642  0.00  0.00     0.003 A 
ATOM      8  C6  PXY d   1       0.505  -0.026   3.413  0.00  0.00     0.003 A 
ENDROOT
TORSDOF 0
ENDMDL
