MODEL 1
REMARK minimizedAffinity 3.69312358
REMARK minimizedRMSD -1
REMARK  0 active torsions:
REMARK  status: ('A' for Active; 'I' for Inactive)
ROOT
ATOM      1  C4' PXY d   1       1.848  -3.763   1.506  0.00  0.00     0.077 C 
ATOM      2  C1' PXY d   1      -1.782   0.710   1.030  0.00  0.00     0.077 C 
ATOM      3  C1  PXY d   1      -0.841  -0.471   1.157  0.00  0.00    -0.082 A 
ATOM      4  C2  PXY d   1       0.430  -0.265   1.465  0.00  0.00     0.003 A 
ATOM      5  C3  PXY d   1       1.302  -1.319   1.553  0.00  0.00     0.003 A 
ATOM      6  C4  PXY d   1       0.859  -2.602   1.376  0.00  0.00    -0.082 A 
ATOM      7  C5  PXY d   1      -0.438  -2.822   1.073  0.00  0.00     0.003 A 
ATOM      8  C6  PXY d   1      -1.299  -1.735   0.948  0.00  0.00     0.003 A 
ENDROOT
TORSDOF 0
ENDMDL
