MODEL 1
REMARK minimizedAffinity 6.37058496
REMARK minimizedRMSD -1
REMARK  0 active torsions:
REMARK  status: ('A' for Active; 'I' for Inactive)
ROOT
ATOM      1  C4' PXY d   1      -3.377   0.560  -2.626  0.00  0.00     0.077 C 
ATOM      2  C1' PXY d   1      -4.572   5.999  -4.174  0.00  0.00     0.077 C 
ATOM      3  C1  PXY d   1      -4.257   4.576  -3.756  0.00  0.00    -0.082 A 
ATOM      4  C2  PXY d   1      -3.750   3.732  -4.639  0.00  0.00     0.003 A 
ATOM      5  C3  PXY d   1      -3.490   2.433  -4.286  0.00  0.00     0.003 A 
ATOM      6  C4  PXY d   1      -3.701   2.008  -3.001  0.00  0.00    -0.082 A 
ATOM      7  C5  PXY d   1      -4.208   2.867  -2.092  0.00  0.00     0.003 A 
ATOM      8  C6  PXY d   1      -4.505   4.170  -2.481  0.00  0.00     0.003 A 
ENDROOT
TORSDOF 0
ENDMDL
