MODEL 1
REMARK minimizedAffinity 0.940127671
REMARK minimizedRMSD -1
REMARK  0 active torsions:
REMARK  status: ('A' for Active; 'I' for Inactive)
ROOT
ATOM      1  C4' PXY d   1       3.364  -3.953   6.000  0.00  0.00     0.077 C 
ATOM      2  C1' PXY d   1       1.147  -0.138   2.265  0.00  0.00     0.077 C 
ATOM      3  C1  PXY d   1       1.725  -1.131   3.254  0.00  0.00    -0.082 A 
ATOM      4  C2  PXY d   1       2.625  -2.011   2.847  0.00  0.00     0.003 A 
ATOM      5  C3  PXY d   1       3.135  -2.937   3.721  0.00  0.00     0.003 A 
ATOM      6  C4  PXY d   1       2.759  -2.926   5.038  0.00  0.00    -0.082 A 
ATOM      7  C5  PXY d   1       1.850  -2.024   5.464  0.00  0.00     0.003 A 
ATOM      8  C6  PXY d   1       1.314  -1.120   4.551  0.00  0.00     0.003 A 
ENDROOT
TORSDOF 0
ENDMDL
