MODEL 1
REMARK minimizedAffinity 8.73885822
REMARK minimizedRMSD -1
REMARK  0 active torsions:
REMARK  status: ('A' for Active; 'I' for Inactive)
ROOT
ATOM      1  C   UNL d   1       4.828  -4.877   0.798  0.00  0.00     0.124 A 
ATOM      2  C1  UNL d   1       4.310  -4.270  -0.338  0.00  0.00     0.062 A 
ATOM      3  C2  UNL d   1       3.432  -3.197  -0.221  0.00  0.00     0.162 A 
ATOM      4  C3  UNL d   1       3.065  -2.722   1.038  0.00  0.00    -0.034 A 
ATOM      5  C4  UNL d   1       3.589  -3.338   2.177  0.00  0.00     0.162 A 
ATOM      6  C5  UNL d   1       4.467  -4.410   2.054  0.00  0.00     0.062 A 
ATOM      7  F   UNL d   1       4.965  -4.994   3.153  0.00  0.00    -0.097 F 
ATOM      8  F1  UNL d   1       3.258  -2.906   3.403  0.00  0.00    -0.096 F 
ATOM      9  I   UNL d   1       1.752  -1.118   1.218  0.00  0.00    -0.060 I 
ATOM     10  F2  UNL d   1       2.948  -2.631  -1.336  0.00  0.00    -0.096 F 
ATOM     11  F3  UNL d   1       4.657  -4.720  -1.553  0.00  0.00    -0.097 F 
ATOM     12  F4  UNL d   1       5.672  -5.910   0.682  0.00  0.00    -0.092 F 
ENDROOT
TORSDOF 0
ENDMDL
