MODEL 1
REMARK minimizedAffinity 26.4575939
REMARK minimizedRMSD -1
REMARK  0 active torsions:
REMARK  status: ('A' for Active; 'I' for Inactive)
ROOT
ATOM      1  C   UNL d   1       3.850  -2.467  -0.279  0.00  0.00     0.124 A 
ATOM      2  C1  UNL d   1       4.730  -1.414  -0.489  0.00  0.00     0.062 A 
ATOM      3  C2  UNL d   1       4.377  -0.121  -0.115  0.00  0.00     0.162 A 
ATOM      4  C3  UNL d   1       3.137   0.127   0.474  0.00  0.00    -0.034 A 
ATOM      5  C4  UNL d   1       2.257  -0.937   0.681  0.00  0.00     0.162 A 
ATOM      6  C5  UNL d   1       2.615  -2.227   0.305  0.00  0.00     0.062 A 
ATOM      7  F   UNL d   1       1.763  -3.243   0.509  0.00  0.00    -0.097 F 
ATOM      8  F1  UNL d   1       1.057  -0.733   1.245  0.00  0.00    -0.096 F 
ATOM      9  I   UNL d   1       2.604   2.059   1.035  0.00  0.00    -0.060 I 
ATOM     10  F2  UNL d   1       5.247   0.877  -0.330  0.00  0.00    -0.096 F 
ATOM     11  F3  UNL d   1       5.924  -1.643  -1.055  0.00  0.00    -0.097 F 
ATOM     12  F4  UNL d   1       4.193  -3.710  -0.641  0.00  0.00    -0.092 F 
ENDROOT
TORSDOF 0
ENDMDL
