MODEL 1
REMARK minimizedAffinity 11.6761827
REMARK minimizedRMSD -1
REMARK  0 active torsions:
REMARK  status: ('A' for Active; 'I' for Inactive)
ROOT
ATOM      1  C   UNL d   1       4.238   2.604   0.970  0.00  0.00     0.124 A 
ATOM      2  C1  UNL d   1       3.395   2.437   2.060  0.00  0.00     0.062 A 
ATOM      3  C2  UNL d   1       2.618   1.287   2.174  0.00  0.00     0.162 A 
ATOM      4  C3  UNL d   1       2.682   0.295   1.195  0.00  0.00    -0.034 A 
ATOM      5  C4  UNL d   1       3.531   0.471   0.101  0.00  0.00     0.162 A 
ATOM      6  C5  UNL d   1       4.305   1.622  -0.008  0.00  0.00     0.062 A 
ATOM      7  F   UNL d   1       5.119   1.782  -1.062  0.00  0.00    -0.097 F 
ATOM      8  F1  UNL d   1       3.617  -0.462  -0.857  0.00  0.00    -0.096 F 
ATOM      9  I   UNL d   1       1.522  -1.425   1.362  0.00  0.00    -0.060 I 
ATOM     10  F2  UNL d   1       1.813   1.152   3.238  0.00  0.00    -0.096 F 
ATOM     11  F3  UNL d   1       3.327   3.385   3.005  0.00  0.00    -0.097 F 
ATOM     12  F4  UNL d   1       4.983   3.712   0.862  0.00  0.00    -0.092 F 
ENDROOT
TORSDOF 0
ENDMDL
