MODEL 1
REMARK minimizedAffinity 11.8653059
REMARK minimizedRMSD -1
REMARK  0 active torsions:
REMARK  status: ('A' for Active; 'I' for Inactive)
ROOT
ATOM      1  C   UNL d   1       3.726  -2.024  -0.141  0.00  0.00     0.124 A 
ATOM      2  C1  UNL d   1       4.488  -0.867  -0.224  0.00  0.00     0.062 A 
ATOM      3  C2  UNL d   1       4.015   0.323   0.323  0.00  0.00     0.162 A 
ATOM      4  C3  UNL d   1       2.773   0.361   0.958  0.00  0.00    -0.034 A 
ATOM      5  C4  UNL d   1       2.013  -0.807   1.036  0.00  0.00     0.162 A 
ATOM      6  C5  UNL d   1       2.490  -1.994   0.488  0.00  0.00     0.062 A 
ATOM      7  F   UNL d   1       1.753  -3.111   0.569  0.00  0.00    -0.097 F 
ATOM      8  F1  UNL d   1       0.815  -0.806   1.639  0.00  0.00    -0.096 F 
ATOM      9  I   UNL d   1       2.062   2.137   1.776  0.00  0.00    -0.060 I 
ATOM     10  F2  UNL d   1       4.772   1.426   0.228  0.00  0.00    -0.096 F 
ATOM     11  F3  UNL d   1       5.682  -0.894  -0.832  0.00  0.00    -0.097 F 
ATOM     12  F4  UNL d   1       4.184  -3.167  -0.668  0.00  0.00    -0.092 F 
ENDROOT
TORSDOF 0
ENDMDL
