MODEL 1
REMARK minimizedAffinity 6.90568161
REMARK minimizedRMSD -1
REMARK  0 active torsions:
REMARK  status: ('A' for Active; 'I' for Inactive)
ROOT
ATOM      1  C   UNL d   1       1.499   5.326   4.873  0.00  0.00     0.124 A 
ATOM      2  C1  UNL d   1       2.882   5.301   4.992  0.00  0.00     0.062 A 
ATOM      3  C2  UNL d   1       3.651   4.601   4.067  0.00  0.00     0.162 A 
ATOM      4  C3  UNL d   1       3.040   3.919   3.015  0.00  0.00    -0.034 A 
ATOM      5  C4  UNL d   1       1.649   3.948   2.903  0.00  0.00     0.162 A 
ATOM      6  C5  UNL d   1       0.884   4.649   3.830  0.00  0.00     0.062 A 
ATOM      7  F   UNL d   1      -0.452   4.672   3.713  0.00  0.00    -0.097 F 
ATOM      8  F1  UNL d   1       1.028   3.303   1.904  0.00  0.00    -0.096 F 
ATOM      9  I   UNL d   1       4.187   2.871   1.631  0.00  0.00    -0.060 I 
ATOM     10  F2  UNL d   1       4.985   4.594   4.206  0.00  0.00    -0.096 F 
ATOM     11  F3  UNL d   1       3.479   5.954   6.000  0.00  0.00    -0.097 F 
ATOM     12  F4  UNL d   1       0.761   6.000   5.765  0.00  0.00    -0.092 F 
ENDROOT
TORSDOF 0
ENDMDL
