MODEL 1
REMARK minimizedAffinity 11.9289732
REMARK minimizedRMSD -1
REMARK  0 active torsions:
REMARK  status: ('A' for Active; 'I' for Inactive)
ROOT
ATOM      1  C   UNL d   1       1.850   5.241   4.925  0.00  0.00     0.124 A 
ATOM      2  C1  UNL d   1       2.993   4.454   4.880  0.00  0.00     0.062 A 
ATOM      3  C2  UNL d   1       3.255   3.664   3.764  0.00  0.00     0.162 A 
ATOM      4  C3  UNL d   1       2.373   3.658   2.683  0.00  0.00    -0.034 A 
ATOM      5  C4  UNL d   1       1.226   4.451   2.737  0.00  0.00     0.162 A 
ATOM      6  C5  UNL d   1       0.968   5.239   3.854  0.00  0.00     0.062 A 
ATOM      7  F   UNL d   1      -0.136   5.998   3.896  0.00  0.00    -0.097 F 
ATOM      8  F1  UNL d   1       0.357   4.469   1.715  0.00  0.00    -0.096 F 
ATOM      9  I   UNL d   1       2.762   2.478   1.014  0.00  0.00    -0.060 I 
ATOM     10  F2  UNL d   1       4.367   2.914   3.748  0.00  0.00    -0.096 F 
ATOM     11  F3  UNL d   1       3.846   4.454   5.914  0.00  0.00    -0.097 F 
ATOM     12  F4  UNL d   1       1.600   6.000   6.000  0.00  0.00    -0.092 F 
ENDROOT
TORSDOF 0
ENDMDL
