MODEL 1
REMARK minimizedAffinity 5.01587009
REMARK minimizedRMSD -1
REMARK  0 active torsions:
REMARK  status: ('A' for Active; 'I' for Inactive)
ROOT
ATOM      1  C   UNL d   1       2.247   1.879  -5.996  0.00  0.00     0.124 A 
ATOM      2  C1  UNL d   1       1.608   3.112  -5.995  0.00  0.00     0.062 A 
ATOM      3  C2  UNL d   1       2.354   4.287  -5.993  0.00  0.00     0.162 A 
ATOM      4  C3  UNL d   1       3.748   4.235  -5.993  0.00  0.00    -0.034 A 
ATOM      5  C4  UNL d   1       4.383   2.992  -5.993  0.00  0.00     0.162 A 
ATOM      6  C5  UNL d   1       3.633   1.821  -5.995  0.00  0.00     0.062 A 
ATOM      7  F   UNL d   1       4.252   0.631  -5.996  0.00  0.00    -0.097 F 
ATOM      8  F1  UNL d   1       5.722   2.906  -5.993  0.00  0.00    -0.096 F 
ATOM      9  I   UNL d   1       4.868   5.990  -5.990  0.00  0.00    -0.060 I 
ATOM     10  F2  UNL d   1       1.711   5.463  -5.992  0.00  0.00    -0.096 F 
ATOM     11  F3  UNL d   1       0.269   3.171  -5.995  0.00  0.00    -0.097 F 
ATOM     12  F4  UNL d   1       1.526   0.750  -5.997  0.00  0.00    -0.092 F 
ENDROOT
TORSDOF 0
ENDMDL
