MODEL 1
REMARK minimizedAffinity 13.737462
REMARK minimizedRMSD -1
REMARK  0 active torsions:
REMARK  status: ('A' for Active; 'I' for Inactive)
ROOT
ATOM      1  C   UNL d   1       1.269   5.548   4.932  0.00  0.00     0.124 A 
ATOM      2  C1  UNL d   1       0.577   5.080   3.823  0.00  0.00     0.062 A 
ATOM      3  C2  UNL d   1       1.271   4.611   2.712  0.00  0.00     0.162 A 
ATOM      4  C3  UNL d   1       2.666   4.607   2.703  0.00  0.00    -0.034 A 
ATOM      5  C4  UNL d   1       3.355   5.080   3.821  0.00  0.00     0.162 A 
ATOM      6  C5  UNL d   1       2.657   5.547   4.930  0.00  0.00     0.062 A 
ATOM      7  F   UNL d   1       3.328   5.999   6.000  0.00  0.00    -0.097 F 
ATOM      8  F1  UNL d   1       4.696   5.090   3.846  0.00  0.00    -0.096 F 
ATOM      9  I   UNL d   1       3.707   3.906   1.043  0.00  0.00    -0.060 I 
ATOM     10  F2  UNL d   1       0.577   4.165   1.655  0.00  0.00    -0.096 F 
ATOM     11  F3  UNL d   1      -0.763   5.081   3.823  0.00  0.00    -0.097 F 
ATOM     12  F4  UNL d   1       0.599   6.000   6.000  0.00  0.00    -0.092 F 
ENDROOT
TORSDOF 0
ENDMDL
