MODEL 1
REMARK minimizedAffinity 8.44310093
REMARK minimizedRMSD -1
REMARK  0 active torsions:
REMARK  status: ('A' for Active; 'I' for Inactive)
ROOT
ATOM      1  C   UNL d   1       2.375   4.714  -5.892  0.00  0.00     0.124 A 
ATOM      2  C1  UNL d   1       1.748   3.475  -5.908  0.00  0.00     0.062 A 
ATOM      3  C2  UNL d   1       2.506   2.308  -5.925  0.00  0.00     0.162 A 
ATOM      4  C3  UNL d   1       3.899   2.373  -5.927  0.00  0.00    -0.034 A 
ATOM      5  C4  UNL d   1       4.522   3.622  -5.912  0.00  0.00     0.162 A 
ATOM      6  C5  UNL d   1       3.760   4.786  -5.894  0.00  0.00     0.062 A 
ATOM      7  F   UNL d   1       4.367   5.982  -5.880  0.00  0.00    -0.097 F 
ATOM      8  F1  UNL d   1       5.860   3.722  -5.913  0.00  0.00    -0.096 F 
ATOM      9  I   UNL d   1       5.036   0.630  -5.953  0.00  0.00    -0.060 I 
ATOM     10  F2  UNL d   1       1.874   1.125  -5.940  0.00  0.00    -0.096 F 
ATOM     11  F3  UNL d   1       0.410   3.402  -5.907  0.00  0.00    -0.097 F 
ATOM     12  F4  UNL d   1       1.643   5.835  -5.876  0.00  0.00    -0.092 F 
ENDROOT
TORSDOF 0
ENDMDL
