MODEL 1
REMARK minimizedAffinity -4.19569397
REMARK minimizedRMSD -1
REMARK  1 active torsions:
REMARK  status: ('A' for Active; 'I' for Inactive)
REMARK    1  A    between atoms: C3_4  and  O_7 
ROOT
ATOM      1  C   UNL d   1       0.063  -0.956   0.667  0.00  0.00    -0.033 A 
ATOM      2  C1  UNL d   1       1.393  -0.751   0.295  0.00  0.00     0.039 A 
ATOM      3  C2  UNL d   1       1.863   0.544   0.067  0.00  0.00    -0.080 A 
ATOM      4  C3  UNL d   1       0.995   1.622   0.214  0.00  0.00     0.150 A 
ATOM      5  C4  UNL d   1      -0.330   1.425   0.588  0.00  0.00    -0.007 A 
ATOM      6  C5  UNL d   1      -0.798   0.132   0.815  0.00  0.00     0.039 A 
ENDROOT
BRANCH   4   7
ATOM      7  O   UNL d   1       1.408   2.903  -0.003  0.00  0.00    -0.526 OA
ATOM      8  H5  UNL d   1       2.338   2.884  -0.283  0.00  0.00     0.418 HD
ENDBRANCH   4   7
TORSDOF 1
ENDMDL
