MODEL 1
REMARK minimizedAffinity 2.4430666
REMARK minimizedRMSD -1
REMARK  1 active torsions:
REMARK  status: ('A' for Active; 'I' for Inactive)
REMARK    1  A    between atoms: C3_4  and  O_7 
ROOT
ATOM      1  C   UNL d   1      -2.052   3.998  -5.997  0.00  0.00    -0.033 A 
ATOM      2  C1  UNL d   1      -2.281   2.644  -5.744  0.00  0.00     0.039 A 
ATOM      3  C2  UNL d   1      -1.208   1.786  -5.497  0.00  0.00    -0.080 A 
ATOM      4  C3  UNL d   1       0.088   2.295  -5.505  0.00  0.00     0.150 A 
ATOM      5  C4  UNL d   1       0.324   3.643  -5.753  0.00  0.00    -0.007 A 
ATOM      6  C5  UNL d   1      -0.750   4.498  -6.000  0.00  0.00     0.039 A 
ENDROOT
BRANCH   4   7
ATOM      7  O   UNL d   1       1.169   1.496  -5.274  0.00  0.00    -0.526 OA
ATOM      8  H5  UNL d   1       0.856   0.584  -5.147  0.00  0.00     0.418 HD
ENDBRANCH   4   7
TORSDOF 1
ENDMDL
