MODEL 1
REMARK minimizedAffinity -1.44749212
REMARK minimizedRMSD -1
REMARK  1 active torsions:
REMARK  status: ('A' for Active; 'I' for Inactive)
REMARK    1  A    between atoms: C3_4  and  O_7 
ROOT
ATOM      1  C   UNL d   1      -0.875  -3.081   1.779  0.00  0.00    -0.033 A 
ATOM      2  C1  UNL d   1      -0.765  -2.180   0.718  0.00  0.00     0.039 A 
ATOM      3  C2  UNL d   1      -1.018  -2.603  -0.588  0.00  0.00    -0.080 A 
ATOM      4  C3  UNL d   1      -1.381  -3.926  -0.820  0.00  0.00     0.150 A 
ATOM      5  C4  UNL d   1      -1.496  -4.829   0.232  0.00  0.00    -0.007 A 
ATOM      6  C5  UNL d   1      -1.242  -4.405   1.536  0.00  0.00     0.039 A 
ENDROOT
BRANCH   4   7
ATOM      7  O   UNL d   1      -1.633  -4.386  -2.079  0.00  0.00    -0.526 OA
ATOM      8  H5  UNL d   1      -1.487  -3.660  -2.707  0.00  0.00     0.418 HD
ENDBRANCH   4   7
TORSDOF 1
ENDMDL
