MODEL 1
REMARK minimizedAffinity 1.04642677
REMARK minimizedRMSD -1
REMARK  1 active torsions:
REMARK  status: ('A' for Active; 'I' for Inactive)
REMARK    1  A    between atoms: C3_4  and  O_7 
ROOT
ATOM      1  C   UNL d   1      -1.616  -4.482  -1.979  0.00  0.00    -0.033 A 
ATOM      2  C1  UNL d   1      -2.576  -4.071  -1.052  0.00  0.00     0.039 A 
ATOM      3  C2  UNL d   1      -2.192  -3.714   0.242  0.00  0.00    -0.080 A 
ATOM      4  C3  UNL d   1      -0.846  -3.770   0.595  0.00  0.00     0.150 A 
ATOM      5  C4  UNL d   1       0.116  -4.175  -0.324  0.00  0.00    -0.007 A 
ATOM      6  C5  UNL d   1      -0.270  -4.532  -1.615  0.00  0.00     0.039 A 
ENDROOT
BRANCH   4   7
ATOM      7  O   UNL d   1      -0.424  -3.436   1.848  0.00  0.00    -0.526 OA
ATOM      8  H5  UNL d   1      -1.201  -3.204   2.383  0.00  0.00     0.418 HD
ENDBRANCH   4   7
TORSDOF 1
ENDMDL
