MODEL 1
REMARK minimizedAffinity -2.2935338
REMARK minimizedRMSD -1
REMARK  1 active torsions:
REMARK  status: ('A' for Active; 'I' for Inactive)
REMARK    1  A    between atoms: C3_4  and  O_7 
ROOT
ATOM      1  C   UNL d   1      -1.718  -1.389   0.797  0.00  0.00    -0.033 A 
ATOM      2  C1  UNL d   1      -1.736  -0.090   1.309  0.00  0.00     0.039 A 
ATOM      3  C2  UNL d   1      -0.541   0.613   1.478  0.00  0.00    -0.080 A 
ATOM      4  C3  UNL d   1       0.663   0.006   1.131  0.00  0.00     0.150 A 
ATOM      5  C4  UNL d   1       0.688  -1.286   0.617  0.00  0.00    -0.007 A 
ATOM      6  C5  UNL d   1      -0.506  -1.987   0.450  0.00  0.00     0.039 A 
ENDROOT
BRANCH   4   7
ATOM      7  O   UNL d   1       1.855   0.650   1.282  0.00  0.00    -0.526 OA
ATOM      8  H5  UNL d   1       1.686   1.523   1.674  0.00  0.00     0.418 HD
ENDBRANCH   4   7
TORSDOF 1
ENDMDL
