MODEL 1
REMARK minimizedAffinity 0.0510779992
REMARK minimizedRMSD -1
REMARK  1 active torsions:
REMARK  status: ('A' for Active; 'I' for Inactive)
REMARK    1  A    between atoms: C3_4  and  O_7 
ROOT
ATOM      1  C   UNL d   1       2.509   1.973   0.487  0.00  0.00    -0.033 A 
ATOM      2  C1  UNL d   1       1.751   3.143   0.399  0.00  0.00     0.039 A 
ATOM      3  C2  UNL d   1       0.629   3.312   1.212  0.00  0.00    -0.080 A 
ATOM      4  C3  UNL d   1       0.275   2.306   2.107  0.00  0.00     0.150 A 
ATOM      5  C4  UNL d   1       1.028   1.140   2.202  0.00  0.00    -0.007 A 
ATOM      6  C5  UNL d   1       2.148   0.973   1.389  0.00  0.00     0.039 A 
ENDROOT
BRANCH   4   7
ATOM      7  O   UNL d   1      -0.815   2.424   2.917  0.00  0.00    -0.526 OA
ATOM      8  H5  UNL d   1      -1.254   3.268   2.721  0.00  0.00     0.418 HD
ENDBRANCH   4   7
TORSDOF 1
ENDMDL
