MODEL 1
REMARK minimizedAffinity 6.64985657
REMARK minimizedRMSD -1
REMARK  1 active torsions:
REMARK  status: ('A' for Active; 'I' for Inactive)
REMARK    1  A    between atoms: C3_4  and  O_7 
ROOT
ATOM      1  C   UNL d   1      -1.942   3.787  -5.999  0.00  0.00    -0.033 A 
ATOM      2  C1  UNL d   1      -0.752   4.516  -6.000  0.00  0.00     0.039 A 
ATOM      3  C2  UNL d   1       0.418   3.947  -5.492  0.00  0.00    -0.080 A 
ATOM      4  C3  UNL d   1       0.383   2.650  -4.987  0.00  0.00     0.150 A 
ATOM      5  C4  UNL d   1      -0.798   1.916  -4.987  0.00  0.00    -0.007 A 
ATOM      6  C5  UNL d   1      -1.965   2.486  -5.494  0.00  0.00     0.039 A 
ENDROOT
BRANCH   4   7
ATOM      7  O   UNL d   1       1.498   2.054  -4.476  0.00  0.00    -0.526 OA
ATOM      8  H5  UNL d   1       2.232   2.690  -4.516  0.00  0.00     0.418 HD
ENDBRANCH   4   7
TORSDOF 1
ENDMDL
