MODEL 1
REMARK minimizedAffinity -0.237997741
REMARK minimizedRMSD -1
REMARK  1 active torsions:
REMARK  status: ('A' for Active; 'I' for Inactive)
REMARK    1  A    between atoms: C3_4  and  O_7 
ROOT
ATOM      1  C   UNL d   1      -2.514  -5.097   1.551  0.00  0.00    -0.033 A 
ATOM      2  C1  UNL d   1      -1.669  -4.007   1.336  0.00  0.00     0.039 A 
ATOM      3  C2  UNL d   1      -1.589  -3.422   0.071  0.00  0.00    -0.080 A 
ATOM      4  C3  UNL d   1      -2.360  -3.935  -0.969  0.00  0.00     0.150 A 
ATOM      5  C4  UNL d   1      -3.207  -5.018  -0.761  0.00  0.00    -0.007 A 
ATOM      6  C5  UNL d   1      -3.285  -5.602   0.503  0.00  0.00     0.039 A 
ENDROOT
BRANCH   4   7
ATOM      7  O   UNL d   1      -2.312  -3.401  -2.222  0.00  0.00    -0.526 OA
ATOM      8  H5  UNL d   1      -1.662  -2.678  -2.224  0.00  0.00     0.418 HD
ENDBRANCH   4   7
TORSDOF 1
ENDMDL
