MODEL 1
REMARK minimizedAffinity 0.427666098
REMARK minimizedRMSD -1
REMARK  1 active torsions:
REMARK  status: ('A' for Active; 'I' for Inactive)
REMARK    1  A    between atoms: C3_4  and  O_7 
ROOT
ATOM      1  C   UNL d   1      -0.699   3.776  -5.249  0.00  0.00    -0.033 A 
ATOM      2  C1  UNL d   1      -1.867   3.922  -6.000  0.00  0.00     0.039 A 
ATOM      3  C2  UNL d   1      -2.829   2.910  -6.000  0.00  0.00    -0.080 A 
ATOM      4  C3  UNL d   1      -2.613   1.761  -5.245  0.00  0.00     0.150 A 
ATOM      5  C4  UNL d   1      -1.454   1.611  -4.491  0.00  0.00    -0.007 A 
ATOM      6  C5  UNL d   1      -0.493   2.622  -4.493  0.00  0.00     0.039 A 
ENDROOT
BRANCH   4   7
ATOM      7  O   UNL d   1      -3.521   0.745  -5.217  0.00  0.00    -0.526 OA
ATOM      8  H5  UNL d   1      -4.258   0.975  -5.807  0.00  0.00     0.418 HD
ENDBRANCH   4   7
TORSDOF 1
ENDMDL
