MODEL 1
REMARK minimizedAffinity 0.520711541
REMARK minimizedRMSD -1
REMARK  1 active torsions:
REMARK  status: ('A' for Active; 'I' for Inactive)
REMARK    1  A    between atoms: C3_4  and  O_7 
ROOT
ATOM      1  C   UNL d   1      -3.535   1.835  -4.926  0.00  0.00    -0.033 A 
ATOM      2  C1  UNL d   1      -2.235   1.515  -4.530  0.00  0.00     0.039 A 
ATOM      3  C2  UNL d   1      -1.173   2.357  -4.869  0.00  0.00    -0.080 A 
ATOM      4  C3  UNL d   1      -1.425   3.513  -5.601  0.00  0.00     0.150 A 
ATOM      5  C4  UNL d   1      -2.719   3.840  -5.996  0.00  0.00    -0.007 A 
ATOM      6  C5  UNL d   1      -3.777   2.998  -5.658  0.00  0.00     0.039 A 
ENDROOT
BRANCH   4   7
ATOM      7  O   UNL d   1      -0.421   4.363  -5.960  0.00  0.00    -0.526 OA
ATOM      8  H5  UNL d   1       0.421   3.995  -5.643  0.00  0.00     0.418 HD
ENDBRANCH   4   7
TORSDOF 1
ENDMDL
