MODEL 1
REMARK minimizedAffinity -2.90503645
REMARK minimizedRMSD -1
REMARK  1 active torsions:
REMARK  status: ('A' for Active; 'I' for Inactive)
REMARK    1  A    between atoms: C3_4  and  O_7 
ROOT
ATOM      1  C   UNL d   1      -1.511  -2.991   1.380  0.00  0.00    -0.033 A 
ATOM      2  C1  UNL d   1      -1.645  -3.430   0.061  0.00  0.00     0.039 A 
ATOM      3  C2  UNL d   1      -0.529  -3.478  -0.777  0.00  0.00    -0.080 A 
ATOM      4  C3  UNL d   1       0.713  -3.086  -0.284  0.00  0.00     0.150 A 
ATOM      5  C4  UNL d   1       0.853  -2.651   1.030  0.00  0.00    -0.007 A 
ATOM      6  C5  UNL d   1      -0.262  -2.602   1.864  0.00  0.00     0.039 A 
ENDROOT
BRANCH   4   7
ATOM      7  O   UNL d   1       1.830  -3.111  -1.065  0.00  0.00    -0.526 OA
ATOM      8  H5  UNL d   1       1.576  -3.406  -1.956  0.00  0.00     0.418 HD
ENDBRANCH   4   7
TORSDOF 1
ENDMDL
