MODEL 1
REMARK minimizedAffinity 0.643871188
REMARK minimizedRMSD -1
REMARK  1 active torsions:
REMARK  status: ('A' for Active; 'I' for Inactive)
REMARK    1  A    between atoms: C3_4  and  O_7 
ROOT
ATOM      1  C   UNL d   1      -2.518  -4.751  -1.408  0.00  0.00    -0.033 A 
ATOM      2  C1  UNL d   1      -1.716  -3.671  -1.783  0.00  0.00     0.039 A 
ATOM      3  C2  UNL d   1      -1.147  -2.850  -0.807  0.00  0.00    -0.080 A 
ATOM      4  C3  UNL d   1      -1.388  -3.119   0.538  0.00  0.00     0.150 A 
ATOM      5  C4  UNL d   1      -2.183  -4.195   0.918  0.00  0.00    -0.007 A 
ATOM      6  C5  UNL d   1      -2.751  -5.014  -0.058  0.00  0.00     0.039 A 
ENDROOT
BRANCH   4   7
ATOM      7  O   UNL d   1      -0.859  -2.343   1.526  0.00  0.00    -0.526 OA
ATOM      8  H5  UNL d   1      -0.356  -1.621   1.114  0.00  0.00     0.418 HD
ENDBRANCH   4   7
TORSDOF 1
ENDMDL
