MODEL 1
REMARK minimizedAffinity 0.440579861
REMARK minimizedRMSD -1
REMARK  1 active torsions:
REMARK  status: ('A' for Active; 'I' for Inactive)
REMARK    1  A    between atoms: C3_4  and  O_7 
ROOT
ATOM      1  C   UNL d   1      -2.499   1.946  -3.854  0.00  0.00    -0.033 A 
ATOM      2  C1  UNL d   1      -1.467   2.415  -3.039  0.00  0.00     0.039 A 
ATOM      3  C2  UNL d   1      -0.147   2.386  -3.494  0.00  0.00    -0.080 A 
ATOM      4  C3  UNL d   1       0.126   1.887  -4.764  0.00  0.00     0.150 A 
ATOM      5  C4  UNL d   1      -0.897   1.422  -5.583  0.00  0.00    -0.007 A 
ATOM      6  C5  UNL d   1      -2.214   1.451  -5.127  0.00  0.00     0.039 A 
ENDROOT
BRANCH   4   7
ATOM      7  O   UNL d   1       1.399   1.834  -5.250  0.00  0.00    -0.526 OA
ATOM      8  H5  UNL d   1       2.004   2.162  -4.564  0.00  0.00     0.418 HD
ENDBRANCH   4   7
TORSDOF 1
ENDMDL
