MODEL 1
REMARK minimizedAffinity 4.72249365
REMARK minimizedRMSD -1
REMARK  1 active torsions:
REMARK  status: ('A' for Active; 'I' for Inactive)
REMARK    1  A    between atoms: C3_4  and  O_7 
ROOT
ATOM      1  C   UNL d   1       5.792   5.999   1.142  0.00  0.00    -0.033 A 
ATOM      2  C1  UNL d   1       5.930   4.820   0.408  0.00  0.00     0.039 A 
ATOM      3  C2  UNL d   1       5.999   3.590   1.065  0.00  0.00    -0.080 A 
ATOM      4  C3  UNL d   1       5.927   3.552   2.454  0.00  0.00     0.150 A 
ATOM      5  C4  UNL d   1       5.786   4.723   3.192  0.00  0.00    -0.007 A 
ATOM      6  C5  UNL d   1       5.718   5.950   2.535  0.00  0.00     0.039 A 
ENDROOT
BRANCH   4   7
ATOM      7  O   UNL d   1       5.995   2.376   3.140  0.00  0.00    -0.526 OA
ATOM      8  H5  UNL d   1       6.121   1.654   2.502  0.00  0.00     0.418 HD
ENDBRANCH   4   7
TORSDOF 1
ENDMDL
