MODEL 1
REMARK minimizedAffinity 0.56144017
REMARK minimizedRMSD -1
REMARK  1 active torsions:
REMARK  status: ('A' for Active; 'I' for Inactive)
REMARK    1  A    between atoms: C3_4  and  O_7 
ROOT
ATOM      1  C   UNL d   1      -2.360   3.007  -4.913  0.00  0.00    -0.033 A 
ATOM      2  C1  UNL d   1      -1.895   2.038  -4.022  0.00  0.00     0.039 A 
ATOM      3  C2  UNL d   1      -0.584   1.569  -4.120  0.00  0.00    -0.080 A 
ATOM      4  C3  UNL d   1       0.251   2.076  -5.111  0.00  0.00     0.150 A 
ATOM      5  C4  UNL d   1      -0.204   3.045  -6.000  0.00  0.00    -0.007 A 
ATOM      6  C5  UNL d   1      -1.514   3.512  -5.901  0.00  0.00     0.039 A 
ENDROOT
BRANCH   4   7
ATOM      7  O   UNL d   1       1.537   1.645  -5.249  0.00  0.00    -0.526 OA
ATOM      8  H5  UNL d   1       1.703   0.956  -4.585  0.00  0.00     0.418 HD
ENDBRANCH   4   7
TORSDOF 1
ENDMDL
