MODEL 1
REMARK minimizedAffinity 4.34528542
REMARK minimizedRMSD -1
REMARK  1 active torsions:
REMARK  status: ('A' for Active; 'I' for Inactive)
REMARK    1  A    between atoms: C3_4  and  O_7 
ROOT
ATOM      1  C   UNL d   1       1.735   3.007  -5.288  0.00  0.00    -0.033 A 
ATOM      2  C1  UNL d   1       1.394   4.165  -5.990  0.00  0.00     0.039 A 
ATOM      3  C2  UNL d   1       0.072   4.614  -6.000  0.00  0.00    -0.080 A 
ATOM      4  C3  UNL d   1      -0.898   3.899  -5.304  0.00  0.00     0.150 A 
ATOM      5  C4  UNL d   1      -0.565   2.747  -4.599  0.00  0.00    -0.007 A 
ATOM      6  C5  UNL d   1       0.755   2.299  -4.591  0.00  0.00     0.039 A 
ENDROOT
BRANCH   4   7
ATOM      7  O   UNL d   1      -2.202   4.296  -5.288  0.00  0.00    -0.526 OA
ATOM      8  H5  UNL d   1      -2.288   5.090  -5.841  0.00  0.00     0.418 HD
ENDBRANCH   4   7
TORSDOF 1
ENDMDL
