MODEL 1
REMARK minimizedAffinity 4.1690135
REMARK minimizedRMSD -1
REMARK  2 active torsions:
REMARK  status: ('A' for Active; 'I' for Inactive)
REMARK    1  A    between atoms: C1_2  and  C2_3 
REMARK    2  A    between atoms: C2_3  and  C3_4 
ROOT
ATOM      1  C3  UNL d   1       3.211  -3.118   3.610  0.00  0.00    -0.075 A 
ATOM      2  C4  UNL d   1       3.921  -3.193   4.817  0.00  0.00     0.002 A 
ATOM      3  C5  UNL d   1       5.308  -3.344   4.815  0.00  0.00     0.002 A 
ATOM      4  C6  UNL d   1       6.000  -3.433   3.610  0.00  0.00    -0.004 A 
ATOM      5  C7  UNL d   1       5.303  -3.377   2.405  0.00  0.00     0.002 A 
ATOM      6  C8  UNL d   1       3.916  -3.221   2.404  0.00  0.00     0.002 A 
ENDROOT
BRANCH   1   7
ATOM      7  C2  UNL d   1       1.713  -2.925   3.605  0.00  0.00     0.056 C 
BRANCH   7   8
ATOM      8  C1  UNL d   1       1.106  -2.792   2.205  0.00  0.00     0.007 C 
ATOM      9  C   UNL d   1       1.089  -1.358   1.691  0.00  0.00     0.009 C 
ENDBRANCH   7   8
ENDBRANCH   1   7
TORSDOF 2
ENDMDL
