MODEL 1
REMARK minimizedAffinity 2.16295028
REMARK minimizedRMSD -1
REMARK  2 active torsions:
REMARK  status: ('A' for Active; 'I' for Inactive)
REMARK    1  A    between atoms: C1_2  and  C2_3 
REMARK    2  A    between atoms: C2_3  and  C3_4 
ROOT
ATOM      1  C3  UNL d   1       1.524  -1.087   2.224  0.00  0.00    -0.075 A 
ATOM      2  C4  UNL d   1       1.715  -1.642   3.498  0.00  0.00     0.002 A 
ATOM      3  C5  UNL d   1       1.255  -2.927   3.786  0.00  0.00     0.002 A 
ATOM      4  C6  UNL d   1       0.591  -3.668   2.811  0.00  0.00    -0.004 A 
ATOM      5  C7  UNL d   1       0.380  -3.120   1.548  0.00  0.00     0.002 A 
ATOM      6  C8  UNL d   1       0.843  -1.836   1.255  0.00  0.00     0.002 A 
ENDROOT
BRANCH   1   7
ATOM      7  C2  UNL d   1       2.045   0.292   1.897  0.00  0.00     0.056 C 
BRANCH   7   8
ATOM      8  C1  UNL d   1       1.753   1.342   2.975  0.00  0.00     0.007 C 
ATOM      9  C   UNL d   1       2.804   2.442   3.041  0.00  0.00     0.009 C 
ENDBRANCH   7   8
ENDBRANCH   1   7
TORSDOF 2
ENDMDL
