MODEL 1
REMARK minimizedAffinity 0.113214239
REMARK minimizedRMSD -1
REMARK  2 active torsions:
REMARK  status: ('A' for Active; 'I' for Inactive)
REMARK    1  A    between atoms: C1_2  and  C2_3 
REMARK    2  A    between atoms: C2_3  and  C3_4 
ROOT
ATOM      1  C3  UNL d   1      -5.283  -5.098  -3.555  0.00  0.00    -0.075 A 
ATOM      2  C4  UNL d   1      -6.000  -4.991  -4.756  0.00  0.00     0.002 A 
ATOM      3  C5  UNL d   1      -5.427  -5.397  -5.961  0.00  0.00     0.002 A 
ATOM      4  C6  UNL d   1      -4.130  -5.905  -5.983  0.00  0.00    -0.004 A 
ATOM      5  C7  UNL d   1      -3.402  -6.000  -4.799  0.00  0.00     0.002 A 
ATOM      6  C8  UNL d   1      -3.975  -5.598  -3.591  0.00  0.00     0.002 A 
ENDROOT
BRANCH   1   7
ATOM      7  C2  UNL d   1      -5.908  -4.688  -2.243  0.00  0.00     0.056 C 
BRANCH   7   8
ATOM      8  C1  UNL d   1      -5.998  -3.171  -2.042  0.00  0.00     0.007 C 
ATOM      9  C   UNL d   1      -5.212  -2.381  -3.080  0.00  0.00     0.009 C 
ENDBRANCH   7   8
ENDBRANCH   1   7
TORSDOF 2
ENDMDL
