MODEL 1
REMARK minimizedAffinity 1.67526245
REMARK minimizedRMSD -1
REMARK  2 active torsions:
REMARK  status: ('A' for Active; 'I' for Inactive)
REMARK    1  A    between atoms: C1_2  and  C2_3 
REMARK    2  A    between atoms: C2_3  and  C3_4 
ROOT
ATOM      1  C3  UNL d   1       1.355  -1.767   2.363  0.00  0.00    -0.075 A 
ATOM      2  C4  UNL d   1       1.148  -1.648   3.745  0.00  0.00     0.002 A 
ATOM      3  C5  UNL d   1       1.401  -2.725   4.595  0.00  0.00     0.002 A 
ATOM      4  C6  UNL d   1       1.854  -3.936   4.074  0.00  0.00    -0.004 A 
ATOM      5  C7  UNL d   1       2.047  -4.070   2.701  0.00  0.00     0.002 A 
ATOM      6  C8  UNL d   1       1.798  -2.993   1.849  0.00  0.00     0.002 A 
ENDROOT
BRANCH   1   7
ATOM      7  C2  UNL d   1       1.110  -0.596   1.442  0.00  0.00     0.056 C 
BRANCH   7   8
ATOM      8  C1  UNL d   1       2.387   0.126   0.999  0.00  0.00     0.007 C 
ATOM      9  C   UNL d   1       2.347   1.627   1.254  0.00  0.00     0.009 C 
ENDBRANCH   7   8
ENDBRANCH   1   7
TORSDOF 2
ENDMDL
