MODEL 1
REMARK minimizedAffinity 6.01856518
REMARK minimizedRMSD -1
REMARK  2 active torsions:
REMARK  status: ('A' for Active; 'I' for Inactive)
REMARK    1  A    between atoms: C1_2  and  C2_3 
REMARK    2  A    between atoms: C2_3  and  C3_4 
ROOT
ATOM      1  C3  UNL d   1      -5.272  -4.832  -3.826  0.00  0.00    -0.075 A 
ATOM      2  C4  UNL d   1      -3.871  -4.891  -3.848  0.00  0.00     0.002 A 
ATOM      3  C5  UNL d   1      -3.203  -5.465  -4.930  0.00  0.00     0.002 A 
ATOM      4  C6  UNL d   1      -3.926  -5.995  -5.997  0.00  0.00    -0.004 A 
ATOM      5  C7  UNL d   1      -5.319  -5.957  -5.977  0.00  0.00     0.002 A 
ATOM      6  C8  UNL d   1      -5.989  -5.379  -4.898  0.00  0.00     0.002 A 
ENDROOT
BRANCH   1   7
ATOM      7  C2  UNL d   1      -6.000  -4.185  -2.671  0.00  0.00     0.056 C 
BRANCH   7   8
ATOM      8  C1  UNL d   1      -5.169  -3.142  -1.916  0.00  0.00     0.007 C 
ATOM      9  C   UNL d   1      -5.978  -1.922  -1.494  0.00  0.00     0.009 C 
ENDBRANCH   7   8
ENDBRANCH   1   7
TORSDOF 2
ENDMDL
