MODEL 1
REMARK minimizedAffinity 4.05333042
REMARK minimizedRMSD -1
REMARK  2 active torsions:
REMARK  status: ('A' for Active; 'I' for Inactive)
REMARK    1  A    between atoms: C1_2  and  C2_3 
REMARK    2  A    between atoms: C2_3  and  C3_4 
ROOT
ATOM      1  C3  UNL d   1       0.732  -2.526   2.466  0.00  0.00    -0.075 A 
ATOM      2  C4  UNL d   1       0.837  -2.058   3.784  0.00  0.00     0.002 A 
ATOM      3  C5  UNL d   1       1.141  -0.721   4.039  0.00  0.00     0.002 A 
ATOM      4  C6  UNL d   1       1.353   0.162   2.983  0.00  0.00    -0.004 A 
ATOM      5  C7  UNL d   1       1.268  -0.296   1.670  0.00  0.00     0.002 A 
ATOM      6  C8  UNL d   1       0.960  -1.633   1.412  0.00  0.00     0.002 A 
ENDROOT
BRANCH   1   7
ATOM      7  C2  UNL d   1       0.375  -3.966   2.184  0.00  0.00     0.056 C 
BRANCH   7   8
ATOM      8  C1  UNL d   1       1.058  -4.546   0.940  0.00  0.00     0.007 C 
ATOM      9  C   UNL d   1       0.247  -4.354  -0.334  0.00  0.00     0.009 C 
ENDBRANCH   7   8
ENDBRANCH   1   7
TORSDOF 2
ENDMDL
