MODEL 1
REMARK minimizedAffinity 9.92690468
REMARK minimizedRMSD -1
REMARK  2 active torsions:
REMARK  status: ('A' for Active; 'I' for Inactive)
REMARK    1  A    between atoms: C1_2  and  C2_3 
REMARK    2  A    between atoms: C2_3  and  C3_4 
ROOT
ATOM      1  C3  UNL d   1       3.618  -3.377   3.891  0.00  0.00    -0.075 A 
ATOM      2  C4  UNL d   1       3.640  -3.607   5.274  0.00  0.00     0.002 A 
ATOM      3  C5  UNL d   1       4.823  -3.460   5.998  0.00  0.00     0.002 A 
ATOM      4  C6  UNL d   1       6.000  -3.092   5.349  0.00  0.00    -0.004 A 
ATOM      5  C7  UNL d   1       5.993  -2.878   3.972  0.00  0.00     0.002 A 
ATOM      6  C8  UNL d   1       4.810  -3.020   3.246  0.00  0.00     0.002 A 
ENDROOT
BRANCH   1   7
ATOM      7  C2  UNL d   1       2.334  -3.506   3.106  0.00  0.00     0.056 C 
BRANCH   7   8
ATOM      8  C1  UNL d   1       1.488  -2.229   3.081  0.00  0.00     0.007 C 
ATOM      9  C   UNL d   1       1.092  -1.800   1.674  0.00  0.00     0.009 C 
ENDBRANCH   7   8
ENDBRANCH   1   7
TORSDOF 2
ENDMDL
