MODEL 1
REMARK minimizedAffinity 5.97730112
REMARK minimizedRMSD -1
REMARK  2 active torsions:
REMARK  status: ('A' for Active; 'I' for Inactive)
REMARK    1  A    between atoms: C1_2  and  C2_3 
REMARK    2  A    between atoms: C2_3  and  C3_4 
ROOT
ATOM      1  C3  UNL d   1       4.115   4.520  -3.733  0.00  0.00    -0.075 A 
ATOM      2  C4  UNL d   1       5.205   5.262  -3.256  0.00  0.00     0.002 A 
ATOM      3  C5  UNL d   1       5.999   6.000  -4.135  0.00  0.00     0.002 A 
ATOM      4  C6  UNL d   1       5.719   5.998  -5.499  0.00  0.00    -0.004 A 
ATOM      5  C7  UNL d   1       4.649   5.251  -5.986  0.00  0.00     0.002 A 
ATOM      6  C8  UNL d   1       3.850   4.515  -5.109  0.00  0.00     0.002 A 
ENDROOT
BRANCH   1   7
ATOM      7  C2  UNL d   1       3.235   3.743  -2.784  0.00  0.00     0.056 C 
BRANCH   7   8
ATOM      8  C1  UNL d   1       3.429   4.112  -1.309  0.00  0.00     0.007 C 
ATOM      9  C   UNL d   1       2.220   4.810  -0.701  0.00  0.00     0.009 C 
ENDBRANCH   7   8
ENDBRANCH   1   7
TORSDOF 2
ENDMDL
