MODEL 1
REMARK minimizedAffinity 1.61935294
REMARK minimizedRMSD -1
REMARK  2 active torsions:
REMARK  status: ('A' for Active; 'I' for Inactive)
REMARK    1  A    between atoms: C1_2  and  C2_3 
REMARK    2  A    between atoms: C2_3  and  C3_4 
ROOT
ATOM      1  C3  UNL d   1      -5.932  -5.169  -3.421  0.00  0.00    -0.075 A 
ATOM      2  C4  UNL d   1      -5.968  -5.992  -4.556  0.00  0.00     0.002 A 
ATOM      3  C5  UNL d   1      -5.985  -5.435  -5.835  0.00  0.00     0.002 A 
ATOM      4  C6  UNL d   1      -5.978  -4.051  -5.995  0.00  0.00    -0.004 A 
ATOM      5  C7  UNL d   1      -5.960  -3.223  -4.874  0.00  0.00     0.002 A 
ATOM      6  C8  UNL d   1      -5.938  -3.778  -3.594  0.00  0.00     0.002 A 
ENDROOT
BRANCH   1   7
ATOM      7  C2  UNL d   1      -5.883  -5.765  -2.035  0.00  0.00     0.056 C 
BRANCH   7   8
ATOM      8  C1  UNL d   1      -4.465  -5.940  -1.480  0.00  0.00     0.007 C 
ATOM      9  C   UNL d   1      -3.390  -5.897  -2.558  0.00  0.00     0.009 C 
ENDBRANCH   7   8
ENDBRANCH   1   7
TORSDOF 2
ENDMDL
