MODEL 1
REMARK minimizedAffinity -1.83452976
REMARK minimizedRMSD -1
REMARK  1 active torsions:
REMARK  status: ('A' for Active; 'I' for Inactive)
REMARK    1  A    between atoms: N_2  and  C1_3 
ROOT
ATOM      1  C1  UNL d   1      -1.695  -2.835  -3.140  0.00  0.00     0.143 A 
ATOM      2  C2  UNL d   1      -0.835  -3.812  -2.626  0.00  0.00    -0.057 A 
ATOM      3  C3  UNL d   1      -0.308  -3.707  -1.333  0.00  0.00     0.033 A 
ATOM      4  C4  UNL d   1      -0.609  -2.605  -0.540  0.00  0.00    -0.042 A 
ATOM      5  C5  UNL d   1      -1.442  -1.610  -1.039  0.00  0.00     0.033 A 
ATOM      6  C6  UNL d   1      -1.971  -1.723  -2.329  0.00  0.00    -0.057 A 
ENDROOT
BRANCH   1   7
ATOM      7  N   UNL d   1      -2.174  -2.833  -4.453  0.00  0.00    -0.732 N 
ATOM      8  C   UNL d   1      -1.261  -2.942  -5.570  0.00  0.00     0.284 C 
ATOM      9  H3  UNL d   1      -3.025  -3.381  -4.557  0.00  0.00     0.395 HD
ENDBRANCH   1   7
TORSDOF 1
ENDMDL
