MODEL 1
REMARK minimizedAffinity 1.92436111
REMARK minimizedRMSD -1
REMARK  1 active torsions:
REMARK  status: ('A' for Active; 'I' for Inactive)
REMARK    1  A    between atoms: N_2  and  C1_3 
ROOT
ATOM      1  C1  UNL d   1      -1.757  -3.016  -1.805  0.00  0.00     0.143 A 
ATOM      2  C2  UNL d   1      -0.663  -3.670  -1.227  0.00  0.00    -0.057 A 
ATOM      3  C3  UNL d   1      -0.392  -3.559   0.143  0.00  0.00     0.033 A 
ATOM      4  C4  UNL d   1      -1.196  -2.766   0.955  0.00  0.00    -0.042 A 
ATOM      5  C5  UNL d   1      -2.274  -2.088   0.397  0.00  0.00     0.033 A 
ATOM      6  C6  UNL d   1      -2.543  -2.208  -0.970  0.00  0.00    -0.057 A 
ENDROOT
BRANCH   1   7
ATOM      7  N   UNL d   1      -2.021  -3.008  -3.177  0.00  0.00    -0.732 N 
ATOM      8  C   UNL d   1      -2.571  -4.177  -3.829  0.00  0.00     0.284 C 
ATOM      9  H3  UNL d   1      -2.427  -2.129  -3.489  0.00  0.00     0.395 HD
ENDBRANCH   1   7
TORSDOF 1
ENDMDL
