MODEL 1
REMARK minimizedAffinity 3.23155737
REMARK minimizedRMSD -1
REMARK  1 active torsions:
REMARK  status: ('A' for Active; 'I' for Inactive)
REMARK    1  A    between atoms: N_2  and  C1_3 
ROOT
ATOM      1  C1  UNL d   1       2.377   3.360  -5.621  0.00  0.00     0.143 A 
ATOM      2  C2  UNL d   1       1.476   4.362  -6.000  0.00  0.00    -0.057 A 
ATOM      3  C3  UNL d   1       1.606   5.672  -5.523  0.00  0.00     0.033 A 
ATOM      4  C4  UNL d   1       2.625   5.998  -4.634  0.00  0.00    -0.042 A 
ATOM      5  C5  UNL d   1       3.517   5.013  -4.225  0.00  0.00     0.033 A 
ATOM      6  C6  UNL d   1       3.386   3.708  -4.710  0.00  0.00    -0.057 A 
ENDROOT
BRANCH   1   7
ATOM      7  N   UNL d   1       2.243   2.017  -5.983  0.00  0.00    -0.732 N 
ATOM      8  C   UNL d   1       3.370   1.114  -5.895  0.00  0.00     0.284 C 
ATOM      9  H3  UNL d   1       1.363   1.616  -5.667  0.00  0.00     0.395 HD
ENDBRANCH   1   7
TORSDOF 1
ENDMDL
