MODEL 1
REMARK minimizedAffinity 6.45404005
REMARK minimizedRMSD -1
REMARK  1 active torsions:
REMARK  status: ('A' for Active; 'I' for Inactive)
REMARK    1  A    between atoms: N_2  and  C1_3 
ROOT
ATOM      1  C1  UNL d   1      -1.589  -2.453   1.510  0.00  0.00     0.143 A 
ATOM      2  C2  UNL d   1      -0.585  -2.808   0.604  0.00  0.00    -0.057 A 
ATOM      3  C3  UNL d   1      -0.734  -2.582  -0.770  0.00  0.00     0.033 A 
ATOM      4  C4  UNL d   1      -1.906  -2.022  -1.266  0.00  0.00    -0.042 A 
ATOM      5  C5  UNL d   1      -2.928  -1.685  -0.386  0.00  0.00     0.033 A 
ATOM      6  C6  UNL d   1      -2.771  -1.906   0.986  0.00  0.00    -0.057 A 
ENDROOT
BRANCH   1   7
ATOM      7  N   UNL d   1      -1.542  -2.742   2.876  0.00  0.00    -0.732 N 
ATOM      8  C   UNL d   1      -2.277  -3.864   3.419  0.00  0.00     0.284 C 
ATOM      9  H3  UNL d   1      -0.608  -2.631   3.264  0.00  0.00     0.395 HD
ENDBRANCH   1   7
TORSDOF 1
ENDMDL
