MODEL 1
REMARK minimizedAffinity 6.33900595
REMARK minimizedRMSD -1
REMARK  1 active torsions:
REMARK  status: ('A' for Active; 'I' for Inactive)
REMARK    1  A    between atoms: N_2  and  C1_3 
ROOT
ATOM      1  C1  UNL d   1       1.417   3.603   1.589  0.00  0.00     0.143 A 
ATOM      2  C2  UNL d   1       1.472   2.379   2.265  0.00  0.00    -0.057 A 
ATOM      3  C3  UNL d   1       0.329   1.822   2.851  0.00  0.00     0.033 A 
ATOM      4  C4  UNL d   1      -0.887   2.495   2.797  0.00  0.00    -0.042 A 
ATOM      5  C5  UNL d   1      -0.959   3.725   2.152  0.00  0.00     0.033 A 
ATOM      6  C6  UNL d   1       0.184   4.273   1.563  0.00  0.00    -0.057 A 
ENDROOT
BRANCH   1   7
ATOM      7  N   UNL d   1       2.538   4.256   1.071  0.00  0.00    -0.732 N 
ATOM      8  C   UNL d   1       3.254   5.233   1.864  0.00  0.00     0.284 C 
ATOM      9  H3  UNL d   1       3.139   3.632   0.538  0.00  0.00     0.395 HD
ENDBRANCH   1   7
TORSDOF 1
ENDMDL
