MODEL 1
REMARK minimizedAffinity -1.208233
REMARK minimizedRMSD -1
REMARK  1 active torsions:
REMARK  status: ('A' for Active; 'I' for Inactive)
REMARK    1  A    between atoms: N_2  and  C1_3 
ROOT
ATOM      1  C1  UNL d   1       4.186   0.362  -5.747  0.00  0.00     0.143 A 
ATOM      2  C2  UNL d   1       5.427   0.190  -5.124  0.00  0.00    -0.057 A 
ATOM      3  C3  UNL d   1       5.909  -1.086  -4.806  0.00  0.00     0.033 A 
ATOM      4  C4  UNL d   1       5.142  -2.214  -5.079  0.00  0.00    -0.042 A 
ATOM      5  C5  UNL d   1       3.895  -2.065  -5.674  0.00  0.00     0.033 A 
ATOM      6  C6  UNL d   1       3.422  -0.789  -5.996  0.00  0.00    -0.057 A 
ENDROOT
BRANCH   1   7
ATOM      7  N   UNL d   1       3.609   1.609  -6.000  0.00  0.00    -0.732 N 
ATOM      8  C   UNL d   1       2.171   1.769  -5.998  0.00  0.00     0.284 C 
ATOM      9  H3  UNL d   1       4.112   2.368  -5.548  0.00  0.00     0.395 HD
ENDBRANCH   1   7
TORSDOF 1
ENDMDL
