MODEL 1
REMARK minimizedAffinity 6.2249651
REMARK minimizedRMSD -1
REMARK  1 active torsions:
REMARK  status: ('A' for Active; 'I' for Inactive)
REMARK    1  A    between atoms: N_2  and  C1_3 
ROOT
ATOM      1  C1  UNL d   1      -0.982  -1.380   1.447  0.00  0.00     0.143 A 
ATOM      2  C2  UNL d   1       0.124  -0.640   1.881  0.00  0.00    -0.057 A 
ATOM      3  C3  UNL d   1       0.396  -0.472   3.244  0.00  0.00     0.033 A 
ATOM      4  C4  UNL d   1      -0.453  -1.019   4.201  0.00  0.00    -0.042 A 
ATOM      5  C5  UNL d   1      -1.572  -1.737   3.793  0.00  0.00     0.033 A 
ATOM      6  C6  UNL d   1      -1.834  -1.907   2.430  0.00  0.00    -0.057 A 
ENDROOT
BRANCH   1   7
ATOM      7  N   UNL d   1      -1.361  -1.499   0.108  0.00  0.00    -0.732 N 
ATOM      8  C   UNL d   1      -2.704  -1.162  -0.311  0.00  0.00     0.284 C 
ATOM      9  H3  UNL d   1      -0.635  -1.183  -0.531  0.00  0.00     0.395 HD
ENDBRANCH   1   7
TORSDOF 1
ENDMDL
