MODEL 1
REMARK minimizedAffinity 2.93117476
REMARK minimizedRMSD -1
REMARK  1 active torsions:
REMARK  status: ('A' for Active; 'I' for Inactive)
REMARK    1  A    between atoms: N_2  and  C1_3 
ROOT
ATOM      1  C1  UNL d   1      -2.865  -2.910  -3.533  0.00  0.00     0.143 A 
ATOM      2  C2  UNL d   1      -2.498  -2.036  -2.504  0.00  0.00    -0.057 A 
ATOM      3  C3  UNL d   1      -3.188  -2.018  -1.286  0.00  0.00     0.033 A 
ATOM      4  C4  UNL d   1      -4.280  -2.857  -1.086  0.00  0.00    -0.042 A 
ATOM      5  C5  UNL d   1      -4.678  -3.716  -2.104  0.00  0.00     0.033 A 
ATOM      6  C6  UNL d   1      -3.980  -3.734  -3.316  0.00  0.00    -0.057 A 
ENDROOT
BRANCH   1   7
ATOM      7  N   UNL d   1      -2.281  -2.906  -4.802  0.00  0.00    -0.732 N 
ATOM      8  C   UNL d   1      -3.103  -2.884  -5.993  0.00  0.00     0.284 C 
ATOM      9  H3  UNL d   1      -1.462  -2.304  -4.851  0.00  0.00     0.395 HD
ENDBRANCH   1   7
TORSDOF 1
ENDMDL
