MODEL 1
REMARK minimizedAffinity 3.70758748
REMARK minimizedRMSD -1
REMARK  1 active torsions:
REMARK  status: ('A' for Active; 'I' for Inactive)
REMARK    1  A    between atoms: N_2  and  C1_3 
ROOT
ATOM      1  C1  UNL d   1      -1.795  -3.234  -3.314  0.00  0.00     0.143 A 
ATOM      2  C2  UNL d   1      -1.486  -2.375  -4.375  0.00  0.00    -0.057 A 
ATOM      3  C3  UNL d   1      -1.705  -2.755  -5.704  0.00  0.00     0.033 A 
ATOM      4  C4  UNL d   1      -2.212  -4.016  -5.999  0.00  0.00    -0.042 A 
ATOM      5  C5  UNL d   1      -2.503  -4.896  -4.962  0.00  0.00     0.033 A 
ATOM      6  C6  UNL d   1      -2.288  -4.508  -3.636  0.00  0.00    -0.057 A 
ENDROOT
BRANCH   1   7
ATOM      7  N   UNL d   1      -1.508  -2.952  -1.977  0.00  0.00    -0.732 N 
ATOM      8  C   UNL d   1      -2.264  -1.951  -1.255  0.00  0.00     0.284 C 
ATOM      9  H3  UNL d   1      -1.309  -3.792  -1.437  0.00  0.00     0.395 HD
ENDBRANCH   1   7
TORSDOF 1
ENDMDL
