MODEL 1
REMARK minimizedAffinity 3.04933786
REMARK minimizedRMSD -1
REMARK  1 active torsions:
REMARK  status: ('A' for Active; 'I' for Inactive)
REMARK    1  A    between atoms: N_2  and  C1_3 
ROOT
ATOM      1  C1  UNL d   1       1.886   2.875   1.492  0.00  0.00     0.143 A 
ATOM      2  C2  UNL d   1       2.443   2.775   0.212  0.00  0.00    -0.057 A 
ATOM      3  C3  UNL d   1       3.255   1.691  -0.143  0.00  0.00     0.033 A 
ATOM      4  C4  UNL d   1       3.549   0.700   0.787  0.00  0.00    -0.042 A 
ATOM      5  C5  UNL d   1       3.027   0.792   2.072  0.00  0.00     0.033 A 
ATOM      6  C6  UNL d   1       2.211   1.873   2.419  0.00  0.00    -0.057 A 
ENDROOT
BRANCH   1   7
ATOM      7  N   UNL d   1       1.152   3.978   1.937  0.00  0.00    -0.732 N 
ATOM      8  C   UNL d   1      -0.050   4.390   1.245  0.00  0.00     0.284 C 
ATOM      9  H3  UNL d   1       1.082   4.013   2.951  0.00  0.00     0.395 HD
ENDBRANCH   1   7
TORSDOF 1
ENDMDL
