MODEL 1
REMARK minimizedAffinity 7.78083897
REMARK minimizedRMSD -1
REMARK  1 active torsions:
REMARK  status: ('A' for Active; 'I' for Inactive)
REMARK    1  A    between atoms: N_2  and  C1_3 
ROOT
ATOM      1  C1  UNL d   1       3.047   0.130  -5.446  0.00  0.00     0.143 A 
ATOM      2  C2  UNL d   1       4.132   0.391  -4.602  0.00  0.00    -0.057 A 
ATOM      3  C3  UNL d   1       4.846  -0.650  -3.995  0.00  0.00     0.033 A 
ATOM      4  C4  UNL d   1       4.469  -1.973  -4.201  0.00  0.00    -0.042 A 
ATOM      5  C5  UNL d   1       3.378  -2.254  -5.016  0.00  0.00     0.033 A 
ATOM      6  C6  UNL d   1       2.673  -1.211  -5.624  0.00  0.00    -0.057 A 
ENDROOT
BRANCH   1   7
ATOM      7  N   UNL d   1       2.236   1.124  -6.000  0.00  0.00    -0.732 N 
ATOM      8  C   UNL d   1       2.661   2.507  -5.999  0.00  0.00     0.284 C 
ATOM      9  H3  UNL d   1       1.792   0.826  -6.865  0.00  0.00     0.395 HD
ENDBRANCH   1   7
TORSDOF 1
ENDMDL
