MODEL 1
REMARK minimizedAffinity 6.59511852
REMARK minimizedRMSD -1
REMARK  1 active torsions:
REMARK  status: ('A' for Active; 'I' for Inactive)
REMARK    1  A    between atoms: N_2  and  C1_3 
ROOT
ATOM      1  C1  UNL d   1       1.919   3.500  -5.309  0.00  0.00     0.143 A 
ATOM      2  C2  UNL d   1       1.703   3.623  -3.932  0.00  0.00    -0.057 A 
ATOM      3  C3  UNL d   1       1.869   4.849  -3.277  0.00  0.00     0.033 A 
ATOM      4  C4  UNL d   1       2.284   5.972  -3.986  0.00  0.00    -0.042 A 
ATOM      5  C5  UNL d   1       2.529   5.868  -5.350  0.00  0.00     0.033 A 
ATOM      6  C6  UNL d   1       2.354   4.642  -6.000  0.00  0.00    -0.057 A 
ENDROOT
BRANCH   1   7
ATOM      7  N   UNL d   1       1.866   2.287  -6.000  0.00  0.00    -0.732 N 
ATOM      8  C   UNL d   1       2.996   1.383  -5.989  0.00  0.00     0.284 C 
ATOM      9  H3  UNL d   1       0.964   1.826  -5.906  0.00  0.00     0.395 HD
ENDBRANCH   1   7
TORSDOF 1
ENDMDL
