MODEL 1
REMARK minimizedAffinity 2.89902353
REMARK minimizedRMSD -1
REMARK  1 active torsions:
REMARK  status: ('A' for Active; 'I' for Inactive)
REMARK    1  A    between atoms: N_2  and  C1_3 
ROOT
ATOM      1  C1  UNL d   1      -0.752   5.398  -0.723  0.00  0.00     0.143 A 
ATOM      2  C2  UNL d   1      -0.371   5.545   0.615  0.00  0.00    -0.057 A 
ATOM      3  C3  UNL d   1       0.715   4.836   1.144  0.00  0.00     0.033 A 
ATOM      4  C4  UNL d   1       1.423   3.942   0.347  0.00  0.00    -0.042 A 
ATOM      5  C5  UNL d   1       1.047   3.761  -0.979  0.00  0.00     0.033 A 
ATOM      6  C6  UNL d   1      -0.034   4.477  -1.502  0.00  0.00    -0.057 A 
ENDROOT
BRANCH   1   7
ATOM      7  N   UNL d   1      -1.882   6.000  -1.281  0.00  0.00    -0.732 N 
ATOM      8  C   UNL d   1      -3.209   5.639  -0.828  0.00  0.00     0.284 C 
ATOM      9  H3  UNL d   1      -1.753   6.997  -1.438  0.00  0.00     0.395 HD
ENDBRANCH   1   7
TORSDOF 1
ENDMDL
