MODEL 1
REMARK minimizedAffinity -0.200348973
REMARK minimizedRMSD -1
REMARK  0 active torsions:
REMARK  status: ('A' for Active; 'I' for Inactive)
ROOT
ATOM      1  C4' PXY d   1      -4.572  -5.999  -1.583  0.00  0.00     0.077 C 
ATOM      2  C1' PXY d   1      -5.994  -2.551  -5.999  0.00  0.00     0.077 C 
ATOM      3  C1  PXY d   1      -5.628  -3.465  -4.847  0.00  0.00    -0.082 A 
ATOM      4  C2  PXY d   1      -5.259  -2.941  -3.689  0.00  0.00     0.003 A 
ATOM      5  C3  PXY d   1      -4.894  -3.753  -2.646  0.00  0.00     0.003 A 
ATOM      6  C4  PXY d   1      -4.959  -5.115  -2.772  0.00  0.00    -0.082 A 
ATOM      7  C5  PXY d   1      -5.345  -5.656  -3.947  0.00  0.00     0.003 A 
ATOM      8  C6  PXY d   1      -5.672  -4.815  -5.006  0.00  0.00     0.003 A 
ENDROOT
TORSDOF 0
ENDMDL
