MODEL 1
REMARK minimizedAffinity 0.959591866
REMARK minimizedRMSD -1
REMARK  0 active torsions:
REMARK  status: ('A' for Active; 'I' for Inactive)
ROOT
ATOM      1  C4' PXY d   1       2.443   5.999  -1.125  0.00  0.00     0.077 C 
ATOM      2  C1' PXY d   1      -1.569   1.906  -0.372  0.00  0.00     0.077 C 
ATOM      3  C1  PXY d   1      -0.514   2.979  -0.557  0.00  0.00    -0.082 A 
ATOM      4  C2  PXY d   1      -0.601   3.812  -1.581  0.00  0.00     0.003 A 
ATOM      5  C3  PXY d   1       0.362   4.768  -1.781  0.00  0.00     0.003 A 
ATOM      6  C4  PXY d   1       1.395   4.907  -0.894  0.00  0.00    -0.082 A 
ATOM      7  C5  PXY d   1       1.485   4.067   0.160  0.00  0.00     0.003 A 
ATOM      8  C6  PXY d   1       0.520   3.078   0.322  0.00  0.00     0.003 A 
ENDROOT
TORSDOF 0
ENDMDL
