MODEL 1
REMARK minimizedAffinity -0.0460009612
REMARK minimizedRMSD -1
REMARK  0 active torsions:
REMARK  status: ('A' for Active; 'I' for Inactive)
ROOT
ATOM      1  C4' PXY d   1      -5.808  -5.994  -6.000  0.00  0.00     0.077 C 
ATOM      2  C1' PXY d   1      -5.735  -2.955  -1.083  0.00  0.00     0.077 C 
ATOM      3  C1  PXY d   1      -5.747  -3.761  -2.367  0.00  0.00    -0.082 A 
ATOM      4  C2  PXY d   1      -5.954  -3.150  -3.522  0.00  0.00     0.003 A 
ATOM      5  C3  PXY d   1      -6.000  -3.868  -4.689  0.00  0.00     0.003 A 
ATOM      6  C4  PXY d   1      -5.778  -5.219  -4.680  0.00  0.00    -0.082 A 
ATOM      7  C5  PXY d   1      -5.555  -5.849  -3.507  0.00  0.00     0.003 A 
ATOM      8  C6  PXY d   1      -5.554  -5.108  -2.329  0.00  0.00     0.003 A 
ENDROOT
TORSDOF 0
ENDMDL
