MODEL 1
REMARK minimizedAffinity 1.92061877
REMARK minimizedRMSD -1
REMARK  0 active torsions:
REMARK  status: ('A' for Active; 'I' for Inactive)
ROOT
ATOM      1  C4' PXY d   1       2.740  -3.340  -2.681  0.00  0.00     0.077 C 
ATOM      2  C1' PXY d   1       1.615  -1.801   2.776  0.00  0.00     0.077 C 
ATOM      3  C1  PXY d   1       1.906  -2.217   1.347  0.00  0.00    -0.082 A 
ATOM      4  C2  PXY d   1       2.796  -1.542   0.638  0.00  0.00     0.003 A 
ATOM      5  C3  PXY d   1       3.048  -1.885  -0.665  0.00  0.00     0.003 A 
ATOM      6  C4  PXY d   1       2.421  -2.962  -1.232  0.00  0.00    -0.082 A 
ATOM      7  C5  PXY d   1       1.519  -3.662  -0.512  0.00  0.00     0.003 A 
ATOM      8  C6  PXY d   1       1.247  -3.272   0.796  0.00  0.00     0.003 A 
ENDROOT
TORSDOF 0
ENDMDL
