MODEL 1
REMARK minimizedAffinity 10.9415131
REMARK minimizedRMSD -1
REMARK  0 active torsions:
REMARK  status: ('A' for Active; 'I' for Inactive)
ROOT
ATOM      1  C4' PXY d   1       6.000   1.125  -6.000  0.00  0.00     0.077 C 
ATOM      2  C1' PXY d   1       2.614  -1.662  -2.234  0.00  0.00     0.077 C 
ATOM      3  C1  PXY d   1       3.492  -0.928  -3.228  0.00  0.00    -0.082 A 
ATOM      4  C2  PXY d   1       4.761  -1.277  -3.364  0.00  0.00     0.003 A 
ATOM      5  C3  PXY d   1       5.576  -0.602  -4.235  0.00  0.00     0.003 A 
ATOM      6  C4  PXY d   1       5.075   0.405  -5.015  0.00  0.00    -0.082 A 
ATOM      7  C5  PXY d   1       3.778   0.760  -4.890  0.00  0.00     0.003 A 
ATOM      8  C6  PXY d   1       2.977   0.090  -3.970  0.00  0.00     0.003 A 
ENDROOT
TORSDOF 0
ENDMDL
