MODEL 1
REMARK minimizedAffinity -1.94677484
REMARK minimizedRMSD -1
REMARK  0 active torsions:
REMARK  status: ('A' for Active; 'I' for Inactive)
ROOT
ATOM      1  C4' PXY d   1      -4.430  -3.278  -1.119  0.00  0.00     0.077 C 
ATOM      2  C1' PXY d   1      -5.910  -6.000  -5.999  0.00  0.00     0.077 C 
ATOM      3  C1  PXY d   1      -5.522  -5.275  -4.726  0.00  0.00    -0.082 A 
ATOM      4  C2  PXY d   1      -4.892  -5.931  -3.765  0.00  0.00     0.003 A 
ATOM      5  C3  PXY d   1      -4.563  -5.299  -2.594  0.00  0.00     0.003 A 
ATOM      6  C4  PXY d   1      -4.832  -3.967  -2.426  0.00  0.00    -0.082 A 
ATOM      7  C5  PXY d   1      -5.465  -3.288  -3.406  0.00  0.00     0.003 A 
ATOM      8  C6  PXY d   1      -5.828  -3.958  -4.570  0.00  0.00     0.003 A 
ENDROOT
TORSDOF 0
ENDMDL
