MODEL 1
REMARK minimizedAffinity -0.0636446029
REMARK minimizedRMSD -1
REMARK  0 active torsions:
REMARK  status: ('A' for Active; 'I' for Inactive)
ROOT
ATOM      1  C4' PXY d   1       3.015  -2.014  -2.598  0.00  0.00     0.077 C 
ATOM      2  C1' PXY d   1       6.000   1.583  -6.000  0.00  0.00     0.077 C 
ATOM      3  C1  PXY d   1       5.226   0.630  -5.109  0.00  0.00    -0.082 A 
ATOM      4  C2  PXY d   1       3.921   0.789  -4.960  0.00  0.00     0.003 A 
ATOM      5  C3  PXY d   1       3.211  -0.044  -4.134  0.00  0.00     0.003 A 
ATOM      6  C4  PXY d   1       3.835  -1.082  -3.495  0.00  0.00    -0.082 A 
ATOM      7  C5  PXY d   1       5.164  -1.257  -3.650  0.00  0.00     0.003 A 
ATOM      8  C6  PXY d   1       5.874  -0.376  -4.461  0.00  0.00     0.003 A 
ENDROOT
TORSDOF 0
ENDMDL
