MODEL 1
REMARK minimizedAffinity 1.91754317
REMARK minimizedRMSD -1
REMARK  0 active torsions:
REMARK  status: ('A' for Active; 'I' for Inactive)
ROOT
ATOM      1  C4' PXY d   1       2.613  -2.065  -2.445  0.00  0.00     0.077 C 
ATOM      2  C1' PXY d   1       6.000   0.987  -5.999  0.00  0.00     0.077 C 
ATOM      3  C1  PXY d   1       5.121   0.177  -5.067  0.00  0.00    -0.082 A 
ATOM      4  C2  PXY d   1       3.811   0.365  -5.075  0.00  0.00     0.003 A 
ATOM      5  C3  PXY d   1       3.005  -0.336  -4.215  0.00  0.00     0.003 A 
ATOM      6  C4  PXY d   1       3.539  -1.277  -3.376  0.00  0.00    -0.082 A 
ATOM      7  C5  PXY d   1       4.873  -1.482  -3.370  0.00  0.00     0.003 A 
ATOM      8  C6  PXY d   1       5.678  -0.731  -4.221  0.00  0.00     0.003 A 
ENDROOT
TORSDOF 0
ENDMDL
