MODEL 1
REMARK minimizedAffinity 2.20948005
REMARK minimizedRMSD -1
REMARK  0 active torsions:
REMARK  status: ('A' for Active; 'I' for Inactive)
ROOT
ATOM      1  C4' PXY d   1       2.346  -2.980  -2.419  0.00  0.00     0.077 C 
ATOM      2  C1' PXY d   1       5.998   0.066  -5.706  0.00  0.00     0.077 C 
ATOM      3  C1  PXY d   1       5.050  -0.741  -4.841  0.00  0.00    -0.082 A 
ATOM      4  C2  PXY d   1       3.749  -0.701  -5.082  0.00  0.00     0.003 A 
ATOM      5  C3  PXY d   1       2.875  -1.400  -4.289  0.00  0.00     0.003 A 
ATOM      6  C4  PXY d   1       3.341  -2.189  -3.272  0.00  0.00    -0.082 A 
ATOM      7  C5  PXY d   1       4.667  -2.243  -3.026  0.00  0.00     0.003 A 
ATOM      8  C6  PXY d   1       5.535  -1.494  -3.817  0.00  0.00     0.003 A 
ENDROOT
TORSDOF 0
ENDMDL
