MODEL 1
REMARK minimizedAffinity 10.043498
REMARK minimizedRMSD -1
REMARK  0 active torsions:
REMARK  status: ('A' for Active; 'I' for Inactive)
ROOT
ATOM      1  C4' PXY d   1       1.508  -3.294  -2.335  0.00  0.00     0.077 C 
ATOM      2  C1' PXY d   1       5.998  -0.386  -4.526  0.00  0.00     0.077 C 
ATOM      3  C1  PXY d   1       4.828  -1.160  -3.950  0.00  0.00    -0.082 A 
ATOM      4  C2  PXY d   1       3.592  -0.758  -4.200  0.00  0.00     0.003 A 
ATOM      5  C3  PXY d   1       2.523  -1.426  -3.661  0.00  0.00     0.003 A 
ATOM      6  C4  PXY d   1       2.719  -2.549  -2.903  0.00  0.00    -0.082 A 
ATOM      7  C5  PXY d   1       3.976  -2.972  -2.653  0.00  0.00     0.003 A 
ATOM      8  C6  PXY d   1       5.049  -2.255  -3.175  0.00  0.00     0.003 A 
ENDROOT
TORSDOF 0
ENDMDL
