MODEL 1
REMARK minimizedAffinity -0.476069182
REMARK minimizedRMSD -1
REMARK  0 active torsions:
REMARK  status: ('A' for Active; 'I' for Inactive)
ROOT
ATOM      1  C4' PXY d   1      -5.341  -3.418  -6.000  0.00  0.00     0.077 C 
ATOM      2  C1' PXY d   1      -5.591  -5.998  -0.833  0.00  0.00     0.077 C 
ATOM      3  C1  PXY d   1      -5.515  -5.329  -2.191  0.00  0.00    -0.082 A 
ATOM      4  C2  PXY d   1      -5.999  -4.108  -2.346  0.00  0.00     0.003 A 
ATOM      5  C3  PXY d   1      -5.968  -3.500  -3.575  0.00  0.00     0.003 A 
ATOM      6  C4  PXY d   1      -5.388  -4.128  -4.644  0.00  0.00    -0.082 A 
ATOM      7  C5  PXY d   1      -4.882  -5.371  -4.491  0.00  0.00     0.003 A 
ATOM      8  C6  PXY d   1      -4.960  -5.986  -3.246  0.00  0.00     0.003 A 
ENDROOT
TORSDOF 0
ENDMDL
