MODEL 1
REMARK minimizedAffinity -1.21082926
REMARK minimizedRMSD -1
REMARK  0 active torsions:
REMARK  status: ('A' for Active; 'I' for Inactive)
ROOT
ATOM      1  C   UNL d   1       5.289   6.000   4.829  0.00  0.00     0.023 A 
ATOM      2  C1  UNL d   1       4.038   5.826   4.237  0.00  0.00     0.003 A 
ATOM      3  C2  UNL d   1       3.471   4.552   4.163  0.00  0.00     0.048 A 
ATOM      4  C3  UNL d   1       4.159   3.457   4.683  0.00  0.00     0.023 A 
ATOM      5  C4  UNL d   1       5.411   3.626   5.277  0.00  0.00     0.048 A 
ATOM      6  C5  UNL d   1       5.975   4.902   5.349  0.00  0.00     0.003 A 
ATOM      7  I   UNL d   1       3.317   1.560   4.574  0.00  0.00    -0.146 I 
ENDROOT
TORSDOF 0
ENDMDL
