MODEL 1
REMARK minimizedAffinity 1.31405783
REMARK minimizedRMSD -1
REMARK  0 active torsions:
REMARK  status: ('A' for Active; 'I' for Inactive)
ROOT
ATOM      1  C   UNL d   1      -5.909   5.989   3.998  0.00  0.00     0.023 A 
ATOM      2  C1  UNL d   1      -5.962   4.858   3.184  0.00  0.00     0.003 A 
ATOM      3  C2  UNL d   1      -5.986   3.585   3.757  0.00  0.00     0.048 A 
ATOM      4  C3  UNL d   1      -5.959   3.450   5.145  0.00  0.00     0.023 A 
ATOM      5  C4  UNL d   1      -5.908   4.579   5.963  0.00  0.00     0.048 A 
ATOM      6  C5  UNL d   1      -5.882   5.850   5.386  0.00  0.00     0.003 A 
ATOM      7  I   UNL d   1      -5.997   1.556   5.999  0.00  0.00    -0.146 I 
ENDROOT
TORSDOF 0
ENDMDL
