MODEL 1
REMARK minimizedAffinity 2.05185628
REMARK minimizedRMSD -1
REMARK  0 active torsions:
REMARK  status: ('A' for Active; 'I' for Inactive)
ROOT
ATOM      1  C   UNL d   1      -4.756   5.924   5.999  0.00  0.00     0.023 A 
ATOM      2  C1  UNL d   1      -5.830   5.033   5.998  0.00  0.00     0.003 A 
ATOM      3  C2  UNL d   1      -5.999   4.142   4.936  0.00  0.00     0.048 A 
ATOM      4  C3  UNL d   1      -5.090   4.146   3.879  0.00  0.00     0.023 A 
ATOM      5  C4  UNL d   1      -4.013   5.034   3.876  0.00  0.00     0.048 A 
ATOM      6  C5  UNL d   1      -3.849   5.924   4.939  0.00  0.00     0.003 A 
ATOM      7  I   UNL d   1      -5.339   2.820   2.298  0.00  0.00    -0.146 I 
ENDROOT
TORSDOF 0
ENDMDL
