MODEL 1
REMARK minimizedAffinity 4.52817631
REMARK minimizedRMSD -1
REMARK  0 active torsions:
REMARK  status: ('A' for Active; 'I' for Inactive)
ROOT
ATOM      1  C   UNL d   1       1.337   3.268   0.764  0.00  0.00     0.023 A 
ATOM      2  C1  UNL d   1       1.308   1.931   1.162  0.00  0.00     0.003 A 
ATOM      3  C2  UNL d   1       0.189   1.143   0.884  0.00  0.00     0.048 A 
ATOM      4  C3  UNL d   1      -0.897   1.698   0.208  0.00  0.00     0.023 A 
ATOM      5  C4  UNL d   1      -0.872   3.035  -0.193  0.00  0.00     0.048 A 
ATOM      6  C5  UNL d   1       0.248   3.819   0.088  0.00  0.00     0.003 A 
ATOM      7  I   UNL d   1      -2.563   0.527  -0.207  0.00  0.00    -0.146 I 
ENDROOT
TORSDOF 0
ENDMDL
