MODEL 1
REMARK minimizedAffinity 5.19938183
REMARK minimizedRMSD -1
REMARK  0 active torsions:
REMARK  status: ('A' for Active; 'I' for Inactive)
ROOT
ATOM      1  C   UNL d   1       0.319  -4.393  -0.812  0.00  0.00     0.023 A 
ATOM      2  C1  UNL d   1       0.450  -3.370  -1.752  0.00  0.00     0.003 A 
ATOM      3  C2  UNL d   1       1.191  -2.228  -1.444  0.00  0.00     0.048 A 
ATOM      4  C3  UNL d   1       1.800  -2.115  -0.194  0.00  0.00     0.023 A 
ATOM      5  C4  UNL d   1       1.672  -3.136   0.749  0.00  0.00     0.048 A 
ATOM      6  C5  UNL d   1       0.929  -4.276   0.437  0.00  0.00     0.003 A 
ATOM      7  I   UNL d   1       2.904  -0.415   0.267  0.00  0.00    -0.146 I 
ENDROOT
TORSDOF 0
ENDMDL
