MODEL 1
REMARK minimizedAffinity -0.889108598
REMARK minimizedRMSD -1
REMARK  0 active torsions:
REMARK  status: ('A' for Active; 'I' for Inactive)
ROOT
ATOM      1  C   UNL d   1      -4.884   5.997   5.630  0.00  0.00     0.023 A 
ATOM      2  C1  UNL d   1      -5.954   5.996   4.735  0.00  0.00     0.003 A 
ATOM      3  C2  UNL d   1      -5.716   5.996   3.359  0.00  0.00     0.048 A 
ATOM      4  C3  UNL d   1      -4.405   5.997   2.885  0.00  0.00     0.023 A 
ATOM      5  C4  UNL d   1      -3.331   5.997   3.776  0.00  0.00     0.048 A 
ATOM      6  C5  UNL d   1      -3.574   5.998   5.151  0.00  0.00     0.003 A 
ATOM      7  I   UNL d   1      -4.047   5.997   0.837  0.00  0.00    -0.146 I 
ENDROOT
TORSDOF 0
ENDMDL
