MODEL 1
REMARK minimizedAffinity -1.50462496
REMARK minimizedRMSD -1
REMARK  0 active torsions:
REMARK  status: ('A' for Active; 'I' for Inactive)
ROOT
ATOM      1  C   UNL d   1       1.785  -1.718  -0.908  0.00  0.00     0.023 A 
ATOM      2  C1  UNL d   1       2.473  -2.905  -0.651  0.00  0.00     0.003 A 
ATOM      3  C2  UNL d   1       1.835  -4.135  -0.827  0.00  0.00     0.048 A 
ATOM      4  C3  UNL d   1       0.510  -4.171  -1.260  0.00  0.00     0.023 A 
ATOM      5  C4  UNL d   1      -0.181  -2.986  -1.520  0.00  0.00     0.048 A 
ATOM      6  C5  UNL d   1       0.460  -1.759  -1.342  0.00  0.00     0.003 A 
ATOM      7  I   UNL d   1      -0.441  -6.000  -1.523  0.00  0.00    -0.146 I 
ENDROOT
TORSDOF 0
ENDMDL
