MODEL 1
REMARK minimizedAffinity -2.14454174
REMARK minimizedRMSD -1
REMARK  0 active torsions:
REMARK  status: ('A' for Active; 'I' for Inactive)
ROOT
ATOM      1  C   UNL d   1      -4.533  -0.962  -0.146  0.00  0.00     0.023 A 
ATOM      2  C1  UNL d   1      -5.577  -1.053   0.774  0.00  0.00     0.003 A 
ATOM      3  C2  UNL d   1      -5.999   0.084   1.467  0.00  0.00     0.048 A 
ATOM      4  C3  UNL d   1      -5.373   1.308   1.234  0.00  0.00     0.023 A 
ATOM      5  C4  UNL d   1      -4.328   1.403   0.313  0.00  0.00     0.048 A 
ATOM      6  C5  UNL d   1      -3.909   0.264  -0.376  0.00  0.00     0.003 A 
ATOM      7  I   UNL d   1      -6.000   3.001   2.264  0.00  0.00    -0.146 I 
ENDROOT
TORSDOF 0
ENDMDL
