MODEL 1
REMARK minimizedAffinity -3.87475061
REMARK minimizedRMSD -1
REMARK  0 active torsions:
REMARK  status: ('A' for Active; 'I' for Inactive)
ROOT
ATOM      1  C   UNL d   1       3.448  -1.561  -0.934  0.00  0.00     0.023 A 
ATOM      2  C1  UNL d   1       3.276  -0.190  -1.127  0.00  0.00     0.003 A 
ATOM      3  C2  UNL d   1       2.003   0.328  -1.371  0.00  0.00     0.048 A 
ATOM      4  C3  UNL d   1       0.905  -0.531  -1.421  0.00  0.00     0.023 A 
ATOM      5  C4  UNL d   1       1.072  -1.903  -1.228  0.00  0.00     0.048 A 
ATOM      6  C5  UNL d   1       2.348  -2.416  -0.985  0.00  0.00     0.003 A 
ATOM      7  I   UNL d   1      -0.992   0.237  -1.784  0.00  0.00    -0.146 I 
ENDROOT
TORSDOF 0
ENDMDL
