MODEL 1
REMARK minimizedAffinity -2.07865429
REMARK minimizedRMSD -1
REMARK  0 active torsions:
REMARK  status: ('A' for Active; 'I' for Inactive)
ROOT
ATOM      1  C   UNL d   1      -1.076  -1.640   1.715  0.00  0.00     0.124 A 
ATOM      2  C1  UNL d   1       0.236  -1.731   1.270  0.00  0.00     0.062 A 
ATOM      3  C2  UNL d   1       0.601  -1.166   0.051  0.00  0.00     0.162 A 
ATOM      4  C3  UNL d   1      -0.346  -0.505  -0.731  0.00  0.00    -0.034 A 
ATOM      5  C4  UNL d   1      -1.663  -0.419  -0.276  0.00  0.00     0.162 A 
ATOM      6  C5  UNL d   1      -2.024  -0.985   0.943  0.00  0.00     0.062 A 
ATOM      7  F   UNL d   1      -3.291  -0.897   1.372  0.00  0.00    -0.097 F 
ATOM      8  F1  UNL d   1      -2.599   0.210  -1.002  0.00  0.00    -0.096 F 
ATOM      9  I   UNL d   1       0.196   0.341  -2.553  0.00  0.00    -0.060 I 
ATOM     10  F2  UNL d   1       1.876  -1.268  -0.355  0.00  0.00    -0.096 F 
ATOM     11  F3  UNL d   1       1.153  -2.364   2.014  0.00  0.00    -0.097 F 
ATOM     12  F4  UNL d   1      -1.425  -2.185   2.888  0.00  0.00    -0.092 F 
ENDROOT
TORSDOF 0
ENDMDL
