MODEL 1
REMARK minimizedAffinity -3.58142853
REMARK minimizedRMSD -1
REMARK  0 active torsions:
REMARK  status: ('A' for Active; 'I' for Inactive)
ROOT
ATOM      1  C   UNL d   1      -1.360   0.187  -1.672  0.00  0.00     0.124 A 
ATOM      2  C1  UNL d   1      -2.218  -0.210  -0.656  0.00  0.00     0.062 A 
ATOM      3  C2  UNL d   1      -1.738  -0.968   0.409  0.00  0.00     0.162 A 
ATOM      4  C3  UNL d   1      -0.393  -1.332   0.463  0.00  0.00    -0.034 A 
ATOM      5  C4  UNL d   1       0.464  -0.930  -0.563  0.00  0.00     0.162 A 
ATOM      6  C5  UNL d   1      -0.021  -0.172  -1.625  0.00  0.00     0.062 A 
ATOM      7  F   UNL d   1       0.810   0.211  -2.606  0.00  0.00    -0.097 F 
ATOM      8  F1  UNL d   1       1.763  -1.263  -0.542  0.00  0.00    -0.096 F 
ATOM      9  I   UNL d   1       0.328  -2.465   2.053  0.00  0.00    -0.060 I 
ATOM     10  F2  UNL d   1      -2.590  -1.338   1.377  0.00  0.00    -0.096 F 
ATOM     11  F3  UNL d   1      -3.513   0.136  -0.700  0.00  0.00    -0.097 F 
ATOM     12  F4  UNL d   1      -1.824   0.916  -2.696  0.00  0.00    -0.092 F 
ENDROOT
TORSDOF 0
ENDMDL
