MODEL 1
REMARK minimizedAffinity -2.10571265
REMARK minimizedRMSD -1
REMARK  0 active torsions:
REMARK  status: ('A' for Active; 'I' for Inactive)
ROOT
ATOM      1  C   UNL d   1       1.518  -0.717  -0.643  0.00  0.00     0.124 A 
ATOM      2  C1  UNL d   1       0.641  -0.270  -1.622  0.00  0.00     0.062 A 
ATOM      3  C2  UNL d   1      -0.732  -0.284  -1.392  0.00  0.00     0.162 A 
ATOM      4  C3  UNL d   1      -1.237  -0.745  -0.176  0.00  0.00    -0.034 A 
ATOM      5  C4  UNL d   1      -0.348  -1.193   0.804  0.00  0.00     0.162 A 
ATOM      6  C5  UNL d   1       1.022  -1.178   0.568  0.00  0.00     0.062 A 
ATOM      7  F   UNL d   1       1.868  -1.609   1.515  0.00  0.00    -0.097 F 
ATOM      8  F1  UNL d   1      -0.800  -1.643   1.984  0.00  0.00    -0.096 F 
ATOM      9  I   UNL d   1      -3.288  -0.767   0.173  0.00  0.00    -0.060 I 
ATOM     10  F2  UNL d   1      -1.556   0.153  -2.356  0.00  0.00    -0.096 F 
ATOM     11  F3  UNL d   1       1.116   0.175  -2.794  0.00  0.00    -0.097 F 
ATOM     12  F4  UNL d   1       2.838  -0.703  -0.869  0.00  0.00    -0.092 F 
ENDROOT
TORSDOF 0
ENDMDL
