MODEL 1
REMARK minimizedAffinity 2.06828046
REMARK minimizedRMSD -1
REMARK  0 active torsions:
REMARK  status: ('A' for Active; 'I' for Inactive)
ROOT
ATOM      1  C   UNL d   1       1.730  -0.230   0.224  0.00  0.00     0.124 A 
ATOM      2  C1  UNL d   1       1.110  -1.150   1.058  0.00  0.00     0.062 A 
ATOM      3  C2  UNL d   1      -0.267  -1.345   0.984  0.00  0.00     0.162 A 
ATOM      4  C3  UNL d   1      -1.032  -0.619   0.071  0.00  0.00    -0.034 A 
ATOM      5  C4  UNL d   1      -0.401   0.305  -0.763  0.00  0.00     0.162 A 
ATOM      6  C5  UNL d   1       0.974   0.496  -0.686  0.00  0.00     0.062 A 
ATOM      7  F   UNL d   1       1.572   1.386  -1.492  0.00  0.00    -0.097 F 
ATOM      8  F1  UNL d   1      -1.108   1.019  -1.652  0.00  0.00    -0.096 F 
ATOM      9  I   UNL d   1      -3.090  -0.908  -0.042  0.00  0.00    -0.060 I 
ATOM     10  F2  UNL d   1      -0.839  -2.240   1.802  0.00  0.00    -0.096 F 
ATOM     11  F3  UNL d   1       1.837  -1.852   1.938  0.00  0.00    -0.097 F 
ATOM     12  F4  UNL d   1       3.054  -0.043   0.298  0.00  0.00    -0.092 F 
ENDROOT
TORSDOF 0
ENDMDL
