MODEL 1
REMARK minimizedAffinity 0.548788667
REMARK minimizedRMSD -1
REMARK  0 active torsions:
REMARK  status: ('A' for Active; 'I' for Inactive)
ROOT
ATOM      1  C   UNL d   1       4.157   3.569  -0.427  0.00  0.00     0.124 A 
ATOM      2  C1  UNL d   1       3.607   2.796  -1.441  0.00  0.00     0.062 A 
ATOM      3  C2  UNL d   1       2.565   1.916  -1.163  0.00  0.00     0.162 A 
ATOM      4  C3  UNL d   1       2.066   1.803   0.135  0.00  0.00    -0.034 A 
ATOM      5  C4  UNL d   1       2.625   2.583   1.149  0.00  0.00     0.162 A 
ATOM      6  C5  UNL d   1       3.665   3.462   0.866  0.00  0.00     0.062 A 
ATOM      7  F   UNL d   1       4.196   4.207   1.847  0.00  0.00    -0.097 F 
ATOM      8  F1  UNL d   1       2.169   2.500   2.408  0.00  0.00    -0.096 F 
ATOM      9  I   UNL d   1       0.509   0.488   0.554  0.00  0.00    -0.060 I 
ATOM     10  F2  UNL d   1       2.053   1.182  -2.162  0.00  0.00    -0.096 F 
ATOM     11  F3  UNL d   1       4.080   2.898  -2.691  0.00  0.00    -0.097 F 
ATOM     12  F4  UNL d   1       5.159   4.415  -0.697  0.00  0.00    -0.092 F 
ENDROOT
TORSDOF 0
ENDMDL
