MODEL 1
REMARK minimizedAffinity -4.62425804
REMARK minimizedRMSD -1
REMARK  0 active torsions:
REMARK  status: ('A' for Active; 'I' for Inactive)
ROOT
ATOM      1  C   UNL d   1       1.656  -0.795   0.446  0.00  0.00     0.124 A 
ATOM      2  C1  UNL d   1       0.908  -1.759   1.107  0.00  0.00     0.062 A 
ATOM      3  C2  UNL d   1      -0.480  -1.761   1.002  0.00  0.00     0.162 A 
ATOM      4  C3  UNL d   1      -1.129  -0.796   0.232  0.00  0.00    -0.034 A 
ATOM      5  C4  UNL d   1      -0.369   0.170  -0.430  0.00  0.00     0.162 A 
ATOM      6  C5  UNL d   1       1.017   0.168  -0.322  0.00  0.00     0.062 A 
ATOM      7  F   UNL d   1       1.739   1.100  -0.961  0.00  0.00    -0.097 F 
ATOM      8  F1  UNL d   1      -0.961   1.113  -1.179  0.00  0.00    -0.096 F 
ATOM      9  I   UNL d   1      -3.204  -0.796   0.072  0.00  0.00    -0.060 I 
ATOM     10  F2  UNL d   1      -1.178  -2.704   1.652  0.00  0.00    -0.096 F 
ATOM     11  F3  UNL d   1       1.523  -2.690   1.850  0.00  0.00    -0.097 F 
ATOM     12  F4  UNL d   1       2.992  -0.795   0.549  0.00  0.00    -0.092 F 
ENDROOT
TORSDOF 0
ENDMDL
