MODEL 1
REMARK minimizedAffinity -2.17899632
REMARK minimizedRMSD -1
REMARK  0 active torsions:
REMARK  status: ('A' for Active; 'I' for Inactive)
ROOT
ATOM      1  C   UNL d   1      -2.099   0.050  -1.547  0.00  0.00     0.124 A 
ATOM      2  C1  UNL d   1      -2.189  -0.578  -0.312  0.00  0.00     0.062 A 
ATOM      3  C2  UNL d   1      -1.075  -0.648   0.520  0.00  0.00     0.162 A 
ATOM      4  C3  UNL d   1       0.138  -0.089   0.120  0.00  0.00    -0.034 A 
ATOM      5  C4  UNL d   1       0.221   0.540  -1.124  0.00  0.00     0.162 A 
ATOM      6  C5  UNL d   1      -0.895   0.608  -1.951  0.00  0.00     0.062 A 
ATOM      7  F   UNL d   1      -0.806   1.215  -3.144  0.00  0.00    -0.097 F 
ATOM      8  F1  UNL d   1       1.372   1.089  -1.539  0.00  0.00    -0.096 F 
ATOM      9  I   UNL d   1       1.806  -0.192   1.361  0.00  0.00    -0.060 I 
ATOM     10  F2  UNL d   1      -1.191  -1.261   1.707  0.00  0.00    -0.096 F 
ATOM     11  F3  UNL d   1      -3.351  -1.119   0.080  0.00  0.00    -0.097 F 
ATOM     12  F4  UNL d   1      -3.172   0.116  -2.346  0.00  0.00    -0.092 F 
ENDROOT
TORSDOF 0
ENDMDL
