MODEL 1
REMARK minimizedAffinity 4.02518892
REMARK minimizedRMSD -1
REMARK  0 active torsions:
REMARK  status: ('A' for Active; 'I' for Inactive)
ROOT
ATOM      1  C   UNL d   1       3.229   3.339   0.107  0.00  0.00     0.124 A 
ATOM      2  C1  UNL d   1       2.542   3.379   1.312  0.00  0.00     0.062 A 
ATOM      3  C2  UNL d   1       1.625   2.380   1.629  0.00  0.00     0.162 A 
ATOM      4  C3  UNL d   1       1.391   1.332   0.739  0.00  0.00    -0.034 A 
ATOM      5  C4  UNL d   1       2.085   1.299  -0.472  0.00  0.00     0.162 A 
ATOM      6  C5  UNL d   1       3.000   2.300  -0.784  0.00  0.00     0.062 A 
ATOM      7  F   UNL d   1       3.662   2.260  -1.949  0.00  0.00    -0.097 F 
ATOM      8  F1  UNL d   1       1.884   0.306  -1.351  0.00  0.00    -0.096 F 
ATOM      9  I   UNL d   1       0.021  -0.163   1.208  0.00  0.00    -0.060 I 
ATOM     10  F2  UNL d   1       0.976   2.444   2.801  0.00  0.00    -0.096 F 
ATOM     11  F3  UNL d   1       2.760   4.382   2.174  0.00  0.00    -0.097 F 
ATOM     12  F4  UNL d   1       4.109   4.302  -0.196  0.00  0.00    -0.092 F 
ENDROOT
TORSDOF 0
ENDMDL
