MODEL 1
REMARK minimizedAffinity 1.26154578
REMARK minimizedRMSD -1
REMARK  0 active torsions:
REMARK  status: ('A' for Active; 'I' for Inactive)
ROOT
ATOM      1  C   UNL d   1       0.634  -0.425  -0.488  0.00  0.00     0.124 A 
ATOM      2  C1  UNL d   1      -0.089   0.715  -0.812  0.00  0.00     0.062 A 
ATOM      3  C2  UNL d   1       0.411   1.975  -0.497  0.00  0.00     0.162 A 
ATOM      4  C3  UNL d   1       1.642   2.102   0.147  0.00  0.00    -0.034 A 
ATOM      5  C4  UNL d   1       2.363   0.951   0.471  0.00  0.00     0.162 A 
ATOM      6  C5  UNL d   1       1.858  -0.306   0.154  0.00  0.00     0.062 A 
ATOM      7  F   UNL d   1       2.558  -1.405   0.468  0.00  0.00    -0.097 F 
ATOM      8  F1  UNL d   1       3.550   1.038   1.090  0.00  0.00    -0.096 F 
ATOM      9  I   UNL d   1       2.394   3.984   0.621  0.00  0.00    -0.060 I 
ATOM     10  F2  UNL d   1      -0.309   3.059  -0.822  0.00  0.00    -0.096 F 
ATOM     11  F3  UNL d   1      -1.273   0.602  -1.431  0.00  0.00    -0.097 F 
ATOM     12  F4  UNL d   1       0.149  -1.636  -0.792  0.00  0.00    -0.092 F 
ENDROOT
TORSDOF 0
ENDMDL
