MODEL 1
REMARK minimizedAffinity -0.998377502
REMARK minimizedRMSD -1
REMARK  0 active torsions:
REMARK  status: ('A' for Active; 'I' for Inactive)
ROOT
ATOM      1  C   UNL d   1      -1.165  -0.754  -0.301  0.00  0.00     0.124 A 
ATOM      2  C1  UNL d   1      -0.086  -1.125   0.489  0.00  0.00     0.062 A 
ATOM      3  C2  UNL d   1       1.066  -0.344   0.511  0.00  0.00     0.162 A 
ATOM      4  C3  UNL d   1       1.145   0.817  -0.258  0.00  0.00    -0.034 A 
ATOM      5  C4  UNL d   1       0.056   1.183  -1.051  0.00  0.00     0.162 A 
ATOM      6  C5  UNL d   1      -1.093   0.400  -1.070  0.00  0.00     0.062 A 
ATOM      7  F   UNL d   1      -2.135   0.760  -1.834  0.00  0.00    -0.097 F 
ATOM      8  F1  UNL d   1       0.098   2.293  -1.802  0.00  0.00    -0.096 F 
ATOM      9  I   UNL d   1       2.866   1.987  -0.226  0.00  0.00    -0.060 I 
ATOM     10  F2  UNL d   1       2.094  -0.727   1.284  0.00  0.00    -0.096 F 
ATOM     11  F3  UNL d   1      -0.152  -2.239   1.231  0.00  0.00    -0.097 F 
ATOM     12  F4  UNL d   1      -2.272  -1.507  -0.322  0.00  0.00    -0.092 F 
ENDROOT
TORSDOF 0
ENDMDL
