MODEL 1
REMARK minimizedAffinity 4.00730228
REMARK minimizedRMSD -1
REMARK  0 active torsions:
REMARK  status: ('A' for Active; 'I' for Inactive)
ROOT
ATOM      1  C   UNL d   1      -1.556  -1.059  -0.403  0.00  0.00     0.124 A 
ATOM      2  C1  UNL d   1      -0.749  -0.997   0.725  0.00  0.00     0.062 A 
ATOM      3  C2  UNL d   1       0.409  -0.226   0.715  0.00  0.00     0.162 A 
ATOM      4  C3  UNL d   1       0.768   0.491  -0.427  0.00  0.00    -0.034 A 
ATOM      5  C4  UNL d   1      -0.049   0.423  -1.558  0.00  0.00     0.162 A 
ATOM      6  C5  UNL d   1      -1.205  -0.349  -1.543  0.00  0.00     0.062 A 
ATOM      7  F   UNL d   1      -1.984  -0.408  -2.633  0.00  0.00    -0.097 F 
ATOM      8  F1  UNL d   1       0.266   1.100  -2.672  0.00  0.00    -0.096 F 
ATOM      9  I   UNL d   1       2.499   1.645  -0.446  0.00  0.00    -0.060 I 
ATOM     10  F2  UNL d   1       1.170  -0.184   1.818  0.00  0.00    -0.096 F 
ATOM     11  F3  UNL d   1      -1.086  -1.683   1.827  0.00  0.00    -0.097 F 
ATOM     12  F4  UNL d   1      -2.670  -1.803  -0.391  0.00  0.00    -0.092 F 
ENDROOT
TORSDOF 0
ENDMDL
