MODEL 1
REMARK minimizedAffinity -1.44239247
REMARK minimizedRMSD -1
REMARK  0 active torsions:
REMARK  status: ('A' for Active; 'I' for Inactive)
ROOT
ATOM      1  C   UNL d   1      -2.336  -0.534  -0.176  0.00  0.00     0.124 A 
ATOM      2  C1  UNL d   1      -1.429  -0.574   0.874  0.00  0.00     0.062 A 
ATOM      3  C2  UNL d   1      -0.152  -0.045   0.716  0.00  0.00     0.162 A 
ATOM      4  C3  UNL d   1       0.227   0.530  -0.497  0.00  0.00    -0.034 A 
ATOM      5  C4  UNL d   1      -0.691   0.566  -1.549  0.00  0.00     0.162 A 
ATOM      6  C5  UNL d   1      -1.966   0.035  -1.386  0.00  0.00     0.062 A 
ATOM      7  F   UNL d   1      -2.841   0.075  -2.402  0.00  0.00    -0.097 F 
ATOM      8  F1  UNL d   1      -0.360   1.111  -2.729  0.00  0.00    -0.096 F 
ATOM      9  I   UNL d   1       2.136   1.323  -0.738  0.00  0.00    -0.060 I 
ATOM     10  F2  UNL d   1       0.704  -0.097   1.747  0.00  0.00    -0.096 F 
ATOM     11  F3  UNL d   1      -1.784  -1.125   2.044  0.00  0.00    -0.097 F 
ATOM     12  F4  UNL d   1      -3.565  -1.045  -0.022  0.00  0.00    -0.092 F 
ENDROOT
TORSDOF 0
ENDMDL
