MODEL 1
REMARK minimizedAffinity 1.0872786
REMARK minimizedRMSD -1
REMARK  0 active torsions:
REMARK  status: ('A' for Active; 'I' for Inactive)
ROOT
ATOM      1  C   UNL d   1      -1.976  -0.559  -0.562  0.00  0.00     0.124 A 
ATOM      2  C1  UNL d   1      -1.413  -0.098  -1.744  0.00  0.00     0.062 A 
ATOM      3  C2  UNL d   1      -0.142   0.470  -1.739  0.00  0.00     0.162 A 
ATOM      4  C3  UNL d   1       0.575   0.578  -0.548  0.00  0.00    -0.034 A 
ATOM      5  C4  UNL d   1       0.002   0.113   0.637  0.00  0.00     0.162 A 
ATOM      6  C5  UNL d   1      -1.269  -0.453   0.627  0.00  0.00     0.062 A 
ATOM      7  F   UNL d   1      -1.811  -0.898   1.769  0.00  0.00    -0.097 F 
ATOM      8  F1  UNL d   1       0.664   0.202   1.800  0.00  0.00    -0.096 F 
ATOM      9  I   UNL d   1       2.476   1.426  -0.536  0.00  0.00    -0.060 I 
ATOM     10  F2  UNL d   1       0.378   0.907  -2.896  0.00  0.00    -0.096 F 
ATOM     11  F3  UNL d   1      -2.095  -0.198  -2.894  0.00  0.00    -0.097 F 
ATOM     12  F4  UNL d   1      -3.200  -1.103  -0.570  0.00  0.00    -0.092 F 
ENDROOT
TORSDOF 0
ENDMDL
