MODEL 1
REMARK minimizedAffinity -2.08851171
REMARK minimizedRMSD -1
REMARK  0 active torsions:
REMARK  status: ('A' for Active; 'I' for Inactive)
ROOT
ATOM      1  C   UNL d   1       2.005  -0.147   0.772  0.00  0.00     0.124 A 
ATOM      2  C1  UNL d   1       1.328  -1.220   1.336  0.00  0.00     0.062 A 
ATOM      3  C2  UNL d   1      -0.035  -1.386   1.107  0.00  0.00     0.162 A 
ATOM      4  C3  UNL d   1      -0.730  -0.478   0.309  0.00  0.00    -0.034 A 
ATOM      5  C4  UNL d   1      -0.043   0.599  -0.254  0.00  0.00     0.162 A 
ATOM      6  C5  UNL d   1       1.319   0.761  -0.022  0.00  0.00     0.062 A 
ATOM      7  F   UNL d   1       1.971   1.798  -0.568  0.00  0.00    -0.097 F 
ATOM      8  F1  UNL d   1      -0.682   1.491  -1.026  0.00  0.00    -0.096 F 
ATOM      9  I   UNL d   1      -2.768  -0.723  -0.035  0.00  0.00    -0.060 I 
ATOM     10  F2  UNL d   1      -0.663  -2.432   1.665  0.00  0.00    -0.096 F 
ATOM     11  F3  UNL d   1       1.989  -2.098   2.104  0.00  0.00    -0.097 F 
ATOM     12  F4  UNL d   1       3.316   0.011   0.994  0.00  0.00    -0.092 F 
ENDROOT
TORSDOF 0
ENDMDL
