MODEL 1
REMARK minimizedAffinity -0.143940911
REMARK minimizedRMSD -1
REMARK  0 active torsions:
REMARK  status: ('A' for Active; 'I' for Inactive)
ROOT
ATOM      1  C   UNL d   1      -1.882  -0.260  -1.542  0.00  0.00     0.124 A 
ATOM      2  C1  UNL d   1      -2.034  -0.827  -0.284  0.00  0.00     0.062 A 
ATOM      3  C2  UNL d   1      -1.019  -0.716   0.662  0.00  0.00     0.162 A 
ATOM      4  C3  UNL d   1       0.158  -0.033   0.353  0.00  0.00    -0.034 A 
ATOM      5  C4  UNL d   1       0.304   0.534  -0.914  0.00  0.00     0.162 A 
ATOM      6  C5  UNL d   1      -0.713   0.419  -1.855  0.00  0.00     0.062 A 
ATOM      7  F   UNL d   1      -0.564   0.968  -3.070  0.00  0.00    -0.097 F 
ATOM      8  F1  UNL d   1       1.423   1.197  -1.243  0.00  0.00    -0.096 F 
ATOM      9  I   UNL d   1       1.679   0.136   1.765  0.00  0.00    -0.060 I 
ATOM     10  F2  UNL d   1      -1.193  -1.273   1.869  0.00  0.00    -0.096 F 
ATOM     11  F3  UNL d   1      -3.162  -1.485   0.021  0.00  0.00    -0.097 F 
ATOM     12  F4  UNL d   1      -2.860  -0.370  -2.450  0.00  0.00    -0.092 F 
ENDROOT
TORSDOF 0
ENDMDL
