MODEL 1
REMARK minimizedAffinity 0.355174989
REMARK minimizedRMSD -1
REMARK  0 active torsions:
REMARK  status: ('A' for Active; 'I' for Inactive)
ROOT
ATOM      1  C   UNL d   1      -1.362  -0.437  -1.054  0.00  0.00     0.124 A 
ATOM      2  C1  UNL d   1      -1.675  -0.365   0.296  0.00  0.00     0.062 A 
ATOM      3  C2  UNL d   1      -0.763   0.176   1.198  0.00  0.00     0.162 A 
ATOM      4  C3  UNL d   1       0.471   0.650   0.752  0.00  0.00    -0.034 A 
ATOM      5  C4  UNL d   1       0.779   0.573  -0.607  0.00  0.00     0.162 A 
ATOM      6  C5  UNL d   1      -0.136   0.032  -1.504  0.00  0.00     0.062 A 
ATOM      7  F   UNL d   1       0.168  -0.038  -2.809  0.00  0.00    -0.097 F 
ATOM      8  F1  UNL d   1       1.956   1.019  -1.070  0.00  0.00    -0.096 F 
ATOM      9  I   UNL d   1       1.837   1.460   2.097  0.00  0.00    -0.060 I 
ATOM     10  F2  UNL d   1      -1.092   0.234   2.497  0.00  0.00    -0.096 F 
ATOM     11  F3  UNL d   1      -2.858  -0.818   0.734  0.00  0.00    -0.097 F 
ATOM     12  F4  UNL d   1      -2.241  -0.959  -1.919  0.00  0.00    -0.092 F 
ENDROOT
TORSDOF 0
ENDMDL
