MODEL 1
REMARK minimizedAffinity -0.0460857563
REMARK minimizedRMSD -1
REMARK  0 active torsions:
REMARK  status: ('A' for Active; 'I' for Inactive)
ROOT
ATOM      1  C   UNL d   1       1.954   0.222   0.483  0.00  0.00     0.124 A 
ATOM      2  C1  UNL d   1       1.331  -0.918   0.972  0.00  0.00     0.062 A 
ATOM      3  C2  UNL d   1       0.001  -1.179   0.654  0.00  0.00     0.162 A 
ATOM      4  C3  UNL d   1      -0.715  -0.299  -0.157  0.00  0.00    -0.034 A 
ATOM      5  C4  UNL d   1      -0.081   0.846  -0.643  0.00  0.00     0.162 A 
ATOM      6  C5  UNL d   1       1.248   1.103  -0.323  0.00  0.00     0.062 A 
ATOM      7  F   UNL d   1       1.849   2.205  -0.796  0.00  0.00    -0.097 F 
ATOM      8  F1  UNL d   1      -0.740   1.714  -1.426  0.00  0.00    -0.096 F 
ATOM      9  I   UNL d   1      -2.703  -0.686  -0.634  0.00  0.00    -0.060 I 
ATOM     10  F2  UNL d   1      -0.575  -2.289   1.140  0.00  0.00    -0.096 F 
ATOM     11  F3  UNL d   1       2.011  -1.770   1.752  0.00  0.00    -0.097 F 
ATOM     12  F4  UNL d   1       3.234   0.471   0.791  0.00  0.00    -0.092 F 
ENDROOT
TORSDOF 0
ENDMDL
