MODEL 1
REMARK minimizedAffinity 2.23851752
REMARK minimizedRMSD -1
REMARK  0 active torsions:
REMARK  status: ('A' for Active; 'I' for Inactive)
ROOT
ATOM      1  C   UNL d   1      -2.541  -0.824  -0.258  0.00  0.00     0.124 A 
ATOM      2  C1  UNL d   1      -1.726  -0.788   0.865  0.00  0.00     0.062 A 
ATOM      3  C2  UNL d   1      -0.425  -0.301   0.771  0.00  0.00     0.162 A 
ATOM      4  C3  UNL d   1       0.068   0.155  -0.452  0.00  0.00    -0.034 A 
ATOM      5  C4  UNL d   1      -0.757   0.114  -1.577  0.00  0.00     0.162 A 
ATOM      6  C5  UNL d   1      -2.056  -0.374  -1.477  0.00  0.00     0.062 A 
ATOM      7  F   UNL d   1      -2.842  -0.408  -2.563  0.00  0.00    -0.097 F 
ATOM      8  F1  UNL d   1      -0.314   0.544  -2.768  0.00  0.00    -0.096 F 
ATOM      9  I   UNL d   1       2.012   0.884  -0.597  0.00  0.00    -0.060 I 
ATOM     10  F2  UNL d   1       0.340  -0.277   1.872  0.00  0.00    -0.096 F 
ATOM     11  F3  UNL d   1      -2.192  -1.224   2.044  0.00  0.00    -0.097 F 
ATOM     12  F4  UNL d   1      -3.791  -1.295  -0.164  0.00  0.00    -0.092 F 
ENDROOT
TORSDOF 0
ENDMDL
