MODEL 1
REMARK minimizedAffinity 10.3711748
REMARK minimizedRMSD -1
REMARK  1 active torsions:
REMARK  status: ('A' for Active; 'I' for Inactive)
REMARK    1  A    between atoms: N_2  and  C1_3 
ROOT
ATOM      1  C1  UNL d   1       0.399  -1.712   1.097  0.00  0.00     0.143 A 
ATOM      2  C2  UNL d   1      -0.932  -1.287   1.031  0.00  0.00    -0.057 A 
ATOM      3  C3  UNL d   1      -1.761  -1.660  -0.034  0.00  0.00     0.033 A 
ATOM      4  C4  UNL d   1      -1.264  -2.444  -1.069  0.00  0.00    -0.042 A 
ATOM      5  C5  UNL d   1       0.063  -2.858  -1.037  0.00  0.00     0.033 A 
ATOM      6  C6  UNL d   1       0.885  -2.488   0.032  0.00  0.00    -0.057 A 
ENDROOT
BRANCH   1   7
ATOM      7  N   UNL d   1       1.301  -1.294   2.079  0.00  0.00    -0.732 N 
ATOM      8  C   UNL d   1       1.558  -2.116   3.242  0.00  0.00     0.284 C 
ATOM      9  H3  UNL d   1       2.133  -0.862   1.683  0.00  0.00     0.395 HD
ENDBRANCH   1   7
TORSDOF 1
ENDMDL
