MODEL 1
REMARK minimizedAffinity 0.173441291
REMARK minimizedRMSD -1
REMARK  1 active torsions:
REMARK  status: ('A' for Active; 'I' for Inactive)
REMARK    1  A    between atoms: N_2  and  C1_3 
ROOT
ATOM      1  C1  UNL d   1      -0.392  -1.913   0.288  0.00  0.00     0.143 A 
ATOM      2  C2  UNL d   1      -1.346  -2.509  -0.544  0.00  0.00    -0.057 A 
ATOM      3  C3  UNL d   1      -1.033  -3.629  -1.322  0.00  0.00     0.033 A 
ATOM      4  C4  UNL d   1       0.254  -4.158  -1.304  0.00  0.00    -0.042 A 
ATOM      5  C5  UNL d   1       1.225  -3.568  -0.504  0.00  0.00     0.033 A 
ATOM      6  C6  UNL d   1       0.904  -2.453   0.276  0.00  0.00    -0.057 A 
ENDROOT
BRANCH   1   7
ATOM      7  N   UNL d   1      -0.614  -0.738   1.011  0.00  0.00    -0.732 N 
ATOM      8  C   UNL d   1      -0.316   0.553   0.429  0.00  0.00     0.284 C 
ATOM      9  H3  UNL d   1      -1.484  -0.766   1.538  0.00  0.00     0.395 HD
ENDBRANCH   1   7
TORSDOF 1
ENDMDL
