MODEL 1
REMARK minimizedAffinity 0.152048931
REMARK minimizedRMSD -1
REMARK  1 active torsions:
REMARK  status: ('A' for Active; 'I' for Inactive)
REMARK    1  A    between atoms: N_2  and  C1_3 
ROOT
ATOM      1  C1  UNL d   1       2.044  -0.233   2.758  0.00  0.00     0.143 A 
ATOM      2  C2  UNL d   1       1.163  -1.122   2.132  0.00  0.00    -0.057 A 
ATOM      3  C3  UNL d   1       0.745  -2.298   2.767  0.00  0.00     0.033 A 
ATOM      4  C4  UNL d   1       1.225  -2.620   4.032  0.00  0.00    -0.042 A 
ATOM      5  C5  UNL d   1       2.121  -1.764   4.663  0.00  0.00     0.033 A 
ATOM      6  C6  UNL d   1       2.530  -0.588   4.026  0.00  0.00    -0.057 A 
ENDROOT
BRANCH   1   7
ATOM      7  N   UNL d   1       2.573   0.902   2.139  0.00  0.00    -0.732 N 
ATOM      8  C   UNL d   1       2.331   1.157   0.735  0.00  0.00     0.284 C 
ATOM      9  H3  UNL d   1       2.513   1.729   2.728  0.00  0.00     0.395 HD
ENDBRANCH   1   7
TORSDOF 1
ENDMDL
