MODEL 1
REMARK minimizedAffinity 3.16105628
REMARK minimizedRMSD -1
REMARK  1 active torsions:
REMARK  status: ('A' for Active; 'I' for Inactive)
REMARK    1  A    between atoms: N_2  and  C1_3 
ROOT
ATOM      1  C1  UNL d   1      -0.464  -1.852  -0.076  0.00  0.00     0.143 A 
ATOM      2  C2  UNL d   1      -1.230  -2.348  -1.136  0.00  0.00    -0.057 A 
ATOM      3  C3  UNL d   1      -0.805  -3.453  -1.884  0.00  0.00     0.033 A 
ATOM      4  C4  UNL d   1       0.412  -4.064  -1.602  0.00  0.00    -0.042 A 
ATOM      5  C5  UNL d   1       1.202  -3.572  -0.569  0.00  0.00     0.033 A 
ATOM      6  C6  UNL d   1       0.768  -2.473   0.179  0.00  0.00    -0.057 A 
ENDROOT
BRANCH   1   7
ATOM      7  N   UNL d   1      -0.785  -0.697   0.642  0.00  0.00    -0.732 N 
ATOM      8  C   UNL d   1      -0.490   0.613   0.101  0.00  0.00     0.284 C 
ATOM      9  H3  UNL d   1      -1.691  -0.763   1.099  0.00  0.00     0.395 HD
ENDBRANCH   1   7
TORSDOF 1
ENDMDL
