MODEL 1
REMARK minimizedAffinity 0.759428144
REMARK minimizedRMSD -1
REMARK  1 active torsions:
REMARK  status: ('A' for Active; 'I' for Inactive)
REMARK    1  A    between atoms: N_2  and  C1_3 
ROOT
ATOM      1  C1  UNL d   1      -3.034  -1.321   2.946  0.00  0.00     0.143 A 
ATOM      2  C2  UNL d   1      -4.001  -2.205   3.436  0.00  0.00    -0.057 A 
ATOM      3  C3  UNL d   1      -4.724  -1.918   4.600  0.00  0.00     0.033 A 
ATOM      4  C4  UNL d   1      -4.470  -0.752   5.314  0.00  0.00    -0.042 A 
ATOM      5  C5  UNL d   1      -3.495   0.129   4.860  0.00  0.00     0.033 A 
ATOM      6  C6  UNL d   1      -2.782  -0.160   3.692  0.00  0.00    -0.057 A 
ENDROOT
BRANCH   1   7
ATOM      7  N   UNL d   1      -2.213  -1.596   1.849  0.00  0.00    -0.732 N 
ATOM      8  C   UNL d   1      -0.823  -1.949   2.039  0.00  0.00     0.284 C 
ATOM      9  H3  UNL d   1      -2.688  -2.146   1.137  0.00  0.00     0.395 HD
ENDBRANCH   1   7
TORSDOF 1
ENDMDL
