MODEL 1
REMARK minimizedAffinity 6.52285242
REMARK minimizedRMSD -1
REMARK  1 active torsions:
REMARK  status: ('A' for Active; 'I' for Inactive)
REMARK    1  A    between atoms: N_2  and  C1_3 
ROOT
ATOM      1  C1  UNL d   1      -5.998  -3.759   3.465  0.00  0.00     0.143 A 
ATOM      2  C2  UNL d   1      -5.981  -5.149   3.315  0.00  0.00    -0.057 A 
ATOM      3  C3  UNL d   1      -5.994  -6.000   4.427  0.00  0.00     0.033 A 
ATOM      4  C4  UNL d   1      -5.994  -5.472   5.714  0.00  0.00    -0.042 A 
ATOM      5  C5  UNL d   1      -5.987  -4.092   5.887  0.00  0.00     0.033 A 
ATOM      6  C6  UNL d   1      -5.981  -3.248   4.773  0.00  0.00    -0.057 A 
ENDROOT
BRANCH   1   7
ATOM      7  N   UNL d   1      -5.887  -2.860   2.401  0.00  0.00    -0.732 N 
ATOM      8  C   UNL d   1      -4.841  -1.860   2.387  0.00  0.00     0.284 C 
ATOM      9  H3  UNL d   1      -6.051  -3.303   1.500  0.00  0.00     0.395 HD
ENDBRANCH   1   7
TORSDOF 1
ENDMDL
