MODEL 1
REMARK minimizedAffinity -1.33147645
REMARK minimizedRMSD -1
REMARK  1 active torsions:
REMARK  status: ('A' for Active; 'I' for Inactive)
REMARK    1  A    between atoms: N_2  and  C1_3 
ROOT
ATOM      1  C1  UNL d   1      -3.503   0.339   1.200  0.00  0.00     0.143 A 
ATOM      2  C2  UNL d   1      -2.434  -0.536   0.979  0.00  0.00    -0.057 A 
ATOM      3  C3  UNL d   1      -1.447  -0.737   1.951  0.00  0.00     0.033 A 
ATOM      4  C4  UNL d   1      -1.496  -0.042   3.154  0.00  0.00    -0.042 A 
ATOM      5  C5  UNL d   1      -2.535   0.851   3.387  0.00  0.00     0.033 A 
ATOM      6  C6  UNL d   1      -3.522   1.043   2.415  0.00  0.00    -0.057 A 
ENDROOT
BRANCH   1   7
ATOM      7  N   UNL d   1      -4.462   0.655   0.235  0.00  0.00    -0.732 N 
ATOM      8  C   UNL d   1      -4.224   0.368  -1.163  0.00  0.00     0.284 C 
ATOM      9  H3  UNL d   1      -5.409   0.450   0.546  0.00  0.00     0.395 HD
ENDBRANCH   1   7
TORSDOF 1
ENDMDL
