MODEL 1
REMARK minimizedAffinity 5.37900877
REMARK minimizedRMSD -1
REMARK  1 active torsions:
REMARK  status: ('A' for Active; 'I' for Inactive)
REMARK    1  A    between atoms: N_2  and  C1_3 
ROOT
ATOM      1  C1  UNL d   1      -1.977  -2.919   0.881  0.00  0.00     0.143 A 
ATOM      2  C2  UNL d   1      -2.290  -1.619   1.292  0.00  0.00    -0.057 A 
ATOM      3  C3  UNL d   1      -1.338  -0.807   1.919  0.00  0.00     0.033 A 
ATOM      4  C4  UNL d   1      -0.059  -1.292   2.174  0.00  0.00    -0.042 A 
ATOM      5  C5  UNL d   1       0.267  -2.590   1.797  0.00  0.00     0.033 A 
ATOM      6  C6  UNL d   1      -0.687  -3.394   1.165  0.00  0.00    -0.057 A 
ENDROOT
BRANCH   1   7
ATOM      7  N   UNL d   1      -2.908  -3.810   0.342  0.00  0.00    -0.732 N 
ATOM      8  C   UNL d   1      -3.883  -4.461   1.191  0.00  0.00     0.284 C 
ATOM      9  H3  UNL d   1      -3.280  -3.491  -0.550  0.00  0.00     0.395 HD
ENDBRANCH   1   7
TORSDOF 1
ENDMDL
