MODEL 1
REMARK minimizedAffinity 0.70919764
REMARK minimizedRMSD -1
REMARK  1 active torsions:
REMARK  status: ('A' for Active; 'I' for Inactive)
REMARK    1  A    between atoms: N_2  and  C1_3 
ROOT
ATOM      1  C1  UNL d   1      -5.567  -3.603   2.510  0.00  0.00     0.143 A 
ATOM      2  C2  UNL d   1      -5.799  -3.359   3.868  0.00  0.00    -0.057 A 
ATOM      3  C3  UNL d   1      -5.999  -4.410   4.771  0.00  0.00     0.033 A 
ATOM      4  C4  UNL d   1      -5.999  -5.728   4.325  0.00  0.00    -0.042 A 
ATOM      5  C5  UNL d   1      -5.796  -5.993   2.975  0.00  0.00     0.033 A 
ATOM      6  C6  UNL d   1      -5.590  -4.939   2.079  0.00  0.00    -0.057 A 
ENDROOT
BRANCH   1   7
ATOM      7  N   UNL d   1      -5.460  -2.597   1.547  0.00  0.00    -0.732 N 
ATOM      8  C   UNL d   1      -4.299  -1.733   1.509  0.00  0.00     0.284 C 
ATOM      9  H3  UNL d   1      -5.781  -2.901   0.630  0.00  0.00     0.395 HD
ENDBRANCH   1   7
TORSDOF 1
ENDMDL
