MODEL 1
REMARK minimizedAffinity 9.03886604
REMARK minimizedRMSD -1
REMARK  1 active torsions:
REMARK  status: ('A' for Active; 'I' for Inactive)
REMARK    1  A    between atoms: N_2  and  C1_3 
ROOT
ATOM      1  C1  UNL d   1       2.633   1.855  -1.398  0.00  0.00     0.143 A 
ATOM      2  C2  UNL d   1       1.543   2.158  -2.222  0.00  0.00    -0.057 A 
ATOM      3  C3  UNL d   1       1.697   2.947  -3.368  0.00  0.00     0.033 A 
ATOM      4  C4  UNL d   1       2.943   3.473  -3.696  0.00  0.00    -0.042 A 
ATOM      5  C5  UNL d   1       4.035   3.205  -2.878  0.00  0.00     0.033 A 
ATOM      6  C6  UNL d   1       3.876   2.411  -1.738  0.00  0.00    -0.057 A 
ENDROOT
BRANCH   1   7
ATOM      7  N   UNL d   1       2.526   1.158  -0.192  0.00  0.00    -0.732 N 
ATOM      8  C   UNL d   1       3.331   1.533   0.950  0.00  0.00     0.284 C 
ATOM      9  H3  UNL d   1       1.562   0.924   0.037  0.00  0.00     0.395 HD
ENDBRANCH   1   7
TORSDOF 1
ENDMDL
