MODEL 1
REMARK minimizedAffinity 9.10239029
REMARK minimizedRMSD -1
REMARK  1 active torsions:
REMARK  status: ('A' for Active; 'I' for Inactive)
REMARK    1  A    between atoms: N_2  and  C1_3 
ROOT
ATOM      1  C1  UNL d   1       3.497   3.215  -3.178  0.00  0.00     0.143 A 
ATOM      2  C2  UNL d   1       4.236   3.166  -4.365  0.00  0.00    -0.057 A 
ATOM      3  C3  UNL d   1       5.482   3.795  -4.472  0.00  0.00     0.033 A 
ATOM      4  C4  UNL d   1       5.999   4.513  -3.399  0.00  0.00    -0.042 A 
ATOM      5  C5  UNL d   1       5.271   4.597  -2.217  0.00  0.00     0.033 A 
ATOM      6  C6  UNL d   1       4.031   3.960  -2.114  0.00  0.00    -0.057 A 
ENDROOT
BRANCH   1   7
ATOM      7  N   UNL d   1       2.209   2.693  -3.041  0.00  0.00    -0.732 N 
ATOM      8  C   UNL d   1       1.887   1.803  -1.946  0.00  0.00     0.284 C 
ATOM      9  H3  UNL d   1       1.487   3.381  -3.243  0.00  0.00     0.395 HD
ENDBRANCH   1   7
TORSDOF 1
ENDMDL
