MODEL 1
REMARK minimizedAffinity 9.35867691
REMARK minimizedRMSD -1
REMARK  1 active torsions:
REMARK  status: ('A' for Active; 'I' for Inactive)
REMARK    1  A    between atoms: N_2  and  C1_3 
ROOT
ATOM      1  C1  UNL d   1      -2.005  -0.346   2.329  0.00  0.00     0.143 A 
ATOM      2  C2  UNL d   1      -0.687  -0.811   2.384  0.00  0.00    -0.057 A 
ATOM      3  C3  UNL d   1      -0.353  -2.100   1.951  0.00  0.00     0.033 A 
ATOM      4  C4  UNL d   1      -1.341  -2.959   1.480  0.00  0.00    -0.042 A 
ATOM      5  C5  UNL d   1      -2.661  -2.527   1.440  0.00  0.00     0.033 A 
ATOM      6  C6  UNL d   1      -2.987  -1.236   1.868  0.00  0.00    -0.057 A 
ENDROOT
BRANCH   1   7
ATOM      7  N   UNL d   1      -2.415   0.889   2.837  0.00  0.00    -0.732 N 
ATOM      8  C   UNL d   1      -2.611   1.074   4.259  0.00  0.00     0.284 C 
ATOM      9  H3  UNL d   1      -1.955   1.671   2.376  0.00  0.00     0.395 HD
ENDBRANCH   1   7
TORSDOF 1
ENDMDL
