MODEL 1
REMARK minimizedAffinity 10.767334
REMARK minimizedRMSD -1
REMARK  1 active torsions:
REMARK  status: ('A' for Active; 'I' for Inactive)
REMARK    1  A    between atoms: N_2  and  C1_3 
ROOT
ATOM      1  C1  UNL d   1      -2.553  -1.951   2.151  0.00  0.00     0.143 A 
ATOM      2  C2  UNL d   1      -2.441  -1.067   1.072  0.00  0.00    -0.057 A 
ATOM      3  C3  UNL d   1      -2.154   0.289   1.272  0.00  0.00     0.033 A 
ATOM      4  C4  UNL d   1      -2.004   0.792   2.560  0.00  0.00    -0.042 A 
ATOM      5  C5  UNL d   1      -2.137  -0.064   3.648  0.00  0.00     0.033 A 
ATOM      6  C6  UNL d   1      -2.416  -1.418   3.442  0.00  0.00    -0.057 A 
ENDROOT
BRANCH   1   7
ATOM      7  N   UNL d   1      -2.934  -3.289   2.023  0.00  0.00    -0.732 N 
ATOM      8  C   UNL d   1      -4.145  -3.774   2.649  0.00  0.00     0.284 C 
ATOM      9  H3  UNL d   1      -2.778  -3.649   1.084  0.00  0.00     0.395 HD
ENDBRANCH   1   7
TORSDOF 1
ENDMDL
