MODEL 1
REMARK minimizedAffinity 3.73202443
REMARK minimizedRMSD -1
REMARK  1 active torsions:
REMARK  status: ('A' for Active; 'I' for Inactive)
REMARK    1  A    between atoms: N_2  and  C1_3 
ROOT
ATOM      1  C1  UNL d   1      -4.506  -4.995   3.432  0.00  0.00     0.143 A 
ATOM      2  C2  UNL d   1      -5.402  -6.000   3.812  0.00  0.00    -0.057 A 
ATOM      3  C3  UNL d   1      -6.000  -5.999   5.078  0.00  0.00     0.033 A 
ATOM      4  C4  UNL d   1      -5.688  -5.006   6.000  0.00  0.00    -0.042 A 
ATOM      5  C5  UNL d   1      -4.781  -4.011   5.653  0.00  0.00     0.033 A 
ATOM      6  C6  UNL d   1      -4.193  -4.013   4.385  0.00  0.00    -0.057 A 
ENDROOT
BRANCH   1   7
ATOM      7  N   UNL d   1      -3.803  -4.994   2.224  0.00  0.00    -0.732 N 
ATOM      8  C   UNL d   1      -2.982  -3.864   1.850  0.00  0.00     0.284 C 
ATOM      9  H3  UNL d   1      -3.385  -5.899   2.018  0.00  0.00     0.395 HD
ENDBRANCH   1   7
TORSDOF 1
ENDMDL
