MODEL 1
REMARK minimizedAffinity -3.48763394
REMARK minimizedRMSD -1
REMARK  0 active torsions:
REMARK  status: ('A' for Active; 'I' for Inactive)
ROOT
ATOM      1  C   UNL d   1       1.757  -0.356   1.881  0.00  0.00     0.078 C 
ATOM      2  C1  UNL d   1       1.138  -0.310   0.516  0.00  0.00    -0.077 A 
ATOM      3  C2  UNL d   1       1.766  -0.912  -0.582  0.00  0.00    -0.001 A 
ATOM      4  C3  UNL d   1       1.183  -0.852  -1.848  0.00  0.00     0.003 A 
ATOM      5  C4  UNL d   1      -0.030  -0.191  -2.030  0.00  0.00    -0.005 A 
ATOM      6  C5  UNL d   1      -0.661   0.413  -0.945  0.00  0.00     0.003 A 
ATOM      7  C6  UNL d   1      -0.080   0.355   0.323  0.00  0.00    -0.001 A 
ENDROOT
TORSDOF 0
ENDMDL
