MODEL 1
REMARK minimizedAffinity -2.88540292
REMARK minimizedRMSD -1
REMARK  0 active torsions:
REMARK  status: ('A' for Active; 'I' for Inactive)
ROOT
ATOM      1  C   UNL d   1       3.794   5.993   2.288  0.00  0.00     0.078 C 
ATOM      2  C1  UNL d   1       2.954   5.999   3.530  0.00  0.00    -0.077 A 
ATOM      3  C2  UNL d   1       3.544   5.993   4.800  0.00  0.00    -0.001 A 
ATOM      4  C3  UNL d   1       2.750   5.989   5.947  0.00  0.00     0.003 A 
ATOM      5  C4  UNL d   1       1.361   5.991   5.837  0.00  0.00    -0.005 A 
ATOM      6  C5  UNL d   1       0.765   5.995   4.578  0.00  0.00     0.003 A 
ATOM      7  C6  UNL d   1       1.557   5.998   3.429  0.00  0.00    -0.001 A 
ENDROOT
TORSDOF 0
ENDMDL
