MODEL 1
REMARK minimizedAffinity -3.42483616
REMARK minimizedRMSD -1
REMARK  0 active torsions:
REMARK  status: ('A' for Active; 'I' for Inactive)
ROOT
ATOM      1  C   UNL d   1      -1.322  -2.858   3.186  0.00  0.00     0.078 C 
ATOM      2  C1  UNL d   1      -0.712  -1.712   2.435  0.00  0.00    -0.077 A 
ATOM      3  C2  UNL d   1      -1.433  -1.036   1.442  0.00  0.00    -0.001 A 
ATOM      4  C3  UNL d   1      -0.850   0.022   0.744  0.00  0.00     0.003 A 
ATOM      5  C4  UNL d   1       0.457   0.413   1.029  0.00  0.00    -0.005 A 
ATOM      6  C5  UNL d   1       1.183  -0.255   2.013  0.00  0.00     0.003 A 
ATOM      7  C6  UNL d   1       0.601  -1.314   2.713  0.00  0.00    -0.001 A 
ENDROOT
TORSDOF 0
ENDMDL
