MODEL 1
REMARK minimizedAffinity -2.2997632
REMARK minimizedRMSD -1
REMARK  0 active torsions:
REMARK  status: ('A' for Active; 'I' for Inactive)
ROOT
ATOM      1  C   UNL d   1      -1.280   1.094  -2.572  0.00  0.00     0.078 C 
ATOM      2  C1  UNL d   1      -0.303   0.477  -1.616  0.00  0.00    -0.077 A 
ATOM      3  C2  UNL d   1      -0.334   0.789  -0.251  0.00  0.00    -0.001 A 
ATOM      4  C3  UNL d   1       0.588   0.215   0.625  0.00  0.00     0.003 A 
ATOM      5  C4  UNL d   1       1.548  -0.674   0.147  0.00  0.00    -0.005 A 
ATOM      6  C5  UNL d   1       1.588  -0.989  -1.210  0.00  0.00     0.003 A 
ATOM      7  C6  UNL d   1       0.667  -0.416  -2.088  0.00  0.00    -0.001 A 
ENDROOT
TORSDOF 0
ENDMDL
