MODEL 1
REMARK minimizedAffinity -2.73446107
REMARK minimizedRMSD -1
REMARK  0 active torsions:
REMARK  status: ('A' for Active; 'I' for Inactive)
ROOT
ATOM      1  C   UNL d   1       1.490  -1.136   2.370  0.00  0.00     0.078 C 
ATOM      2  C1  UNL d   1       0.654  -0.698   1.204  0.00  0.00    -0.077 A 
ATOM      3  C2  UNL d   1       1.249  -0.281   0.007  0.00  0.00    -0.001 A 
ATOM      4  C3  UNL d   1       0.459   0.134  -1.066  0.00  0.00     0.003 A 
ATOM      5  C4  UNL d   1      -0.930   0.137  -0.953  0.00  0.00    -0.005 A 
ATOM      6  C5  UNL d   1      -1.531  -0.273   0.236  0.00  0.00     0.003 A 
ATOM      7  C6  UNL d   1      -0.742  -0.689   1.310  0.00  0.00    -0.001 A 
ENDROOT
TORSDOF 0
ENDMDL
