MODEL 1
REMARK minimizedAffinity -4.99155331
REMARK minimizedRMSD -1
REMARK  0 active torsions:
REMARK  status: ('A' for Active; 'I' for Inactive)
ROOT
ATOM      1  C   UNL d   1      -3.041   2.514  -2.005  0.00  0.00     0.078 C 
ATOM      2  C1  UNL d   1      -1.615   2.052  -1.946  0.00  0.00    -0.077 A 
ATOM      3  C2  UNL d   1      -1.250   0.934  -1.188  0.00  0.00    -0.001 A 
ATOM      4  C3  UNL d   1       0.082   0.521  -1.135  0.00  0.00     0.003 A 
ATOM      5  C4  UNL d   1       1.060   1.222  -1.837  0.00  0.00    -0.005 A 
ATOM      6  C5  UNL d   1       0.707   2.338  -2.592  0.00  0.00     0.003 A 
ATOM      7  C6  UNL d   1      -0.625   2.752  -2.647  0.00  0.00    -0.001 A 
ENDROOT
TORSDOF 0
ENDMDL
