MODEL 1
REMARK minimizedAffinity -0.423201382
REMARK minimizedRMSD -1
REMARK  0 active torsions:
REMARK  status: ('A' for Active; 'I' for Inactive)
ROOT
ATOM      1  C   UNL d   1       1.638  -1.428  -1.430  0.00  0.00     0.078 C 
ATOM      2  C1  UNL d   1       1.558  -1.342   0.065  0.00  0.00    -0.077 A 
ATOM      3  C2  UNL d   1       0.324  -1.389   0.725  0.00  0.00    -0.001 A 
ATOM      4  C3  UNL d   1       0.265  -1.299   2.117  0.00  0.00     0.003 A 
ATOM      5  C4  UNL d   1       1.435  -1.159   2.860  0.00  0.00    -0.005 A 
ATOM      6  C5  UNL d   1       2.667  -1.109   2.211  0.00  0.00     0.003 A 
ATOM      7  C6  UNL d   1       2.729  -1.199   0.820  0.00  0.00    -0.001 A 
ENDROOT
TORSDOF 0
ENDMDL
