MODEL 1
REMARK minimizedAffinity -3.46516633
REMARK minimizedRMSD -1
REMARK  1 active torsions:
REMARK  status: ('A' for Active; 'I' for Inactive)
REMARK    1  A    between atoms: C3_4  and  O_7 
ROOT
ATOM      1  C   UNL d   1      -1.178  -3.463  -1.723  0.00  0.00    -0.033 A 
ATOM      2  C1  UNL d   1      -0.543  -2.629  -2.646  0.00  0.00     0.039 A 
ATOM      3  C2  UNL d   1      -0.158  -1.339  -2.275  0.00  0.00    -0.080 A 
ATOM      4  C3  UNL d   1      -0.413  -0.896  -0.980  0.00  0.00     0.150 A 
ATOM      5  C4  UNL d   1      -1.041  -1.723  -0.054  0.00  0.00    -0.007 A 
ATOM      6  C5  UNL d   1      -1.426  -3.010  -0.426  0.00  0.00     0.039 A 
ENDROOT
BRANCH   4   7
ATOM      7  O   UNL d   1      -0.060   0.356  -0.573  0.00  0.00    -0.526 OA
ATOM      8  H5  UNL d   1       0.339   0.823  -1.326  0.00  0.00     0.418 HD
ENDBRANCH   4   7
TORSDOF 1
ENDMDL
