MODEL 1
REMARK minimizedAffinity -2.25983953
REMARK minimizedRMSD -1
REMARK  1 active torsions:
REMARK  status: ('A' for Active; 'I' for Inactive)
REMARK    1  A    between atoms: C3_4  and  O_7 
ROOT
ATOM      1  C   UNL d   1       0.126   1.429   0.660  0.00  0.00    -0.033 A 
ATOM      2  C1  UNL d   1      -0.199   1.006   1.950  0.00  0.00     0.039 A 
ATOM      3  C2  UNL d   1      -0.599  -0.313   2.174  0.00  0.00    -0.080 A 
ATOM      4  C3  UNL d   1      -0.669  -1.197   1.101  0.00  0.00     0.150 A 
ATOM      5  C4  UNL d   1      -0.342  -0.783  -0.187  0.00  0.00    -0.007 A 
ATOM      6  C5  UNL d   1       0.056   0.535  -0.408  0.00  0.00     0.039 A 
ENDROOT
BRANCH   4   7
ATOM      7  O   UNL d   1      -1.058  -2.493   1.269  0.00  0.00    -0.526 OA
ATOM      8  H5  UNL d   1      -1.280  -2.629   2.205  0.00  0.00     0.418 HD
ENDBRANCH   4   7
TORSDOF 1
ENDMDL
