MODEL 1
REMARK minimizedAffinity -3.69890642
REMARK minimizedRMSD -1
REMARK  1 active torsions:
REMARK  status: ('A' for Active; 'I' for Inactive)
REMARK    1  A    between atoms: C3_4  and  O_7 
ROOT
ATOM      1  C   UNL d   1      -0.032   1.194  -0.021  0.00  0.00    -0.033 A 
ATOM      2  C1  UNL d   1      -0.801   0.860   1.096  0.00  0.00     0.039 A 
ATOM      3  C2  UNL d   1      -0.956  -0.477   1.464  0.00  0.00    -0.080 A 
ATOM      4  C3  UNL d   1      -0.338  -1.470   0.709  0.00  0.00     0.150 A 
ATOM      5  C4  UNL d   1       0.432  -1.144  -0.402  0.00  0.00    -0.007 A 
ATOM      6  C5  UNL d   1       0.586   0.192  -0.769  0.00  0.00     0.039 A 
ENDROOT
BRANCH   4   7
ATOM      7  O   UNL d   1      -0.465  -2.790   1.026  0.00  0.00    -0.526 OA
ATOM      8  H5  UNL d   1      -1.049  -2.866   1.799  0.00  0.00     0.418 HD
ENDBRANCH   4   7
TORSDOF 1
ENDMDL
