MODEL 1
REMARK minimizedAffinity -3.59241128
REMARK minimizedRMSD -1
REMARK  1 active torsions:
REMARK  status: ('A' for Active; 'I' for Inactive)
REMARK    1  A    between atoms: C3_4  and  O_7 
ROOT
ATOM      1  C   UNL d   1      -1.312  -1.927   1.189  0.00  0.00    -0.033 A 
ATOM      2  C1  UNL d   1      -0.481  -1.471   2.213  0.00  0.00     0.039 A 
ATOM      3  C2  UNL d   1       0.130  -0.219   2.113  0.00  0.00    -0.080 A 
ATOM      4  C3  UNL d   1      -0.100   0.565   0.986  0.00  0.00     0.150 A 
ATOM      5  C4  UNL d   1      -0.930   0.119  -0.036  0.00  0.00    -0.007 A 
ATOM      6  C5  UNL d   1      -1.538  -1.132   0.065  0.00  0.00     0.039 A 
ENDROOT
BRANCH   4   7
ATOM      7  O   UNL d   1       0.478   1.792   0.842  0.00  0.00    -0.526 OA
ATOM      8  H5  UNL d   1       1.048   1.956   1.611  0.00  0.00     0.418 HD
ENDBRANCH   4   7
TORSDOF 1
ENDMDL
