MODEL 1
REMARK minimizedAffinity -3.30116129
REMARK minimizedRMSD -1
REMARK  1 active torsions:
REMARK  status: ('A' for Active; 'I' for Inactive)
REMARK    1  A    between atoms: C3_4  and  O_7 
ROOT
ATOM      1  C   UNL d   1      -0.784  -2.556  -0.516  0.00  0.00    -0.033 A 
ATOM      2  C1  UNL d   1      -0.298  -1.858  -1.624  0.00  0.00     0.039 A 
ATOM      3  C2  UNL d   1       0.008  -0.500  -1.516  0.00  0.00    -0.080 A 
ATOM      4  C3  UNL d   1      -0.176   0.147  -0.298  0.00  0.00     0.150 A 
ATOM      5  C4  UNL d   1      -0.656  -0.543   0.811  0.00  0.00    -0.007 A 
ATOM      6  C5  UNL d   1      -0.961  -1.899   0.701  0.00  0.00     0.039 A 
ENDROOT
BRANCH   4   7
ATOM      7  O   UNL d   1       0.104   1.473  -0.145  0.00  0.00    -0.526 OA
ATOM      8  H5  UNL d   1       0.400   1.825  -1.002  0.00  0.00     0.418 HD
ENDBRANCH   4   7
TORSDOF 1
ENDMDL
