MODEL 1
REMARK minimizedAffinity -2.88699722
REMARK minimizedRMSD -1
REMARK  1 active torsions:
REMARK  status: ('A' for Active; 'I' for Inactive)
REMARK    1  A    between atoms: C3_4  and  O_7 
ROOT
ATOM      1  C   UNL d   1      -0.505  -2.694   0.057  0.00  0.00    -0.033 A 
ATOM      2  C1  UNL d   1      -0.854  -2.035   1.238  0.00  0.00     0.039 A 
ATOM      3  C2  UNL d   1      -0.528  -0.688   1.410  0.00  0.00    -0.080 A 
ATOM      4  C3  UNL d   1       0.145  -0.013   0.396  0.00  0.00     0.150 A 
ATOM      5  C4  UNL d   1       0.492  -0.662  -0.785  0.00  0.00    -0.007 A 
ATOM      6  C5  UNL d   1       0.167  -2.007  -0.954  0.00  0.00     0.039 A 
ENDROOT
BRANCH   4   7
ATOM      7  O   UNL d   1       0.488   1.300   0.520  0.00  0.00    -0.526 OA
ATOM      8  H5  UNL d   1       0.210   1.609   1.398  0.00  0.00     0.418 HD
ENDBRANCH   4   7
TORSDOF 1
ENDMDL
