MODEL 1
REMARK minimizedAffinity -3.07983184
REMARK minimizedRMSD -1
REMARK  1 active torsions:
REMARK  status: ('A' for Active; 'I' for Inactive)
REMARK    1  A    between atoms: C3_4  and  O_7 
ROOT
ATOM      1  C   UNL d   1      -0.702  -0.555   1.252  0.00  0.00    -0.033 A 
ATOM      2  C1  UNL d   1      -0.085   0.233   0.279  0.00  0.00     0.039 A 
ATOM      3  C2  UNL d   1       0.189  -0.299  -0.983  0.00  0.00    -0.080 A 
ATOM      4  C3  UNL d   1      -0.159  -1.618  -1.258  0.00  0.00     0.150 A 
ATOM      5  C4  UNL d   1      -0.778  -2.408  -0.295  0.00  0.00    -0.007 A 
ATOM      6  C5  UNL d   1      -1.050  -1.875   0.965  0.00  0.00     0.039 A 
ENDROOT
BRANCH   4   7
ATOM      7  O   UNL d   1       0.092  -2.183  -2.473  0.00  0.00    -0.526 OA
ATOM      8  H5  UNL d   1       0.549  -1.529  -3.028  0.00  0.00     0.418 HD
ENDBRANCH   4   7
TORSDOF 1
ENDMDL
