MODEL 1
REMARK minimizedAffinity -1.00608587
REMARK minimizedRMSD -1
REMARK  1 active torsions:
REMARK  status: ('A' for Active; 'I' for Inactive)
REMARK    1  A    between atoms: C3_4  and  O_7 
ROOT
ATOM      1  C   UNL d   1       1.402   3.759   0.964  0.00  0.00    -0.033 A 
ATOM      2  C1  UNL d   1       0.053   3.416   1.068  0.00  0.00     0.039 A 
ATOM      3  C2  UNL d   1      -0.393   2.180   0.597  0.00  0.00    -0.080 A 
ATOM      4  C3  UNL d   1       0.519   1.297   0.025  0.00  0.00     0.150 A 
ATOM      5  C4  UNL d   1       1.865   1.630  -0.078  0.00  0.00    -0.007 A 
ATOM      6  C5  UNL d   1       2.309   2.866   0.393  0.00  0.00     0.039 A 
ENDROOT
BRANCH   4   7
ATOM      7  O   UNL d   1       0.130   0.081  -0.453  0.00  0.00    -0.526 OA
ATOM      8  H5  UNL d   1      -0.832  -0.001  -0.341  0.00  0.00     0.418 HD
ENDBRANCH   4   7
TORSDOF 1
ENDMDL
