MODEL 1
REMARK minimizedAffinity -1.29639888
REMARK minimizedRMSD -1
REMARK  1 active torsions:
REMARK  status: ('A' for Active; 'I' for Inactive)
REMARK    1  A    between atoms: C3_4  and  O_7 
ROOT
ATOM      1  C   UNL d   1      -0.402   1.023   0.862  0.00  0.00    -0.033 A 
ATOM      2  C1  UNL d   1       0.514   0.426  -0.005  0.00  0.00     0.039 A 
ATOM      3  C2  UNL d   1       0.428  -0.940  -0.282  0.00  0.00    -0.080 A 
ATOM      4  C3  UNL d   1      -0.577  -1.696   0.313  0.00  0.00     0.150 A 
ATOM      5  C4  UNL d   1      -1.496  -1.107   1.176  0.00  0.00    -0.007 A 
ATOM      6  C5  UNL d   1      -1.408   0.256   1.452  0.00  0.00     0.039 A 
ENDROOT
BRANCH   4   7
ATOM      7  O   UNL d   1      -0.698  -3.034   0.077  0.00  0.00    -0.526 OA
ATOM      8  H5  UNL d   1       0.022  -3.308  -0.515  0.00  0.00     0.418 HD
ENDBRANCH   4   7
TORSDOF 1
ENDMDL
