MODEL 1
REMARK minimizedAffinity -3.61420178
REMARK minimizedRMSD -1
REMARK  1 active torsions:
REMARK  status: ('A' for Active; 'I' for Inactive)
REMARK    1  A    between atoms: C3_4  and  O_7 
ROOT
ATOM      1  C   UNL d   1      -0.701   0.258   0.785  0.00  0.00    -0.033 A 
ATOM      2  C1  UNL d   1      -1.247  -0.913   1.313  0.00  0.00     0.039 A 
ATOM      3  C2  UNL d   1      -1.148  -2.113   0.606  0.00  0.00    -0.080 A 
ATOM      4  C3  UNL d   1      -0.501  -2.128  -0.627  0.00  0.00     0.150 A 
ATOM      5  C4  UNL d   1       0.048  -0.965  -1.158  0.00  0.00    -0.007 A 
ATOM      6  C5  UNL d   1      -0.052   0.232  -0.450  0.00  0.00     0.039 A 
ENDROOT
BRANCH   4   7
ATOM      7  O   UNL d   1      -0.385  -3.273  -1.357  0.00  0.00    -0.526 OA
ATOM      8  H5  UNL d   1      -0.836  -3.990  -0.879  0.00  0.00     0.418 HD
ENDBRANCH   4   7
TORSDOF 1
ENDMDL
