MODEL 1
REMARK minimizedAffinity -2.26673412
REMARK minimizedRMSD -1
REMARK  1 active torsions:
REMARK  status: ('A' for Active; 'I' for Inactive)
REMARK    1  A    between atoms: C3_4  and  O_7 
ROOT
ATOM      1  C   UNL d   1      -0.750  -1.091   1.197  0.00  0.00    -0.033 A 
ATOM      2  C1  UNL d   1      -0.001  -0.362   0.272  0.00  0.00     0.039 A 
ATOM      3  C2  UNL d   1       0.182  -0.852  -1.023  0.00  0.00    -0.080 A 
ATOM      4  C3  UNL d   1      -0.389  -2.070  -1.379  0.00  0.00     0.150 A 
ATOM      5  C4  UNL d   1      -1.140  -2.801  -0.463  0.00  0.00    -0.007 A 
ATOM      6  C5  UNL d   1      -1.321  -2.310   0.829  0.00  0.00     0.039 A 
ENDROOT
BRANCH   4   7
ATOM      7  O   UNL d   1      -0.234  -2.591  -2.629  0.00  0.00    -0.526 OA
ATOM      8  H5  UNL d   1       0.332  -1.992  -3.144  0.00  0.00     0.418 HD
ENDBRANCH   4   7
TORSDOF 1
ENDMDL
