MODEL 1
REMARK minimizedAffinity -2.92430973
REMARK minimizedRMSD -1
REMARK  1 active torsions:
REMARK  status: ('A' for Active; 'I' for Inactive)
REMARK    1  A    between atoms: C3_4  and  O_7 
ROOT
ATOM      1  C   UNL d   1      -0.620  -3.173  -1.303  0.00  0.00    -0.033 A 
ATOM      2  C1  UNL d   1       0.015  -2.358  -2.242  0.00  0.00     0.039 A 
ATOM      3  C2  UNL d   1       0.402  -1.062  -1.896  0.00  0.00    -0.080 A 
ATOM      4  C3  UNL d   1       0.150  -0.594  -0.609  0.00  0.00     0.150 A 
ATOM      5  C4  UNL d   1      -0.479  -1.402   0.332  0.00  0.00    -0.007 A 
ATOM      6  C5  UNL d   1      -0.866  -2.696  -0.016  0.00  0.00     0.039 A 
ENDROOT
BRANCH   4   7
ATOM      7  O   UNL d   1       0.505   0.665  -0.226  0.00  0.00    -0.526 OA
ATOM      8  H5  UNL d   1       0.904   1.117  -0.988  0.00  0.00     0.418 HD
ENDBRANCH   4   7
TORSDOF 1
ENDMDL
