MODEL 1
REMARK minimizedAffinity -1.499156
REMARK minimizedRMSD -1
REMARK  1 active torsions:
REMARK  status: ('A' for Active; 'I' for Inactive)
REMARK    1  A    between atoms: C3_4  and  O_7 
ROOT
ATOM      1  C   UNL d   1      -1.083  -0.662   1.422  0.00  0.00    -0.033 A 
ATOM      2  C1  UNL d   1      -1.261  -1.981   1.000  0.00  0.00     0.039 A 
ATOM      3  C2  UNL d   1      -0.939  -2.346  -0.309  0.00  0.00    -0.080 A 
ATOM      4  C3  UNL d   1      -0.441  -1.384  -1.184  0.00  0.00     0.150 A 
ATOM      5  C4  UNL d   1      -0.258  -0.069  -0.768  0.00  0.00    -0.007 A 
ATOM      6  C5  UNL d   1      -0.581   0.294   0.539  0.00  0.00     0.039 A 
ENDROOT
BRANCH   4   7
ATOM      7  O   UNL d   1      -0.118  -1.691  -2.472  0.00  0.00    -0.526 OA
ATOM      8  H5  UNL d   1      -0.324  -2.629  -2.625  0.00  0.00     0.418 HD
ENDBRANCH   4   7
TORSDOF 1
ENDMDL
