MODEL 1
REMARK minimizedAffinity -3.40605855
REMARK minimizedRMSD -1
REMARK  1 active torsions:
REMARK  status: ('A' for Active; 'I' for Inactive)
REMARK    1  A    between atoms: C3_4  and  O_7 
ROOT
ATOM      1  C   UNL d   1      -0.501  -0.850   1.226  0.00  0.00    -0.033 A 
ATOM      2  C1  UNL d   1      -0.627  -2.238   1.146  0.00  0.00     0.039 A 
ATOM      3  C2  UNL d   1      -0.514  -2.882  -0.087  0.00  0.00    -0.080 A 
ATOM      4  C3  UNL d   1      -0.275  -2.127  -1.232  0.00  0.00     0.150 A 
ATOM      5  C4  UNL d   1      -0.144  -0.744  -1.160  0.00  0.00    -0.007 A 
ATOM      6  C5  UNL d   1      -0.258  -0.103   0.073  0.00  0.00     0.039 A 
ENDROOT
BRANCH   4   7
ATOM      7  O   UNL d   1      -0.162  -2.710  -2.460  0.00  0.00    -0.526 OA
ATOM      8  H5  UNL d   1      -0.303  -3.666  -2.360  0.00  0.00     0.418 HD
ENDBRANCH   4   7
TORSDOF 1
ENDMDL
