MODEL 1
REMARK minimizedAffinity 8.46488667
REMARK minimizedRMSD -1
REMARK  0 active torsions:
REMARK  status: ('A' for Active; 'I' for Inactive)
ROOT
ATOM      1  O1  BZF d   1      -0.951   1.143   2.155  0.00  0.00    -0.204 OA
ATOM      2  C2  BZF d   1      -1.825   1.676   1.228  0.00  0.00     0.174 A 
ATOM      3  C3  BZF d   1      -1.423   1.392  -0.028  0.00  0.00    -0.012 A 
ATOM      4  C3A BZF d   1      -0.272   0.555   0.126  0.00  0.00    -0.107 A 
ATOM      5  C4  BZF d   1       0.564  -0.064  -0.759  0.00  0.00     0.055 A 
ATOM      6  C5  BZF d   1       1.638  -0.748  -0.285  0.00  0.00    -0.016 A 
ATOM      7  C6  BZF d   1       1.909  -0.829   1.066  0.00  0.00     0.022 A 
ATOM      8  C7  BZF d   1       1.106  -0.236   1.982  0.00  0.00     0.029 A 
ATOM      9  C7A BZF d   1       0.001   0.429   1.508  0.00  0.00     0.058 A 
ENDROOT
TORSDOF 0
ENDMDL
