MODEL 1
REMARK minimizedAffinity 7.12141657
REMARK minimizedRMSD -1
REMARK  0 active torsions:
REMARK  status: ('A' for Active; 'I' for Inactive)
ROOT
ATOM      1  O1  BZF d   1      -2.381  -1.792   0.750  0.00  0.00    -0.204 OA
ATOM      2  C2  BZF d   1      -1.527  -2.850   0.994  0.00  0.00     0.174 A 
ATOM      3  C3  BZF d   1      -0.266  -2.541   0.629  0.00  0.00    -0.012 A 
ATOM      4  C3A BZF d   1      -0.319  -1.174   0.210  0.00  0.00    -0.107 A 
ATOM      5  C4  BZF d   1       0.620  -0.295  -0.250  0.00  0.00     0.055 A 
ATOM      6  C5  BZF d   1       0.228   0.945  -0.641  0.00  0.00    -0.016 A 
ATOM      7  C6  BZF d   1      -1.094   1.339  -0.591  0.00  0.00     0.022 A 
ATOM      8  C7  BZF d   1      -2.060   0.504  -0.137  0.00  0.00     0.029 A 
ATOM      9  C7A BZF d   1      -1.662  -0.739   0.290  0.00  0.00     0.058 A 
ENDROOT
TORSDOF 0
ENDMDL
