MODEL 1
REMARK minimizedAffinity 14.8591194
REMARK minimizedRMSD -1
REMARK  0 active torsions:
REMARK  status: ('A' for Active; 'I' for Inactive)
ROOT
ATOM      1  O1  BZF d   1       1.915   2.713   3.458  0.00  0.00    -0.204 OA
ATOM      2  C2  BZF d   1       1.228   3.908   3.560  0.00  0.00     0.174 A 
ATOM      3  C3  BZF d   1       0.128   3.895   2.780  0.00  0.00    -0.012 A 
ATOM      4  C3A BZF d   1       0.077   2.578   2.222  0.00  0.00    -0.107 A 
ATOM      5  C4  BZF d   1      -0.793   1.949   1.379  0.00  0.00     0.055 A 
ATOM      6  C5  BZF d   1      -0.517   0.683   0.970  0.00  0.00    -0.016 A 
ATOM      7  C6  BZF d   1       0.621   0.019   1.379  0.00  0.00     0.022 A 
ATOM      8  C7  BZF d   1       1.511   0.601   2.220  0.00  0.00     0.029 A 
ATOM      9  C7A BZF d   1       1.218   1.868   2.661  0.00  0.00     0.058 A 
ENDROOT
TORSDOF 0
ENDMDL
