MODEL 1
REMARK minimizedAffinity 16.3011894
REMARK minimizedRMSD -1
REMARK  0 active torsions:
REMARK  status: ('A' for Active; 'I' for Inactive)
ROOT
ATOM      1  O1  BZF d   1      -0.835  -2.339   1.653  0.00  0.00    -0.204 OA
ATOM      2  C2  BZF d   1      -1.584  -2.616   2.781  0.00  0.00     0.174 A 
ATOM      3  C3  BZF d   1      -0.852  -2.435   3.898  0.00  0.00    -0.012 A 
ATOM      4  C3A BZF d   1       0.408  -1.930   3.445  0.00  0.00    -0.107 A 
ATOM      5  C4  BZF d   1       1.550  -1.543   4.086  0.00  0.00     0.055 A 
ATOM      6  C5  BZF d   1       2.627  -1.167   3.347  0.00  0.00    -0.016 A 
ATOM      7  C6  BZF d   1       2.599  -1.173   1.968  0.00  0.00     0.022 A 
ATOM      8  C7  BZF d   1       1.487  -1.545   1.288  0.00  0.00     0.029 A 
ATOM      9  C7A BZF d   1       0.386  -1.893   2.031  0.00  0.00     0.058 A 
ENDROOT
TORSDOF 0
ENDMDL
