MODEL 1
REMARK minimizedAffinity 3.32377601
REMARK minimizedRMSD -1
REMARK  0 active torsions:
REMARK  status: ('A' for Active; 'I' for Inactive)
ROOT
ATOM      1  O1  BZF d   1       1.160  -4.506  -2.137  0.00  0.00    -0.204 OA
ATOM      2  C2  BZF d   1       0.179  -4.460  -1.165  0.00  0.00     0.174 A 
ATOM      3  C3  BZF d   1       0.636  -4.959   0.001  0.00  0.00    -0.012 A 
ATOM      4  C3A BZF d   1       2.016  -5.257  -0.233  0.00  0.00    -0.107 A 
ATOM      5  C4  BZF d   1       3.014  -5.763   0.551  0.00  0.00     0.055 A 
ATOM      6  C5  BZF d   1       4.232  -6.000  -0.002  0.00  0.00    -0.016 A 
ATOM      7  C6  BZF d   1       4.487  -5.748  -1.334  0.00  0.00     0.022 A 
ATOM      8  C7  BZF d   1       3.530  -5.241  -2.150  0.00  0.00     0.029 A 
ATOM      9  C7A BZF d   1       2.308  -4.969  -1.587  0.00  0.00     0.058 A 
ENDROOT
TORSDOF 0
ENDMDL
