MODEL 1
REMARK minimizedAffinity -1.16076124
REMARK minimizedRMSD -1
REMARK  0 active torsions:
REMARK  status: ('A' for Active; 'I' for Inactive)
ROOT
ATOM      1  O1  BZF d   1      -4.606   5.999  -3.701  0.00  0.00    -0.204 OA
ATOM      2  C2  BZF d   1      -5.359   5.991  -4.859  0.00  0.00     0.174 A 
ATOM      3  C3  BZF d   1      -5.978   4.803  -5.019  0.00  0.00    -0.012 A 
ATOM      4  C3A BZF d   1      -5.661   4.053  -3.842  0.00  0.00    -0.107 A 
ATOM      5  C4  BZF d   1      -5.996   2.802  -3.408  0.00  0.00     0.055 A 
ATOM      6  C5  BZF d   1      -5.461   2.341  -2.247  0.00  0.00    -0.016 A 
ATOM      7  C6  BZF d   1      -4.584   3.099  -1.500  0.00  0.00     0.022 A 
ATOM      8  C7  BZF d   1      -4.225   4.348  -1.888  0.00  0.00     0.029 A 
ATOM      9  C7A BZF d   1      -4.790   4.829  -3.043  0.00  0.00     0.058 A 
ENDROOT
TORSDOF 0
ENDMDL
