MODEL 1
REMARK minimizedAffinity 0.741680562
REMARK minimizedRMSD -1
REMARK  0 active torsions:
REMARK  status: ('A' for Active; 'I' for Inactive)
ROOT
ATOM      1  O1  BZF d   1      -2.580  -4.575  -4.177  0.00  0.00    -0.204 OA
ATOM      2  C2  BZF d   1      -1.991  -5.024  -3.011  0.00  0.00     0.174 A 
ATOM      3  C3  BZF d   1      -2.057  -4.082  -2.049  0.00  0.00    -0.012 A 
ATOM      4  C3A BZF d   1      -2.810  -3.009  -2.623  0.00  0.00    -0.107 A 
ATOM      5  C4  BZF d   1      -3.225  -1.796  -2.152  0.00  0.00     0.055 A 
ATOM      6  C5  BZF d   1      -3.881  -0.952  -2.991  0.00  0.00    -0.016 A 
ATOM      7  C6  BZF d   1      -4.135  -1.285  -4.305  0.00  0.00     0.022 A 
ATOM      8  C7  BZF d   1      -3.747  -2.480  -4.816  0.00  0.00     0.029 A 
ATOM      9  C7A BZF d   1      -3.113  -3.348  -3.962  0.00  0.00     0.058 A 
ENDROOT
TORSDOF 0
ENDMDL
