MODEL 1
REMARK minimizedAffinity 6.90646553
REMARK minimizedRMSD -1
REMARK  1 active torsions:
REMARK  status: ('A' for Active; 'I' for Inactive)
REMARK    1  A    between atoms: C1_2  and  C2_3 
ROOT
ATOM      1  C2  UNL d   1      -3.676   0.316   3.560  0.00  0.00    -0.073 A 
ATOM      2  C3  UNL d   1      -4.405   0.293   2.365  0.00  0.00    -0.002 A 
ATOM      3  C4  UNL d   1      -3.745   0.332   1.136  0.00  0.00     0.004 A 
ATOM      4  C5  UNL d   1      -2.352   0.387   1.088  0.00  0.00    -0.004 A 
ATOM      5  C6  UNL d   1      -1.606   0.399   2.271  0.00  0.00    -0.075 A 
ATOM      6  C7  UNL d   1      -0.107   0.461   2.236  0.00  0.00     0.076 C 
ATOM      7  C8  UNL d   1      -2.275   0.363   3.501  0.00  0.00     0.001 A 
ENDROOT
BRANCH   1   8
ATOM      8  C1  UNL d   1      -4.383   0.268   4.889  0.00  0.00     0.053 C 
ATOM      9  C   UNL d   1      -5.227   1.509   5.131  0.00  0.00     0.018 C 
ENDBRANCH   1   8
TORSDOF 1
ENDMDL
