MODEL 1
REMARK minimizedAffinity 6.81346846
REMARK minimizedRMSD -1
REMARK  1 active torsions:
REMARK  status: ('A' for Active; 'I' for Inactive)
REMARK    1  A    between atoms: C1_2  and  C2_3 
ROOT
ATOM      1  C2  UNL d   1      -3.657   3.778   2.817  0.00  0.00    -0.073 A 
ATOM      2  C3  UNL d   1      -3.636   5.165   2.630  0.00  0.00    -0.002 A 
ATOM      3  C4  UNL d   1      -4.382   6.000   3.463  0.00  0.00     0.004 A 
ATOM      4  C5  UNL d   1      -5.150   5.459   4.493  0.00  0.00    -0.004 A 
ATOM      5  C6  UNL d   1      -5.176   4.076   4.703  0.00  0.00    -0.075 A 
ATOM      6  C7  UNL d   1      -5.999   3.479   5.806  0.00  0.00     0.076 C 
ATOM      7  C8  UNL d   1      -4.426   3.244   3.861  0.00  0.00     0.001 A 
ENDROOT
BRANCH   1   8
ATOM      8  C1  UNL d   1      -2.849   2.873   1.924  0.00  0.00     0.053 C 
ATOM      9  C   UNL d   1      -1.362   2.945   2.236  0.00  0.00     0.018 C 
ENDBRANCH   1   8
TORSDOF 1
ENDMDL
