MODEL 1
REMARK minimizedAffinity 20.3466759
REMARK minimizedRMSD -1
REMARK  1 active torsions:
REMARK  status: ('A' for Active; 'I' for Inactive)
REMARK    1  A    between atoms: C1_2  and  C2_3 
ROOT
ATOM      1  C2  UNL d   1       4.412   4.307  -4.034  0.00  0.00    -0.073 A 
ATOM      2  C3  UNL d   1       3.761   5.540  -3.913  0.00  0.00    -0.002 A 
ATOM      3  C4  UNL d   1       2.708   5.695  -3.010  0.00  0.00     0.004 A 
ATOM      4  C5  UNL d   1       2.301   4.623  -2.215  0.00  0.00    -0.004 A 
ATOM      5  C6  UNL d   1       2.947   3.387  -2.313  0.00  0.00    -0.075 A 
ATOM      6  C7  UNL d   1       2.520   2.224  -1.467  0.00  0.00     0.076 C 
ATOM      7  C8  UNL d   1       4.001   3.238  -3.224  0.00  0.00     0.001 A 
ENDROOT
BRANCH   1   8
ATOM      8  C1  UNL d   1       5.553   4.136  -5.003  0.00  0.00     0.053 C 
ATOM      9  C   UNL d   1       5.295   3.014  -5.996  0.00  0.00     0.018 C 
ENDBRANCH   1   8
TORSDOF 1
ENDMDL
