MODEL 1
REMARK minimizedAffinity 12.4483147
REMARK minimizedRMSD -1
REMARK  1 active torsions:
REMARK  status: ('A' for Active; 'I' for Inactive)
REMARK    1  A    between atoms: C1_2  and  C2_3 
ROOT
ATOM      1  C2  UNL d   1      -5.678   2.432   5.261  0.00  0.00    -0.073 A 
ATOM      2  C3  UNL d   1      -5.999   2.309   3.904  0.00  0.00    -0.002 A 
ATOM      3  C4  UNL d   1      -5.757   1.113   3.228  0.00  0.00     0.004 A 
ATOM      4  C5  UNL d   1      -5.199   0.026   3.901  0.00  0.00    -0.004 A 
ATOM      5  C6  UNL d   1      -4.882   0.125   5.260  0.00  0.00    -0.075 A 
ATOM      6  C7  UNL d   1      -4.280  -1.033   5.998  0.00  0.00     0.076 C 
ATOM      7  C8  UNL d   1      -5.126   1.331   5.932  0.00  0.00     0.001 A 
ENDROOT
BRANCH   1   8
ATOM      8  C1  UNL d   1      -5.944   3.720   5.997  0.00  0.00     0.053 C 
ATOM      9  C   UNL d   1      -5.295   4.912   5.312  0.00  0.00     0.018 C 
ENDBRANCH   1   8
TORSDOF 1
ENDMDL
