MODEL 1
REMARK minimizedAffinity 6.15938091
REMARK minimizedRMSD -1
REMARK  1 active torsions:
REMARK  status: ('A' for Active; 'I' for Inactive)
REMARK    1  A    between atoms: C1_2  and  C2_3 
ROOT
ATOM      1  C2  UNL d   1      -5.670   1.915   5.263  0.00  0.00    -0.073 A 
ATOM      2  C3  UNL d   1      -5.606   0.726   5.998  0.00  0.00    -0.002 A 
ATOM      3  C4  UNL d   1      -5.294  -0.478   5.365  0.00  0.00     0.004 A 
ATOM      4  C5  UNL d   1      -5.039  -0.505   3.994  0.00  0.00    -0.004 A 
ATOM      5  C6  UNL d   1      -5.087   0.675   3.245  0.00  0.00    -0.075 A 
ATOM      6  C7  UNL d   1      -4.816   0.664   1.769  0.00  0.00     0.076 C 
ATOM      7  C8  UNL d   1      -5.403   1.880   3.887  0.00  0.00     0.001 A 
ENDROOT
BRANCH   1   8
ATOM      8  C1  UNL d   1      -6.000   3.218   5.944  0.00  0.00     0.053 C 
ATOM      9  C   UNL d   1      -5.265   4.391   5.315  0.00  0.00     0.018 C 
ENDBRANCH   1   8
TORSDOF 1
ENDMDL
