MODEL 1
REMARK minimizedAffinity -2.49003148
REMARK minimizedRMSD -1
REMARK  1 active torsions:
REMARK  status: ('A' for Active; 'I' for Inactive)
REMARK    1  A    between atoms: C1_2  and  C2_3 
ROOT
ATOM      1  C2  UNL d   1      -2.546   1.118   1.995  0.00  0.00    -0.073 A 
ATOM      2  C3  UNL d   1      -2.427   2.368   2.613  0.00  0.00    -0.002 A 
ATOM      3  C4  UNL d   1      -1.380   2.618   3.502  0.00  0.00     0.004 A 
ATOM      4  C5  UNL d   1      -0.440   1.625   3.776  0.00  0.00    -0.004 A 
ATOM      5  C6  UNL d   1      -0.536   0.373   3.159  0.00  0.00    -0.075 A 
ATOM      6  C7  UNL d   1       0.466  -0.706   3.445  0.00  0.00     0.076 C 
ATOM      7  C8  UNL d   1      -1.591   0.129   2.270  0.00  0.00     0.001 A 
ENDROOT
BRANCH   1   8
ATOM      8  C1  UNL d   1      -3.671   0.846   1.029  0.00  0.00     0.053 C 
ATOM      9  C   UNL d   1      -3.956  -0.641   0.891  0.00  0.00     0.018 C 
ENDBRANCH   1   8
TORSDOF 1
ENDMDL
