MODEL 1
REMARK minimizedAffinity 6.87754822
REMARK minimizedRMSD -1
REMARK  1 active torsions:
REMARK  status: ('A' for Active; 'I' for Inactive)
REMARK    1  A    between atoms: C1_2  and  C2_3 
ROOT
ATOM      1  C2  UNL d   1       3.323  -5.517   1.983  0.00  0.00    -0.073 A 
ATOM      2  C3  UNL d   1       2.664  -4.610   1.147  0.00  0.00    -0.002 A 
ATOM      3  C4  UNL d   1       1.381  -4.161   1.466  0.00  0.00     0.004 A 
ATOM      4  C5  UNL d   1       0.749  -4.608   2.626  0.00  0.00    -0.004 A 
ATOM      5  C6  UNL d   1       1.397  -5.506   3.480  0.00  0.00    -0.075 A 
ATOM      6  C7  UNL d   1       0.730  -5.999   4.731  0.00  0.00     0.076 C 
ATOM      7  C8  UNL d   1       2.684  -5.954   3.152  0.00  0.00     0.001 A 
ENDROOT
BRANCH   1   8
ATOM      8  C1  UNL d   1       4.711  -5.999   1.646  0.00  0.00     0.053 C 
ATOM      9  C   UNL d   1       5.743  -5.511   2.649  0.00  0.00     0.018 C 
ENDBRANCH   1   8
TORSDOF 1
ENDMDL
