MODEL 1
REMARK minimizedAffinity 3.28884292
REMARK minimizedRMSD -1
REMARK  1 active torsions:
REMARK  status: ('A' for Active; 'I' for Inactive)
REMARK    1  A    between atoms: C1_2  and  C2_3 
ROOT
ATOM      1  C2  UNL d   1       3.363  -0.025  -5.107  0.00  0.00    -0.073 A 
ATOM      2  C3  UNL d   1       3.381   0.284  -3.742  0.00  0.00    -0.002 A 
ATOM      3  C4  UNL d   1       2.324  -0.102  -2.918  0.00  0.00     0.004 A 
ATOM      4  C5  UNL d   1       1.242  -0.806  -3.447  0.00  0.00    -0.004 A 
ATOM      5  C6  UNL d   1       1.211  -1.134  -4.806  0.00  0.00    -0.075 A 
ATOM      6  C7  UNL d   1       0.053  -1.889  -5.391  0.00  0.00     0.076 C 
ATOM      7  C8  UNL d   1       2.275  -0.741  -5.628  0.00  0.00     0.001 A 
ENDROOT
BRANCH   1   8
ATOM      8  C1  UNL d   1       4.506   0.384  -6.000  0.00  0.00     0.053 C 
ATOM      9  C   UNL d   1       4.720   1.889  -5.998  0.00  0.00     0.018 C 
ENDBRANCH   1   8
TORSDOF 1
ENDMDL
