MODEL 1
REMARK minimizedAffinity 10.7179451
REMARK minimizedRMSD -1
REMARK  1 active torsions:
REMARK  status: ('A' for Active; 'I' for Inactive)
REMARK    1  A    between atoms: C1_2  and  C2_3 
ROOT
ATOM      1  C2  UNL d   1      -2.384  -0.046   1.266  0.00  0.00    -0.073 A 
ATOM      2  C3  UNL d   1      -3.761   0.087   1.050  0.00  0.00    -0.002 A 
ATOM      3  C4  UNL d   1      -4.506  -0.991   0.572  0.00  0.00     0.004 A 
ATOM      4  C5  UNL d   1      -3.886  -2.213   0.312  0.00  0.00    -0.004 A 
ATOM      5  C6  UNL d   1      -2.514  -2.369   0.532  0.00  0.00    -0.075 A 
ATOM      6  C7  UNL d   1      -1.832  -3.676   0.255  0.00  0.00     0.076 C 
ATOM      7  C8  UNL d   1      -1.772  -1.281   1.010  0.00  0.00     0.001 A 
ENDROOT
BRANCH   1   8
ATOM      8  C1  UNL d   1      -1.576   1.114   1.788  0.00  0.00     0.053 C 
ATOM      9  C   UNL d   1      -0.314   0.654   2.501  0.00  0.00     0.018 C 
ENDBRANCH   1   8
TORSDOF 1
ENDMDL
