MODEL 1
REMARK minimizedAffinity 11.9693661
REMARK minimizedRMSD -1
REMARK  1 active torsions:
REMARK  status: ('A' for Active; 'I' for Inactive)
REMARK    1  A    between atoms: C1_2  and  C2_3 
ROOT
ATOM      1  C2  UNL d   1      -1.823   1.040   2.465  0.00  0.00    -0.073 A 
ATOM      2  C3  UNL d   1      -1.916   2.237   1.745  0.00  0.00    -0.002 A 
ATOM      3  C4  UNL d   1      -0.817   3.093   1.656  0.00  0.00     0.004 A 
ATOM      4  C5  UNL d   1       0.385   2.759   2.279  0.00  0.00    -0.004 A 
ATOM      5  C6  UNL d   1       0.501   1.562   2.994  0.00  0.00    -0.075 A 
ATOM      6  C7  UNL d   1       1.786   1.189   3.672  0.00  0.00     0.076 C 
ATOM      7  C8  UNL d   1      -0.608   0.709   3.080  0.00  0.00     0.001 A 
ENDROOT
BRANCH   1   8
ATOM      8  C1  UNL d   1      -3.005   0.110   2.558  0.00  0.00     0.053 C 
ATOM      9  C   UNL d   1      -4.312   0.812   2.225  0.00  0.00     0.018 C 
ENDBRANCH   1   8
TORSDOF 1
ENDMDL
