MODEL 1
REMARK minimizedAffinity 13.2752542
REMARK minimizedRMSD -1
REMARK  1 active torsions:
REMARK  status: ('A' for Active; 'I' for Inactive)
REMARK    1  A    between atoms: C1_2  and  C2_3 
ROOT
ATOM      1  C2  UNL d   1       0.391  -0.666  -4.893  0.00  0.00    -0.073 A 
ATOM      2  C3  UNL d   1       0.796  -1.972  -5.194  0.00  0.00    -0.002 A 
ATOM      3  C4  UNL d   1      -0.110  -2.884  -5.737  0.00  0.00     0.004 A 
ATOM      4  C5  UNL d   1      -1.426  -2.499  -5.992  0.00  0.00    -0.004 A 
ATOM      5  C6  UNL d   1      -1.847  -1.195  -5.710  0.00  0.00    -0.075 A 
ATOM      6  C7  UNL d   1      -3.260  -0.765  -5.976  0.00  0.00     0.076 C 
ATOM      7  C8  UNL d   1      -0.932  -0.286  -5.162  0.00  0.00     0.001 A 
ENDROOT
BRANCH   1   8
ATOM      8  C1  UNL d   1       1.367   0.323  -4.313  0.00  0.00     0.053 C 
ATOM      9  C   UNL d   1       2.150  -0.264  -3.149  0.00  0.00     0.018 C 
ENDBRANCH   1   8
TORSDOF 1
ENDMDL
