MODEL 1
REMARK minimizedAffinity 7.55780745
REMARK minimizedRMSD -1
REMARK  1 active torsions:
REMARK  status: ('A' for Active; 'I' for Inactive)
REMARK    1  A    between atoms: C1_2  and  C2_3 
ROOT
ATOM      1  C2  UNL d   1      -3.049   0.226   1.401  0.00  0.00    -0.073 A 
ATOM      2  C3  UNL d   1      -4.181   0.804   0.813  0.00  0.00    -0.002 A 
ATOM      3  C4  UNL d   1      -5.099   0.012   0.123  0.00  0.00     0.004 A 
ATOM      4  C5  UNL d   1      -4.899  -1.365   0.019  0.00  0.00    -0.004 A 
ATOM      5  C6  UNL d   1      -3.781  -1.963   0.609  0.00  0.00    -0.075 A 
ATOM      6  C7  UNL d   1      -3.551  -3.442   0.505  0.00  0.00     0.076 C 
ATOM      7  C8  UNL d   1      -2.863  -1.160   1.299  0.00  0.00     0.001 A 
ENDROOT
BRANCH   1   8
ATOM      8  C1  UNL d   1      -2.059   1.077   2.153  0.00  0.00     0.053 C 
ATOM      9  C   UNL d   1      -0.697   0.409   2.256  0.00  0.00     0.018 C 
ENDBRANCH   1   8
TORSDOF 1
ENDMDL
