MODEL 1
REMARK minimizedAffinity 10.5160589
REMARK minimizedRMSD -1
REMARK  1 active torsions:
REMARK  status: ('A' for Active; 'I' for Inactive)
REMARK    1  A    between atoms: C1_2  and  C2_3 
ROOT
ATOM      1  C2  UNL d   1      -4.551   0.270   3.280  0.00  0.00    -0.073 A 
ATOM      2  C3  UNL d   1      -3.576   1.156   2.809  0.00  0.00    -0.002 A 
ATOM      3  C4  UNL d   1      -3.093   1.045   1.505  0.00  0.00     0.004 A 
ATOM      4  C5  UNL d   1      -3.584   0.053   0.656  0.00  0.00    -0.004 A 
ATOM      5  C6  UNL d   1      -4.568  -0.834   1.104  0.00  0.00    -0.075 A 
ATOM      6  C7  UNL d   1      -5.106  -1.908   0.205  0.00  0.00     0.076 C 
ATOM      7  C8  UNL d   1      -5.046  -0.718   2.416  0.00  0.00     0.001 A 
ENDROOT
BRANCH   1   8
ATOM      8  C1  UNL d   1      -5.081   0.390   4.685  0.00  0.00     0.053 C 
ATOM      9  C   UNL d   1      -5.999   1.591   4.848  0.00  0.00     0.018 C 
ENDBRANCH   1   8
TORSDOF 1
ENDMDL
