MODEL 1
REMARK minimizedAffinity 11.0962906
REMARK minimizedRMSD -1
REMARK  1 active torsions:
REMARK  status: ('A' for Active; 'I' for Inactive)
REMARK    1  A    between atoms: C1_2  and  C2_3 
ROOT
ATOM      1  C2  UNL d   1      -4.495   0.885   3.407  0.00  0.00    -0.073 A 
ATOM      2  C3  UNL d   1      -5.303   0.612   2.298  0.00  0.00    -0.002 A 
ATOM      3  C4  UNL d   1      -4.741   0.507   1.025  0.00  0.00     0.004 A 
ATOM      4  C5  UNL d   1      -3.367   0.668   0.849  0.00  0.00    -0.004 A 
ATOM      5  C6  UNL d   1      -2.541   0.931   1.947  0.00  0.00    -0.075 A 
ATOM      6  C7  UNL d   1      -1.061   1.108   1.774  0.00  0.00     0.076 C 
ATOM      7  C8  UNL d   1      -3.113   1.037   3.222  0.00  0.00     0.001 A 
ENDROOT
BRANCH   1   8
ATOM      8  C1  UNL d   1      -5.096   0.993   4.785  0.00  0.00     0.053 C 
ATOM      9  C   UNL d   1      -5.847   2.300   4.979  0.00  0.00     0.018 C 
ENDBRANCH   1   8
TORSDOF 1
ENDMDL
