MODEL 1
REMARK minimizedAffinity 3.49714589
REMARK minimizedRMSD -1
REMARK  1 active torsions:
REMARK  status: ('A' for Active; 'I' for Inactive)
REMARK    1  A    between atoms: C1_2  and  C2_3 
ROOT
ATOM      1  C2  UNL d   1       1.212   0.868   2.777  0.00  0.00    -0.073 A 
ATOM      2  C3  UNL d   1       1.782   1.741   3.711  0.00  0.00    -0.002 A 
ATOM      3  C4  UNL d   1       0.979   2.628   4.428  0.00  0.00     0.004 A 
ATOM      4  C5  UNL d   1      -0.401   2.647   4.225  0.00  0.00    -0.004 A 
ATOM      5  C6  UNL d   1      -0.991   1.774   3.305  0.00  0.00    -0.075 A 
ATOM      6  C7  UNL d   1      -2.473   1.783   3.074  0.00  0.00     0.076 C 
ATOM      7  C8  UNL d   1      -0.177   0.887   2.587  0.00  0.00     0.001 A 
ENDROOT
BRANCH   1   8
ATOM      8  C1  UNL d   1       2.075  -0.097   2.005  0.00  0.00     0.053 C 
ATOM      9  C   UNL d   1       2.967   0.615   1.001  0.00  0.00     0.018 C 
ENDBRANCH   1   8
TORSDOF 1
ENDMDL
