MODEL 1
REMARK minimizedAffinity -3.79331279
REMARK minimizedRMSD -1
REMARK  0 active torsions:
REMARK  status: ('A' for Active; 'I' for Inactive)
ROOT
ATOM      1  C4' PXY d   1      -1.082  -1.646   3.346  0.00  0.00     0.077 C 
ATOM      2  C1' PXY d   1       2.269  -0.311  -1.171  0.00  0.00     0.077 C 
ATOM      3  C1  PXY d   1       1.384  -0.650   0.012  0.00  0.00    -0.082 A 
ATOM      4  C2  PXY d   1       1.801  -1.527   0.911  0.00  0.00     0.003 A 
ATOM      5  C3  PXY d   1       1.000  -1.869   1.970  0.00  0.00     0.003 A 
ATOM      6  C4  PXY d   1      -0.218  -1.266   2.140  0.00  0.00    -0.082 A 
ATOM      7  C5  PXY d   1      -0.645  -0.362   1.234  0.00  0.00     0.003 A 
ATOM      8  C6  PXY d   1       0.165  -0.060   0.144  0.00  0.00     0.003 A 
ENDROOT
TORSDOF 0
ENDMDL
