MODEL 1
REMARK minimizedAffinity -1.7539587
REMARK minimizedRMSD -1
REMARK  0 active torsions:
REMARK  status: ('A' for Active; 'I' for Inactive)
ROOT
ATOM      1  C4' PXY d   1      -0.847   1.617  -1.436  0.00  0.00     0.077 C 
ATOM      2  C1' PXY d   1       2.050  -2.148   1.858  0.00  0.00     0.077 C 
ATOM      3  C1  PXY d   1       1.279  -1.165   0.999  0.00  0.00    -0.082 A 
ATOM      4  C2  PXY d   1       1.850  -0.650  -0.078  0.00  0.00     0.003 A 
ATOM      5  C3  PXY d   1       1.179   0.264  -0.848  0.00  0.00     0.003 A 
ATOM      6  C4  PXY d   1      -0.109   0.614  -0.544  0.00  0.00    -0.082 A 
ATOM      7  C5  PXY d   1      -0.703   0.084   0.546  0.00  0.00     0.003 A 
ATOM      8  C6  PXY d   1       0.010  -0.811   1.339  0.00  0.00     0.003 A 
ENDROOT
TORSDOF 0
ENDMDL
