MODEL 1
REMARK minimizedAffinity -3.68084526
REMARK minimizedRMSD -1
REMARK  0 active torsions:
REMARK  status: ('A' for Active; 'I' for Inactive)
ROOT
ATOM      1  C4' PXY d   1      -1.755   1.425  -0.294  0.00  0.00     0.077 C 
ATOM      2  C1' PXY d   1       2.368  -2.469   0.824  0.00  0.00     0.077 C 
ATOM      3  C1  PXY d   1       1.278  -1.457   0.532  0.00  0.00    -0.082 A 
ATOM      4  C2  PXY d   1       1.575  -0.345  -0.121  0.00  0.00     0.003 A 
ATOM      5  C3  PXY d   1       0.608   0.595  -0.365  0.00  0.00     0.003 A 
ATOM      6  C4  PXY d   1      -0.688   0.371   0.015  0.00  0.00    -0.082 A 
ATOM      7  C5  PXY d   1      -1.002  -0.766   0.671  0.00  0.00     0.003 A 
ATOM      8  C6  PXY d   1       0.003  -1.689   0.946  0.00  0.00     0.003 A 
ENDROOT
TORSDOF 0
ENDMDL
