MODEL 1
REMARK minimizedAffinity -2.25798631
REMARK minimizedRMSD -1
REMARK  0 active torsions:
REMARK  status: ('A' for Active; 'I' for Inactive)
ROOT
ATOM      1  C4' PXY d   1      -1.155   2.413  -1.915  0.00  0.00     0.077 C 
ATOM      2  C1' PXY d   1       2.184  -1.309   0.985  0.00  0.00     0.077 C 
ATOM      3  C1  PXY d   1       1.299  -0.341   0.225  0.00  0.00    -0.082 A 
ATOM      4  C2  PXY d   1       1.850   0.607  -0.516  0.00  0.00     0.003 A 
ATOM      5  C3  PXY d   1       1.064   1.509  -1.184  0.00  0.00     0.003 A 
ATOM      6  C4  PXY d   1      -0.300   1.409  -1.137  0.00  0.00    -0.082 A 
ATOM      7  C5  PXY d   1      -0.870   0.438  -0.393  0.00  0.00     0.003 A 
ATOM      8  C6  PXY d   1      -0.055  -0.444   0.312  0.00  0.00     0.003 A 
ENDROOT
TORSDOF 0
ENDMDL
