MODEL 1
REMARK minimizedAffinity -5.51841402
REMARK minimizedRMSD -1
REMARK  0 active torsions:
REMARK  status: ('A' for Active; 'I' for Inactive)
ROOT
ATOM      1  C4' PXY d   1      -2.333   1.264  -1.374  0.00  0.00     0.077 C 
ATOM      2  C1' PXY d   1       2.065  -1.663   0.972  0.00  0.00     0.077 C 
ATOM      3  C1  PXY d   1       0.904  -0.901   0.365  0.00  0.00    -0.082 A 
ATOM      4  C2  PXY d   1       1.002  -0.431  -0.868  0.00  0.00     0.003 A 
ATOM      5  C3  PXY d   1      -0.026   0.287  -1.421  0.00  0.00     0.003 A 
ATOM      6  C4  PXY d   1      -1.189   0.481  -0.724  0.00  0.00    -0.082 A 
ATOM      7  C5  PXY d   1      -1.301  -0.004   0.530  0.00  0.00     0.003 A 
ATOM      8  C6  PXY d   1      -0.230  -0.695   1.089  0.00  0.00     0.003 A 
ENDROOT
TORSDOF 0
ENDMDL
