MODEL 1
REMARK minimizedAffinity -4.41755342
REMARK minimizedRMSD -1
REMARK  0 active torsions:
REMARK  status: ('A' for Active; 'I' for Inactive)
ROOT
ATOM      1  C4' PXY d   1      -1.408   1.695  -1.563  0.00  0.00     0.077 C 
ATOM      2  C1' PXY d   1       0.296  -1.555   2.904  0.00  0.00     0.077 C 
ATOM      3  C1  PXY d   1      -0.139  -0.703   1.728  0.00  0.00    -0.082 A 
ATOM      4  C2  PXY d   1      -1.215   0.060   1.834  0.00  0.00     0.003 A 
ATOM      5  C3  PXY d   1      -1.640   0.812   0.770  0.00  0.00     0.003 A 
ATOM      6  C4  PXY d   1      -0.927   0.825  -0.398  0.00  0.00    -0.082 A 
ATOM      7  C5  PXY d   1       0.178   0.058  -0.512  0.00  0.00     0.003 A 
ATOM      8  C6  PXY d   1       0.570  -0.730   0.567  0.00  0.00     0.003 A 
ENDROOT
TORSDOF 0
ENDMDL
