MODEL 1
REMARK minimizedAffinity -5.02995872
REMARK minimizedRMSD -1
REMARK  0 active torsions:
REMARK  status: ('A' for Active; 'I' for Inactive)
ROOT
ATOM      1  C4' PXY d   1      -1.852   0.385  -2.200  0.00  0.00     0.077 C 
ATOM      2  C1' PXY d   1       1.989  -1.523   1.677  0.00  0.00     0.077 C 
ATOM      3  C1  PXY d   1       0.972  -1.025   0.669  0.00  0.00    -0.082 A 
ATOM      4  C2  PXY d   1       1.265  -1.046  -0.621  0.00  0.00     0.003 A 
ATOM      5  C3  PXY d   1       0.370  -0.570  -1.544  0.00  0.00     0.003 A 
ATOM      6  C4  PXY d   1      -0.859  -0.117  -1.147  0.00  0.00    -0.082 A 
ATOM      7  C5  PXY d   1      -1.170  -0.102   0.167  0.00  0.00     0.003 A 
ATOM      8  C6  PXY d   1      -0.232  -0.551   1.091  0.00  0.00     0.003 A 
ENDROOT
TORSDOF 0
ENDMDL
