MODEL 1
REMARK minimizedAffinity -1.44513929
REMARK minimizedRMSD -1
REMARK  0 active torsions:
REMARK  status: ('A' for Active; 'I' for Inactive)
ROOT
ATOM      1  C4' PXY d   1      -1.728   1.293  -2.378  0.00  0.00     0.077 C 
ATOM      2  C1' PXY d   1       2.098  -1.077   1.249  0.00  0.00     0.077 C 
ATOM      3  C1  PXY d   1       1.085  -0.457   0.307  0.00  0.00    -0.082 A 
ATOM      4  C2  PXY d   1       1.311  -0.471  -0.997  0.00  0.00     0.003 A 
ATOM      5  C3  PXY d   1       0.421   0.113  -1.861  0.00  0.00     0.003 A 
ATOM      6  C4  PXY d   1      -0.738   0.671  -1.390  0.00  0.00    -0.082 A 
ATOM      7  C5  PXY d   1      -0.981   0.679  -0.062  0.00  0.00     0.003 A 
ATOM      8  C6  PXY d   1      -0.045   0.117   0.802  0.00  0.00     0.003 A 
ENDROOT
TORSDOF 0
ENDMDL
