MODEL 1
REMARK minimizedAffinity -5.97512245
REMARK minimizedRMSD -1
REMARK  0 active torsions:
REMARK  status: ('A' for Active; 'I' for Inactive)
ROOT
ATOM      1  C4' PXY d   1       1.567  -2.344   0.252  0.00  0.00     0.077 C 
ATOM      2  C1' PXY d   1      -2.277   1.842  -0.807  0.00  0.00     0.077 C 
ATOM      3  C1  PXY d   1      -1.261   0.749  -0.539  0.00  0.00    -0.082 A 
ATOM      4  C2  PXY d   1      -1.647  -0.372   0.048  0.00  0.00     0.003 A 
ATOM      5  C3  PXY d   1      -0.735  -1.358   0.327  0.00  0.00     0.003 A 
ATOM      6  C4  PXY d   1       0.574  -1.217  -0.047  0.00  0.00    -0.082 A 
ATOM      7  C5  PXY d   1       0.973  -0.080  -0.656  0.00  0.00     0.003 A 
ATOM      8  C6  PXY d   1       0.041   0.925  -0.893  0.00  0.00     0.003 A 
ENDROOT
TORSDOF 0
ENDMDL
