MODEL 1
REMARK minimizedAffinity -2.6280055
REMARK minimizedRMSD -1
REMARK  0 active torsions:
REMARK  status: ('A' for Active; 'I' for Inactive)
ROOT
ATOM      1  C4' PXY d   1       1.454  -3.427   2.571  0.00  0.00     0.077 C 
ATOM      2  C1' PXY d   1       0.200   1.557  -0.075  0.00  0.00     0.077 C 
ATOM      3  C1  PXY d   1       0.536   0.247   0.609  0.00  0.00    -0.082 A 
ATOM      4  C2  PXY d   1      -0.289  -0.248   1.517  0.00  0.00     0.003 A 
ATOM      5  C3  PXY d   1       0.016  -1.415   2.168  0.00  0.00     0.003 A 
ATOM      6  C4  PXY d   1       1.150  -2.111   1.848  0.00  0.00    -0.082 A 
ATOM      7  C5  PXY d   1       1.992  -1.619   0.915  0.00  0.00     0.003 A 
ATOM      8  C6  PXY d   1       1.685  -0.411   0.295  0.00  0.00     0.003 A 
ENDROOT
TORSDOF 0
ENDMDL
