MODEL 1
REMARK minimizedAffinity 2.53901792
REMARK minimizedRMSD -1
REMARK  0 active torsions:
REMARK  status: ('A' for Active; 'I' for Inactive)
ROOT
ATOM      1  C4' PXY d   1      -1.388  -5.787  -4.861  0.00  0.00     0.077 C 
ATOM      2  C1' PXY d   1       4.391  -5.709  -4.918  0.00  0.00     0.077 C 
ATOM      3  C1  PXY d   1       2.876  -5.732  -4.890  0.00  0.00    -0.082 A 
ATOM      4  C2  PXY d   1       2.205  -5.997  -6.000  0.00  0.00     0.003 A 
ATOM      5  C3  PXY d   1       0.834  -5.990  -6.000  0.00  0.00     0.003 A 
ATOM      6  C4  PXY d   1       0.142  -5.762  -4.840  0.00  0.00    -0.082 A 
ATOM      7  C5  PXY d   1       0.820  -5.502  -3.702  0.00  0.00     0.003 A 
ATOM      8  C6  PXY d   1       2.211  -5.473  -3.732  0.00  0.00     0.003 A 
ENDROOT
TORSDOF 0
ENDMDL
