MODEL 1
REMARK minimizedAffinity 3.8745873
REMARK minimizedRMSD -1
REMARK  0 active torsions:
REMARK  status: ('A' for Active; 'I' for Inactive)
ROOT
ATOM      1  C4' PXY d   1      -0.150  -0.382   1.315  0.00  0.00     0.077 C 
ATOM      2  C1' PXY d   1       4.106   2.065  -1.736  0.00  0.00     0.077 C 
ATOM      3  C1  PXY d   1       2.995   1.411  -0.938  0.00  0.00    -0.082 A 
ATOM      4  C2  PXY d   1       1.828   2.023  -0.820  0.00  0.00     0.003 A 
ATOM      5  C3  PXY d   1       0.823   1.461  -0.075  0.00  0.00     0.003 A 
ATOM      6  C4  PXY d   1       0.997   0.236   0.511  0.00  0.00    -0.082 A 
ATOM      7  C5  PXY d   1       2.181  -0.399   0.386  0.00  0.00     0.003 A 
ATOM      8  C6  PXY d   1       3.202   0.207  -0.340  0.00  0.00     0.003 A 
ENDROOT
TORSDOF 0
ENDMDL
