MODEL 1
REMARK minimizedAffinity 7.95200205
REMARK minimizedRMSD -1
REMARK  0 active torsions:
REMARK  status: ('A' for Active; 'I' for Inactive)
ROOT
ATOM      1  C4' PXY d   1      -3.379  -4.459   1.955  0.00  0.00     0.077 C 
ATOM      2  C1' PXY d   1      -5.996  -6.000  -2.963  0.00  0.00     0.077 C 
ATOM      3  C1  PXY d   1      -5.298  -5.597  -1.679  0.00  0.00    -0.082 A 
ATOM      4  C2  PXY d   1      -5.918  -5.754  -0.521  0.00  0.00     0.003 A 
ATOM      5  C3  PXY d   1      -5.314  -5.366   0.647  0.00  0.00     0.003 A 
ATOM      6  C4  PXY d   1      -4.042  -4.860   0.634  0.00  0.00    -0.082 A 
ATOM      7  C5  PXY d   1      -3.398  -4.707  -0.542  0.00  0.00     0.003 A 
ATOM      8  C6  PXY d   1      -4.045  -5.069  -1.721  0.00  0.00     0.003 A 
ENDROOT
TORSDOF 0
ENDMDL
