MODEL 1
REMARK minimizedAffinity 7.26972389
REMARK minimizedRMSD -1
REMARK  0 active torsions:
REMARK  status: ('A' for Active; 'I' for Inactive)
ROOT
ATOM      1  C4' PXY d   1       4.906  -0.644   2.322  0.00  0.00     0.077 C 
ATOM      2  C1' PXY d   1       0.568  -0.433  -1.493  0.00  0.00     0.077 C 
ATOM      3  C1  PXY d   1       1.699  -0.498  -0.486  0.00  0.00    -0.082 A 
ATOM      4  C2  PXY d   1       2.473   0.560  -0.302  0.00  0.00     0.003 A 
ATOM      5  C3  PXY d   1       3.520   0.508   0.581  0.00  0.00     0.003 A 
ATOM      6  C4  PXY d   1       3.746  -0.621   1.323  0.00  0.00    -0.082 A 
ATOM      7  C5  PXY d   1       2.955  -1.700   1.149  0.00  0.00     0.003 A 
ATOM      8  C6  PXY d   1       1.922  -1.641   0.217  0.00  0.00     0.003 A 
ENDROOT
TORSDOF 0
ENDMDL
