MODEL 1
REMARK minimizedAffinity 2.42122245
REMARK minimizedRMSD -1
REMARK  0 active torsions:
REMARK  status: ('A' for Active; 'I' for Inactive)
ROOT
ATOM      1  C4' PXY d   1      -2.927  -3.375   1.570  0.00  0.00     0.077 C 
ATOM      2  C1' PXY d   1       0.748   0.646  -0.364  0.00  0.00     0.077 C 
ATOM      3  C1  PXY d   1      -0.219  -0.401   0.154  0.00  0.00    -0.082 A 
ATOM      4  C2  PXY d   1      -0.059  -1.667  -0.194  0.00  0.00     0.003 A 
ATOM      5  C3  PXY d   1      -0.943  -2.622   0.239  0.00  0.00     0.003 A 
ATOM      6  C4  PXY d   1      -1.969  -2.286   1.079  0.00  0.00    -0.082 A 
ATOM      7  C5  PXY d   1      -2.133  -0.997   1.448  0.00  0.00     0.003 A 
ATOM      8  C6  PXY d   1      -1.249  -0.037   0.964  0.00  0.00     0.003 A 
ENDROOT
TORSDOF 0
ENDMDL
