MODEL 1
REMARK minimizedAffinity 1.27158415
REMARK minimizedRMSD -1
REMARK  0 active torsions:
REMARK  status: ('A' for Active; 'I' for Inactive)
ROOT
ATOM      1  C4' PXY d   1       1.800  -1.937   3.922  0.00  0.00     0.077 C 
ATOM      2  C1' PXY d   1       1.660   0.317  -1.399  0.00  0.00     0.077 C 
ATOM      3  C1  PXY d   1       1.706  -0.283  -0.007  0.00  0.00    -0.082 A 
ATOM      4  C2  PXY d   1       0.644  -0.198   0.777  0.00  0.00     0.003 A 
ATOM      5  C3  PXY d   1       0.679  -0.706   2.050  0.00  0.00     0.003 A 
ATOM      6  C4  PXY d   1       1.796  -1.355   2.506  0.00  0.00    -0.082 A 
ATOM      7  C5  PXY d   1       2.880  -1.454   1.708  0.00  0.00     0.003 A 
ATOM      8  C6  PXY d   1       2.838  -0.896   0.434  0.00  0.00     0.003 A 
ENDROOT
TORSDOF 0
ENDMDL
