MODEL 1
REMARK minimizedAffinity -1.91358662
REMARK minimizedRMSD -1
REMARK  0 active torsions:
REMARK  status: ('A' for Active; 'I' for Inactive)
ROOT
ATOM      1  C4' PXY d   1       2.708   1.026  -1.594  0.00  0.00     0.077 C 
ATOM      2  C1' PXY d   1       0.778  -2.201   2.797  0.00  0.00     0.077 C 
ATOM      3  C1  PXY d   1       1.272  -1.352   1.642  0.00  0.00    -0.082 A 
ATOM      4  C2  PXY d   1       2.463  -1.590   1.117  0.00  0.00     0.003 A 
ATOM      5  C3  PXY d   1       2.939  -0.812   0.094  0.00  0.00     0.003 A 
ATOM      6  C4  PXY d   1       2.165   0.188  -0.434  0.00  0.00    -0.082 A 
ATOM      7  C5  PXY d   1       0.944   0.430   0.089  0.00  0.00     0.003 A 
ATOM      8  C6  PXY d   1       0.497  -0.345   1.155  0.00  0.00     0.003 A 
ENDROOT
TORSDOF 0
ENDMDL
