MODEL 1
REMARK minimizedAffinity -5.81460905
REMARK minimizedRMSD -1
REMARK  0 active torsions:
REMARK  status: ('A' for Active; 'I' for Inactive)
ROOT
ATOM      1  C4' PXY d   1      -2.129   1.261  -0.676  0.00  0.00     0.077 C 
ATOM      2  C1' PXY d   1       0.641  -2.676   2.524  0.00  0.00     0.077 C 
ATOM      3  C1  PXY d   1      -0.094  -1.642   1.695  0.00  0.00    -0.082 A 
ATOM      4  C2  PXY d   1      -0.033  -1.699   0.374  0.00  0.00     0.003 A 
ATOM      5  C3  PXY d   1      -0.665  -0.752  -0.390  0.00  0.00     0.003 A 
ATOM      6  C4  PXY d   1      -1.411   0.232   0.201  0.00  0.00    -0.082 A 
ATOM      7  C5  PXY d   1      -1.486   0.290   1.548  0.00  0.00     0.003 A 
ATOM      8  C6  PXY d   1      -0.804  -0.655   2.307  0.00  0.00     0.003 A 
ENDROOT
TORSDOF 0
ENDMDL
