MODEL 1
REMARK minimizedAffinity -0.631259501
REMARK minimizedRMSD -1
REMARK  0 active torsions:
REMARK  status: ('A' for Active; 'I' for Inactive)
ROOT
ATOM      1  C4' PXY d   1      -0.642   2.589  -1.036  0.00  0.00     0.077 C 
ATOM      2  C1' PXY d   1       2.121  -1.728   1.637  0.00  0.00     0.077 C 
ATOM      3  C1  PXY d   1       1.385  -0.602   0.938  0.00  0.00    -0.082 A 
ATOM      4  C2  PXY d   1       2.033   0.169   0.079  0.00  0.00     0.003 A 
ATOM      5  C3  PXY d   1       1.390   1.212  -0.538  0.00  0.00     0.003 A 
ATOM      6  C4  PXY d   1       0.058   1.435  -0.314  0.00  0.00    -0.082 A 
ATOM      7  C5  PXY d   1      -0.612   0.646   0.552  0.00  0.00     0.003 A 
ATOM      8  C6  PXY d   1       0.068  -0.382   1.200  0.00  0.00     0.003 A 
ENDROOT
TORSDOF 0
ENDMDL
