MODEL 1
REMARK minimizedAffinity -3.25343013
REMARK minimizedRMSD -1
REMARK  0 active torsions:
REMARK  status: ('A' for Active; 'I' for Inactive)
ROOT
ATOM      1  C4' PXY d   1      -1.541   1.699  -3.022  0.00  0.00     0.077 C 
ATOM      2  C1' PXY d   1      -1.375  -0.617   2.271  0.00  0.00     0.077 C 
ATOM      3  C1  PXY d   1      -1.411   0.000   0.887  0.00  0.00    -0.082 A 
ATOM      4  C2  PXY d   1      -2.420  -0.272   0.076  0.00  0.00     0.003 A 
ATOM      5  C3  PXY d   1      -2.452   0.252  -1.191  0.00  0.00     0.003 A 
ATOM      6  C4  PXY d   1      -1.468   1.106  -1.612  0.00  0.00    -0.082 A 
ATOM      7  C5  PXY d   1      -0.441   1.397  -0.787  0.00  0.00     0.003 A 
ATOM      8  C6  PXY d   1      -0.406   0.822   0.480  0.00  0.00     0.003 A 
ENDROOT
TORSDOF 0
ENDMDL
