MODEL 1
REMARK minimizedAffinity 21.4807034
REMARK minimizedRMSD -1
REMARK  3 active torsions:
REMARK  status: ('A' for Active; 'I' for Inactive)
REMARK    1  A    between atoms: C3'_2  and  C2'_3 
REMARK    2  A    between atoms: C2'_3  and  C1'_4 
REMARK    3  A    between atoms: C1'_4  and  C1_5 
ROOT
ATOM      1  C1  N4B d   1      -0.407  -2.810  -1.715  0.00  0.00    -0.075 A 
ATOM      2  C2  N4B d   1       0.275  -2.853  -0.478  0.00  0.00     0.002 A 
ATOM      3  C3  N4B d   1       1.108  -1.823  -0.117  0.00  0.00     0.002 A 
ATOM      4  C4  N4B d   1       1.289  -0.753  -0.980  0.00  0.00    -0.004 A 
ATOM      5  C5  N4B d   1       0.608  -0.706  -2.161  0.00  0.00     0.002 A 
ATOM      6  C6  N4B d   1      -0.236  -1.733  -2.535  0.00  0.00     0.002 A 
ENDROOT
BRANCH   1   7
ATOM      7  C1' N4B d   1      -1.261  -3.953  -2.191  0.00  0.00     0.057 C 
BRANCH   7   8
ATOM      8  C2' N4B d   1      -0.373  -5.163  -2.462  0.00  0.00     0.009 C 
BRANCH   8   9
ATOM      9  C3' N4B d   1      -0.885  -5.995  -3.626  0.00  0.00     0.004 C 
ATOM     10  C4' N4B d   1      -0.752  -5.293  -4.944  0.00  0.00     0.003 C 
ENDBRANCH   8   9
ENDBRANCH   7   8
ENDBRANCH   1   7
TORSDOF 3
ENDMDL
