MODEL 1
REMARK minimizedAffinity 9.46988297
REMARK minimizedRMSD -1
REMARK  3 active torsions:
REMARK  status: ('A' for Active; 'I' for Inactive)
REMARK    1  A    between atoms: C3'_2  and  C2'_3 
REMARK    2  A    between atoms: C2'_3  and  C1'_4 
REMARK    3  A    between atoms: C1'_4  and  C1_5 
ROOT
ATOM      1  C1  N4B d   1      -0.037  -2.209  -1.970  0.00  0.00    -0.075 A 
ATOM      2  C2  N4B d   1       0.420  -2.454  -0.657  0.00  0.00     0.002 A 
ATOM      3  C3  N4B d   1       1.462  -1.720  -0.145  0.00  0.00     0.002 A 
ATOM      4  C4  N4B d   1       2.071  -0.753  -0.931  0.00  0.00    -0.004 A 
ATOM      5  C5  N4B d   1       1.607  -0.505  -2.189  0.00  0.00     0.002 A 
ATOM      6  C6  N4B d   1       0.558  -1.232  -2.715  0.00  0.00     0.002 A 
ENDROOT
BRANCH   1   7
ATOM      7  C1' N4B d   1      -1.117  -3.044  -2.603  0.00  0.00     0.057 C 
BRANCH   7   8
ATOM      8  C2' N4B d   1      -1.342  -4.295  -1.760  0.00  0.00     0.009 C 
BRANCH   8   9
ATOM      9  C3' N4B d   1      -2.800  -4.720  -1.752  0.00  0.00     0.004 C 
ATOM     10  C4' N4B d   1      -3.222  -5.326  -0.447  0.00  0.00     0.003 C 
ENDBRANCH   8   9
ENDBRANCH   7   8
ENDBRANCH   1   7
TORSDOF 3
ENDMDL
