MODEL 1
REMARK minimizedAffinity 20.649292
REMARK minimizedRMSD -1
REMARK  3 active torsions:
REMARK  status: ('A' for Active; 'I' for Inactive)
REMARK    1  A    between atoms: C3'_2  and  C2'_3 
REMARK    2  A    between atoms: C2'_3  and  C1'_4 
REMARK    3  A    between atoms: C1'_4  and  C1_5 
ROOT
ATOM      1  C1  N4B d   1      -0.022  -5.228  -2.267  0.00  0.00    -0.075 A 
ATOM      2  C2  N4B d   1      -0.739  -5.629  -3.417  0.00  0.00     0.002 A 
ATOM      3  C3  N4B d   1      -1.866  -4.943  -3.797  0.00  0.00     0.002 A 
ATOM      4  C4  N4B d   1      -2.305  -3.870  -3.036  0.00  0.00    -0.004 A 
ATOM      5  C5  N4B d   1      -1.593  -3.473  -1.942  0.00  0.00     0.002 A 
ATOM      6  C6  N4B d   1      -0.456  -4.150  -1.551  0.00  0.00     0.002 A 
ENDROOT
BRANCH   1   7
ATOM      7  C1' N4B d   1       1.167  -5.999  -1.764  0.00  0.00     0.057 C 
BRANCH   7   8
ATOM      8  C2' N4B d   1       1.886  -5.173  -0.701  0.00  0.00     0.009 C 
BRANCH   8   9
ATOM      9  C3' N4B d   1       3.243  -5.758  -0.349  0.00  0.00     0.004 C 
ATOM     10  C4' N4B d   1       4.340  -5.256  -1.239  0.00  0.00     0.003 C 
ENDBRANCH   8   9
ENDBRANCH   7   8
ENDBRANCH   1   7
TORSDOF 3
ENDMDL
