MODEL 1
REMARK minimizedAffinity 13.5475531
REMARK minimizedRMSD -1
REMARK  3 active torsions:
REMARK  status: ('A' for Active; 'I' for Inactive)
REMARK    1  A    between atoms: C3'_2  and  C2'_3 
REMARK    2  A    between atoms: C2'_3  and  C1'_4 
REMARK    3  A    between atoms: C1'_4  and  C1_5 
ROOT
ATOM      1  C1  N4B d   1      -3.965   0.081   3.930  0.00  0.00    -0.075 A 
ATOM      2  C2  N4B d   1      -4.506  -1.105   3.387  0.00  0.00     0.002 A 
ATOM      3  C3  N4B d   1      -4.606  -2.232   4.165  0.00  0.00     0.002 A 
ATOM      4  C4  N4B d   1      -4.154  -2.203   5.476  0.00  0.00    -0.004 A 
ATOM      5  C5  N4B d   1      -3.656  -1.047   6.000  0.00  0.00     0.002 A 
ATOM      6  C6  N4B d   1      -3.554   0.095   5.231  0.00  0.00     0.002 A 
ENDROOT
BRANCH   1   7
ATOM      7  C1' N4B d   1      -3.757   1.314   3.094  0.00  0.00     0.057 C 
BRANCH   7   8
ATOM      8  C2' N4B d   1      -3.589   2.521   4.013  0.00  0.00     0.009 C 
BRANCH   8   9
ATOM      9  C3' N4B d   1      -4.920   3.005   4.563  0.00  0.00     0.004 C 
ATOM     10  C4' N4B d   1      -4.836   3.428   5.999  0.00  0.00     0.003 C 
ENDBRANCH   8   9
ENDBRANCH   7   8
ENDBRANCH   1   7
TORSDOF 3
ENDMDL
