MODEL 1
REMARK minimizedAffinity 12.3835201
REMARK minimizedRMSD -1
REMARK  3 active torsions:
REMARK  status: ('A' for Active; 'I' for Inactive)
REMARK    1  A    between atoms: C3'_2  and  C2'_3 
REMARK    2  A    between atoms: C2'_3  and  C1'_4 
REMARK    3  A    between atoms: C1'_4  and  C1_5 
ROOT
ATOM      1  C1  N4B d   1      -0.557   1.912   3.915  0.00  0.00    -0.075 A 
ATOM      2  C2  N4B d   1      -0.448   2.244   5.283  0.00  0.00     0.002 A 
ATOM      3  C3  N4B d   1       0.658   1.854   5.998  0.00  0.00     0.002 A 
ATOM      4  C4  N4B d   1       1.654   1.118   5.373  0.00  0.00    -0.004 A 
ATOM      5  C5  N4B d   1       1.552   0.823   4.045  0.00  0.00     0.002 A 
ATOM      6  C6  N4B d   1       0.448   1.213   3.313  0.00  0.00     0.002 A 
ENDROOT
BRANCH   1   7
ATOM      7  C1' N4B d   1      -1.787   2.243   3.113  0.00  0.00     0.057 C 
BRANCH   7   8
ATOM      8  C2' N4B d   1      -2.721   1.036   3.108  0.00  0.00     0.009 C 
BRANCH   8   9
ATOM      9  C3' N4B d   1      -4.143   1.417   3.480  0.00  0.00     0.004 C 
ATOM     10  C4' N4B d   1      -4.212   2.665   4.309  0.00  0.00     0.003 C 
ENDBRANCH   8   9
ENDBRANCH   7   8
ENDBRANCH   1   7
TORSDOF 3
ENDMDL
