MODEL 1
REMARK minimizedAffinity 10.398674
REMARK minimizedRMSD -1
REMARK  3 active torsions:
REMARK  status: ('A' for Active; 'I' for Inactive)
REMARK    1  A    between atoms: C3'_2  and  C2'_3 
REMARK    2  A    between atoms: C2'_3  and  C1'_4 
REMARK    3  A    between atoms: C1'_4  and  C1_5 
ROOT
ATOM      1  C1  N4B d   1      -0.699   1.432   2.318  0.00  0.00    -0.075 A 
ATOM      2  C2  N4B d   1      -0.795   1.347   3.724  0.00  0.00     0.002 A 
ATOM      3  C3  N4B d   1      -2.028   1.307   4.327  0.00  0.00     0.002 A 
ATOM      4  C4  N4B d   1      -3.174   1.368   3.548  0.00  0.00    -0.004 A 
ATOM      5  C5  N4B d   1      -3.073   1.424   2.189  0.00  0.00     0.002 A 
ATOM      6  C6  N4B d   1      -1.840   1.461   1.570  0.00  0.00     0.002 A 
ENDROOT
BRANCH   1   7
ATOM      7  C1' N4B d   1       0.627   1.566   1.619  0.00  0.00     0.057 C 
BRANCH   7   8
ATOM      8  C2' N4B d   1       1.072   0.193   1.123  0.00  0.00     0.009 C 
BRANCH   8   9
ATOM      9  C3' N4B d   1       1.910   0.290  -0.140  0.00  0.00     0.004 C 
ATOM     10  C4' N4B d   1       1.581  -0.779  -1.139  0.00  0.00     0.003 C 
ENDBRANCH   8   9
ENDBRANCH   7   8
ENDBRANCH   1   7
TORSDOF 3
ENDMDL
