MODEL 1
REMARK minimizedAffinity 7.61280489
REMARK minimizedRMSD -1
REMARK  3 active torsions:
REMARK  status: ('A' for Active; 'I' for Inactive)
REMARK    1  A    between atoms: C3'_2  and  C2'_3 
REMARK    2  A    between atoms: C2'_3  and  C1'_4 
REMARK    3  A    between atoms: C1'_4  and  C1_5 
ROOT
ATOM      1  C1  N4B d   1      -0.621   1.815   3.732  0.00  0.00    -0.075 A 
ATOM      2  C2  N4B d   1       0.407   0.910   3.385  0.00  0.00     0.002 A 
ATOM      3  C3  N4B d   1       1.248   0.422   4.354  0.00  0.00     0.002 A 
ATOM      4  C4  N4B d   1       1.094   0.837   5.669  0.00  0.00    -0.004 A 
ATOM      5  C5  N4B d   1       0.083   1.690   6.000  0.00  0.00     0.002 A 
ATOM      6  C6  N4B d   1      -0.773   2.186   5.037  0.00  0.00     0.002 A 
ENDROOT
BRANCH   1   7
ATOM      7  C1' N4B d   1      -1.511   2.442   2.694  0.00  0.00     0.057 C 
BRANCH   7   8
ATOM      8  C2' N4B d   1      -2.526   1.408   2.215  0.00  0.00     0.009 C 
BRANCH   8   9
ATOM      9  C3' N4B d   1      -3.482   0.995   3.321  0.00  0.00     0.004 C 
ATOM     10  C4' N4B d   1      -4.160   2.164   3.970  0.00  0.00     0.003 C 
ENDBRANCH   8   9
ENDBRANCH   7   8
ENDBRANCH   1   7
TORSDOF 3
ENDMDL
