MODEL 1
REMARK minimizedAffinity 16.1379433
REMARK minimizedRMSD -1
REMARK  3 active torsions:
REMARK  status: ('A' for Active; 'I' for Inactive)
REMARK    1  A    between atoms: C3'_2  and  C2'_3 
REMARK    2  A    between atoms: C2'_3  and  C1'_4 
REMARK    3  A    between atoms: C1'_4  and  C1_5 
ROOT
ATOM      1  C1  N4B d   1       1.352  -1.446  -2.373  0.00  0.00    -0.075 A 
ATOM      2  C2  N4B d   1       0.750  -1.901  -1.179  0.00  0.00     0.002 A 
ATOM      3  C3  N4B d   1       0.682  -1.074  -0.085  0.00  0.00     0.002 A 
ATOM      4  C4  N4B d   1       1.224   0.201  -0.155  0.00  0.00    -0.004 A 
ATOM      5  C5  N4B d   1       1.781   0.642  -1.319  0.00  0.00     0.002 A 
ATOM      6  C6  N4B d   1       1.853  -0.177  -2.428  0.00  0.00     0.002 A 
ENDROOT
BRANCH   1   7
ATOM      7  C1' N4B d   1       1.526  -2.343  -3.567  0.00  0.00     0.057 C 
BRANCH   7   8
ATOM      8  C2' N4B d   1       1.829  -1.490  -4.795  0.00  0.00     0.009 C 
BRANCH   8   9
ATOM      9  C3' N4B d   1       2.225  -2.337  -5.992  0.00  0.00     0.004 C 
ATOM     10  C4' N4B d   1       3.680  -2.698  -5.993  0.00  0.00     0.003 C 
ENDBRANCH   8   9
ENDBRANCH   7   8
ENDBRANCH   1   7
TORSDOF 3
ENDMDL
