MODEL 1
REMARK minimizedAffinity 11.494647
REMARK minimizedRMSD -1
REMARK  1 active torsions:
REMARK  status: ('A' for Active; 'I' for Inactive)
REMARK    1  A    between atoms: C1_2  and  C2_3 
ROOT
ATOM      1  C2  UNL d   1       0.954  -1.870   1.024  0.00  0.00    -0.081 A 
ATOM      2  C3  UNL d   1       0.409  -1.941   2.312  0.00  0.00     0.006 A 
ATOM      3  C4  UNL d   1      -0.673  -1.132   2.669  0.00  0.00     0.002 A 
ATOM      4  C5  UNL d   1      -1.232  -0.245   1.742  0.00  0.00    -0.080 A 
ATOM      5  C6  UNL d   1      -2.412   0.607   2.103  0.00  0.00     0.076 C 
ATOM      6  C7  UNL d   1      -0.677  -0.161   0.461  0.00  0.00     0.002 A 
ATOM      7  C8  UNL d   1       0.405  -0.969   0.104  0.00  0.00     0.006 A 
ENDROOT
BRANCH   1   8
ATOM      8  C1  UNL d   1       2.078  -2.787   0.616  0.00  0.00     0.054 C 
ATOM      9  C   UNL d   1       2.136  -4.021   1.505  0.00  0.00     0.018 C 
ENDBRANCH   1   8
TORSDOF 1
ENDMDL
