MODEL 1
REMARK minimizedAffinity 2.82216144
REMARK minimizedRMSD -1
REMARK  1 active torsions:
REMARK  status: ('A' for Active; 'I' for Inactive)
REMARK    1  A    between atoms: C1_2  and  C2_3 
ROOT
ATOM      1  C2  UNL d   1       0.958  -0.722   0.085  0.00  0.00    -0.081 A 
ATOM      2  C3  UNL d   1       1.528  -1.935   0.490  0.00  0.00     0.006 A 
ATOM      3  C4  UNL d   1       1.000  -2.638   1.575  0.00  0.00     0.002 A 
ATOM      4  C5  UNL d   1      -0.110  -2.145   2.268  0.00  0.00    -0.080 A 
ATOM      5  C6  UNL d   1      -0.705  -2.905   3.416  0.00  0.00     0.076 C 
ATOM      6  C7  UNL d   1      -0.669  -0.924   1.875  0.00  0.00     0.002 A 
ATOM      7  C8  UNL d   1      -0.141  -0.221   0.790  0.00  0.00     0.006 A 
ENDROOT
BRANCH   1   8
ATOM      8  C1  UNL d   1       1.485   0.006  -1.126  0.00  0.00     0.054 C 
ATOM      9  C   UNL d   1       2.430   1.130  -0.727  0.00  0.00     0.018 C 
ENDBRANCH   1   8
TORSDOF 1
ENDMDL
