MODEL 1
REMARK minimizedAffinity -1.46677768
REMARK minimizedRMSD -1
REMARK  1 active torsions:
REMARK  status: ('A' for Active; 'I' for Inactive)
REMARK    1  A    between atoms: C1_2  and  C2_3 
ROOT
ATOM      1  C2  UNL d   1       4.243   5.271   3.709  0.00  0.00    -0.081 A 
ATOM      2  C3  UNL d   1       3.903   5.745   4.983  0.00  0.00     0.006 A 
ATOM      3  C4  UNL d   1       2.568   5.993   5.313  0.00  0.00     0.002 A 
ATOM      4  C5  UNL d   1       1.552   5.766   4.379  0.00  0.00    -0.080 A 
ATOM      5  C6  UNL d   1       0.113   6.000   4.730  0.00  0.00     0.076 C 
ATOM      6  C7  UNL d   1       1.893   5.310   3.101  0.00  0.00     0.002 A 
ATOM      7  C8  UNL d   1       3.227   5.062   2.770  0.00  0.00     0.006 A 
ENDROOT
BRANCH   1   8
ATOM      8  C1  UNL d   1       5.674   4.941   3.372  0.00  0.00     0.054 C 
ATOM      9  C   UNL d   1       5.998   5.295   1.927  0.00  0.00     0.018 C 
ENDBRANCH   1   8
TORSDOF 1
ENDMDL
