MODEL 1
REMARK minimizedAffinity 4.88354921
REMARK minimizedRMSD -1
REMARK  1 active torsions:
REMARK  status: ('A' for Active; 'I' for Inactive)
REMARK    1  A    between atoms: C1_2  and  C2_3 
ROOT
ATOM      1  C2  UNL d   1       1.090  -1.995   1.170  0.00  0.00    -0.081 A 
ATOM      2  C3  UNL d   1       1.097  -3.331   1.587  0.00  0.00     0.006 A 
ATOM      3  C4  UNL d   1       0.237  -3.761   2.601  0.00  0.00     0.002 A 
ATOM      4  C5  UNL d   1      -0.648  -2.864   3.209  0.00  0.00    -0.080 A 
ATOM      5  C6  UNL d   1      -1.597  -3.319   4.277  0.00  0.00     0.076 C 
ATOM      6  C7  UNL d   1      -0.642  -1.525   2.804  0.00  0.00     0.002 A 
ATOM      7  C8  UNL d   1       0.217  -1.095   1.791  0.00  0.00     0.006 A 
ENDROOT
BRANCH   1   8
ATOM      8  C1  UNL d   1       1.970  -1.542   0.033  0.00  0.00     0.054 C 
ATOM      9  C   UNL d   1       1.291  -0.461  -0.795  0.00  0.00     0.018 C 
ENDBRANCH   1   8
TORSDOF 1
ENDMDL
