MODEL 1
REMARK minimizedAffinity 6.54975367
REMARK minimizedRMSD -1
REMARK  1 active torsions:
REMARK  status: ('A' for Active; 'I' for Inactive)
REMARK    1  A    between atoms: C1_2  and  C2_3 
ROOT
ATOM      1  C2  UNL d   1      -3.839  -1.138  -2.564  0.00  0.00    -0.077 A 
ATOM      2  C3  UNL d   1      -5.196  -0.917  -2.289  0.00  0.00     0.002 A 
ATOM      3  C4  UNL d   1      -5.998  -1.955  -1.812  0.00  0.00     0.002 A 
ATOM      4  C5  UNL d   1      -5.453  -3.220  -1.602  0.00  0.00    -0.004 A 
ATOM      5  C6  UNL d   1      -4.105  -3.450  -1.874  0.00  0.00     0.002 A 
ATOM      6  C7  UNL d   1      -3.301  -2.414  -2.352  0.00  0.00     0.002 A 
ENDROOT
BRANCH   1   7
ATOM      7  C1  UNL d   1      -2.961  -0.007  -3.032  0.00  0.00     0.055 C 
ATOM      8  C   UNL d   1      -3.555   1.344  -2.663  0.00  0.00     0.019 C 
ENDBRANCH   1   7
TORSDOF 1
ENDMDL
