MODEL 1
REMARK minimizedAffinity 4.96600389
REMARK minimizedRMSD -1
REMARK  1 active torsions:
REMARK  status: ('A' for Active; 'I' for Inactive)
REMARK    1  A    between atoms: C1_2  and  C2_3 
ROOT
ATOM      1  C2  UNL d   1      -3.071   2.482   0.524  0.00  0.00    -0.077 A 
ATOM      2  C3  UNL d   1      -4.010   2.105   1.494  0.00  0.00     0.002 A 
ATOM      3  C4  UNL d   1      -5.272   2.703   1.526  0.00  0.00     0.002 A 
ATOM      4  C5  UNL d   1      -5.606   3.678   0.589  0.00  0.00    -0.004 A 
ATOM      5  C6  UNL d   1      -4.678   4.062  -0.378  0.00  0.00     0.002 A 
ATOM      6  C7  UNL d   1      -3.417   3.466  -0.411  0.00  0.00     0.002 A 
ENDROOT
BRANCH   1   7
ATOM      7  C1  UNL d   1      -1.728   1.803   0.456  0.00  0.00     0.055 C 
ATOM      8  C   UNL d   1      -1.866   0.343   0.048  0.00  0.00     0.019 C 
ENDBRANCH   1   7
TORSDOF 1
ENDMDL
