MODEL 1
REMARK minimizedAffinity 8.23330498
REMARK minimizedRMSD -1
REMARK  1 active torsions:
REMARK  status: ('A' for Active; 'I' for Inactive)
REMARK    1  A    between atoms: C1_2  and  C2_3 
ROOT
ATOM      1  C2  UNL d   1       2.388  -1.969   3.097  0.00  0.00    -0.077 A 
ATOM      2  C3  UNL d   1       3.523  -2.046   3.916  0.00  0.00     0.002 A 
ATOM      3  C4  UNL d   1       4.010  -3.286   4.333  0.00  0.00     0.002 A 
ATOM      4  C5  UNL d   1       3.371  -4.458   3.933  0.00  0.00    -0.004 A 
ATOM      5  C6  UNL d   1       2.240  -4.392   3.121  0.00  0.00     0.002 A 
ATOM      6  C7  UNL d   1       1.751  -3.153   2.704  0.00  0.00     0.002 A 
ENDROOT
BRANCH   1   7
ATOM      7  C1  UNL d   1       1.890  -0.635   2.606  0.00  0.00     0.055 C 
ATOM      8  C   UNL d   1       2.893   0.019   1.667  0.00  0.00     0.019 C 
ENDBRANCH   1   7
TORSDOF 1
ENDMDL
