MODEL 1
REMARK minimizedAffinity 8.38112545
REMARK minimizedRMSD -1
REMARK  1 active torsions:
REMARK  status: ('A' for Active; 'I' for Inactive)
REMARK    1  A    between atoms: C1_2  and  C2_3 
ROOT
ATOM      1  C2  UNL d   1      -3.702   2.634  -0.026  0.00  0.00    -0.077 A 
ATOM      2  C3  UNL d   1      -4.626   3.018  -1.009  0.00  0.00     0.002 A 
ATOM      3  C4  UNL d   1      -5.770   3.739  -0.660  0.00  0.00     0.002 A 
ATOM      4  C5  UNL d   1      -5.997   4.087   0.670  0.00  0.00    -0.004 A 
ATOM      5  C6  UNL d   1      -5.085   3.708   1.654  0.00  0.00     0.002 A 
ATOM      6  C7  UNL d   1      -3.943   2.986   1.308  0.00  0.00     0.002 A 
ENDROOT
BRANCH   1   7
ATOM      7  C1  UNL d   1      -2.444   1.899  -0.407  0.00  0.00     0.055 C 
ATOM      8  C   UNL d   1      -2.583   1.232  -1.768  0.00  0.00     0.019 C 
ENDBRANCH   1   7
TORSDOF 1
ENDMDL
