MODEL 1
REMARK minimizedAffinity 2.68783832
REMARK minimizedRMSD -1
REMARK  1 active torsions:
REMARK  status: ('A' for Active; 'I' for Inactive)
REMARK    1  A    between atoms: C1_2  and  C2_3 
ROOT
ATOM      1  C2  UNL d   1       2.106  -4.114   4.410  0.00  0.00    -0.077 A 
ATOM      2  C3  UNL d   1       3.183  -3.271   4.100  0.00  0.00     0.002 A 
ATOM      3  C4  UNL d   1       3.001  -2.174   3.256  0.00  0.00     0.002 A 
ATOM      4  C5  UNL d   1       1.744  -1.908   2.718  0.00  0.00    -0.004 A 
ATOM      5  C6  UNL d   1       0.667  -2.741   3.018  0.00  0.00     0.002 A 
ATOM      6  C7  UNL d   1       0.847  -3.838   3.861  0.00  0.00     0.002 A 
ENDROOT
BRANCH   1   7
ATOM      7  C1  UNL d   1       2.289  -5.268   5.360  0.00  0.00     0.055 C 
ATOM      8  C   UNL d   1       0.969  -5.675   5.997  0.00  0.00     0.019 C 
ENDBRANCH   1   7
TORSDOF 1
ENDMDL
