MODEL 1
REMARK minimizedAffinity 1.85696793
REMARK minimizedRMSD -1
REMARK  1 active torsions:
REMARK  status: ('A' for Active; 'I' for Inactive)
REMARK    1  A    between atoms: C1_2  and  C2_3 
ROOT
ATOM      1  C2  UNL d   1       3.342  -5.952  -3.294  0.00  0.00    -0.077 A 
ATOM      2  C3  UNL d   1       4.130  -5.955  -4.454  0.00  0.00     0.002 A 
ATOM      3  C4  UNL d   1       3.531  -5.979  -5.715  0.00  0.00     0.002 A 
ATOM      4  C5  UNL d   1       2.143  -5.998  -5.828  0.00  0.00    -0.004 A 
ATOM      5  C6  UNL d   1       1.350  -5.998  -4.681  0.00  0.00     0.002 A 
ATOM      6  C7  UNL d   1       1.947  -5.974  -3.420  0.00  0.00     0.002 A 
ENDROOT
BRANCH   1   7
ATOM      7  C1  UNL d   1       3.985  -5.876  -1.934  0.00  0.00     0.055 C 
ATOM      8  C   UNL d   1       2.942  -5.896  -0.827  0.00  0.00     0.019 C 
ENDBRANCH   1   7
TORSDOF 1
ENDMDL
