MODEL 1
REMARK minimizedAffinity -3.52239966
REMARK minimizedRMSD -1
REMARK  0 active torsions:
REMARK  status: ('A' for Active; 'I' for Inactive)
ROOT
ATOM      1  N1  IND d   1      -0.049   1.062   1.273  0.00  0.00    -0.196 N 
ATOM      2  C2  IND d   1      -1.123   1.240   0.447  0.00  0.00     0.054 A 
ATOM      3  C3  IND d   1      -1.078   0.361  -0.579  0.00  0.00    -0.031 A 
ATOM      4  C4  IND d   1       0.613  -1.524  -1.044  0.00  0.00     0.051 A 
ATOM      5  C5  IND d   1       1.789  -2.053  -0.589  0.00  0.00    -0.031 A 
ATOM      6  C6  IND d   1       2.423  -1.563   0.534  0.00  0.00     0.015 A 
ATOM      7  C7  IND d   1       1.897  -0.527   1.254  0.00  0.00    -0.016 A 
ATOM      8  C8  IND d   1       0.707   0.017   0.791  0.00  0.00    -0.047 A 
ATOM      9  C9  IND d   1       0.081  -0.449  -0.372  0.00  0.00    -0.096 A 
ATOM     10  HN1 IND d   1       0.125   1.526   1.976  0.00  0.00     0.298 HD
ENDROOT
TORSDOF 0
ENDMDL
