MODEL 1
REMARK minimizedAffinity -1.41232479
REMARK minimizedRMSD -1
REMARK  0 active torsions:
REMARK  status: ('A' for Active; 'I' for Inactive)
ROOT
ATOM      1  N1  IND d   1      -0.643  -0.604  -1.120  0.00  0.00    -0.196 N 
ATOM      2  C2  IND d   1      -1.605   0.050  -0.402  0.00  0.00     0.054 A 
ATOM      3  C3  IND d   1      -1.122   0.420   0.805  0.00  0.00    -0.031 A 
ATOM      4  C4  IND d   1       1.249   0.147   1.771  0.00  0.00     0.051 A 
ATOM      5  C5  IND d   1       2.463  -0.420   1.502  0.00  0.00    -0.031 A 
ATOM      6  C6  IND d   1       2.710  -1.088   0.320  0.00  0.00     0.015 A 
ATOM      7  C7  IND d   1       1.751  -1.205  -0.646  0.00  0.00    -0.016 A 
ATOM      8  C8  IND d   1       0.514  -0.637  -0.373  0.00  0.00    -0.047 A 
ATOM      9  C9  IND d   1       0.245   0.006   0.842  0.00  0.00    -0.096 A 
ATOM     10  HN1 IND d   1      -0.743  -0.939  -1.906  0.00  0.00     0.298 HD
ENDROOT
TORSDOF 0
ENDMDL
