MODEL 1
REMARK minimizedAffinity -3.73813653
REMARK minimizedRMSD -1
REMARK  0 active torsions:
REMARK  status: ('A' for Active; 'I' for Inactive)
ROOT
ATOM      1  N1  IND d   1       3.412   1.095  -0.313  0.00  0.00    -0.196 N 
ATOM      2  C2  IND d   1       2.861   2.344  -0.228  0.00  0.00     0.054 A 
ATOM      3  C3  IND d   1       1.512   2.267  -0.286  0.00  0.00    -0.031 A 
ATOM      4  C4  IND d   1      -0.004   0.190  -0.414  0.00  0.00     0.051 A 
ATOM      5  C5  IND d   1       0.041  -1.169  -0.549  0.00  0.00    -0.031 A 
ATOM      6  C6  IND d   1       1.235  -1.857  -0.611  0.00  0.00     0.015 A 
ATOM      7  C7  IND d   1       2.435  -1.210  -0.528  0.00  0.00    -0.016 A 
ATOM      8  C8  IND d   1       2.394   0.171  -0.398  0.00  0.00    -0.047 A 
ATOM      9  C9  IND d   1       1.186   0.879  -0.378  0.00  0.00    -0.096 A 
ATOM     10  HN1 IND d   1       4.254   0.918  -0.313  0.00  0.00     0.298 HD
ENDROOT
TORSDOF 0
ENDMDL
