MODEL 1
REMARK minimizedAffinity -6.07324457
REMARK minimizedRMSD -1
REMARK  0 active torsions:
REMARK  status: ('A' for Active; 'I' for Inactive)
ROOT
ATOM      1  N1  IND d   1       0.942   1.817  -0.358  0.00  0.00    -0.196 N 
ATOM      2  C2  IND d   1       2.040   2.543   0.011  0.00  0.00     0.054 A 
ATOM      3  C3  IND d   1       3.014   1.724   0.468  0.00  0.00    -0.031 A 
ATOM      4  C4  IND d   1       3.058  -0.846   0.604  0.00  0.00     0.051 A 
ATOM      5  C5  IND d   1       2.273  -1.949   0.417  0.00  0.00    -0.031 A 
ATOM      6  C6  IND d   1       0.978  -1.850  -0.051  0.00  0.00     0.015 A 
ATOM      7  C7  IND d   1       0.422  -0.641  -0.360  0.00  0.00    -0.016 A 
ATOM      8  C8  IND d   1       1.215   0.481  -0.164  0.00  0.00    -0.047 A 
ATOM      9  C9  IND d   1       2.515   0.391   0.350  0.00  0.00    -0.096 A 
ATOM     10  HN1 IND d   1       0.205   2.141  -0.659  0.00  0.00     0.298 HD
ENDROOT
TORSDOF 0
ENDMDL
