MODEL 1
REMARK minimizedAffinity -3.95884585
REMARK minimizedRMSD -1
REMARK  0 active torsions:
REMARK  status: ('A' for Active; 'I' for Inactive)
ROOT
ATOM      1  N1  IND d   1       0.280   0.155  -0.885  0.00  0.00    -0.196 N 
ATOM      2  C2  IND d   1      -0.100   0.540   0.370  0.00  0.00     0.054 A 
ATOM      3  C3  IND d   1      -0.495  -0.533   1.092  0.00  0.00    -0.031 A 
ATOM      4  C4  IND d   1      -0.502  -3.025   0.446  0.00  0.00     0.051 A 
ATOM      5  C5  IND d   1      -0.277  -3.865  -0.608  0.00  0.00    -0.031 A 
ATOM      6  C6  IND d   1       0.157  -3.399  -1.832  0.00  0.00     0.015 A 
ATOM      7  C7  IND d   1       0.393  -2.071  -2.045  0.00  0.00    -0.016 A 
ATOM      8  C8  IND d   1       0.159  -1.214  -0.979  0.00  0.00    -0.047 A 
ATOM      9  C9  IND d   1      -0.322  -1.676   0.252  0.00  0.00    -0.096 A 
ATOM     10  HN1 IND d   1       0.549   0.680  -1.511  0.00  0.00     0.298 HD
ENDROOT
TORSDOF 0
ENDMDL
