MODEL 1
REMARK minimizedAffinity -2.35031366
REMARK minimizedRMSD -1
REMARK  0 active torsions:
REMARK  status: ('A' for Active; 'I' for Inactive)
ROOT
ATOM      1  N1  IND d   1       0.005   0.679  -1.542  0.00  0.00    -0.196 N 
ATOM      2  C2  IND d   1       0.542  -0.186  -2.455  0.00  0.00     0.054 A 
ATOM      3  C3  IND d   1       0.494  -1.453  -1.988  0.00  0.00    -0.031 A 
ATOM      4  C4  IND d   1      -0.514  -2.351   0.205  0.00  0.00     0.051 A 
ATOM      5  C5  IND d   1      -1.086  -1.939   1.376  0.00  0.00    -0.031 A 
ATOM      6  C6  IND d   1      -1.331  -0.606   1.638  0.00  0.00     0.015 A 
ATOM      7  C7  IND d   1      -1.022   0.367   0.730  0.00  0.00    -0.016 A 
ATOM      8  C8  IND d   1      -0.435  -0.047  -0.457  0.00  0.00    -0.047 A 
ATOM      9  C9  IND d   1      -0.145  -1.394  -0.711  0.00  0.00    -0.096 A 
ATOM     10  HN1 IND d   1      -0.049   1.532  -1.631  0.00  0.00     0.298 HD
ENDROOT
TORSDOF 0
ENDMDL
