MODEL 1
REMARK minimizedAffinity -4.11328936
REMARK minimizedRMSD -1
REMARK  0 active torsions:
REMARK  status: ('A' for Active; 'I' for Inactive)
ROOT
ATOM      1  N1  IND d   1      -0.537   1.463   0.656  0.00  0.00    -0.196 N 
ATOM      2  C2  IND d   1       0.066   2.095  -0.396  0.00  0.00     0.054 A 
ATOM      3  C3  IND d   1       0.709   1.199  -1.178  0.00  0.00    -0.031 A 
ATOM      4  C4  IND d   1       0.818  -1.366  -0.975  0.00  0.00     0.051 A 
ATOM      5  C5  IND d   1       0.453  -2.398  -0.157  0.00  0.00    -0.031 A 
ATOM      6  C6  IND d   1      -0.277  -2.192   0.995  0.00  0.00     0.015 A 
ATOM      7  C7  IND d   1      -0.681  -0.942   1.369  0.00  0.00    -0.016 A 
ATOM      8  C8  IND d   1      -0.307   0.110   0.544  0.00  0.00    -0.047 A 
ATOM      9  C9  IND d   1       0.470  -0.088  -0.604  0.00  0.00    -0.096 A 
ATOM     10  HN1 IND d   1      -0.984   1.847   1.282  0.00  0.00     0.298 HD
ENDROOT
TORSDOF 0
ENDMDL
