MODEL 1
REMARK minimizedAffinity -0.985922456
REMARK minimizedRMSD -1
REMARK  0 active torsions:
REMARK  status: ('A' for Active; 'I' for Inactive)
ROOT
ATOM      1  N1  IND d   1      -1.251  -2.583   1.078  0.00  0.00    -0.196 N 
ATOM      2  C2  IND d   1      -0.259  -3.357   0.545  0.00  0.00     0.054 A 
ATOM      3  C3  IND d   1       0.702  -2.579  -0.003  0.00  0.00    -0.031 A 
ATOM      4  C4  IND d   1       0.900  -0.013  -0.047  0.00  0.00     0.051 A 
ATOM      5  C5  IND d   1       0.219   1.126   0.282  0.00  0.00    -0.031 A 
ATOM      6  C6  IND d   1      -1.010   1.086   0.908  0.00  0.00     0.015 A 
ATOM      7  C7  IND d   1      -1.602  -0.100   1.240  0.00  0.00    -0.016 A 
ATOM      8  C8  IND d   1      -0.917  -1.259   0.902  0.00  0.00    -0.047 A 
ATOM      9  C9  IND d   1       0.311  -1.225   0.228  0.00  0.00    -0.096 A 
ATOM     10  HN1 IND d   1      -1.965  -2.875   1.460  0.00  0.00     0.298 HD
ENDROOT
TORSDOF 0
ENDMDL
