MODEL 1
REMARK minimizedAffinity -2.8107934
REMARK minimizedRMSD -1
REMARK  0 active torsions:
REMARK  status: ('A' for Active; 'I' for Inactive)
ROOT
ATOM      1  N1  IND d   1       0.652   0.954  -0.502  0.00  0.00    -0.196 N 
ATOM      2  C2  IND d   1      -0.198   1.623   0.334  0.00  0.00     0.054 A 
ATOM      3  C3  IND d   1      -0.879   0.750   1.109  0.00  0.00    -0.031 A 
ATOM      4  C4  IND d   1      -0.683  -1.814   1.247  0.00  0.00     0.051 A 
ATOM      5  C5  IND d   1      -0.068  -2.880   0.654  0.00  0.00    -0.031 A 
ATOM      6  C6  IND d   1       0.839  -2.720  -0.373  0.00  0.00     0.015 A 
ATOM      7  C7  IND d   1       1.175  -1.481  -0.840  0.00  0.00    -0.016 A 
ATOM      8  C8  IND d   1       0.547  -0.396  -0.246  0.00  0.00    -0.047 A 
ATOM      9  C9  IND d   1      -0.407  -0.555   0.768  0.00  0.00    -0.096 A 
ATOM     10  HN1 IND d   1       1.167   1.315  -1.088  0.00  0.00     0.298 HD
ENDROOT
TORSDOF 0
ENDMDL
