MODEL 1
REMARK minimizedAffinity -1.91623569
REMARK minimizedRMSD -1
REMARK  0 active torsions:
REMARK  status: ('A' for Active; 'I' for Inactive)
ROOT
ATOM      1  N1  IND d   1      -1.309  -2.281   1.408  0.00  0.00    -0.196 N 
ATOM      2  C2  IND d   1      -0.770  -3.329   0.714  0.00  0.00     0.054 A 
ATOM      3  C3  IND d   1      -0.114  -2.881  -0.380  0.00  0.00    -0.031 A 
ATOM      4  C4  IND d   1       0.289  -0.464  -1.171  0.00  0.00     0.051 A 
ATOM      5  C5  IND d   1      -0.040   0.831  -0.885  0.00  0.00    -0.031 A 
ATOM      6  C6  IND d   1      -0.821   1.163   0.203  0.00  0.00     0.015 A 
ATOM      7  C7  IND d   1      -1.296   0.207   1.056  0.00  0.00    -0.016 A 
ATOM      8  C8  IND d   1      -0.971  -1.110   0.765  0.00  0.00    -0.047 A 
ATOM      9  C9  IND d   1      -0.214  -1.456  -0.361  0.00  0.00    -0.096 A 
ATOM     10  HN1 IND d   1      -1.780  -2.343   2.125  0.00  0.00     0.298 HD
ENDROOT
TORSDOF 0
ENDMDL
