MODEL 1
REMARK minimizedAffinity -3.69011211
REMARK minimizedRMSD -1
REMARK  0 active torsions:
REMARK  status: ('A' for Active; 'I' for Inactive)
ROOT
ATOM      1  N1  IND d   1       0.071   0.584  -1.632  0.00  0.00    -0.196 N 
ATOM      2  C2  IND d   1      -0.044   1.191  -0.412  0.00  0.00     0.054 A 
ATOM      3  C3  IND d   1      -0.064   0.266   0.573  0.00  0.00    -0.031 A 
ATOM      4  C4  IND d   1       0.183  -2.292   0.421  0.00  0.00     0.051 A 
ATOM      5  C5  IND d   1       0.276  -3.313  -0.483  0.00  0.00    -0.031 A 
ATOM      6  C6  IND d   1       0.309  -3.083  -1.843  0.00  0.00     0.015 A 
ATOM      7  C7  IND d   1       0.261  -1.816  -2.352  0.00  0.00    -0.016 A 
ATOM      8  C8  IND d   1       0.160  -0.777  -1.438  0.00  0.00    -0.047 A 
ATOM      9  C9  IND d   1       0.083  -1.007  -0.058  0.00  0.00    -0.096 A 
ATOM     10  HN1 IND d   1       0.086   0.985  -2.392  0.00  0.00     0.298 HD
ENDROOT
TORSDOF 0
ENDMDL
