MODEL 1
REMARK minimizedAffinity -5.476336
REMARK minimizedRMSD -1
REMARK  0 active torsions:
REMARK  status: ('A' for Active; 'I' for Inactive)
ROOT
ATOM      1  N1  IND d   1      -0.345   0.153  -0.777  0.00  0.00    -0.196 N 
ATOM      2  C2  IND d   1      -0.876   0.673   0.370  0.00  0.00     0.054 A 
ATOM      3  C3  IND d   1      -0.966  -0.283   1.322  0.00  0.00    -0.031 A 
ATOM      4  C4  IND d   1      -0.208  -2.742   1.248  0.00  0.00     0.051 A 
ATOM      5  C5  IND d   1       0.302  -3.687   0.402  0.00  0.00    -0.031 A 
ATOM      6  C6  IND d   1       0.631  -3.393  -0.905  0.00  0.00     0.015 A 
ATOM      7  C7  IND d   1       0.472  -2.136  -1.415  0.00  0.00    -0.016 A 
ATOM      8  C8  IND d   1      -0.051  -1.175  -0.561  0.00  0.00    -0.047 A 
ATOM      9  C9  IND d   1      -0.427  -1.477   0.754  0.00  0.00    -0.096 A 
ATOM     10  HN1 IND d   1      -0.217   0.583  -1.510  0.00  0.00     0.298 HD
ENDROOT
TORSDOF 0
ENDMDL
