MODEL 1
REMARK minimizedAffinity -1.85721004
REMARK minimizedRMSD -1
REMARK  0 active torsions:
REMARK  status: ('A' for Active; 'I' for Inactive)
ROOT
ATOM      1  N1  IND d   1      -0.549   1.362  -1.201  0.00  0.00    -0.196 N 
ATOM      2  C2  IND d   1      -1.133   1.557   0.019  0.00  0.00     0.054 A 
ATOM      3  C3  IND d   1      -1.015   0.445   0.780  0.00  0.00    -0.031 A 
ATOM      4  C4  IND d   1       0.185  -1.772   0.259  0.00  0.00     0.051 A 
ATOM      5  C5  IND d   1       0.836  -2.436  -0.743  0.00  0.00    -0.031 A 
ATOM      6  C6  IND d   1       1.065  -1.855  -1.973  0.00  0.00     0.015 A 
ATOM      7  C7  IND d   1       0.660  -0.578  -2.244  0.00  0.00    -0.016 A 
ATOM      8  C8  IND d   1      -0.007   0.096  -1.231  0.00  0.00    -0.047 A 
ATOM      9  C9  IND d   1      -0.280  -0.504   0.005  0.00  0.00    -0.096 A 
ATOM     10  HN1 IND d   1      -0.525   1.934  -1.843  0.00  0.00     0.298 HD
ENDROOT
TORSDOF 0
ENDMDL
