MODEL 1
REMARK minimizedAffinity -2.48889804
REMARK minimizedRMSD -1
REMARK  0 active torsions:
REMARK  status: ('A' for Active; 'I' for Inactive)
ROOT
ATOM      1  N1  IND d   1      -0.113   0.962  -2.294  0.00  0.00    -0.196 N 
ATOM      2  C2  IND d   1      -0.382   1.885  -1.322  0.00  0.00     0.054 A 
ATOM      3  C3  IND d   1      -0.369   1.302  -0.102  0.00  0.00    -0.031 A 
ATOM      4  C4  IND d   1       0.172  -1.131   0.541  0.00  0.00     0.051 A 
ATOM      5  C5  IND d   1       0.443  -2.355  -0.005  0.00  0.00    -0.031 A 
ATOM      6  C6  IND d   1       0.547  -2.539  -1.368  0.00  0.00     0.015 A 
ATOM      7  C7  IND d   1       0.395  -1.498  -2.241  0.00  0.00    -0.016 A 
ATOM      8  C8  IND d   1       0.113  -0.256  -1.691  0.00  0.00    -0.047 A 
ATOM      9  C9  IND d   1      -0.036  -0.072  -0.310  0.00  0.00    -0.096 A 
ATOM     10  HN1 IND d   1      -0.089   1.116  -3.139  0.00  0.00     0.298 HD
ENDROOT
TORSDOF 0
ENDMDL
