MODEL 1
REMARK minimizedAffinity -3.95059872
REMARK minimizedRMSD -1
REMARK  0 active torsions:
REMARK  status: ('A' for Active; 'I' for Inactive)
ROOT
ATOM      1  N1  IND d   1       0.146   0.452  -0.869  0.00  0.00    -0.196 N 
ATOM      2  C2  IND d   1      -0.661   1.042   0.063  0.00  0.00     0.054 A 
ATOM      3  C3  IND d   1      -1.141   0.115   0.923  0.00  0.00    -0.031 A 
ATOM      4  C4  IND d   1      -0.652  -2.409   1.048  0.00  0.00     0.051 A 
ATOM      5  C5  IND d   1      -0.003  -3.415   0.388  0.00  0.00    -0.031 A 
ATOM      6  C6  IND d   1       0.747  -3.177  -0.746  0.00  0.00     0.015 A 
ATOM      7  C7  IND d   1       0.885  -1.918  -1.258  0.00  0.00    -0.016 A 
ATOM      8  C8  IND d   1       0.221  -0.896  -0.595  0.00  0.00    -0.047 A 
ATOM      9  C9  IND d   1      -0.576  -1.137   0.532  0.00  0.00    -0.096 A 
ATOM     10  HN1 IND d   1       0.541   0.855  -1.518  0.00  0.00     0.298 HD
ENDROOT
TORSDOF 0
ENDMDL
