MODEL 1
REMARK minimizedAffinity 6.82213688
REMARK minimizedRMSD -1
REMARK  1 active torsions:
REMARK  status: ('A' for Active; 'I' for Inactive)
REMARK    1  A    between atoms: C1_2  and  C2_3 
ROOT
ATOM      1  C2  UNL d   1       3.654  -2.595   2.698  0.00  0.00    -0.073 A 
ATOM      2  C3  UNL d   1       2.682  -3.529   3.074  0.00  0.00    -0.002 A 
ATOM      3  C4  UNL d   1       1.334  -3.171   3.100  0.00  0.00     0.004 A 
ATOM      4  C5  UNL d   1       0.943  -1.880   2.743  0.00  0.00    -0.004 A 
ATOM      5  C6  UNL d   1       1.898  -0.937   2.352  0.00  0.00    -0.075 A 
ATOM      6  C7  UNL d   1       1.495   0.457   1.967  0.00  0.00     0.076 C 
ATOM      7  C8  UNL d   1       3.251  -1.303   2.332  0.00  0.00     0.001 A 
ENDROOT
BRANCH   1   8
ATOM      8  C1  UNL d   1       5.111  -2.979   2.662  0.00  0.00     0.053 C 
ATOM      9  C   UNL d   1       5.999  -1.809   2.269  0.00  0.00     0.018 C 
ENDBRANCH   1   8
TORSDOF 1
ENDMDL
