MODEL 1
REMARK minimizedAffinity -0.858487308
REMARK minimizedRMSD -1
REMARK  1 active torsions:
REMARK  status: ('A' for Active; 'I' for Inactive)
REMARK    1  A    between atoms: C1_2  and  C2_3 
ROOT
ATOM      1  C2  UNL d   1       1.790  -2.918   2.512  0.00  0.00    -0.073 A 
ATOM      2  C3  UNL d   1       1.645  -2.886   3.904  0.00  0.00    -0.002 A 
ATOM      3  C4  UNL d   1       1.813  -1.690   4.603  0.00  0.00     0.004 A 
ATOM      4  C5  UNL d   1       2.121  -0.514   3.919  0.00  0.00    -0.004 A 
ATOM      5  C6  UNL d   1       2.259  -0.523   2.527  0.00  0.00    -0.075 A 
ATOM      6  C7  UNL d   1       2.592   0.733   1.777  0.00  0.00     0.076 C 
ATOM      7  C8  UNL d   1       2.091  -1.729   1.832  0.00  0.00     0.001 A 
ENDROOT
BRANCH   1   8
ATOM      8  C1  UNL d   1       1.603  -4.205   1.752  0.00  0.00     0.053 C 
ATOM      9  C   UNL d   1       2.768  -5.161   1.955  0.00  0.00     0.018 C 
ENDBRANCH   1   8
TORSDOF 1
ENDMDL
