MODEL 1
REMARK minimizedAffinity 8.41190624
REMARK minimizedRMSD -1
REMARK  1 active torsions:
REMARK  status: ('A' for Active; 'I' for Inactive)
REMARK    1  A    between atoms: C1_2  and  C2_3 
ROOT
ATOM      1  C2  UNL d   1      -2.977  -0.105  -2.930  0.00  0.00    -0.073 A 
ATOM      2  C3  UNL d   1      -3.407   1.090  -3.517  0.00  0.00    -0.002 A 
ATOM      3  C4  UNL d   1      -3.312   2.293  -2.816  0.00  0.00     0.004 A 
ATOM      4  C5  UNL d   1      -2.781   2.315  -1.527  0.00  0.00    -0.004 A 
ATOM      5  C6  UNL d   1      -2.335   1.132  -0.928  0.00  0.00    -0.075 A 
ATOM      6  C7  UNL d   1      -1.763   1.138   0.460  0.00  0.00     0.076 C 
ATOM      7  C8  UNL d   1      -2.436  -0.072  -1.637  0.00  0.00     0.001 A 
ENDROOT
BRANCH   1   8
ATOM      8  C1  UNL d   1      -3.072  -1.406  -3.685  0.00  0.00     0.053 C 
ATOM      9  C   UNL d   1      -3.803  -2.475  -2.889  0.00  0.00     0.018 C 
ENDBRANCH   1   8
TORSDOF 1
ENDMDL
