MODEL 1
REMARK minimizedAffinity 2.43305016
REMARK minimizedRMSD -1
REMARK  1 active torsions:
REMARK  status: ('A' for Active; 'I' for Inactive)
REMARK    1  A    between atoms: C1_2  and  C2_3 
ROOT
ATOM      1  C2  UNL d   1       2.788  -5.989  -3.555  0.00  0.00    -0.073 A 
ATOM      2  C3  UNL d   1       4.185  -5.997  -3.639  0.00  0.00    -0.002 A 
ATOM      3  C4  UNL d   1       4.961  -5.994  -2.480  0.00  0.00     0.004 A 
ATOM      4  C5  UNL d   1       4.350  -5.991  -1.226  0.00  0.00    -0.004 A 
ATOM      5  C6  UNL d   1       2.955  -5.996  -1.121  0.00  0.00    -0.075 A 
ATOM      6  C7  UNL d   1       2.282  -5.990   0.220  0.00  0.00     0.076 C 
ATOM      7  C8  UNL d   1       2.183  -5.995  -2.291  0.00  0.00     0.001 A 
ENDROOT
BRANCH   1   8
ATOM      8  C1  UNL d   1       1.946  -5.999  -4.805  0.00  0.00     0.053 C 
ATOM      9  C   UNL d   1       2.656  -5.338  -5.976  0.00  0.00     0.018 C 
ENDBRANCH   1   8
TORSDOF 1
ENDMDL
