MODEL 1
REMARK minimizedAffinity 11.8646507
REMARK minimizedRMSD -1
REMARK  1 active torsions:
REMARK  status: ('A' for Active; 'I' for Inactive)
REMARK    1  A    between atoms: C1_2  and  C2_3 
ROOT
ATOM      1  C2  UNL d   1       4.344  -5.759  -3.237  0.00  0.00    -0.073 A 
ATOM      2  C3  UNL d   1       3.201  -5.998  -4.008  0.00  0.00    -0.002 A 
ATOM      3  C4  UNL d   1       1.931  -5.774  -3.475  0.00  0.00     0.004 A 
ATOM      4  C5  UNL d   1       1.791  -5.301  -2.170  0.00  0.00    -0.004 A 
ATOM      5  C6  UNL d   1       2.922  -5.044  -1.388  0.00  0.00    -0.075 A 
ATOM      6  C7  UNL d   1       2.788  -4.538   0.018  0.00  0.00     0.076 C 
ATOM      7  C8  UNL d   1       4.193  -5.275  -1.930  0.00  0.00     0.001 A 
ENDROOT
BRANCH   1   8
ATOM      8  C1  UNL d   1       5.717  -5.994  -3.811  0.00  0.00     0.053 C 
ATOM      9  C   UNL d   1       5.707  -5.997  -5.331  0.00  0.00     0.018 C 
ENDBRANCH   1   8
TORSDOF 1
ENDMDL
