MODEL 1
REMARK minimizedAffinity 8.69501209
REMARK minimizedRMSD -1
REMARK  0 active torsions:
REMARK  status: ('A' for Active; 'I' for Inactive)
ROOT
ATOM      1  C   UNL d   1       0.807  -2.906  -1.115  0.00  0.00     0.020 A 
ATOM      2  C1  UNL d   1       0.099  -2.177  -0.160  0.00  0.00     0.020 A 
ATOM      3  C2  UNL d   1      -0.081  -0.802  -0.325  0.00  0.00     0.034 A 
ATOM      4  C3  UNL d   1       0.447  -0.152  -1.447  0.00  0.00     0.017 A 
ATOM      5  C4  UNL d   1       1.158  -0.886  -2.404  0.00  0.00     0.017 A 
ATOM      6  C5  UNL d   1       1.335  -2.262  -2.234  0.00  0.00     0.034 A 
ATOM      7 Cl   UNL d   1       1.839  -0.154  -3.814  0.00  0.00    -0.070 Cl
ATOM      8 Cl1  UNL d   1       0.186   1.550  -1.586  0.00  0.00    -0.070 Cl
ENDROOT
TORSDOF 0
ENDMDL
