MODEL 1
REMARK minimizedAffinity 8.13367081
REMARK minimizedRMSD -1
REMARK  0 active torsions:
REMARK  status: ('A' for Active; 'I' for Inactive)
ROOT
ATOM      1  C   UNL d   1      -0.991   1.118  -0.455  0.00  0.00     0.020 A 
ATOM      2  C1  UNL d   1       0.206   1.467  -1.078  0.00  0.00     0.020 A 
ATOM      3  C2  UNL d   1       1.181   0.495  -1.313  0.00  0.00     0.034 A 
ATOM      4  C3  UNL d   1       0.960  -0.831  -0.925  0.00  0.00     0.017 A 
ATOM      5  C4  UNL d   1      -0.242  -1.181  -0.299  0.00  0.00     0.017 A 
ATOM      6  C5  UNL d   1      -1.215  -0.204  -0.066  0.00  0.00     0.034 A 
ATOM      7 Cl   UNL d   1      -0.587  -2.797   0.208  0.00  0.00    -0.070 Cl
ATOM      8 Cl1  UNL d   1       2.209  -1.981  -1.247  0.00  0.00    -0.070 Cl
ENDROOT
TORSDOF 0
ENDMDL
