MODEL 1
REMARK minimizedAffinity -3.13237596
REMARK minimizedRMSD -1
REMARK  0 active torsions:
REMARK  status: ('A' for Active; 'I' for Inactive)
ROOT
ATOM      1  C   UNL d   1       1.724  -1.413  -3.909  0.00  0.00     0.020 A 
ATOM      2  C1  UNL d   1       1.579  -0.084  -4.305  0.00  0.00     0.020 A 
ATOM      3  C2  UNL d   1       1.179   0.881  -3.379  0.00  0.00     0.034 A 
ATOM      4  C3  UNL d   1       0.920   0.519  -2.052  0.00  0.00     0.017 A 
ATOM      5  C4  UNL d   1       1.066  -0.815  -1.655  0.00  0.00     0.017 A 
ATOM      6  C5  UNL d   1       1.467  -1.778  -2.587  0.00  0.00     0.034 A 
ATOM      7 Cl   UNL d   1       0.765  -1.338  -0.035  0.00  0.00    -0.070 Cl
ATOM      8 Cl1  UNL d   1       0.429   1.765  -0.960  0.00  0.00    -0.070 Cl
ENDROOT
TORSDOF 0
ENDMDL
