MODEL 1
REMARK minimizedAffinity 4.84093714
REMARK minimizedRMSD -1
REMARK  0 active torsions:
REMARK  status: ('A' for Active; 'I' for Inactive)
ROOT
ATOM      1  C   UNL d   1       1.564   0.450  -4.017  0.00  0.00     0.020 A 
ATOM      2  C1  UNL d   1       1.777  -0.919  -3.860  0.00  0.00     0.020 A 
ATOM      3  C2  UNL d   1       1.571  -1.519  -2.616  0.00  0.00     0.034 A 
ATOM      4  C3  UNL d   1       1.151  -0.751  -1.524  0.00  0.00     0.017 A 
ATOM      5  C4  UNL d   1       0.937   0.623  -1.684  0.00  0.00     0.017 A 
ATOM      6  C5  UNL d   1       1.145   1.219  -2.931  0.00  0.00     0.034 A 
ATOM      7 Cl   UNL d   1       0.418   1.637  -0.384  0.00  0.00    -0.070 Cl
ATOM      8 Cl1  UNL d   1       0.916  -1.559  -0.015  0.00  0.00    -0.070 Cl
ENDROOT
TORSDOF 0
ENDMDL
