MODEL 1
REMARK minimizedAffinity 9.71268654
REMARK minimizedRMSD -1
REMARK  0 active torsions:
REMARK  status: ('A' for Active; 'I' for Inactive)
ROOT
ATOM      1  C   UNL d   1       1.109  -2.346  -1.117  0.00  0.00     0.020 A 
ATOM      2  C1  UNL d   1       0.512  -1.730  -0.018  0.00  0.00     0.020 A 
ATOM      3  C2  UNL d   1       0.216  -0.366  -0.057  0.00  0.00     0.034 A 
ATOM      4  C3  UNL d   1       0.516   0.387  -1.198  0.00  0.00     0.017 A 
ATOM      5  C4  UNL d   1       1.115  -0.232  -2.301  0.00  0.00     0.017 A 
ATOM      6  C5  UNL d   1       1.410  -1.599  -2.256  0.00  0.00     0.034 A 
ATOM      7 Cl   UNL d   1       1.515   0.631  -3.744  0.00  0.00    -0.070 Cl
ATOM      8 Cl1  UNL d   1       0.121   2.069  -1.178  0.00  0.00    -0.070 Cl
ENDROOT
TORSDOF 0
ENDMDL
