MODEL 1
REMARK minimizedAffinity -3.64129472
REMARK minimizedRMSD -1
REMARK  0 active torsions:
REMARK  status: ('A' for Active; 'I' for Inactive)
ROOT
ATOM      1  C   UNL d   1       1.527  -2.664  -1.324  0.00  0.00     0.020 A 
ATOM      2  C1  UNL d   1       0.957  -2.180  -0.147  0.00  0.00     0.020 A 
ATOM      3  C2  UNL d   1       0.494  -0.865  -0.085  0.00  0.00     0.034 A 
ATOM      4  C3  UNL d   1       0.598  -0.028  -1.202  0.00  0.00     0.017 A 
ATOM      5  C4  UNL d   1       1.170  -0.515  -2.384  0.00  0.00     0.017 A 
ATOM      6  C5  UNL d   1       1.633  -1.833  -2.440  0.00  0.00     0.034 A 
ATOM      7 Cl   UNL d   1       1.334   0.458  -3.803  0.00  0.00    -0.070 Cl
ATOM      8 Cl1  UNL d   1       0.004   1.588  -1.055  0.00  0.00    -0.070 Cl
ENDROOT
TORSDOF 0
ENDMDL
