MODEL 1
REMARK minimizedAffinity -0.522513628
REMARK minimizedRMSD -1
REMARK  0 active torsions:
REMARK  status: ('A' for Active; 'I' for Inactive)
ROOT
ATOM      1  C   UNL d   1       1.981  -2.253  -1.898  0.00  0.00     0.020 A 
ATOM      2  C1  UNL d   1       1.404  -1.948  -0.666  0.00  0.00     0.020 A 
ATOM      3  C2  UNL d   1       0.881  -0.674  -0.437  0.00  0.00     0.034 A 
ATOM      4  C3  UNL d   1       0.934   0.300  -1.441  0.00  0.00     0.017 A 
ATOM      5  C4  UNL d   1       1.513  -0.007  -2.677  0.00  0.00     0.017 A 
ATOM      6  C5  UNL d   1       2.036  -1.285  -2.902  0.00  0.00     0.034 A 
ATOM      7 Cl   UNL d   1       1.615   1.141  -3.965  0.00  0.00    -0.070 Cl
ATOM      8 Cl1  UNL d   1       0.268   1.855  -1.088  0.00  0.00    -0.070 Cl
ENDROOT
TORSDOF 0
ENDMDL
