MODEL 1
REMARK minimizedAffinity 8.19937515
REMARK minimizedRMSD -1
REMARK  0 active torsions:
REMARK  status: ('A' for Active; 'I' for Inactive)
ROOT
ATOM      1  C   UNL d   1       1.579   4.240  -5.057  0.00  0.00     0.020 A 
ATOM      2  C1  UNL d   1       2.183   3.409  -6.000  0.00  0.00     0.020 A 
ATOM      3  C2  UNL d   1       2.351   2.050  -5.727  0.00  0.00     0.034 A 
ATOM      4  C3  UNL d   1       1.915   1.517  -4.509  0.00  0.00     0.017 A 
ATOM      5  C4  UNL d   1       1.309   2.352  -3.563  0.00  0.00     0.017 A 
ATOM      6  C5  UNL d   1       1.143   3.712  -3.841  0.00  0.00     0.034 A 
ATOM      7 Cl   UNL d   1       0.746   1.767  -2.037  0.00  0.00    -0.070 Cl
ATOM      8 Cl1  UNL d   1       2.156  -0.172  -4.239  0.00  0.00    -0.070 Cl
ENDROOT
TORSDOF 0
ENDMDL
