MODEL 1
REMARK minimizedAffinity 1.35117602
REMARK minimizedRMSD -1
REMARK  0 active torsions:
REMARK  status: ('A' for Active; 'I' for Inactive)
ROOT
ATOM      1  C   UNL d   1      -0.371  -2.217   0.749  0.00  0.00     0.020 A 
ATOM      2  C1  UNL d   1       0.424  -3.148   0.081  0.00  0.00     0.020 A 
ATOM      3  C2  UNL d   1       1.264  -2.734  -0.954  0.00  0.00     0.034 A 
ATOM      4  C3  UNL d   1       1.311  -1.385  -1.325  0.00  0.00     0.017 A 
ATOM      5  C4  UNL d   1       0.513  -0.451  -0.654  0.00  0.00     0.017 A 
ATOM      6  C5  UNL d   1      -0.327  -0.872   0.382  0.00  0.00     0.034 A 
ATOM      7 Cl   UNL d   1       0.517   1.230  -1.056  0.00  0.00    -0.070 Cl
ATOM      8 Cl1  UNL d   1       2.373  -0.943  -2.614  0.00  0.00    -0.070 Cl
ENDROOT
TORSDOF 0
ENDMDL
