MODEL 1
REMARK minimizedAffinity 9.03453636
REMARK minimizedRMSD -1
REMARK  0 active torsions:
REMARK  status: ('A' for Active; 'I' for Inactive)
ROOT
ATOM      1  C   UNL d   1       4.482  -0.328   4.873  0.00  0.00     0.020 A 
ATOM      2  C1  UNL d   1       5.552  -0.104   5.739  0.00  0.00     0.020 A 
ATOM      3  C2  UNL d   1       5.979   1.200   5.999  0.00  0.00     0.034 A 
ATOM      4  C3  UNL d   1       5.336   2.285   5.392  0.00  0.00     0.017 A 
ATOM      5  C4  UNL d   1       4.262   2.060   4.523  0.00  0.00     0.017 A 
ATOM      6  C5  UNL d   1       3.839   0.752   4.267  0.00  0.00     0.034 A 
ATOM      7 Cl   UNL d   1       3.419   3.348   3.738  0.00  0.00    -0.070 Cl
ATOM      8 Cl1  UNL d   1       5.917   3.871   5.759  0.00  0.00    -0.070 Cl
ENDROOT
TORSDOF 0
ENDMDL
