MODEL 1
REMARK minimizedAffinity 3.47850037
REMARK minimizedRMSD -1
REMARK  0 active torsions:
REMARK  status: ('A' for Active; 'I' for Inactive)
ROOT
ATOM      1  C   UNL d   1       1.432   0.019  -4.329  0.00  0.00     0.020 A 
ATOM      2  C1  UNL d   1       1.467   0.525  -3.030  0.00  0.00     0.020 A 
ATOM      3  C2  UNL d   1       1.419  -0.347  -1.940  0.00  0.00     0.034 A 
ATOM      4  C3  UNL d   1       1.337  -1.729  -2.146  0.00  0.00     0.017 A 
ATOM      5  C4  UNL d   1       1.303  -2.235  -3.450  0.00  0.00     0.017 A 
ATOM      6  C5  UNL d   1       1.351  -1.358  -4.538  0.00  0.00     0.034 A 
ATOM      7 Cl   UNL d   1       1.202  -3.928  -3.785  0.00  0.00    -0.070 Cl
ATOM      8 Cl1  UNL d   1       1.282  -2.748  -0.752  0.00  0.00    -0.070 Cl
ENDROOT
TORSDOF 0
ENDMDL
