MODEL 1
REMARK minimizedAffinity 0.69919306
REMARK minimizedRMSD -1
REMARK  0 active torsions:
REMARK  status: ('A' for Active; 'I' for Inactive)
ROOT
ATOM      1  C   UNL d   1       0.232   3.034  -0.129  0.00  0.00     0.020 A 
ATOM      2  C1  UNL d   1      -0.536   2.092  -0.813  0.00  0.00     0.020 A 
ATOM      3  C2  UNL d   1      -0.055   0.793  -0.986  0.00  0.00     0.034 A 
ATOM      4  C3  UNL d   1       1.197   0.431  -0.475  0.00  0.00     0.017 A 
ATOM      5  C4  UNL d   1       1.966   1.377   0.212  0.00  0.00     0.017 A 
ATOM      6  C5  UNL d   1       1.480   2.677   0.383  0.00  0.00     0.034 A 
ATOM      7 Cl   UNL d   1       3.520   1.006   0.872  0.00  0.00    -0.070 Cl
ATOM      8 Cl1  UNL d   1       1.729  -1.193  -0.725  0.00  0.00    -0.070 Cl
ENDROOT
TORSDOF 0
ENDMDL
