MODEL 1
REMARK minimizedAffinity 4.78740549
REMARK minimizedRMSD -1
REMARK  0 active torsions:
REMARK  status: ('A' for Active; 'I' for Inactive)
ROOT
ATOM      1  C   UNL d   1       1.252  -2.310  -1.220  0.00  0.00     0.020 A 
ATOM      2  C1  UNL d   1       1.507  -2.738  -2.522  0.00  0.00     0.020 A 
ATOM      3  C2  UNL d   1       1.586  -1.807  -3.560  0.00  0.00     0.034 A 
ATOM      4  C3  UNL d   1       1.408  -0.444  -3.298  0.00  0.00     0.017 A 
ATOM      5  C4  UNL d   1       1.152  -0.015  -1.991  0.00  0.00     0.017 A 
ATOM      6  C5  UNL d   1       1.074  -0.951  -0.955  0.00  0.00     0.034 A 
ATOM      7 Cl   UNL d   1       0.922   1.650  -1.590  0.00  0.00    -0.070 Cl
ATOM      8 Cl1  UNL d   1       1.519   0.651  -4.630  0.00  0.00    -0.070 Cl
ENDROOT
TORSDOF 0
ENDMDL
