MODEL 1
REMARK minimizedAffinity 7.28578806
REMARK minimizedRMSD -1
REMARK  0 active torsions:
REMARK  status: ('A' for Active; 'I' for Inactive)
ROOT
ATOM      1  C   UNL d   1       1.322  -2.682  -1.300  0.00  0.00     0.020 A 
ATOM      2  C1  UNL d   1       0.709  -2.059  -0.214  0.00  0.00     0.020 A 
ATOM      3  C2  UNL d   1       0.333  -0.717  -0.300  0.00  0.00     0.034 A 
ATOM      4  C3  UNL d   1       0.571   0.007  -1.475  0.00  0.00     0.017 A 
ATOM      5  C4  UNL d   1       1.186  -0.620  -2.564  0.00  0.00     0.017 A 
ATOM      6  C5  UNL d   1       1.560  -1.964  -2.472  0.00  0.00     0.034 A 
ATOM      7 Cl   UNL d   1       1.512   0.207  -4.046  0.00  0.00    -0.070 Cl
ATOM      8 Cl1  UNL d   1       0.080   1.663  -1.511  0.00  0.00    -0.070 Cl
ENDROOT
TORSDOF 0
ENDMDL
