MODEL 1
REMARK minimizedAffinity 6.24775934
REMARK minimizedRMSD -1
REMARK  0 active torsions:
REMARK  status: ('A' for Active; 'I' for Inactive)
ROOT
ATOM      1  C   UNL d   1       1.930  -2.105  -1.111  0.00  0.00     0.020 A 
ATOM      2  C1  UNL d   1       1.089  -3.019  -0.478  0.00  0.00     0.020 A 
ATOM      3  C2  UNL d   1      -0.099  -2.582   0.112  0.00  0.00     0.034 A 
ATOM      4  C3  UNL d   1      -0.449  -1.228   0.071  0.00  0.00     0.017 A 
ATOM      5  C4  UNL d   1       0.396  -0.311  -0.565  0.00  0.00     0.017 A 
ATOM      6  C5  UNL d   1       1.584  -0.754  -1.154  0.00  0.00     0.034 A 
ATOM      7 Cl   UNL d   1       0.032   1.376  -0.657  0.00  0.00    -0.070 Cl
ATOM      8 Cl1  UNL d   1      -1.933  -0.758   0.821  0.00  0.00    -0.070 Cl
ENDROOT
TORSDOF 0
ENDMDL
