MODEL 1
REMARK minimizedAffinity 6.39982224
REMARK minimizedRMSD -1
REMARK  0 active torsions:
REMARK  status: ('A' for Active; 'I' for Inactive)
ROOT
ATOM      1  C   UNL d   1       5.719  -0.900   5.732  0.00  0.00     0.020 A 
ATOM      2  C1  UNL d   1       4.525  -1.251   5.104  0.00  0.00     0.020 A 
ATOM      3  C2  UNL d   1       3.610  -0.260   4.741  0.00  0.00     0.034 A 
ATOM      4  C3  UNL d   1       3.887   1.086   5.007  0.00  0.00     0.017 A 
ATOM      5  C4  UNL d   1       5.087   1.437   5.638  0.00  0.00     0.017 A 
ATOM      6  C5  UNL d   1       5.999   0.441   5.999  0.00  0.00     0.034 A 
ATOM      7 Cl   UNL d   1       5.499   3.076   5.999  0.00  0.00    -0.070 Cl
ATOM      8 Cl1  UNL d   1       2.711   2.258   4.531  0.00  0.00    -0.070 Cl
ENDROOT
TORSDOF 0
ENDMDL
