MODEL 1
REMARK minimizedAffinity 0.596777618
REMARK minimizedRMSD -1
REMARK  0 active torsions:
REMARK  status: ('A' for Active; 'I' for Inactive)
ROOT
ATOM      1  C   UNL d   1       5.616   5.317   4.790  0.00  0.00     0.020 A 
ATOM      2  C1  UNL d   1       5.997   4.656   5.957  0.00  0.00     0.020 A 
ATOM      3  C2  UNL d   1       5.999   3.260   6.000  0.00  0.00     0.034 A 
ATOM      4  C3  UNL d   1       5.619   2.521   4.874  0.00  0.00     0.017 A 
ATOM      5  C4  UNL d   1       5.236   3.186   3.703  0.00  0.00     0.017 A 
ATOM      6  C5  UNL d   1       5.236   4.583   3.665  0.00  0.00     0.034 A 
ATOM      7 Cl   UNL d   1       4.755   2.342   2.273  0.00  0.00    -0.070 Cl
ATOM      8 Cl1  UNL d   1       5.645   0.798   4.998  0.00  0.00    -0.070 Cl
ENDROOT
TORSDOF 0
ENDMDL
