MODEL 1
REMARK minimizedAffinity -3.90940404
REMARK minimizedRMSD -1
REMARK  0 active torsions:
REMARK  status: ('A' for Active; 'I' for Inactive)
ROOT
ATOM      1  O1  BZF d   1       0.059  -0.072  -1.500  0.00  0.00    -0.204 OA
ATOM      2  C2  BZF d   1       0.063   1.092  -0.754  0.00  0.00     0.174 A 
ATOM      3  C3  BZF d   1      -0.450   0.875   0.474  0.00  0.00    -0.012 A 
ATOM      4  C3A BZF d   1      -0.712  -0.530   0.530  0.00  0.00    -0.107 A 
ATOM      5  C4  BZF d   1      -1.212  -1.355   1.497  0.00  0.00     0.055 A 
ATOM      6  C5  BZF d   1      -1.410  -2.668   1.208  0.00  0.00    -0.016 A 
ATOM      7  C6  BZF d   1      -1.125  -3.188  -0.037  0.00  0.00     0.022 A 
ATOM      8  C7  BZF d   1      -0.622  -2.411  -1.027  0.00  0.00     0.029 A 
ATOM      9  C7A BZF d   1      -0.390  -1.091  -0.728  0.00  0.00     0.058 A 
ENDROOT
TORSDOF 0
ENDMDL
