MODEL 1
REMARK minimizedAffinity -4.97135973
REMARK minimizedRMSD -1
REMARK  0 active torsions:
REMARK  status: ('A' for Active; 'I' for Inactive)
ROOT
ATOM      1  O1  BZF d   1       0.230   0.136  -0.941  0.00  0.00    -0.204 OA
ATOM      2  C2  BZF d   1      -0.018   0.738   0.278  0.00  0.00     0.174 A 
ATOM      3  C3  BZF d   1      -0.260  -0.187   1.228  0.00  0.00    -0.012 A 
ATOM      4  C3A BZF d   1      -0.067  -1.449   0.583  0.00  0.00    -0.107 A 
ATOM      5  C4  BZF d   1      -0.147  -2.744   1.009  0.00  0.00     0.055 A 
ATOM      6  C5  BZF d   1       0.028  -3.748   0.110  0.00  0.00    -0.016 A 
ATOM      7  C6  BZF d   1       0.280  -3.493  -1.222  0.00  0.00     0.022 A 
ATOM      8  C7  BZF d   1       0.373  -2.225  -1.692  0.00  0.00     0.029 A 
ATOM      9  C7A BZF d   1       0.229  -1.209  -0.779  0.00  0.00     0.058 A 
ENDROOT
TORSDOF 0
ENDMDL
