MODEL 1
REMARK minimizedAffinity -4.6233654
REMARK minimizedRMSD -1
REMARK  0 active torsions:
REMARK  status: ('A' for Active; 'I' for Inactive)
ROOT
ATOM      1  O1  BZF d   1       0.751  -0.863  -0.781  0.00  0.00    -0.204 OA
ATOM      2  C2  BZF d   1       0.924  -2.177  -1.169  0.00  0.00     0.174 A 
ATOM      3  C3  BZF d   1       0.124  -2.996  -0.457  0.00  0.00    -0.012 A 
ATOM      4  C3A BZF d   1      -0.661  -2.130   0.369  0.00  0.00    -0.107 A 
ATOM      5  C4  BZF d   1      -1.648  -2.349   1.287  0.00  0.00     0.055 A 
ATOM      6  C5  BZF d   1      -2.159  -1.292   1.972  0.00  0.00    -0.016 A 
ATOM      7  C6  BZF d   1      -1.703  -0.006   1.768  0.00  0.00     0.022 A 
ATOM      8  C7  BZF d   1      -0.729   0.261   0.864  0.00  0.00     0.029 A 
ATOM      9  C7A BZF d   1      -0.234  -0.800   0.146  0.00  0.00     0.058 A 
ENDROOT
TORSDOF 0
ENDMDL
