MODEL 1
REMARK minimizedAffinity -4.48517418
REMARK minimizedRMSD -1
REMARK  0 active torsions:
REMARK  status: ('A' for Active; 'I' for Inactive)
ROOT
ATOM      1  O1  BZF d   1       0.320  -1.137  -2.526  0.00  0.00    -0.204 OA
ATOM      2  C2  BZF d   1       0.150  -2.502  -2.659  0.00  0.00     0.174 A 
ATOM      3  C3  BZF d   1      -0.341  -3.036  -1.523  0.00  0.00    -0.012 A 
ATOM      4  C3A BZF d   1      -0.574  -1.923  -0.654  0.00  0.00    -0.107 A 
ATOM      5  C4  BZF d   1      -1.071  -1.808   0.613  0.00  0.00     0.055 A 
ATOM      6  C5  BZF d   1      -1.100  -0.585   1.203  0.00  0.00    -0.016 A 
ATOM      7  C6  BZF d   1      -0.637   0.543   0.558  0.00  0.00     0.022 A 
ATOM      8  C7  BZF d   1      -0.139   0.481  -0.701  0.00  0.00     0.029 A 
ATOM      9  C7A BZF d   1      -0.139  -0.749  -1.312  0.00  0.00     0.058 A 
ENDROOT
TORSDOF 0
ENDMDL
