MODEL 1
REMARK minimizedAffinity -1.63378429
REMARK minimizedRMSD -1
REMARK  0 active torsions:
REMARK  status: ('A' for Active; 'I' for Inactive)
ROOT
ATOM      1  O1  BZF d   1      -0.180  -1.632  -2.432  0.00  0.00    -0.204 OA
ATOM      2  C2  BZF d   1      -0.617  -2.885  -2.817  0.00  0.00     0.174 A 
ATOM      3  C3  BZF d   1      -1.100  -3.569  -1.760  0.00  0.00    -0.012 A 
ATOM      4  C3A BZF d   1      -1.042  -2.654  -0.661  0.00  0.00    -0.107 A 
ATOM      5  C4  BZF d   1      -1.397  -2.743   0.654  0.00  0.00     0.055 A 
ATOM      6  C5  BZF d   1      -1.142  -1.694   1.479  0.00  0.00    -0.016 A 
ATOM      7  C6  BZF d   1      -0.530  -0.544   1.025  0.00  0.00     0.022 A 
ATOM      8  C7  BZF d   1      -0.165  -0.407  -0.273  0.00  0.00     0.029 A 
ATOM      9  C7A BZF d   1      -0.451  -1.453  -1.117  0.00  0.00     0.058 A 
ENDROOT
TORSDOF 0
ENDMDL
