MODEL 1
REMARK minimizedAffinity -5.8997035
REMARK minimizedRMSD -1
REMARK  0 active torsions:
REMARK  status: ('A' for Active; 'I' for Inactive)
ROOT
ATOM      1  O1  BZF d   1       0.228   0.732  -1.038  0.00  0.00    -0.204 OA
ATOM      2  C2  BZF d   1      -0.236   1.117   0.205  0.00  0.00     0.174 A 
ATOM      3  C3  BZF d   1      -0.701   0.054   0.892  0.00  0.00    -0.012 A 
ATOM      4  C3A BZF d   1      -0.431  -1.079   0.061  0.00  0.00    -0.107 A 
ATOM      5  C4  BZF d   1      -0.645  -2.420   0.203  0.00  0.00     0.055 A 
ATOM      6  C5  BZF d   1      -0.331  -3.251  -0.825  0.00  0.00    -0.016 A 
ATOM      7  C6  BZF d   1       0.193  -2.776  -2.009  0.00  0.00     0.022 A 
ATOM      8  C7  BZF d   1       0.429  -1.454  -2.195  0.00  0.00     0.029 A 
ATOM      9  C7A BZF d   1       0.143  -0.615  -1.146  0.00  0.00     0.058 A 
ENDROOT
TORSDOF 0
ENDMDL
