MODEL 1
REMARK minimizedAffinity -5.33209753
REMARK minimizedRMSD -1
REMARK  0 active torsions:
REMARK  status: ('A' for Active; 'I' for Inactive)
ROOT
ATOM      1  O1  BZF d   1      -1.413  -3.068   1.348  0.00  0.00    -0.204 OA
ATOM      2  C2  BZF d   1      -1.886  -2.149   2.265  0.00  0.00     0.174 A 
ATOM      3  C3  BZF d   1      -1.528  -0.897   1.916  0.00  0.00    -0.012 A 
ATOM      4  C3A BZF d   1      -0.863  -1.033   0.657  0.00  0.00    -0.107 A 
ATOM      5  C4  BZF d   1      -0.293  -0.140  -0.205  0.00  0.00     0.055 A 
ATOM      6  C5  BZF d   1       0.338  -0.605  -1.316  0.00  0.00    -0.016 A 
ATOM      7  C6  BZF d   1       0.421  -1.954  -1.593  0.00  0.00     0.022 A 
ATOM      8  C7  BZF d   1      -0.135  -2.877  -0.770  0.00  0.00     0.029 A 
ATOM      9  C7A BZF d   1      -0.801  -2.408   0.336  0.00  0.00     0.058 A 
ENDROOT
TORSDOF 0
ENDMDL
