MODEL 1
REMARK minimizedAffinity -3.97408009
REMARK minimizedRMSD -1
REMARK  0 active torsions:
REMARK  status: ('A' for Active; 'I' for Inactive)
ROOT
ATOM      1  O1  BZF d   1      -1.460   0.370   0.823  0.00  0.00    -0.204 OA
ATOM      2  C2  BZF d   1      -0.504   1.277   0.407  0.00  0.00     0.174 A 
ATOM      3  C3  BZF d   1       0.617   0.642   0.009  0.00  0.00    -0.012 A 
ATOM      4  C3A BZF d   1       0.311  -0.753   0.100  0.00  0.00    -0.107 A 
ATOM      5  C4  BZF d   1       1.017  -1.889  -0.175  0.00  0.00     0.055 A 
ATOM      6  C5  BZF d   1       0.455  -3.097   0.091  0.00  0.00    -0.016 A 
ATOM      7  C6  BZF d   1      -0.807  -3.206   0.637  0.00  0.00     0.022 A 
ATOM      8  C7  BZF d   1      -1.548  -2.108   0.922  0.00  0.00     0.029 A 
ATOM      9  C7A BZF d   1      -0.996  -0.886   0.623  0.00  0.00     0.058 A 
ENDROOT
TORSDOF 0
ENDMDL
