MODEL 1
REMARK minimizedAffinity -1.74558091
REMARK minimizedRMSD -1
REMARK  0 active torsions:
REMARK  status: ('A' for Active; 'I' for Inactive)
ROOT
ATOM      1  O1  BZF d   1       0.084  -0.962  -2.115  0.00  0.00    -0.204 OA
ATOM      2  C2  BZF d   1      -0.135  -2.128  -2.822  0.00  0.00     0.174 A 
ATOM      3  C3  BZF d   1      -0.693  -3.069  -2.033  0.00  0.00    -0.012 A 
ATOM      4  C3A BZF d   1      -0.917  -2.422  -0.777  0.00  0.00    -0.107 A 
ATOM      5  C4  BZF d   1      -1.460  -2.832   0.407  0.00  0.00     0.055 A 
ATOM      6  C5  BZF d   1      -1.464  -1.977   1.464  0.00  0.00    -0.016 A 
ATOM      7  C6  BZF d   1      -0.929  -0.709   1.373  0.00  0.00     0.022 A 
ATOM      8  C7  BZF d   1      -0.384  -0.255   0.218  0.00  0.00     0.029 A 
ATOM      9  C7A BZF d   1      -0.408  -1.105  -0.861  0.00  0.00     0.058 A 
ENDROOT
TORSDOF 0
ENDMDL
