MODEL 1
REMARK minimizedAffinity -6.29169035
REMARK minimizedRMSD -1
REMARK  0 active torsions:
REMARK  status: ('A' for Active; 'I' for Inactive)
ROOT
ATOM      1  O1  BZF d   1       0.163   0.430  -1.093  0.00  0.00    -0.204 OA
ATOM      2  C2  BZF d   1      -0.406   1.062  -0.004  0.00  0.00     0.174 A 
ATOM      3  C3  BZF d   1      -0.790   0.162   0.924  0.00  0.00    -0.012 A 
ATOM      4  C3A BZF d   1      -0.356  -1.106   0.422  0.00  0.00    -0.107 A 
ATOM      5  C4  BZF d   1      -0.433  -2.382   0.902  0.00  0.00     0.055 A 
ATOM      6  C5  BZF d   1       0.023  -3.405   0.133  0.00  0.00    -0.016 A 
ATOM      7  C6  BZF d   1       0.557  -3.189  -1.121  0.00  0.00     0.022 A 
ATOM      8  C7  BZF d   1       0.658  -1.940  -1.637  0.00  0.00     0.029 A 
ATOM      9  C7A BZF d   1       0.229  -0.901  -0.849  0.00  0.00     0.058 A 
ENDROOT
TORSDOF 0
ENDMDL
