MODEL 1
REMARK minimizedAffinity -4.43361139
REMARK minimizedRMSD -1
REMARK  0 active torsions:
REMARK  status: ('A' for Active; 'I' for Inactive)
ROOT
ATOM      1  O1  BZF d   1       1.530   2.447  -0.056  0.00  0.00    -0.204 OA
ATOM      2  C2  BZF d   1       2.673   2.568   0.712  0.00  0.00     0.174 A 
ATOM      3  C3  BZF d   1       2.680   1.655   1.705  0.00  0.00    -0.012 A 
ATOM      4  C3A BZF d   1       1.512   0.858   1.492  0.00  0.00    -0.107 A 
ATOM      5  C4  BZF d   1       0.979  -0.219   2.141  0.00  0.00     0.055 A 
ATOM      6  C5  BZF d   1      -0.213  -0.719   1.723  0.00  0.00    -0.016 A 
ATOM      7  C6  BZF d   1      -0.902  -0.164   0.665  0.00  0.00     0.022 A 
ATOM      8  C7  BZF d   1      -0.412   0.902  -0.013  0.00  0.00     0.029 A 
ATOM      9  C7A BZF d   1       0.809   1.388   0.386  0.00  0.00     0.058 A 
ENDROOT
TORSDOF 0
ENDMDL
