MODEL 1
REMARK minimizedAffinity -1.71992993
REMARK minimizedRMSD -1
REMARK  0 active torsions:
REMARK  status: ('A' for Active; 'I' for Inactive)
ROOT
ATOM      1  O1  BZF d   1      -0.138  -0.536  -1.371  0.00  0.00    -0.204 OA
ATOM      2  C2  BZF d   1      -0.063   0.838  -1.258  0.00  0.00     0.174 A 
ATOM      3  C3  BZF d   1      -0.497   1.244  -0.048  0.00  0.00    -0.012 A 
ATOM      4  C3A BZF d   1      -0.780   0.041   0.673  0.00  0.00    -0.107 A 
ATOM      5  C4  BZF d   1      -1.229  -0.213   1.938  0.00  0.00     0.055 A 
ATOM      6  C5  BZF d   1      -1.470  -1.498   2.308  0.00  0.00    -0.016 A 
ATOM      7  C6  BZF d   1      -1.278  -2.552   1.439  0.00  0.00     0.022 A 
ATOM      8  C7  BZF d   1      -0.829  -2.351   0.176  0.00  0.00     0.029 A 
ATOM      9  C7A BZF d   1      -0.553  -1.056  -0.190  0.00  0.00     0.058 A 
ENDROOT
TORSDOF 0
ENDMDL
