MODEL 1
REMARK minimizedAffinity -5.72260284
REMARK minimizedRMSD -1
REMARK  0 active torsions:
REMARK  status: ('A' for Active; 'I' for Inactive)
ROOT
ATOM      1  O1  BZF d   1      -0.491   0.203  -1.708  0.00  0.00    -0.204 OA
ATOM      2  C2  BZF d   1       0.169  -0.228  -2.843  0.00  0.00     0.174 A 
ATOM      3  C3  BZF d   1       0.732  -1.436  -2.639  0.00  0.00    -0.012 A 
ATOM      4  C3A BZF d   1       0.326  -1.824  -1.323  0.00  0.00    -0.107 A 
ATOM      5  C4  BZF d   1       0.553  -2.932  -0.559  0.00  0.00     0.055 A 
ATOM      6  C5  BZF d   1       0.074  -2.968   0.712  0.00  0.00    -0.016 A 
ATOM      7  C6  BZF d   1      -0.631  -1.912   1.252  0.00  0.00     0.022 A 
ATOM      8  C7  BZF d   1      -0.886  -0.794   0.531  0.00  0.00     0.029 A 
ATOM      9  C7A BZF d   1      -0.432  -0.768  -0.765  0.00  0.00     0.058 A 
ENDROOT
TORSDOF 0
ENDMDL
