MODEL 1
REMARK minimizedAffinity -3.26694107
REMARK minimizedRMSD -1
REMARK  0 active torsions:
REMARK  status: ('A' for Active; 'I' for Inactive)
ROOT
ATOM      1  O1  BZF d   1      -1.277  -2.733   0.952  0.00  0.00    -0.204 OA
ATOM      2  C2  BZF d   1      -0.392  -3.520   0.240  0.00  0.00     0.174 A 
ATOM      3  C3  BZF d   1       0.396  -2.762  -0.549  0.00  0.00    -0.012 A 
ATOM      4  C3A BZF d   1       0.040  -1.409  -0.247  0.00  0.00    -0.107 A 
ATOM      5  C4  BZF d   1       0.484  -0.199  -0.697  0.00  0.00     0.055 A 
ATOM      6  C5  BZF d   1      -0.123   0.934  -0.255  0.00  0.00    -0.016 A 
ATOM      7  C6  BZF d   1      -1.180   0.893   0.631  0.00  0.00     0.022 A 
ATOM      8  C7  BZF d   1      -1.652  -0.284   1.109  0.00  0.00     0.029 A 
ATOM      9  C7A BZF d   1      -1.019  -1.429   0.690  0.00  0.00     0.058 A 
ENDROOT
TORSDOF 0
ENDMDL
