MODEL 1
REMARK minimizedAffinity -1.77442646
REMARK minimizedRMSD -1
REMARK  0 active torsions:
REMARK  status: ('A' for Active; 'I' for Inactive)
ROOT
ATOM      1  O1  BZF d   1       1.345   1.514  -1.387  0.00  0.00    -0.204 OA
ATOM      2  C2  BZF d   1       0.108   0.900  -1.414  0.00  0.00     0.174 A 
ATOM      3  C3  BZF d   1      -0.676   1.360  -0.417  0.00  0.00    -0.012 A 
ATOM      4  C3A BZF d   1       0.088   2.388   0.219  0.00  0.00    -0.107 A 
ATOM      5  C4  BZF d   1      -0.158   3.228   1.267  0.00  0.00     0.055 A 
ATOM      6  C5  BZF d   1       0.826   4.066   1.687  0.00  0.00    -0.016 A 
ATOM      7  C6  BZF d   1       2.068   4.087   1.085  0.00  0.00     0.022 A 
ATOM      8  C7  BZF d   1       2.357   3.276   0.039  0.00  0.00     0.029 A 
ATOM      9  C7A BZF d   1       1.354   2.451  -0.408  0.00  0.00     0.058 A 
ENDROOT
TORSDOF 0
ENDMDL
