MODEL 1
REMARK minimizedAffinity -0.116015412
REMARK minimizedRMSD -1
REMARK  0 active torsions:
REMARK  status: ('A' for Active; 'I' for Inactive)
ROOT
ATOM      1  O1  BZF d   1       0.073  -0.057  -1.441  0.00  0.00    -0.204 OA
ATOM      2  C2  BZF d   1       0.483   1.131  -0.867  0.00  0.00     0.174 A 
ATOM      3  C3  BZF d   1       0.269   1.118   0.464  0.00  0.00    -0.012 A 
ATOM      4  C3A BZF d   1      -0.226  -0.193   0.753  0.00  0.00    -0.107 A 
ATOM      5  C4  BZF d   1      -0.606  -0.821   1.905  0.00  0.00     0.055 A 
ATOM      6  C5  BZF d   1      -1.113  -2.080   1.835  0.00  0.00    -0.016 A 
ATOM      7  C6  BZF d   1      -1.257  -2.739   0.631  0.00  0.00     0.022 A 
ATOM      8  C7  BZF d   1      -0.888  -2.159  -0.537  0.00  0.00     0.029 A 
ATOM      9  C7A BZF d   1      -0.346  -0.899  -0.466  0.00  0.00     0.058 A 
ENDROOT
TORSDOF 0
ENDMDL
