MODEL 1
REMARK minimizedAffinity -1.22820103
REMARK minimizedRMSD -1
REMARK  0 active torsions:
REMARK  status: ('A' for Active; 'I' for Inactive)
ROOT
ATOM      1  N1  IND d   1       1.108  -0.096   1.248  0.00  0.00    -0.196 N 
ATOM      2  C2  IND d   1       0.872  -0.707   0.047  0.00  0.00     0.054 A 
ATOM      3  C3  IND d   1      -0.286  -0.259  -0.488  0.00  0.00    -0.031 A 
ATOM      4  C4  IND d   1      -1.901   1.547   0.384  0.00  0.00     0.051 A 
ATOM      5  C5  IND d   1      -2.127   2.362   1.458  0.00  0.00    -0.031 A 
ATOM      6  C6  IND d   1      -1.267   2.403   2.536  0.00  0.00     0.015 A 
ATOM      7  C7  IND d   1      -0.138   1.634   2.577  0.00  0.00    -0.016 A 
ATOM      8  C8  IND d   1       0.091   0.800   1.492  0.00  0.00    -0.047 A 
ATOM      9  C9  IND d   1      -0.800   0.723   0.414  0.00  0.00    -0.096 A 
ATOM     10  HN1 IND d   1       1.780  -0.246   1.763  0.00  0.00     0.298 HD
ENDROOT
TORSDOF 0
ENDMDL
