MODEL 1
REMARK minimizedAffinity -2.31173229
REMARK minimizedRMSD -1
REMARK  0 active torsions:
REMARK  status: ('A' for Active; 'I' for Inactive)
ROOT
ATOM      1  N1  IND d   1       0.675  -0.064  -1.895  0.00  0.00    -0.196 N 
ATOM      2  C2  IND d   1       1.027  -1.099  -1.074  0.00  0.00     0.054 A 
ATOM      3  C3  IND d   1       0.484  -0.931   0.153  0.00  0.00    -0.031 A 
ATOM      4  C4  IND d   1      -1.098   0.914   1.003  0.00  0.00     0.051 A 
ATOM      5  C5  IND d   1      -1.674   2.095   0.629  0.00  0.00    -0.031 A 
ATOM      6  C6  IND d   1      -1.495   2.627  -0.632  0.00  0.00     0.015 A 
ATOM      7  C7  IND d   1      -0.739   1.988  -1.574  0.00  0.00    -0.016 A 
ATOM      8  C8  IND d   1      -0.147   0.791  -1.195  0.00  0.00    -0.047 A 
ATOM      9  C9  IND d   1      -0.290   0.269   0.097  0.00  0.00    -0.096 A 
ATOM     10  HN1 IND d   1       0.925   0.036  -2.712  0.00  0.00     0.298 HD
ENDROOT
TORSDOF 0
ENDMDL
