MODEL 1
REMARK minimizedAffinity -2.16613674
REMARK minimizedRMSD -1
REMARK  0 active torsions:
REMARK  status: ('A' for Active; 'I' for Inactive)
ROOT
ATOM      1  N1  IND d   1       0.010   2.160   2.549  0.00  0.00    -0.196 N 
ATOM      2  C2  IND d   1      -1.121   2.825   2.163  0.00  0.00     0.054 A 
ATOM      3  C3  IND d   1      -1.661   2.237   1.071  0.00  0.00    -0.031 A 
ATOM      4  C4  IND d   1      -0.915   0.117  -0.183  0.00  0.00     0.051 A 
ATOM      5  C5  IND d   1       0.084  -0.815  -0.224  0.00  0.00    -0.031 A 
ATOM      6  C6  IND d   1       1.129  -0.804   0.677  0.00  0.00     0.015 A 
ATOM      7  C7  IND d   1       1.208   0.136   1.664  0.00  0.00    -0.016 A 
ATOM      8  C8  IND d   1       0.199   1.089   1.705  0.00  0.00    -0.047 A 
ATOM      9  C9  IND d   1      -0.841   1.108   0.767  0.00  0.00    -0.096 A 
ATOM     10  HN1 IND d   1       0.517   2.376   3.209  0.00  0.00     0.298 HD
ENDROOT
TORSDOF 0
ENDMDL
