MODEL 1
REMARK minimizedAffinity -0.680514693
REMARK minimizedRMSD -1
REMARK  0 active torsions:
REMARK  status: ('A' for Active; 'I' for Inactive)
ROOT
ATOM      1  N1  IND d   1       0.166   2.110   2.100  0.00  0.00    -0.196 N 
ATOM      2  C2  IND d   1      -1.014   2.797   2.026  0.00  0.00     0.054 A 
ATOM      3  C3  IND d   1      -1.762   2.337   0.998  0.00  0.00    -0.031 A 
ATOM      4  C4  IND d   1      -1.290   0.398  -0.629  0.00  0.00     0.051 A 
ATOM      5  C5  IND d   1      -0.324  -0.504  -0.978  0.00  0.00    -0.031 A 
ATOM      6  C6  IND d   1       0.877  -0.585  -0.304  0.00  0.00     0.015 A 
ATOM      7  C7  IND d   1       1.154   0.231   0.757  0.00  0.00    -0.016 A 
ATOM      8  C8  IND d   1       0.179   1.153   1.110  0.00  0.00    -0.047 A 
ATOM      9  C9  IND d   1      -1.024   1.268   0.403  0.00  0.00    -0.096 A 
ATOM     10  HN1 IND d   1       0.794   2.253   2.670  0.00  0.00     0.298 HD
ENDROOT
TORSDOF 0
ENDMDL
