MODEL 1
REMARK minimizedAffinity -1.10253978
REMARK minimizedRMSD -1
REMARK  0 active torsions:
REMARK  status: ('A' for Active; 'I' for Inactive)
ROOT
ATOM      1  N1  IND d   1       3.544  -1.048   0.032  0.00  0.00    -0.196 N 
ATOM      2  C2  IND d   1       4.332  -1.144   1.145  0.00  0.00     0.054 A 
ATOM      3  C3  IND d   1       3.645  -0.753   2.242  0.00  0.00    -0.031 A 
ATOM      4  C4  IND d   1       1.187  -0.017   2.457  0.00  0.00     0.051 A 
ATOM      5  C5  IND d   1       0.077   0.263   1.710  0.00  0.00    -0.031 A 
ATOM      6  C6  IND d   1       0.065   0.114   0.338  0.00  0.00     0.015 A 
ATOM      7  C7  IND d   1       1.164  -0.332  -0.340  0.00  0.00    -0.016 A 
ATOM      8  C8  IND d   1       2.295  -0.611   0.414  0.00  0.00    -0.047 A 
ATOM      9  C9  IND d   1       2.327  -0.422   1.802  0.00  0.00    -0.096 A 
ATOM     10  HN1 IND d   1       3.788  -1.231  -0.772  0.00  0.00     0.298 HD
ENDROOT
TORSDOF 0
ENDMDL
