MODEL 1
REMARK minimizedAffinity -1.43442154
REMARK minimizedRMSD -1
REMARK  0 active torsions:
REMARK  status: ('A' for Active; 'I' for Inactive)
ROOT
ATOM      1  N1  IND d   1      -0.368   2.714  -1.273  0.00  0.00    -0.196 N 
ATOM      2  C2  IND d   1       0.045   1.854  -2.252  0.00  0.00     0.054 A 
ATOM      3  C3  IND d   1       0.353   0.649  -1.720  0.00  0.00    -0.031 A 
ATOM      4  C4  IND d   1       0.157  -0.162   0.715  0.00  0.00     0.051 A 
ATOM      5  C5  IND d   1      -0.137   0.275   1.976  0.00  0.00    -0.031 A 
ATOM      6  C6  IND d   1      -0.535   1.573   2.223  0.00  0.00     0.015 A 
ATOM      7  C7  IND d   1      -0.664   2.483   1.212  0.00  0.00    -0.016 A 
ATOM      8  C8  IND d   1      -0.358   2.045  -0.069  0.00  0.00    -0.047 A 
ATOM      9  C9  IND d   1       0.086   0.740  -0.320  0.00  0.00    -0.096 A 
ATOM     10  HN1 IND d   1      -0.595   3.535  -1.390  0.00  0.00     0.298 HD
ENDROOT
TORSDOF 0
ENDMDL
