MODEL 1
REMARK minimizedAffinity -2.45800495
REMARK minimizedRMSD -1
REMARK  0 active torsions:
REMARK  status: ('A' for Active; 'I' for Inactive)
ROOT
ATOM      1  N1  IND d   1       0.351   1.919   2.119  0.00  0.00    -0.196 N 
ATOM      2  C2  IND d   1      -0.865   2.477   1.836  0.00  0.00     0.054 A 
ATOM      3  C3  IND d   1      -1.496   1.765   0.875  0.00  0.00    -0.031 A 
ATOM      4  C4  IND d   1      -0.765  -0.405  -0.301  0.00  0.00     0.051 A 
ATOM      5  C5  IND d   1       0.285  -1.273  -0.403  0.00  0.00    -0.031 A 
ATOM      6  C6  IND d   1       1.433  -1.121   0.348  0.00  0.00     0.015 A 
ATOM      7  C7  IND d   1       1.569  -0.095   1.240  0.00  0.00    -0.016 A 
ATOM      8  C8  IND d   1       0.508   0.792   1.341  0.00  0.00    -0.047 A 
ATOM      9  C9  IND d   1      -0.642   0.667   0.552  0.00  0.00    -0.096 A 
ATOM     10  HN1 IND d   1       0.922   2.221   2.686  0.00  0.00     0.298 HD
ENDROOT
TORSDOF 0
ENDMDL
