MODEL 1
REMARK minimizedAffinity -0.090948008
REMARK minimizedRMSD -1
REMARK  0 active torsions:
REMARK  status: ('A' for Active; 'I' for Inactive)
ROOT
ATOM      1  N1  IND d   1       0.196   0.927  -2.283  0.00  0.00    -0.196 N 
ATOM      2  C2  IND d   1       0.063   1.396  -1.005  0.00  0.00     0.054 A 
ATOM      3  C3  IND d   1      -0.097   0.368  -0.142  0.00  0.00    -0.031 A 
ATOM      4  C4  IND d   1      -0.068  -2.167  -0.592  0.00  0.00     0.051 A 
ATOM      5  C5  IND d   1      -0.012  -3.080  -1.607  0.00  0.00    -0.031 A 
ATOM      6  C6  IND d   1       0.122  -2.696  -2.926  0.00  0.00     0.015 A 
ATOM      7  C7  IND d   1       0.217  -1.380  -3.279  0.00  0.00    -0.016 A 
ATOM      8  C8  IND d   1       0.153  -0.450  -2.251  0.00  0.00    -0.047 A 
ATOM      9  C9  IND d   1      -0.026  -0.831  -0.915  0.00  0.00    -0.096 A 
ATOM     10  HN1 IND d   1       0.292   1.411  -2.987  0.00  0.00     0.298 HD
ENDROOT
TORSDOF 0
ENDMDL
