MODEL 1
REMARK minimizedAffinity -2.2960453
REMARK minimizedRMSD -1
REMARK  0 active torsions:
REMARK  status: ('A' for Active; 'I' for Inactive)
ROOT
ATOM      1  N1  IND d   1      -0.498  -2.861  -0.917  0.00  0.00    -0.196 N 
ATOM      2  C2  IND d   1       0.039  -3.290  -2.099  0.00  0.00     0.054 A 
ATOM      3  C3  IND d   1       0.438  -2.236  -2.844  0.00  0.00    -0.031 A 
ATOM      4  C4  IND d   1       0.399   0.276  -2.279  0.00  0.00     0.051 A 
ATOM      5  C5  IND d   1      -0.032   1.159  -1.330  0.00  0.00    -0.031 A 
ATOM      6  C6  IND d   1      -0.651   0.739  -0.170  0.00  0.00     0.015 A 
ATOM      7  C7  IND d   1      -0.851  -0.587   0.091  0.00  0.00    -0.016 A 
ATOM      8  C8  IND d   1      -0.421  -1.486  -0.874  0.00  0.00    -0.047 A 
ATOM      9  C9  IND d   1       0.169  -1.064  -2.073  0.00  0.00    -0.096 A 
ATOM     10  HN1 IND d   1      -0.828  -3.365  -0.304  0.00  0.00     0.298 HD
ENDROOT
TORSDOF 0
ENDMDL
