MODEL 1
REMARK minimizedAffinity 1.6719538
REMARK minimizedRMSD -1
REMARK  0 active torsions:
REMARK  status: ('A' for Active; 'I' for Inactive)
ROOT
ATOM      1  N1  IND d   1       0.438  -0.404  -1.473  0.00  0.00    -0.196 N 
ATOM      2  C2  IND d   1       0.256  -1.353  -0.506  0.00  0.00     0.054 A 
ATOM      3  C3  IND d   1      -0.661  -0.936   0.396  0.00  0.00    -0.031 A 
ATOM      4  C4  IND d   1      -2.063   1.223   0.424  0.00  0.00     0.051 A 
ATOM      5  C5  IND d   1      -2.224   2.411  -0.231  0.00  0.00    -0.031 A 
ATOM      6  C6  IND d   1      -1.493   2.728  -1.357  0.00  0.00     0.015 A 
ATOM      7  C7  IND d   1      -0.578   1.859  -1.880  0.00  0.00    -0.016 A 
ATOM      8  C8  IND d   1      -0.407   0.653  -1.214  0.00  0.00    -0.047 A 
ATOM      9  C9  IND d   1      -1.115   0.344  -0.046  0.00  0.00    -0.096 A 
ATOM     10  HN1 IND d   1       0.987  -0.458  -2.132  0.00  0.00     0.298 HD
ENDROOT
TORSDOF 0
ENDMDL
