MODEL 1
REMARK minimizedAffinity 4.8747077
REMARK minimizedRMSD -1
REMARK  0 active torsions:
REMARK  status: ('A' for Active; 'I' for Inactive)
ROOT
ATOM      1  N1  IND d   1       1.046   0.181  -1.680  0.00  0.00    -0.196 N 
ATOM      2  C2  IND d   1       0.026   0.590  -0.866  0.00  0.00     0.054 A 
ATOM      3  C3  IND d   1       0.374   0.446   0.433  0.00  0.00    -0.031 A 
ATOM      4  C4  IND d   1       2.602  -0.344   1.451  0.00  0.00     0.051 A 
ATOM      5  C5  IND d   1       3.822  -0.858   1.107  0.00  0.00    -0.031 A 
ATOM      6  C6  IND d   1       4.186  -1.053  -0.209  0.00  0.00     0.015 A 
ATOM      7  C7  IND d   1       3.346  -0.729  -1.236  0.00  0.00    -0.016 A 
ATOM      8  C8  IND d   1       2.104  -0.214  -0.891  0.00  0.00    -0.047 A 
ATOM      9  C9  IND d   1       1.712  -0.054   0.444  0.00  0.00    -0.096 A 
ATOM     10  HN1 IND d   1       1.029   0.173  -2.539  0.00  0.00     0.298 HD
ENDROOT
TORSDOF 0
ENDMDL
