MODEL 1
REMARK minimizedAffinity 0.990120232
REMARK minimizedRMSD -1
REMARK  0 active torsions:
REMARK  status: ('A' for Active; 'I' for Inactive)
ROOT
ATOM      1  N1  IND d   1       0.760  -0.821  -0.224  0.00  0.00    -0.196 N 
ATOM      2  C2  IND d   1       1.079  -1.020   1.090  0.00  0.00     0.054 A 
ATOM      3  C3  IND d   1       0.581  -0.020   1.852  0.00  0.00    -0.031 A 
ATOM      4  C4  IND d   1      -0.875   1.989   1.166  0.00  0.00     0.051 A 
ATOM      5  C5  IND d   1      -1.398   2.616   0.070  0.00  0.00    -0.031 A 
ATOM      6  C6  IND d   1      -1.227   2.118  -1.206  0.00  0.00     0.015 A 
ATOM      7  C7  IND d   1      -0.534   0.962  -1.433  0.00  0.00    -0.016 A 
ATOM      8  C8  IND d   1       0.005   0.327  -0.323  0.00  0.00    -0.047 A 
ATOM      9  C9  IND d   1      -0.129   0.851   0.970  0.00  0.00    -0.096 A 
ATOM     10  HN1 IND d   1       0.991  -1.328  -0.879  0.00  0.00     0.298 HD
ENDROOT
TORSDOF 0
ENDMDL
