MODEL 1
REMARK minimizedAffinity -0.263057709
REMARK minimizedRMSD -1
REMARK  0 active torsions:
REMARK  status: ('A' for Active; 'I' for Inactive)
ROOT
ATOM      1  N1  IND d   1      -0.489   1.537  -1.401  0.00  0.00    -0.196 N 
ATOM      2  C2  IND d   1      -0.479   0.280  -1.937  0.00  0.00     0.054 A 
ATOM      3  C3  IND d   1      -0.351  -0.647  -0.961  0.00  0.00    -0.031 A 
ATOM      4  C4  IND d   1      -0.242  -0.328   1.591  0.00  0.00     0.051 A 
ATOM      5  C5  IND d   1      -0.178   0.639   2.555  0.00  0.00    -0.031 A 
ATOM      6  C6  IND d   1      -0.218   1.983   2.242  0.00  0.00     0.015 A 
ATOM      7  C7  IND d   1      -0.336   2.410   0.950  0.00  0.00    -0.016 A 
ATOM      8  C8  IND d   1      -0.393   1.431  -0.031  0.00  0.00    -0.047 A 
ATOM      9  C9  IND d   1      -0.310   0.067   0.276  0.00  0.00    -0.096 A 
ATOM     10  HN1 IND d   1      -0.544   2.272  -1.845  0.00  0.00     0.298 HD
ENDROOT
TORSDOF 0
ENDMDL
