MODEL 1
REMARK minimizedAffinity -1.94920397
REMARK minimizedRMSD -1
REMARK  0 active torsions:
REMARK  status: ('A' for Active; 'I' for Inactive)
ROOT
ATOM      1  C2' OXE d   1       1.323  -1.971  -1.259  0.00  0.00     0.078 C 
ATOM      2  C1' OXE d   1      -1.465  -2.023  -1.589  0.00  0.00     0.078 C 
ATOM      3  C1  OXE d   1      -0.865  -0.852  -0.851  0.00  0.00    -0.078 A 
ATOM      4  C2  OXE d   1       0.495  -0.858  -0.653  0.00  0.00    -0.078 A 
ATOM      5  C3  OXE d   1       1.105   0.224  -0.026  0.00  0.00     0.003 A 
ATOM      6  C4  OXE d   1       0.331   1.244   0.540  0.00  0.00    -0.002 A 
ATOM      7  C5  OXE d   1      -1.059   1.250   0.385  0.00  0.00    -0.002 A 
ATOM      8  C6  OXE d   1      -1.668   0.233  -0.343  0.00  0.00     0.003 A 
ENDROOT
TORSDOF 0
ENDMDL
