MODEL 1
REMARK minimizedAffinity -4.9941926
REMARK minimizedRMSD -1
REMARK  0 active torsions:
REMARK  status: ('A' for Active; 'I' for Inactive)
ROOT
ATOM      1  C2' OXE d   1      -0.855   1.065   1.298  0.00  0.00     0.078 C 
ATOM      2  C1' OXE d   1       0.127  -0.743  -0.612  0.00  0.00     0.078 C 
ATOM      3  C1  OXE d   1       1.050   0.353  -0.141  0.00  0.00    -0.078 A 
ATOM      4  C2  OXE d   1       0.545   1.261   0.759  0.00  0.00    -0.078 A 
ATOM      5  C3  OXE d   1       1.371   2.259   1.268  0.00  0.00     0.003 A 
ATOM      6  C4  OXE d   1       2.662   2.440   0.757  0.00  0.00    -0.002 A 
ATOM      7  C5  OXE d   1       3.182   1.551  -0.190  0.00  0.00    -0.002 A 
ATOM      8  C6  OXE d   1       2.406   0.479  -0.616  0.00  0.00     0.003 A 
ENDROOT
TORSDOF 0
ENDMDL
