MODEL 1
REMARK minimizedAffinity -1.15269375
REMARK minimizedRMSD -1
REMARK  0 active torsions:
REMARK  status: ('A' for Active; 'I' for Inactive)
ROOT
ATOM      1  C2' OXE d   1       0.047  -1.530  -0.396  0.00  0.00     0.078 C 
ATOM      2  C1' OXE d   1       1.666   0.677  -1.018  0.00  0.00     0.078 C 
ATOM      3  C1  OXE d   1       0.837   0.745   0.240  0.00  0.00    -0.078 A 
ATOM      4  C2  OXE d   1       0.012  -0.320   0.512  0.00  0.00    -0.078 A 
ATOM      5  C3  OXE d   1      -0.733  -0.333   1.688  0.00  0.00     0.003 A 
ATOM      6  C4  OXE d   1      -0.767   0.795   2.518  0.00  0.00    -0.002 A 
ATOM      7  C5  OXE d   1       0.035   1.906   2.238  0.00  0.00    -0.002 A 
ATOM      8  C6  OXE d   1       0.873   1.880   1.129  0.00  0.00     0.003 A 
ENDROOT
TORSDOF 0
ENDMDL
