MODEL 1
REMARK minimizedAffinity -5.31971788
REMARK minimizedRMSD -1
REMARK  0 active torsions:
REMARK  status: ('A' for Active; 'I' for Inactive)
ROOT
ATOM      1  C2' OXE d   1      -1.496  -0.322   2.059  0.00  0.00     0.078 C 
ATOM      2  C1' OXE d   1      -0.318  -1.111  -0.364  0.00  0.00     0.078 C 
ATOM      3  C1  OXE d   1       0.020   0.259   0.169  0.00  0.00    -0.078 A 
ATOM      4  C2  OXE d   1      -0.597   0.655   1.332  0.00  0.00    -0.078 A 
ATOM      5  C3  OXE d   1      -0.280   1.887   1.896  0.00  0.00     0.003 A 
ATOM      6  C4  OXE d   1       0.545   2.788   1.211  0.00  0.00    -0.002 A 
ATOM      7  C5  OXE d   1       1.152   2.420   0.006  0.00  0.00    -0.002 A 
ATOM      8  C6  OXE d   1       0.935   1.146  -0.506  0.00  0.00     0.003 A 
ENDROOT
TORSDOF 0
ENDMDL
