MODEL 1
REMARK minimizedAffinity -2.43153906
REMARK minimizedRMSD -1
REMARK  0 active torsions:
REMARK  status: ('A' for Active; 'I' for Inactive)
ROOT
ATOM      1  C2' OXE d   1       1.032   1.876   1.115  0.00  0.00     0.078 C 
ATOM      2  C1' OXE d   1       2.798   0.497  -0.575  0.00  0.00     0.078 C 
ATOM      3  C1  OXE d   1       1.379  -0.006  -0.479  0.00  0.00    -0.078 A 
ATOM      4  C2  OXE d   1       0.535   0.646   0.386  0.00  0.00    -0.078 A 
ATOM      5  C3  OXE d   1      -0.799   0.258   0.472  0.00  0.00     0.003 A 
ATOM      6  C4  OXE d   1      -1.249  -0.887  -0.199  0.00  0.00    -0.002 A 
ATOM      7  C5  OXE d   1      -0.394  -1.590  -1.054  0.00  0.00    -0.002 A 
ATOM      8  C6  OXE d   1       0.909  -1.138  -1.238  0.00  0.00     0.003 A 
ENDROOT
TORSDOF 0
ENDMDL
