MODEL 1
REMARK minimizedAffinity -3.87770915
REMARK minimizedRMSD -1
REMARK  0 active torsions:
REMARK  status: ('A' for Active; 'I' for Inactive)
ROOT
ATOM      1  C2' OXE d   1      -1.739   1.140   1.364  0.00  0.00     0.078 C 
ATOM      2  C1' OXE d   1       0.580   2.663   0.941  0.00  0.00     0.078 C 
ATOM      3  C1  OXE d   1       0.554   1.256   0.398  0.00  0.00    -0.078 A 
ATOM      4  C2  OXE d   1      -0.567   0.502   0.650  0.00  0.00    -0.078 A 
ATOM      5  C3  OXE d   1      -0.666  -0.783   0.125  0.00  0.00     0.003 A 
ATOM      6  C4  OXE d   1       0.427  -1.369  -0.525  0.00  0.00    -0.002 A 
ATOM      7  C5  OXE d   1       1.594  -0.632  -0.757  0.00  0.00    -0.002 A 
ATOM      8  C6  OXE d   1       1.657   0.693  -0.341  0.00  0.00     0.003 A 
ENDROOT
TORSDOF 0
ENDMDL
