MODEL 1
REMARK minimizedAffinity -5.35496187
REMARK minimizedRMSD -1
REMARK  0 active torsions:
REMARK  status: ('A' for Active; 'I' for Inactive)
ROOT
ATOM      1  C2' OXE d   1       1.845  -0.516  -0.501  0.00  0.00     0.078 C 
ATOM      2  C1' OXE d   1      -0.839  -0.751  -1.289  0.00  0.00     0.078 C 
ATOM      3  C1  OXE d   1      -0.527   0.137  -0.110  0.00  0.00    -0.078 A 
ATOM      4  C2  OXE d   1       0.783   0.209   0.298  0.00  0.00    -0.078 A 
ATOM      5  C3  OXE d   1       1.133   1.056   1.345  0.00  0.00     0.003 A 
ATOM      6  C4  OXE d   1       0.143   1.715   2.085  0.00  0.00    -0.002 A 
ATOM      7  C5  OXE d   1      -1.202   1.623   1.711  0.00  0.00    -0.002 A 
ATOM      8  C6  OXE d   1      -1.548   0.874   0.592  0.00  0.00     0.003 A 
ENDROOT
TORSDOF 0
ENDMDL
