MODEL 1
REMARK minimizedAffinity -4.45873022
REMARK minimizedRMSD -1
REMARK  0 active torsions:
REMARK  status: ('A' for Active; 'I' for Inactive)
ROOT
ATOM      1  C2' OXE d   1      -0.462  -0.299  -1.038  0.00  0.00     0.078 C 
ATOM      2  C1' OXE d   1      -1.041  -0.306   1.709  0.00  0.00     0.078 C 
ATOM      3  C1  OXE d   1       0.106   0.551   1.234  0.00  0.00    -0.078 A 
ATOM      4  C2  OXE d   1       0.411   0.513  -0.105  0.00  0.00    -0.078 A 
ATOM      5  C3  OXE d   1       1.424   1.326  -0.604  0.00  0.00     0.003 A 
ATOM      6  C4  OXE d   1       2.233   2.066   0.266  0.00  0.00    -0.002 A 
ATOM      7  C5  OXE d   1       1.964   2.089   1.639  0.00  0.00    -0.002 A 
ATOM      8  C6  OXE d   1       0.880   1.372   2.132  0.00  0.00     0.003 A 
ENDROOT
TORSDOF 0
ENDMDL
