MODEL 1
REMARK minimizedAffinity -0.787181675
REMARK minimizedRMSD -1
REMARK  0 active torsions:
REMARK  status: ('A' for Active; 'I' for Inactive)
ROOT
ATOM      1  C2' OXE d   1       2.663   0.453  -0.209  0.00  0.00     0.078 C 
ATOM      2  C1' OXE d   1       1.064   1.849   1.628  0.00  0.00     0.078 C 
ATOM      3  C1  OXE d   1       0.423   0.731   0.844  0.00  0.00    -0.078 A 
ATOM      4  C2  OXE d   1       1.201   0.084  -0.086  0.00  0.00    -0.078 A 
ATOM      5  C3  OXE d   1       0.674  -0.991  -0.796  0.00  0.00     0.003 A 
ATOM      6  C4  OXE d   1      -0.682  -1.319  -0.684  0.00  0.00    -0.002 A 
ATOM      7  C5  OXE d   1      -1.502  -0.646   0.229  0.00  0.00    -0.002 A 
ATOM      8  C6  OXE d   1      -0.955   0.351   1.029  0.00  0.00     0.003 A 
ENDROOT
TORSDOF 0
ENDMDL
