MODEL 1
REMARK minimizedAffinity -3.03997803
REMARK minimizedRMSD -1
REMARK  0 active torsions:
REMARK  status: ('A' for Active; 'I' for Inactive)
ROOT
ATOM      1  C2' OXE d   1      -0.234  -0.851  -0.719  0.00  0.00     0.078 C 
ATOM      2  C1' OXE d   1       2.196   0.546  -0.858  0.00  0.00     0.078 C 
ATOM      3  C1  OXE d   1       1.170   1.018   0.142  0.00  0.00    -0.078 A 
ATOM      4  C2  OXE d   1      -0.035   0.357   0.170  0.00  0.00    -0.078 A 
ATOM      5  C3  OXE d   1      -0.996   0.717   1.111  0.00  0.00     0.003 A 
ATOM      6  C4  OXE d   1      -0.807   1.842   1.922  0.00  0.00    -0.002 A 
ATOM      7  C5  OXE d   1       0.396   2.553   1.881  0.00  0.00    -0.002 A 
ATOM      8  C6  OXE d   1       1.410   2.129   1.029  0.00  0.00     0.003 A 
ENDROOT
TORSDOF 0
ENDMDL
