MODEL 1
REMARK minimizedAffinity -4.31036949
REMARK minimizedRMSD -1
REMARK  0 active torsions:
REMARK  status: ('A' for Active; 'I' for Inactive)
ROOT
ATOM      1  C2' OXE d   1      -1.264  -0.337   1.187  0.00  0.00     0.078 C 
ATOM      2  C1' OXE d   1       0.438  -1.316  -0.819  0.00  0.00     0.078 C 
ATOM      3  C1  OXE d   1       0.831  -0.035  -0.127  0.00  0.00    -0.078 A 
ATOM      4  C2  OXE d   1      -0.031   0.462   0.821  0.00  0.00    -0.078 A 
ATOM      5  C3  OXE d   1       0.309   1.611   1.529  0.00  0.00     0.003 A 
ATOM      6  C4  OXE d   1       1.446   2.349   1.177  0.00  0.00    -0.002 A 
ATOM      7  C5  OXE d   1       2.317   1.883   0.187  0.00  0.00    -0.002 A 
ATOM      8  C6  OXE d   1       2.047   0.673  -0.443  0.00  0.00     0.003 A 
ENDROOT
TORSDOF 0
ENDMDL
