MODEL 1
REMARK minimizedAffinity -2.65578914
REMARK minimizedRMSD -1
REMARK  0 active torsions:
REMARK  status: ('A' for Active; 'I' for Inactive)
ROOT
ATOM      1  C2' OXE d   1      -0.283  -1.651  -0.679  0.00  0.00     0.078 C 
ATOM      2  C1' OXE d   1       2.065  -0.150  -1.019  0.00  0.00     0.078 C 
ATOM      3  C1  OXE d   1       1.026   0.377  -0.061  0.00  0.00    -0.078 A 
ATOM      4  C2  OXE d   1      -0.140  -0.340   0.064  0.00  0.00    -0.078 A 
ATOM      5  C3  OXE d   1      -1.108   0.073   0.975  0.00  0.00     0.003 A 
ATOM      6  C4  OXE d   1      -0.973   1.292   1.650  0.00  0.00    -0.002 A 
ATOM      7  C5  OXE d   1       0.190   2.057   1.507  0.00  0.00    -0.002 A 
ATOM      8  C6  OXE d   1       1.214   1.594   0.690  0.00  0.00     0.003 A 
ENDROOT
TORSDOF 0
ENDMDL
