MODEL 1
REMARK minimizedAffinity -5.4021492
REMARK minimizedRMSD -1
REMARK  0 active torsions:
REMARK  status: ('A' for Active; 'I' for Inactive)
ROOT
ATOM      1  C2' OXE d   1       2.442   0.063  -0.901  0.00  0.00     0.078 C 
ATOM      2  C1' OXE d   1      -0.246  -0.695  -0.617  0.00  0.00     0.078 C 
ATOM      3  C1  OXE d   1       0.250   0.462   0.213  0.00  0.00    -0.078 A 
ATOM      4  C2  OXE d   1       1.578   0.797   0.102  0.00  0.00    -0.078 A 
ATOM      5  C3  OXE d   1       2.075   1.892   0.804  0.00  0.00     0.003 A 
ATOM      6  C4  OXE d   1       1.271   2.559   1.737  0.00  0.00    -0.002 A 
ATOM      7  C5  OXE d   1      -0.074   2.209   1.895  0.00  0.00    -0.002 A 
ATOM      8  C6  OXE d   1      -0.610   1.193   1.111  0.00  0.00     0.003 A 
ENDROOT
TORSDOF 0
ENDMDL
