MODEL 1
REMARK minimizedAffinity -1.99689627
REMARK minimizedRMSD -1
REMARK  0 active torsions:
REMARK  status: ('A' for Active; 'I' for Inactive)
ROOT
ATOM      1  C2' OXE d   1      -1.218  -0.302   1.652  0.00  0.00     0.078 C 
ATOM      2  C1' OXE d   1       0.165  -1.202  -0.619  0.00  0.00     0.078 C 
ATOM      3  C1  OXE d   1       0.547   0.141  -0.050  0.00  0.00    -0.078 A 
ATOM      4  C2  OXE d   1      -0.167   0.595   1.033  0.00  0.00    -0.078 A 
ATOM      5  C3  OXE d   1       0.180   1.803   1.631  0.00  0.00     0.003 A 
ATOM      6  C4  OXE d   1       1.146   2.631   1.047  0.00  0.00    -0.002 A 
ATOM      7  C5  OXE d   1       1.858   2.206  -0.080  0.00  0.00    -0.002 A 
ATOM      8  C6  OXE d   1       1.600   0.948  -0.614  0.00  0.00     0.003 A 
ENDROOT
TORSDOF 0
ENDMDL
