MODEL 1
REMARK minimizedAffinity -2.31758308
REMARK minimizedRMSD -1
REMARK  0 active torsions:
REMARK  status: ('A' for Active; 'I' for Inactive)
ROOT
ATOM      1  C2' OXE d   1      -0.892  -0.523   1.619  0.00  0.00     0.078 C 
ATOM      2  C1' OXE d   1      -0.630  -0.268  -1.164  0.00  0.00     0.078 C 
ATOM      3  C1  OXE d   1      -0.007   0.799  -0.298  0.00  0.00    -0.078 A 
ATOM      4  C2  OXE d   1      -0.181   0.691   1.061  0.00  0.00    -0.078 A 
ATOM      5  C3  OXE d   1       0.419   1.618   1.908  0.00  0.00     0.003 A 
ATOM      6  C4  OXE d   1       1.067   2.743   1.383  0.00  0.00    -0.002 A 
ATOM      7  C5  OXE d   1       1.220   2.893   0.000  0.00  0.00    -0.002 A 
ATOM      8  C6  OXE d   1       0.727   1.910  -0.851  0.00  0.00     0.003 A 
ENDROOT
TORSDOF 0
ENDMDL
