MODEL 1
REMARK minimizedAffinity -1.57636595
REMARK minimizedRMSD -1
REMARK  0 active torsions:
REMARK  status: ('A' for Active; 'I' for Inactive)
ROOT
ATOM      1  C   UNL d   1      -1.093   2.334   1.715  0.00  0.00     0.124 A 
ATOM      2  C1  UNL d   1      -1.299   2.212   0.348  0.00  0.00     0.062 A 
ATOM      3  C2  UNL d   1      -0.768   1.128  -0.346  0.00  0.00     0.162 A 
ATOM      4  C3  UNL d   1      -0.027   0.156   0.327  0.00  0.00    -0.034 A 
ATOM      5  C4  UNL d   1       0.176   0.287   1.702  0.00  0.00     0.162 A 
ATOM      6  C5  UNL d   1      -0.356   1.372   2.390  0.00  0.00     0.062 A 
ATOM      7  F   UNL d   1      -0.157   1.489   3.711  0.00  0.00    -0.097 F 
ATOM      8  F1  UNL d   1       0.884  -0.629   2.380  0.00  0.00    -0.096 F 
ATOM      9  I   UNL d   1       0.768  -1.466  -0.706  0.00  0.00    -0.060 I 
ATOM     10  F2  UNL d   1      -0.983   1.035  -1.667  0.00  0.00    -0.096 F 
ATOM     11  F3  UNL d   1      -2.010   3.141  -0.308  0.00  0.00    -0.097 F 
ATOM     12  F4  UNL d   1      -1.604   3.379   2.379  0.00  0.00    -0.092 F 
ENDROOT
TORSDOF 0
ENDMDL
