MODEL 1
REMARK minimizedAffinity 4.85127068
REMARK minimizedRMSD -1
REMARK  0 active torsions:
REMARK  status: ('A' for Active; 'I' for Inactive)
ROOT
ATOM      1  C   UNL d   1      -0.993   2.205   1.153  0.00  0.00     0.124 A 
ATOM      2  C1  UNL d   1      -0.202   1.465   2.021  0.00  0.00     0.062 A 
ATOM      3  C2  UNL d   1       0.325   0.242   1.618  0.00  0.00     0.162 A 
ATOM      4  C3  UNL d   1       0.064  -0.250   0.339  0.00  0.00    -0.034 A 
ATOM      5  C4  UNL d   1      -0.733   0.500  -0.529  0.00  0.00     0.162 A 
ATOM      6  C5  UNL d   1      -1.258   1.722  -0.121  0.00  0.00     0.062 A 
ATOM      7  F   UNL d   1      -2.022   2.435  -0.961  0.00  0.00    -0.097 F 
ATOM      8  F1  UNL d   1      -1.004   0.057  -1.765  0.00  0.00    -0.096 F 
ATOM      9  I   UNL d   1       0.850  -2.079  -0.268  0.00  0.00    -0.060 I 
ATOM     10  F2  UNL d   1       1.086  -0.452   2.478  0.00  0.00    -0.096 F 
ATOM     11  F3  UNL d   1       0.054   1.930   3.253  0.00  0.00    -0.097 F 
ATOM     12  F4  UNL d   1      -1.500   3.381   1.544  0.00  0.00    -0.092 F 
ENDROOT
TORSDOF 0
ENDMDL
