MODEL 1
REMARK minimizedAffinity -0.836291313
REMARK minimizedRMSD -1
REMARK  0 active torsions:
REMARK  status: ('A' for Active; 'I' for Inactive)
ROOT
ATOM      1  C   UNL d   1      -0.193   1.420   1.046  0.00  0.00     0.124 A 
ATOM      2  C1  UNL d   1      -0.199   0.430   2.018  0.00  0.00     0.062 A 
ATOM      3  C2  UNL d   1      -0.164  -0.912   1.651  0.00  0.00     0.162 A 
ATOM      4  C3  UNL d   1      -0.122  -1.272   0.304  0.00  0.00    -0.034 A 
ATOM      5  C4  UNL d   1      -0.117  -0.270  -0.669  0.00  0.00     0.162 A 
ATOM      6  C5  UNL d   1      -0.152   1.070  -0.296  0.00  0.00     0.062 A 
ATOM      7  F   UNL d   1      -0.146   2.025  -1.237  0.00  0.00    -0.097 F 
ATOM      8  F1  UNL d   1      -0.077  -0.581  -1.973  0.00  0.00    -0.096 F 
ATOM      9  I   UNL d   1      -0.071  -3.278  -0.250  0.00  0.00    -0.060 I 
ATOM     10  F2  UNL d   1      -0.171  -1.848   2.612  0.00  0.00    -0.096 F 
ATOM     11  F3  UNL d   1      -0.239   0.766   3.316  0.00  0.00    -0.097 F 
ATOM     12  F4  UNL d   1      -0.227   2.711   1.403  0.00  0.00    -0.092 F 
ENDROOT
TORSDOF 0
ENDMDL
