MODEL 1
REMARK minimizedAffinity -2.04252434
REMARK minimizedRMSD -1
REMARK  0 active torsions:
REMARK  status: ('A' for Active; 'I' for Inactive)
ROOT
ATOM      1  C   UNL d   1      -0.043   1.766   0.609  0.00  0.00     0.124 A 
ATOM      2  C1  UNL d   1      -0.243   0.708   1.485  0.00  0.00     0.062 A 
ATOM      3  C2  UNL d   1      -0.290  -0.598   1.006  0.00  0.00     0.162 A 
ATOM      4  C3  UNL d   1      -0.135  -0.854  -0.357  0.00  0.00    -0.034 A 
ATOM      5  C4  UNL d   1       0.066   0.216  -1.231  0.00  0.00     0.162 A 
ATOM      6  C5  UNL d   1       0.112   1.519  -0.747  0.00  0.00     0.062 A 
ATOM      7  F   UNL d   1       0.306   2.540  -1.595  0.00  0.00    -0.097 F 
ATOM      8  F1  UNL d   1       0.219   0.006  -2.547  0.00  0.00    -0.096 F 
ATOM      9  I   UNL d   1      -0.204  -2.805  -1.077  0.00  0.00    -0.060 I 
ATOM     10  F2  UNL d   1      -0.485  -1.601   1.875  0.00  0.00    -0.096 F 
ATOM     11  F3  UNL d   1      -0.394   0.944   2.796  0.00  0.00    -0.097 F 
ATOM     12  F4  UNL d   1       0.001   3.022   1.073  0.00  0.00    -0.092 F 
ENDROOT
TORSDOF 0
ENDMDL
