MODEL 1
REMARK minimizedAffinity 14.1279297
REMARK minimizedRMSD -1
REMARK  0 active torsions:
REMARK  status: ('A' for Active; 'I' for Inactive)
ROOT
ATOM      1  C   UNL d   1       0.407   2.171   1.655  0.00  0.00     0.124 A 
ATOM      2  C1  UNL d   1       0.614   1.901   0.309  0.00  0.00     0.062 A 
ATOM      3  C2  UNL d   1       0.916   0.607  -0.106  0.00  0.00     0.162 A 
ATOM      4  C3  UNL d   1       1.013  -0.427   0.825  0.00  0.00    -0.034 A 
ATOM      5  C4  UNL d   1       0.805  -0.147   2.177  0.00  0.00     0.162 A 
ATOM      6  C5  UNL d   1       0.503   1.147   2.587  0.00  0.00     0.062 A 
ATOM      7  F   UNL d   1       0.304   1.407   3.888  0.00  0.00    -0.097 F 
ATOM      8  F1  UNL d   1       0.891  -1.118   3.098  0.00  0.00    -0.096 F 
ATOM      9  I   UNL d   1       1.465  -2.362   0.207  0.00  0.00    -0.060 I 
ATOM     10  F2  UNL d   1       1.111   0.375  -1.413  0.00  0.00    -0.096 F 
ATOM     11  F3  UNL d   1       0.523   2.888  -0.593  0.00  0.00    -0.097 F 
ATOM     12  F4  UNL d   1       0.118   3.417   2.053  0.00  0.00    -0.092 F 
ENDROOT
TORSDOF 0
ENDMDL
