MODEL 1
REMARK minimizedAffinity -3.45352507
REMARK minimizedRMSD -1
REMARK  0 active torsions:
REMARK  status: ('A' for Active; 'I' for Inactive)
ROOT
ATOM      1  C   UNL d   1      -0.288  -3.190  -1.166  0.00  0.00     0.124 A 
ATOM      2  C1  UNL d   1      -1.473  -2.480  -1.036  0.00  0.00     0.062 A 
ATOM      3  C2  UNL d   1      -1.481  -1.240  -0.404  0.00  0.00     0.162 A 
ATOM      4  C3  UNL d   1      -0.299  -0.700   0.101  0.00  0.00    -0.034 A 
ATOM      5  C4  UNL d   1       0.890  -1.420  -0.033  0.00  0.00     0.162 A 
ATOM      6  C5  UNL d   1       0.893  -2.659  -0.665  0.00  0.00     0.062 A 
ATOM      7  F   UNL d   1       2.039  -3.343  -0.789  0.00  0.00    -0.097 F 
ATOM      8  F1  UNL d   1       2.045  -0.930   0.442  0.00  0.00    -0.096 F 
ATOM      9  I   UNL d   1      -0.306   1.155   1.046  0.00  0.00    -0.060 I 
ATOM     10  F2  UNL d   1      -2.642  -0.576  -0.293  0.00  0.00    -0.096 F 
ATOM     11  F3  UNL d   1      -2.615  -2.991  -1.518  0.00  0.00    -0.097 F 
ATOM     12  F4  UNL d   1      -0.283  -4.383  -1.773  0.00  0.00    -0.092 F 
ENDROOT
TORSDOF 0
ENDMDL
