MODEL 1
REMARK minimizedAffinity -3.5506506
REMARK minimizedRMSD -1
REMARK  0 active torsions:
REMARK  status: ('A' for Active; 'I' for Inactive)
ROOT
ATOM      1  C   UNL d   1      -1.150   2.184   0.691  0.00  0.00     0.124 A 
ATOM      2  C1  UNL d   1      -0.471   1.904  -0.486  0.00  0.00     0.062 A 
ATOM      3  C2  UNL d   1      -0.257   0.585  -0.875  0.00  0.00     0.162 A 
ATOM      4  C3  UNL d   1      -0.724  -0.466  -0.086  0.00  0.00    -0.034 A 
ATOM      5  C4  UNL d   1      -1.406  -0.177   1.098  0.00  0.00     0.162 A 
ATOM      6  C5  UNL d   1      -1.617   1.144   1.482  0.00  0.00     0.062 A 
ATOM      7  F   UNL d   1      -2.274   1.412   2.620  0.00  0.00    -0.097 F 
ATOM      8  F1  UNL d   1      -1.869  -1.163   1.880  0.00  0.00    -0.096 F 
ATOM      9  I   UNL d   1      -0.407  -2.440  -0.663  0.00  0.00    -0.060 I 
ATOM     10  F2  UNL d   1       0.403   0.344  -2.018  0.00  0.00    -0.096 F 
ATOM     11  F3  UNL d   1      -0.017   2.908  -1.252  0.00  0.00    -0.097 F 
ATOM     12  F4  UNL d   1      -1.354   3.454   1.063  0.00  0.00    -0.092 F 
ENDROOT
TORSDOF 0
ENDMDL
