MODEL 1
REMARK minimizedAffinity 7.4877038
REMARK minimizedRMSD -1
REMARK  0 active torsions:
REMARK  status: ('A' for Active; 'I' for Inactive)
ROOT
ATOM      1  C   UNL d   1       0.096  -4.027  -1.585  0.00  0.00     0.124 A 
ATOM      2  C1  UNL d   1      -1.071  -3.758  -2.287  0.00  0.00     0.062 A 
ATOM      3  C2  UNL d   1      -1.434  -2.443  -2.564  0.00  0.00     0.162 A 
ATOM      4  C3  UNL d   1      -0.629  -1.387  -2.139  0.00  0.00    -0.034 A 
ATOM      5  C4  UNL d   1       0.543  -1.665  -1.433  0.00  0.00     0.162 A 
ATOM      6  C5  UNL d   1       0.902  -2.981  -1.159  0.00  0.00     0.062 A 
ATOM      7  F   UNL d   1       2.029  -3.238  -0.481  0.00  0.00    -0.097 F 
ATOM      8  F1  UNL d   1       1.340  -0.673  -1.010  0.00  0.00    -0.096 F 
ATOM      9  I   UNL d   1      -1.168   0.581  -2.551  0.00  0.00    -0.060 I 
ATOM     10  F2  UNL d   1      -2.567  -2.213  -3.243  0.00  0.00    -0.096 F 
ATOM     11  F3  UNL d   1      -1.851  -4.767  -2.699  0.00  0.00    -0.097 F 
ATOM     12  F4  UNL d   1       0.443  -5.293  -1.320  0.00  0.00    -0.092 F 
ENDROOT
TORSDOF 0
ENDMDL
