MODEL 1
REMARK minimizedAffinity 10.8731184
REMARK minimizedRMSD -1
REMARK  0 active torsions:
REMARK  status: ('A' for Active; 'I' for Inactive)
ROOT
ATOM      1  C   UNL d   1      -1.115   2.873  -0.500  0.00  0.00     0.124 A 
ATOM      2  C1  UNL d   1      -0.228   1.833  -0.742  0.00  0.00     0.062 A 
ATOM      3  C2  UNL d   1       0.320   1.119   0.319  0.00  0.00     0.162 A 
ATOM      4  C3  UNL d   1      -0.019   1.440   1.633  0.00  0.00    -0.034 A 
ATOM      5  C4  UNL d   1      -0.911   2.488   1.869  0.00  0.00     0.162 A 
ATOM      6  C5  UNL d   1      -1.456   3.199   0.805  0.00  0.00     0.062 A 
ATOM      7  F   UNL d   1      -2.313   4.203   1.041  0.00  0.00    -0.097 F 
ATOM      8  F1  UNL d   1      -1.258   2.824   3.121  0.00  0.00    -0.096 F 
ATOM      9  I   UNL d   1       0.798   0.374   3.223  0.00  0.00    -0.060 I 
ATOM     10  F2  UNL d   1       1.174   0.119   0.055  0.00  0.00    -0.096 F 
ATOM     11  F3  UNL d   1       0.103   1.517  -2.003  0.00  0.00    -0.097 F 
ATOM     12  F4  UNL d   1      -1.640   3.559  -1.523  0.00  0.00    -0.092 F 
ENDROOT
TORSDOF 0
ENDMDL
