MODEL 1
REMARK minimizedAffinity -0.411767125
REMARK minimizedRMSD -1
REMARK  1 active torsions:
REMARK  status: ('A' for Active; 'I' for Inactive)
REMARK    1  A    between atoms: N_2  and  C1_3 
ROOT
ATOM      1  C1  UNL d   1       0.097  -0.617  -0.640  0.00  0.00     0.143 A 
ATOM      2  C2  UNL d   1      -0.979  -0.172   0.134  0.00  0.00    -0.057 A 
ATOM      3  C3  UNL d   1      -1.439   1.148   0.048  0.00  0.00     0.033 A 
ATOM      4  C4  UNL d   1      -0.808   2.057  -0.795  0.00  0.00    -0.042 A 
ATOM      5  C5  UNL d   1       0.280   1.643  -1.555  0.00  0.00     0.033 A 
ATOM      6  C6  UNL d   1       0.730   0.322  -1.470  0.00  0.00    -0.057 A 
ENDROOT
BRANCH   1   7
ATOM      7  N   UNL d   1       0.663  -1.889  -0.527  0.00  0.00    -0.732 N 
ATOM      8  C   UNL d   1       1.739  -2.298  -1.404  0.00  0.00     0.284 C 
ATOM      9  H3  UNL d   1       0.785  -2.176   0.441  0.00  0.00     0.395 HD
ENDBRANCH   1   7
TORSDOF 1
ENDMDL
