MODEL 1
REMARK minimizedAffinity -1.59154201
REMARK minimizedRMSD -1
REMARK  1 active torsions:
REMARK  status: ('A' for Active; 'I' for Inactive)
REMARK    1  A    between atoms: N_2  and  C1_3 
ROOT
ATOM      1  C1  UNL d   1       0.687  -0.580  -0.236  0.00  0.00     0.143 A 
ATOM      2  C2  UNL d   1       0.283  -0.492   1.100  0.00  0.00    -0.057 A 
ATOM      3  C3  UNL d   1      -0.321   0.667   1.602  0.00  0.00     0.033 A 
ATOM      4  C4  UNL d   1      -0.507   1.773   0.779  0.00  0.00    -0.042 A 
ATOM      5  C5  UNL d   1      -0.091   1.717  -0.546  0.00  0.00     0.033 A 
ATOM      6  C6  UNL d   1       0.506   0.555  -1.043  0.00  0.00    -0.057 A 
ENDROOT
BRANCH   1   7
ATOM      7  N   UNL d   1       1.382  -1.668  -0.769  0.00  0.00    -0.732 N 
ATOM      8  C   UNL d   1       2.373  -1.474  -1.806  0.00  0.00     0.284 C 
ATOM      9  H3  UNL d   1       1.653  -2.343  -0.057  0.00  0.00     0.395 HD
ENDBRANCH   1   7
TORSDOF 1
ENDMDL
