MODEL 1
REMARK minimizedAffinity -2.79797554
REMARK minimizedRMSD -1
REMARK  1 active torsions:
REMARK  status: ('A' for Active; 'I' for Inactive)
REMARK    1  A    between atoms: N_2  and  C1_3 
ROOT
ATOM      1  C1  UNL d   1      -0.365   0.077  -0.139  0.00  0.00     0.143 A 
ATOM      2  C2  UNL d   1      -0.115  -1.238   0.265  0.00  0.00    -0.057 A 
ATOM      3  C3  UNL d   1       0.973  -1.959  -0.242  0.00  0.00     0.033 A 
ATOM      4  C4  UNL d   1       1.816  -1.385  -1.187  0.00  0.00    -0.042 A 
ATOM      5  C5  UNL d   1       1.572  -0.087  -1.623  0.00  0.00     0.033 A 
ATOM      6  C6  UNL d   1       0.488   0.630  -1.108  0.00  0.00    -0.057 A 
ENDROOT
BRANCH   1   7
ATOM      7  N   UNL d   1      -1.486   0.812   0.254  0.00  0.00    -0.732 N 
ATOM      8  C   UNL d   1      -2.268   0.406   1.402  0.00  0.00     0.284 C 
ATOM      9  H3  UNL d   1      -1.336   1.816   0.188  0.00  0.00     0.395 HD
ENDBRANCH   1   7
TORSDOF 1
ENDMDL
