MODEL 1
REMARK minimizedAffinity -1.26376474
REMARK minimizedRMSD -1
REMARK  1 active torsions:
REMARK  status: ('A' for Active; 'I' for Inactive)
REMARK    1  A    between atoms: N_2  and  C1_3 
ROOT
ATOM      1  C1  UNL d   1      -1.010   0.171   0.864  0.00  0.00     0.143 A 
ATOM      2  C2  UNL d   1      -0.092  -0.430   1.731  0.00  0.00    -0.057 A 
ATOM      3  C3  UNL d   1       0.790  -1.421   1.282  0.00  0.00     0.033 A 
ATOM      4  C4  UNL d   1       0.749  -1.849  -0.041  0.00  0.00    -0.042 A 
ATOM      5  C5  UNL d   1      -0.172  -1.282  -0.915  0.00  0.00     0.033 A 
ATOM      6  C6  UNL d   1      -1.046  -0.289  -0.462  0.00  0.00    -0.057 A 
ENDROOT
BRANCH   1   7
ATOM      7  N   UNL d   1      -1.980   1.090   1.272  0.00  0.00    -0.732 N 
ATOM      8  C   UNL d   1      -1.995   1.591   2.630  0.00  0.00     0.284 C 
ATOM      9  H3  UNL d   1      -2.166   1.799   0.566  0.00  0.00     0.395 HD
ENDBRANCH   1   7
TORSDOF 1
ENDMDL
