MODEL 1
REMARK minimizedAffinity 0.543140948
REMARK minimizedRMSD -1
REMARK  1 active torsions:
REMARK  status: ('A' for Active; 'I' for Inactive)
REMARK    1  A    between atoms: N_2  and  C1_3 
ROOT
ATOM      1  C1  UNL d   1      -0.186   0.647   2.098  0.00  0.00     0.143 A 
ATOM      2  C2  UNL d   1       0.913   0.731   2.959  0.00  0.00    -0.057 A 
ATOM      3  C3  UNL d   1       0.776   1.219   4.265  0.00  0.00     0.033 A 
ATOM      4  C4  UNL d   1      -0.461   1.660   4.723  0.00  0.00    -0.042 A 
ATOM      5  C5  UNL d   1      -1.562   1.608   3.876  0.00  0.00     0.033 A 
ATOM      6  C6  UNL d   1      -1.421   1.114   2.576  0.00  0.00    -0.057 A 
ENDROOT
BRANCH   1   7
ATOM      7  N   UNL d   1      -0.096   0.263   0.758  0.00  0.00    -0.732 N 
ATOM      8  C   UNL d   1      -0.185  -1.132   0.382  0.00  0.00     0.284 C 
ATOM      9  H3  UNL d   1      -0.601   0.893   0.138  0.00  0.00     0.395 HD
ENDBRANCH   1   7
TORSDOF 1
ENDMDL
