MODEL 1
REMARK minimizedAffinity -4.0238142
REMARK minimizedRMSD -1
REMARK  1 active torsions:
REMARK  status: ('A' for Active; 'I' for Inactive)
REMARK    1  A    between atoms: N_2  and  C1_3 
ROOT
ATOM      1  C1  UNL d   1       0.320  -0.056  -0.141  0.00  0.00     0.143 A 
ATOM      2  C2  UNL d   1       0.494  -1.433  -0.320  0.00  0.00    -0.057 A 
ATOM      3  C3  UNL d   1       1.667  -1.950  -0.884  0.00  0.00     0.033 A 
ATOM      4  C4  UNL d   1       2.678  -1.094  -1.307  0.00  0.00    -0.042 A 
ATOM      5  C5  UNL d   1       2.516   0.280  -1.163  0.00  0.00     0.033 A 
ATOM      6  C6  UNL d   1       1.346   0.789  -0.592  0.00  0.00    -0.057 A 
ENDROOT
BRANCH   1   7
ATOM      7  N   UNL d   1      -0.862   0.525   0.323  0.00  0.00    -0.732 N 
ATOM      8  C   UNL d   1      -1.430   0.127   1.593  0.00  0.00     0.284 C 
ATOM      9  H3  UNL d   1      -0.898   1.526   0.146  0.00  0.00     0.395 HD
ENDBRANCH   1   7
TORSDOF 1
ENDMDL
