MODEL 1
REMARK minimizedAffinity -1.1122781
REMARK minimizedRMSD -1
REMARK  1 active torsions:
REMARK  status: ('A' for Active; 'I' for Inactive)
REMARK    1  A    between atoms: N_2  and  C1_3 
ROOT
ATOM      1  C1  UNL d   1      -0.133  -0.439  -0.032  0.00  0.00     0.143 A 
ATOM      2  C2  UNL d   1       0.623  -1.064   0.966  0.00  0.00    -0.057 A 
ATOM      3  C3  UNL d   1       1.730  -1.859   0.646  0.00  0.00     0.033 A 
ATOM      4  C4  UNL d   1       2.085  -2.067  -0.682  0.00  0.00    -0.042 A 
ATOM      5  C5  UNL d   1       1.333  -1.476  -1.691  0.00  0.00     0.033 A 
ATOM      6  C6  UNL d   1       0.232  -0.678  -1.366  0.00  0.00    -0.057 A 
ENDROOT
BRANCH   1   7
ATOM      7  N   UNL d   1      -1.303   0.283   0.217  0.00  0.00    -0.732 N 
ATOM      8  C   UNL d   1      -1.787   0.461   1.569  0.00  0.00     0.284 C 
ATOM      9  H3  UNL d   1      -1.377   1.115  -0.364  0.00  0.00     0.395 HD
ENDBRANCH   1   7
TORSDOF 1
ENDMDL
