MODEL 1
REMARK minimizedAffinity -5.05745029
REMARK minimizedRMSD -1
REMARK  1 active torsions:
REMARK  status: ('A' for Active; 'I' for Inactive)
REMARK    1  A    between atoms: N_2  and  C1_3 
ROOT
ATOM      1  C1  UNL d   1       0.770   0.055  -0.158  0.00  0.00     0.143 A 
ATOM      2  C2  UNL d   1       1.833  -0.855  -0.161  0.00  0.00    -0.057 A 
ATOM      3  C3  UNL d   1       2.880  -0.746  -1.083  0.00  0.00     0.033 A 
ATOM      4  C4  UNL d   1       2.869   0.263  -2.041  0.00  0.00    -0.042 A 
ATOM      5  C5  UNL d   1       1.810   1.164  -2.073  0.00  0.00     0.033 A 
ATOM      6  C6  UNL d   1       0.771   1.053  -1.144  0.00  0.00    -0.057 A 
ENDROOT
BRANCH   1   7
ATOM      7  N   UNL d   1      -0.349  -0.059   0.670  0.00  0.00    -0.732 N 
ATOM      8  C   UNL d   1      -1.682   0.126   0.137  0.00  0.00     0.284 C 
ATOM      9  H3  UNL d   1      -0.268  -0.830   1.329  0.00  0.00     0.395 HD
ENDBRANCH   1   7
TORSDOF 1
ENDMDL
