MODEL 1
REMARK minimizedAffinity -3.13851881
REMARK minimizedRMSD -1
REMARK  1 active torsions:
REMARK  status: ('A' for Active; 'I' for Inactive)
REMARK    1  A    between atoms: N_2  and  C1_3 
ROOT
ATOM      1  C1  UNL d   1      -0.674   0.361   1.190  0.00  0.00     0.143 A 
ATOM      2  C2  UNL d   1      -0.036  -0.767   1.718  0.00  0.00    -0.057 A 
ATOM      3  C3  UNL d   1       0.613  -1.689   0.889  0.00  0.00     0.033 A 
ATOM      4  C4  UNL d   1       0.610  -1.515  -0.491  0.00  0.00    -0.042 A 
ATOM      5  C5  UNL d   1      -0.038  -0.415  -1.040  0.00  0.00     0.033 A 
ATOM      6  C6  UNL d   1      -0.679   0.507  -0.206  0.00  0.00    -0.057 A 
ENDROOT
BRANCH   1   7
ATOM      7  N   UNL d   1      -1.420   1.262   1.954  0.00  0.00    -0.732 N 
ATOM      8  C   UNL d   1      -2.341   0.786   2.964  0.00  0.00     0.284 C 
ATOM      9  H3  UNL d   1      -0.877   2.075   2.236  0.00  0.00     0.395 HD
ENDBRANCH   1   7
TORSDOF 1
ENDMDL
