MODEL 1
REMARK minimizedAffinity -0.586919844
REMARK minimizedRMSD -1
REMARK  1 active torsions:
REMARK  status: ('A' for Active; 'I' for Inactive)
REMARK    1  A    between atoms: N_2  and  C1_3 
ROOT
ATOM      1  C1  UNL d   1       1.342  -0.626  -1.883  0.00  0.00     0.143 A 
ATOM      2  C2  UNL d   1       1.654  -1.711  -1.056  0.00  0.00    -0.057 A 
ATOM      3  C3  UNL d   1       0.978  -1.921   0.151  0.00  0.00     0.033 A 
ATOM      4  C4  UNL d   1      -0.006  -1.031   0.569  0.00  0.00    -0.042 A 
ATOM      5  C5  UNL d   1      -0.315   0.068  -0.225  0.00  0.00     0.033 A 
ATOM      6  C6  UNL d   1       0.359   0.269  -1.433  0.00  0.00    -0.057 A 
ENDROOT
BRANCH   1   7
ATOM      7  N   UNL d   1       2.046  -0.308  -3.048  0.00  0.00    -0.732 N 
ATOM      8  C   UNL d   1       1.743   0.900  -3.785  0.00  0.00     0.284 C 
ATOM      9  H3  UNL d   1       3.040  -0.508  -2.967  0.00  0.00     0.395 HD
ENDBRANCH   1   7
TORSDOF 1
ENDMDL
