MODEL 1
REMARK minimizedAffinity -4.90916491
REMARK minimizedRMSD -1
REMARK  1 active torsions:
REMARK  status: ('A' for Active; 'I' for Inactive)
REMARK    1  A    between atoms: N_2  and  C1_3 
ROOT
ATOM      1  C1  UNL d   1      -0.126   0.199  -0.734  0.00  0.00     0.143 A 
ATOM      2  C2  UNL d   1       0.743  -0.897  -0.772  0.00  0.00    -0.057 A 
ATOM      3  C3  UNL d   1       1.787  -0.964  -1.702  0.00  0.00     0.033 A 
ATOM      4  C4  UNL d   1       1.965   0.054  -2.632  0.00  0.00    -0.042 A 
ATOM      5  C5  UNL d   1       1.098   1.141  -2.630  0.00  0.00     0.033 A 
ATOM      6  C6  UNL d   1       0.061   1.206  -1.695  0.00  0.00    -0.057 A 
ENDROOT
BRANCH   1   7
ATOM      7  N   UNL d   1      -1.243   0.278   0.101  0.00  0.00    -0.732 N 
ATOM      8  C   UNL d   1      -1.093   0.605   1.503  0.00  0.00     0.284 C 
ATOM      9  H3  UNL d   1      -2.033   0.733  -0.350  0.00  0.00     0.395 HD
ENDBRANCH   1   7
TORSDOF 1
ENDMDL
