MODEL 1
REMARK minimizedAffinity 2.80124903
REMARK minimizedRMSD -1
REMARK  1 active torsions:
REMARK  status: ('A' for Active; 'I' for Inactive)
REMARK    1  A    between atoms: N_2  and  C1_3 
ROOT
ATOM      1  C1  UNL d   1      -3.637  -0.065   3.010  0.00  0.00     0.143 A 
ATOM      2  C2  UNL d   1      -4.986   0.040   3.366  0.00  0.00    -0.057 A 
ATOM      3  C3  UNL d   1      -6.000  -0.424   2.518  0.00  0.00     0.033 A 
ATOM      4  C4  UNL d   1      -5.682  -0.976   1.282  0.00  0.00    -0.042 A 
ATOM      5  C5  UNL d   1      -4.349  -1.067   0.896  0.00  0.00     0.033 A 
ATOM      6  C6  UNL d   1      -3.341  -0.609   1.750  0.00  0.00    -0.057 A 
ENDROOT
BRANCH   1   7
ATOM      7  N   UNL d   1      -2.590   0.467   3.766  0.00  0.00    -0.732 N 
ATOM      8  C   UNL d   1      -2.591   1.862   4.149  0.00  0.00     0.284 C 
ATOM      9  H3  UNL d   1      -2.281  -0.166   4.500  0.00  0.00     0.395 HD
ENDBRANCH   1   7
TORSDOF 1
ENDMDL
