MODEL 1
REMARK minimizedAffinity -4.14258718
REMARK minimizedRMSD -1
REMARK  1 active torsions:
REMARK  status: ('A' for Active; 'I' for Inactive)
REMARK    1  A    between atoms: N_2  and  C1_3 
ROOT
ATOM      1  C1  UNL d   1      -0.687   1.046   1.369  0.00  0.00     0.143 A 
ATOM      2  C2  UNL d   1      -1.125   1.180   0.047  0.00  0.00    -0.057 A 
ATOM      3  C3  UNL d   1      -0.587   0.395  -0.979  0.00  0.00     0.033 A 
ATOM      4  C4  UNL d   1       0.424  -0.521  -0.705  0.00  0.00    -0.042 A 
ATOM      5  C5  UNL d   1       0.892  -0.653   0.597  0.00  0.00     0.033 A 
ATOM      6  C6  UNL d   1       0.346   0.129   1.619  0.00  0.00    -0.057 A 
ENDROOT
BRANCH   1   7
ATOM      7  N   UNL d   1      -1.113   1.867   2.417  0.00  0.00    -0.732 N 
ATOM      8  C   UNL d   1      -2.104   1.399   3.363  0.00  0.00     0.284 C 
ATOM      9  H3  UNL d   1      -0.347   2.386   2.840  0.00  0.00     0.395 HD
ENDBRANCH   1   7
TORSDOF 1
ENDMDL
