MODEL 1
REMARK minimizedAffinity -1.02400148
REMARK minimizedRMSD -1
REMARK  0 active torsions:
REMARK  status: ('A' for Active; 'I' for Inactive)
ROOT
ATOM      1  C   UNL d   1       0.957   0.338  -0.379  0.00  0.00     0.124 A 
ATOM      2  C1  UNL d   1       1.034   0.870  -1.659  0.00  0.00     0.062 A 
ATOM      3  C2  UNL d   1       1.360   2.210  -1.842  0.00  0.00     0.162 A 
ATOM      4  C3  UNL d   1       1.614   3.029  -0.741  0.00  0.00    -0.034 A 
ATOM      5  C4  UNL d   1       1.534   2.488   0.543  0.00  0.00     0.162 A 
ATOM      6  C5  UNL d   1       1.207   1.147   0.720  0.00  0.00     0.062 A 
ATOM      7  F   UNL d   1       1.133   0.635   1.957  0.00  0.00    -0.097 F 
ATOM      8  F1  UNL d   1       1.772   3.247   1.623  0.00  0.00    -0.096 F 
ATOM      9  I   UNL d   1       2.103   5.034  -1.010  0.00  0.00    -0.060 I 
ATOM     10  F2  UNL d   1       1.427   2.697  -3.090  0.00  0.00    -0.096 F 
ATOM     11  F3  UNL d   1       0.792   0.090  -2.723  0.00  0.00    -0.097 F 
ATOM     12  F4  UNL d   1       0.642  -0.952  -0.206  0.00  0.00    -0.092 F 
ENDROOT
TORSDOF 0
ENDMDL
