MODEL 1
REMARK minimizedAffinity 6.05067348
REMARK minimizedRMSD -1
REMARK  0 active torsions:
REMARK  status: ('A' for Active; 'I' for Inactive)
ROOT
ATOM      1  C   UNL d   1       1.229   0.332  -0.085  0.00  0.00     0.124 A 
ATOM      2  C1  UNL d   1       1.098   1.337   0.864  0.00  0.00     0.062 A 
ATOM      3  C2  UNL d   1       1.283   2.668   0.503  0.00  0.00     0.162 A 
ATOM      4  C3  UNL d   1       1.600   3.004  -0.813  0.00  0.00    -0.034 A 
ATOM      5  C4  UNL d   1       1.732   1.988  -1.761  0.00  0.00     0.162 A 
ATOM      6  C5  UNL d   1       1.546   0.658  -1.396  0.00  0.00     0.062 A 
ATOM      7  F   UNL d   1       1.673  -0.311  -2.314  0.00  0.00    -0.097 F 
ATOM      8  F1  UNL d   1       2.036   2.275  -3.036  0.00  0.00    -0.096 F 
ATOM      9  I   UNL d   1       1.878   4.994  -1.356  0.00  0.00    -0.060 I 
ATOM     10  F2  UNL d   1       1.150   3.618   1.441  0.00  0.00    -0.096 F 
ATOM     11  F3  UNL d   1       0.793   1.024   2.131  0.00  0.00    -0.097 F 
ATOM     12  F4  UNL d   1       1.052  -0.948   0.265  0.00  0.00    -0.092 F 
ENDROOT
TORSDOF 0
ENDMDL
