MODEL 1
REMARK minimizedAffinity -1.76968801
REMARK minimizedRMSD -1
REMARK  0 active torsions:
REMARK  status: ('A' for Active; 'I' for Inactive)
ROOT
ATOM      1  C   UNL d   1       1.157   2.553  -1.219  0.00  0.00     0.124 A 
ATOM      2  C1  UNL d   1       1.303   1.636  -2.251  0.00  0.00     0.062 A 
ATOM      3  C2  UNL d   1       1.473   0.284  -1.967  0.00  0.00     0.162 A 
ATOM      4  C3  UNL d   1       1.498  -0.160  -0.645  0.00  0.00    -0.034 A 
ATOM      5  C4  UNL d   1       1.352   0.768   0.387  0.00  0.00     0.162 A 
ATOM      6  C5  UNL d   1       1.182   2.118   0.099  0.00  0.00     0.062 A 
ATOM      7  F   UNL d   1       1.042   3.003   1.097  0.00  0.00    -0.097 F 
ATOM      8  F1  UNL d   1       1.372   0.375   1.670  0.00  0.00    -0.096 F 
ATOM      9  I   UNL d   1       1.753  -2.181  -0.217  0.00  0.00    -0.060 I 
ATOM     10  F2  UNL d   1       1.611  -0.580  -2.984  0.00  0.00    -0.096 F 
ATOM     11  F3  UNL d   1       1.280   2.053  -3.525  0.00  0.00    -0.097 F 
ATOM     12  F4  UNL d   1       0.995   3.853  -1.495  0.00  0.00    -0.092 F 
ENDROOT
TORSDOF 0
ENDMDL
