MODEL 1
REMARK minimizedAffinity 3.45607495
REMARK minimizedRMSD -1
REMARK  0 active torsions:
REMARK  status: ('A' for Active; 'I' for Inactive)
ROOT
ATOM      1  C   UNL d   1       1.051   0.764  -0.252  0.00  0.00     0.124 A 
ATOM      2  C1  UNL d   1       1.147   1.174  -1.574  0.00  0.00     0.062 A 
ATOM      3  C2  UNL d   1       1.355   2.516  -1.878  0.00  0.00     0.162 A 
ATOM      4  C3  UNL d   1       1.470   3.459  -0.857  0.00  0.00    -0.034 A 
ATOM      5  C4  UNL d   1       1.371   3.040   0.471  0.00  0.00     0.162 A 
ATOM      6  C5  UNL d   1       1.163   1.697   0.770  0.00  0.00     0.062 A 
ATOM      7  F   UNL d   1       1.071   1.303   2.048  0.00  0.00    -0.097 F 
ATOM      8  F1  UNL d   1       1.477   3.920   1.478  0.00  0.00    -0.096 F 
ATOM      9  I   UNL d   1       1.782   5.467  -1.307  0.00  0.00    -0.060 I 
ATOM     10  F2  UNL d   1       1.444   2.883  -3.165  0.00  0.00    -0.096 F 
ATOM     11  F3  UNL d   1       1.038   0.274  -2.563  0.00  0.00    -0.097 F 
ATOM     12  F4  UNL d   1       0.849  -0.528   0.038  0.00  0.00    -0.092 F 
ENDROOT
TORSDOF 0
ENDMDL
