MODEL 1
REMARK minimizedAffinity 12.2554951
REMARK minimizedRMSD -1
REMARK  0 active torsions:
REMARK  status: ('A' for Active; 'I' for Inactive)
ROOT
ATOM      1  C   UNL d   1       1.473   2.575  -0.948  0.00  0.00     0.124 A 
ATOM      2  C1  UNL d   1       1.096   2.132   0.312  0.00  0.00     0.062 A 
ATOM      3  C2  UNL d   1       1.034   0.768   0.585  0.00  0.00     0.162 A 
ATOM      4  C3  UNL d   1       1.352  -0.163  -0.404  0.00  0.00    -0.034 A 
ATOM      5  C4  UNL d   1       1.730   0.291  -1.669  0.00  0.00     0.162 A 
ATOM      6  C5  UNL d   1       1.790   1.654  -1.937  0.00  0.00     0.062 A 
ATOM      7  F   UNL d   1       2.155   2.081  -3.155  0.00  0.00    -0.097 F 
ATOM      8  F1  UNL d   1       2.042  -0.577  -2.643  0.00  0.00    -0.096 F 
ATOM      9  I   UNL d   1       1.261  -2.202  -0.000  0.00  0.00    -0.060 I 
ATOM     10  F2  UNL d   1       0.666   0.368   1.811  0.00  0.00    -0.096 F 
ATOM     11  F3  UNL d   1       0.788   3.019   1.269  0.00  0.00    -0.097 F 
ATOM     12  F4  UNL d   1       1.531   3.887  -1.208  0.00  0.00    -0.092 F 
ENDROOT
TORSDOF 0
ENDMDL
