MODEL 1
REMARK minimizedAffinity 7.97598362
REMARK minimizedRMSD -1
REMARK  0 active torsions:
REMARK  status: ('A' for Active; 'I' for Inactive)
ROOT
ATOM      1  C   UNL d   1       1.587   4.769  -0.330  0.00  0.00     0.124 A 
ATOM      2  C1  UNL d   1       1.755   3.665   0.495  0.00  0.00     0.062 A 
ATOM      3  C2  UNL d   1       1.506   2.384   0.009  0.00  0.00     0.162 A 
ATOM      4  C3  UNL d   1       1.087   2.201  -1.309  0.00  0.00    -0.034 A 
ATOM      5  C4  UNL d   1       0.920   3.316  -2.132  0.00  0.00     0.162 A 
ATOM      6  C5  UNL d   1       1.170   4.594  -1.641  0.00  0.00     0.062 A 
ATOM      7  F   UNL d   1       1.008   5.659  -2.439  0.00  0.00    -0.097 F 
ATOM      8  F1  UNL d   1       0.518   3.176  -3.404  0.00  0.00    -0.096 F 
ATOM      9  I   UNL d   1       0.713   0.288  -2.039  0.00  0.00    -0.060 I 
ATOM     10  F2  UNL d   1       1.676   1.336   0.828  0.00  0.00    -0.096 F 
ATOM     11  F3  UNL d   1       2.157   3.831   1.763  0.00  0.00    -0.097 F 
ATOM     12  F4  UNL d   1       1.827   6.000   0.141  0.00  0.00    -0.092 F 
ENDROOT
TORSDOF 0
ENDMDL
