MODEL 1
REMARK minimizedAffinity -1.44034302
REMARK minimizedRMSD -1
REMARK  0 active torsions:
REMARK  status: ('A' for Active; 'I' for Inactive)
ROOT
ATOM      1  C   UNL d   1       1.384   3.911   0.058  0.00  0.00     0.124 A 
ATOM      2  C1  UNL d   1       1.202   3.020   1.107  0.00  0.00     0.062 A 
ATOM      3  C2  UNL d   1       1.173   1.650   0.865  0.00  0.00     0.162 A 
ATOM      4  C3  UNL d   1       1.328   1.161  -0.432  0.00  0.00    -0.034 A 
ATOM      5  C4  UNL d   1       1.510   2.063  -1.482  0.00  0.00     0.162 A 
ATOM      6  C5  UNL d   1       1.539   3.431  -1.235  0.00  0.00     0.062 A 
ATOM      7  F   UNL d   1       1.715   4.290  -2.250  0.00  0.00    -0.097 F 
ATOM      8  F1  UNL d   1       1.663   1.627  -2.742  0.00  0.00    -0.096 F 
ATOM      9  I   UNL d   1       1.285  -0.887  -0.798  0.00  0.00    -0.060 I 
ATOM     10  F2  UNL d   1       0.994   0.813   1.897  0.00  0.00    -0.096 F 
ATOM     11  F3  UNL d   1       1.051   3.481   2.357  0.00  0.00    -0.097 F 
ATOM     12  F4  UNL d   1       1.411   5.229   0.294  0.00  0.00    -0.092 F 
ENDROOT
TORSDOF 0
ENDMDL
