MODEL 1
REMARK minimizedAffinity 18.9177628
REMARK minimizedRMSD -1
REMARK  0 active torsions:
REMARK  status: ('A' for Active; 'I' for Inactive)
ROOT
ATOM      1  C   UNL d   1       1.567  -0.037   0.019  0.00  0.00     0.124 A 
ATOM      2  C1  UNL d   1       1.264   0.327  -1.285  0.00  0.00     0.062 A 
ATOM      3  C2  UNL d   1       1.269   1.668  -1.656  0.00  0.00     0.162 A 
ATOM      4  C3  UNL d   1       1.578   2.656  -0.722  0.00  0.00    -0.034 A 
ATOM      5  C4  UNL d   1       1.881   2.282   0.589  0.00  0.00     0.162 A 
ATOM      6  C5  UNL d   1       1.875   0.940   0.955  0.00  0.00     0.062 A 
ATOM      7  F   UNL d   1       2.168   0.591   2.216  0.00  0.00    -0.097 F 
ATOM      8  F1  UNL d   1       2.183   3.207   1.513  0.00  0.00    -0.096 F 
ATOM      9  I   UNL d   1       1.585   4.663  -1.273  0.00  0.00    -0.060 I 
ATOM     10  F2  UNL d   1       0.972   1.991  -2.924  0.00  0.00    -0.096 F 
ATOM     11  F3  UNL d   1       0.966  -0.616  -2.191  0.00  0.00    -0.097 F 
ATOM     12  F4  UNL d   1       1.562  -1.329   0.374  0.00  0.00    -0.092 F 
ENDROOT
TORSDOF 0
ENDMDL
