MODEL 1
REMARK minimizedAffinity -2.90549302
REMARK minimizedRMSD -1
REMARK  0 active torsions:
REMARK  status: ('A' for Active; 'I' for Inactive)
ROOT
ATOM      1  C   UNL d   1       1.166   0.922  -0.679  0.00  0.00     0.124 A 
ATOM      2  C1  UNL d   1       1.094   1.663   0.493  0.00  0.00     0.062 A 
ATOM      3  C2  UNL d   1       1.256   3.045   0.458  0.00  0.00     0.162 A 
ATOM      4  C3  UNL d   1       1.492   3.696  -0.753  0.00  0.00    -0.034 A 
ATOM      5  C4  UNL d   1       1.564   2.944  -1.927  0.00  0.00     0.162 A 
ATOM      6  C5  UNL d   1       1.401   1.563  -1.887  0.00  0.00     0.062 A 
ATOM      7  F   UNL d   1       1.471   0.849  -3.020  0.00  0.00    -0.097 F 
ATOM      8  F1  UNL d   1       1.790   3.537  -3.108  0.00  0.00    -0.096 F 
ATOM      9  I   UNL d   1       1.736   5.762  -0.809  0.00  0.00    -0.060 I 
ATOM     10  F2  UNL d   1       1.182   3.736   1.606  0.00  0.00    -0.096 F 
ATOM     11  F3  UNL d   1       0.868   1.046   1.662  0.00  0.00    -0.097 F 
ATOM     12  F4  UNL d   1       1.010  -0.408  -0.642  0.00  0.00    -0.092 F 
ENDROOT
TORSDOF 0
ENDMDL
