MODEL 1
REMARK minimizedAffinity 12.4017534
REMARK minimizedRMSD -1
REMARK  0 active torsions:
REMARK  status: ('A' for Active; 'I' for Inactive)
ROOT
ATOM      1  C   UNL d   1       2.121   0.312  -0.232  0.00  0.00     0.124 A 
ATOM      2  C1  UNL d   1       2.133   1.206   0.830  0.00  0.00     0.062 A 
ATOM      3  C2  UNL d   1       1.859   2.554   0.613  0.00  0.00     0.162 A 
ATOM      4  C3  UNL d   1       1.569   3.015  -0.671  0.00  0.00    -0.034 A 
ATOM      5  C4  UNL d   1       1.560   2.110  -1.734  0.00  0.00     0.162 A 
ATOM      6  C5  UNL d   1       1.835   0.764  -1.512  0.00  0.00     0.062 A 
ATOM      7  F   UNL d   1       1.823  -0.099  -2.538  0.00  0.00    -0.097 F 
ATOM      8  F1  UNL d   1       1.286   2.519  -2.981  0.00  0.00    -0.096 F 
ATOM      9  I   UNL d   1       1.159   5.029  -1.000  0.00  0.00    -0.060 I 
ATOM     10  F2  UNL d   1       1.878   3.396   1.657  0.00  0.00    -0.096 F 
ATOM     11  F3  UNL d   1       2.410   0.772   2.068  0.00  0.00    -0.097 F 
ATOM     12  F4  UNL d   1       2.386  -0.984  -0.020  0.00  0.00    -0.092 F 
ENDROOT
TORSDOF 0
ENDMDL
