MODEL 1
REMARK minimizedAffinity 3.67632198
REMARK minimizedRMSD -1
REMARK  0 active torsions:
REMARK  status: ('A' for Active; 'I' for Inactive)
ROOT
ATOM      1  C   UNL d   1       1.084   0.626  -0.353  0.00  0.00     0.124 A 
ATOM      2  C1  UNL d   1       1.042   1.053  -1.673  0.00  0.00     0.062 A 
ATOM      3  C2  UNL d   1       1.135   2.409  -1.974  0.00  0.00     0.162 A 
ATOM      4  C3  UNL d   1       1.273   3.348  -0.952  0.00  0.00    -0.034 A 
ATOM      5  C4  UNL d   1       1.314   2.912   0.373  0.00  0.00     0.162 A 
ATOM      6  C5  UNL d   1       1.220   1.556   0.668  0.00  0.00     0.062 A 
ATOM      7  F   UNL d   1       1.261   1.145   1.944  0.00  0.00    -0.097 F 
ATOM      8  F1  UNL d   1       1.446   3.788   1.380  0.00  0.00    -0.096 F 
ATOM      9  I   UNL d   1       1.413   5.377  -1.398  0.00  0.00    -0.060 I 
ATOM     10  F2  UNL d   1       1.091   2.793  -3.259  0.00  0.00    -0.096 F 
ATOM     11  F3  UNL d   1       0.909   0.157  -2.662  0.00  0.00    -0.097 F 
ATOM     12  F4  UNL d   1       0.993  -0.679  -0.067  0.00  0.00    -0.092 F 
ENDROOT
TORSDOF 0
ENDMDL
