MODEL 1
REMARK minimizedAffinity 7.0853529
REMARK minimizedRMSD -1
REMARK  0 active torsions:
REMARK  status: ('A' for Active; 'I' for Inactive)
ROOT
ATOM      1  C   UNL d   1       1.028  -0.249  -0.090  0.00  0.00     0.124 A 
ATOM      2  C1  UNL d   1       1.012   0.829   0.784  0.00  0.00     0.062 A 
ATOM      3  C2  UNL d   1       1.196   2.122   0.305  0.00  0.00     0.162 A 
ATOM      4  C3  UNL d   1       1.396   2.346  -1.058  0.00  0.00    -0.034 A 
ATOM      5  C4  UNL d   1       1.411   1.257  -1.931  0.00  0.00     0.162 A 
ATOM      6  C5  UNL d   1       1.227  -0.034  -1.447  0.00  0.00     0.062 A 
ATOM      7  F   UNL d   1       1.243  -1.074  -2.293  0.00  0.00    -0.097 F 
ATOM      8  F1  UNL d   1       1.601   1.436  -3.247  0.00  0.00    -0.096 F 
ATOM      9  I   UNL d   1       1.671   4.279  -1.779  0.00  0.00    -0.060 I 
ATOM     10  F2  UNL d   1       1.176   3.145   1.173  0.00  0.00    -0.096 F 
ATOM     11  F3  UNL d   1       0.820   0.623   2.095  0.00  0.00    -0.097 F 
ATOM     12  F4  UNL d   1       0.852  -1.493   0.374  0.00  0.00    -0.092 F 
ENDROOT
TORSDOF 0
ENDMDL
