MODEL 1
REMARK minimizedAffinity -2.19764066
REMARK minimizedRMSD -1
REMARK  0 active torsions:
REMARK  status: ('A' for Active; 'I' for Inactive)
ROOT
ATOM      1  C   UNL d   1       1.301   0.342   0.059  0.00  0.00     0.124 A 
ATOM      2  C1  UNL d   1       1.393   1.243   1.111  0.00  0.00     0.062 A 
ATOM      3  C2  UNL d   1       1.386   2.612   0.862  0.00  0.00     0.162 A 
ATOM      4  C3  UNL d   1       1.285   3.090  -0.445  0.00  0.00    -0.034 A 
ATOM      5  C4  UNL d   1       1.194   2.177  -1.497  0.00  0.00     0.162 A 
ATOM      6  C5  UNL d   1       1.201   0.810  -1.244  0.00  0.00     0.062 A 
ATOM      7  F   UNL d   1       1.112  -0.059  -2.261  0.00  0.00    -0.097 F 
ATOM      8  F1  UNL d   1       1.096   2.602  -2.766  0.00  0.00    -0.096 F 
ATOM      9  I   UNL d   1       1.275   5.137  -0.821  0.00  0.00    -0.060 I 
ATOM     10  F2  UNL d   1       1.476   3.460   1.898  0.00  0.00    -0.096 F 
ATOM     11  F3  UNL d   1       1.490   0.793   2.370  0.00  0.00    -0.097 F 
ATOM     12  F4  UNL d   1       1.309  -0.975   0.301  0.00  0.00    -0.092 F 
ENDROOT
TORSDOF 0
ENDMDL
