MODEL 1
REMARK minimizedAffinity 10.9785032
REMARK minimizedRMSD -1
REMARK  0 active torsions:
REMARK  status: ('A' for Active; 'I' for Inactive)
ROOT
ATOM      1  C   UNL d   1       2.144   0.527  -0.182  0.00  0.00     0.124 A 
ATOM      2  C1  UNL d   1       1.906   1.418   0.855  0.00  0.00     0.062 A 
ATOM      3  C2  UNL d   1       1.524   2.727   0.579  0.00  0.00     0.162 A 
ATOM      4  C3  UNL d   1       1.376   3.154  -0.741  0.00  0.00    -0.034 A 
ATOM      5  C4  UNL d   1       1.618   2.252  -1.779  0.00  0.00     0.162 A 
ATOM      6  C5  UNL d   1       2.000   0.944  -1.498  0.00  0.00     0.062 A 
ATOM      7  F   UNL d   1       2.230   0.085  -2.501  0.00  0.00    -0.097 F 
ATOM      8  F1  UNL d   1       1.485   2.629  -3.059  0.00  0.00    -0.096 F 
ATOM      9  I   UNL d   1       0.804   5.111  -1.158  0.00  0.00    -0.060 I 
ATOM     10  F2  UNL d   1       1.300   3.567   1.601  0.00  0.00    -0.096 F 
ATOM     11  F3  UNL d   1       2.046   1.017   2.127  0.00  0.00    -0.097 F 
ATOM     12  F4  UNL d   1       2.513  -0.732   0.086  0.00  0.00    -0.092 F 
ENDROOT
TORSDOF 0
ENDMDL
