MODEL 1
REMARK minimizedAffinity 4.15268993
REMARK minimizedRMSD -1
REMARK  0 active torsions:
REMARK  status: ('A' for Active; 'I' for Inactive)
ROOT
ATOM      1  C   UNL d   1       0.940   2.795  -1.043  0.00  0.00     0.124 A 
ATOM      2  C1  UNL d   1       1.254   1.889  -2.046  0.00  0.00     0.062 A 
ATOM      3  C2  UNL d   1       1.603   0.580  -1.724  0.00  0.00     0.162 A 
ATOM      4  C3  UNL d   1       1.638   0.170  -0.391  0.00  0.00    -0.034 A 
ATOM      5  C4  UNL d   1       1.323   1.087   0.612  0.00  0.00     0.162 A 
ATOM      6  C5  UNL d   1       0.975   2.394   0.285  0.00  0.00     0.062 A 
ATOM      7  F   UNL d   1       0.672   3.268   1.255  0.00  0.00    -0.097 F 
ATOM      8  F1  UNL d   1       1.347   0.726   1.904  0.00  0.00    -0.096 F 
ATOM      9  I   UNL d   1       2.159  -1.786   0.095  0.00  0.00    -0.060 I 
ATOM     10  F2  UNL d   1       1.901  -0.274  -2.714  0.00  0.00    -0.096 F 
ATOM     11  F3  UNL d   1       1.222   2.274  -3.330  0.00  0.00    -0.097 F 
ATOM     12  F4  UNL d   1       0.606   4.054  -1.356  0.00  0.00    -0.092 F 
ENDROOT
TORSDOF 0
ENDMDL
