MODEL 1
REMARK minimizedAffinity 3.55939984
REMARK minimizedRMSD -1
REMARK  0 active torsions:
REMARK  status: ('A' for Active; 'I' for Inactive)
ROOT
ATOM      1  C   UNL d   1       1.313   3.008  -0.801  0.00  0.00     0.124 A 
ATOM      2  C1  UNL d   1       1.303   2.215  -1.940  0.00  0.00     0.062 A 
ATOM      3  C2  UNL d   1       1.306   0.827  -1.827  0.00  0.00     0.162 A 
ATOM      4  C3  UNL d   1       1.317   0.224  -0.569  0.00  0.00    -0.034 A 
ATOM      5  C4  UNL d   1       1.329   1.028   0.572  0.00  0.00     0.162 A 
ATOM      6  C5  UNL d   1       1.326   2.414   0.453  0.00  0.00     0.062 A 
ATOM      7  F   UNL d   1       1.336   3.179   1.555  0.00  0.00    -0.097 F 
ATOM      8  F1  UNL d   1       1.340   0.481   1.796  0.00  0.00    -0.096 F 
ATOM      9  I   UNL d   1       1.321  -1.850  -0.396  0.00  0.00    -0.060 I 
ATOM     10  F2  UNL d   1       1.295   0.086  -2.944  0.00  0.00    -0.096 F 
ATOM     11  F3  UNL d   1       1.292   2.786  -3.153  0.00  0.00    -0.097 F 
ATOM     12  F4  UNL d   1       1.312   4.343  -0.913  0.00  0.00    -0.092 F 
ENDROOT
TORSDOF 0
ENDMDL
