MODEL 1
REMARK minimizedAffinity -4.76891232
REMARK minimizedRMSD -1
REMARK  0 active torsions:
REMARK  status: ('A' for Active; 'I' for Inactive)
ROOT
ATOM      1  C   UNL d   1      -0.923  -0.115   1.501  0.00  0.00     0.124 A 
ATOM      2  C1  UNL d   1      -0.035  -0.771   2.342  0.00  0.00     0.062 A 
ATOM      3  C2  UNL d   1       1.207  -1.180   1.867  0.00  0.00     0.162 A 
ATOM      4  C3  UNL d   1       1.570  -0.933   0.543  0.00  0.00    -0.034 A 
ATOM      5  C4  UNL d   1       0.672  -0.273  -0.298  0.00  0.00     0.162 A 
ATOM      6  C5  UNL d   1      -0.569   0.133   0.182  0.00  0.00     0.062 A 
ATOM      7  F   UNL d   1      -1.426   0.767  -0.632  0.00  0.00    -0.097 F 
ATOM      8  F1  UNL d   1       0.988  -0.019  -1.576  0.00  0.00    -0.096 F 
ATOM      9  I   UNL d   1       3.428  -1.542  -0.172  0.00  0.00    -0.060 I 
ATOM     10  F2  UNL d   1       2.046  -1.812   2.702  0.00  0.00    -0.096 F 
ATOM     11  F3  UNL d   1      -0.375  -1.014   3.616  0.00  0.00    -0.097 F 
ATOM     12  F4  UNL d   1      -2.119   0.276   1.961  0.00  0.00    -0.092 F 
ENDROOT
TORSDOF 0
ENDMDL
