MODEL 1
REMARK minimizedAffinity 0.0479214787
REMARK minimizedRMSD -1
REMARK  0 active torsions:
REMARK  status: ('A' for Active; 'I' for Inactive)
ROOT
ATOM      1  C   UNL d   1      -0.432  -0.383   1.617  0.00  0.00     0.124 A 
ATOM      2  C1  UNL d   1       0.731   0.358   1.461  0.00  0.00     0.062 A 
ATOM      3  C2  UNL d   1       0.915   1.142   0.326  0.00  0.00     0.162 A 
ATOM      4  C3  UNL d   1      -0.067   1.189  -0.663  0.00  0.00    -0.034 A 
ATOM      5  C4  UNL d   1      -1.234   0.440  -0.500  0.00  0.00     0.162 A 
ATOM      6  C5  UNL d   1      -1.413  -0.342   0.636  0.00  0.00     0.062 A 
ATOM      7  F   UNL d   1      -2.537  -1.058   0.785  0.00  0.00    -0.097 F 
ATOM      8  F1  UNL d   1      -2.198   0.462  -1.432  0.00  0.00    -0.096 F 
ATOM      9  I   UNL d   1       0.204   2.359  -2.363  0.00  0.00    -0.060 I 
ATOM     10  F2  UNL d   1       2.049   1.848   0.202  0.00  0.00    -0.096 F 
ATOM     11  F3  UNL d   1       1.681   0.319   2.407  0.00  0.00    -0.097 F 
ATOM     12  F4  UNL d   1      -0.605  -1.137   2.710  0.00  0.00    -0.092 F 
ENDROOT
TORSDOF 0
ENDMDL
