MODEL 1
REMARK minimizedAffinity 0.199978232
REMARK minimizedRMSD -1
REMARK  0 active torsions:
REMARK  status: ('A' for Active; 'I' for Inactive)
ROOT
ATOM      1  C   UNL d   1      -0.492   0.614  -1.693  0.00  0.00     0.124 A 
ATOM      2  C1  UNL d   1      -0.103  -0.697  -1.456  0.00  0.00     0.062 A 
ATOM      3  C2  UNL d   1       0.419  -1.060  -0.218  0.00  0.00     0.162 A 
ATOM      4  C3  UNL d   1       0.553  -0.109   0.795  0.00  0.00    -0.034 A 
ATOM      5  C4  UNL d   1       0.160   1.207   0.549  0.00  0.00     0.162 A 
ATOM      6  C5  UNL d   1      -0.361   1.564  -0.691  0.00  0.00     0.062 A 
ATOM      7  F   UNL d   1      -0.737   2.831  -0.917  0.00  0.00    -0.097 F 
ATOM      8  F1  UNL d   1       0.275   2.146   1.500  0.00  0.00    -0.096 F 
ATOM      9  I   UNL d   1       1.333  -0.647   2.648  0.00  0.00    -0.060 I 
ATOM     10  F2  UNL d   1       0.788  -2.334  -0.017  0.00  0.00    -0.096 F 
ATOM     11  F3  UNL d   1      -0.228  -1.618  -2.423  0.00  0.00    -0.097 F 
ATOM     12  F4  UNL d   1      -0.993   0.960  -2.886  0.00  0.00    -0.092 F 
ENDROOT
TORSDOF 0
ENDMDL
