MODEL 1
REMARK minimizedAffinity -2.24940753
REMARK minimizedRMSD -1
REMARK  0 active torsions:
REMARK  status: ('A' for Active; 'I' for Inactive)
ROOT
ATOM      1  C   UNL d   1       2.524  -2.273   0.671  0.00  0.00     0.124 A 
ATOM      2  C1  UNL d   1       1.869  -1.804  -0.460  0.00  0.00     0.062 A 
ATOM      3  C2  UNL d   1       0.604  -1.234  -0.351  0.00  0.00     0.162 A 
ATOM      4  C3  UNL d   1      -0.015  -1.128   0.895  0.00  0.00    -0.034 A 
ATOM      5  C4  UNL d   1       0.650  -1.602   2.028  0.00  0.00     0.162 A 
ATOM      6  C5  UNL d   1       1.914  -2.171   1.913  0.00  0.00     0.062 A 
ATOM      7  F   UNL d   1       2.545  -2.623   3.007  0.00  0.00    -0.097 F 
ATOM      8  F1  UNL d   1       0.084  -1.515   3.241  0.00  0.00    -0.096 F 
ATOM      9  I   UNL d   1      -1.906  -0.275   1.062  0.00  0.00    -0.060 I 
ATOM     10  F2  UNL d   1      -0.005  -0.790  -1.460  0.00  0.00    -0.096 F 
ATOM     11  F3  UNL d   1       2.456  -1.902  -1.661  0.00  0.00    -0.097 F 
ATOM     12  F4  UNL d   1       3.741  -2.822   0.563  0.00  0.00    -0.092 F 
ENDROOT
TORSDOF 0
ENDMDL
