MODEL 1
REMARK minimizedAffinity -1.39810455
REMARK minimizedRMSD -1
REMARK  0 active torsions:
REMARK  status: ('A' for Active; 'I' for Inactive)
ROOT
ATOM      1  C   UNL d   1       1.184  -1.074   1.995  0.00  0.00     0.124 A 
ATOM      2  C1  UNL d   1       1.668  -0.868   0.710  0.00  0.00     0.062 A 
ATOM      3  C2  UNL d   1       0.869  -0.250  -0.248  0.00  0.00     0.162 A 
ATOM      4  C3  UNL d   1      -0.422   0.168   0.076  0.00  0.00    -0.034 A 
ATOM      5  C4  UNL d   1      -0.901  -0.044   1.370  0.00  0.00     0.162 A 
ATOM      6  C5  UNL d   1      -0.099  -0.662   2.323  0.00  0.00     0.062 A 
ATOM      7  F   UNL d   1      -0.568  -0.861   3.564  0.00  0.00    -0.097 F 
ATOM      8  F1  UNL d   1      -2.138   0.345   1.714  0.00  0.00    -0.096 F 
ATOM      9  I   UNL d   1      -1.619   1.092  -1.353  0.00  0.00    -0.060 I 
ATOM     10  F2  UNL d   1       1.362  -0.063  -1.481  0.00  0.00    -0.096 F 
ATOM     11  F3  UNL d   1       2.908  -1.266   0.390  0.00  0.00    -0.097 F 
ATOM     12  F4  UNL d   1       1.955  -1.670   2.914  0.00  0.00    -0.092 F 
ENDROOT
TORSDOF 0
ENDMDL
