MODEL 1
REMARK minimizedAffinity -1.26600409
REMARK minimizedRMSD -1
REMARK  0 active torsions:
REMARK  status: ('A' for Active; 'I' for Inactive)
ROOT
ATOM      1  C   UNL d   1       0.822  -1.658   1.095  0.00  0.00     0.124 A 
ATOM      2  C1  UNL d   1       1.249  -1.724  -0.224  0.00  0.00     0.062 A 
ATOM      3  C2  UNL d   1       0.701  -0.874  -1.180  0.00  0.00     0.162 A 
ATOM      4  C3  UNL d   1      -0.280   0.051  -0.820  0.00  0.00    -0.034 A 
ATOM      5  C4  UNL d   1      -0.704   0.111   0.508  0.00  0.00     0.162 A 
ATOM      6  C5  UNL d   1      -0.153  -0.741   1.460  0.00  0.00     0.062 A 
ATOM      7  F   UNL d   1      -0.567  -0.676   2.734  0.00  0.00    -0.097 F 
ATOM      8  F1  UNL d   1      -1.645   0.988   0.888  0.00  0.00    -0.096 F 
ATOM      9  I   UNL d   1      -1.102   1.324  -2.247  0.00  0.00    -0.060 I 
ATOM     10  F2  UNL d   1       1.132  -0.959  -2.448  0.00  0.00    -0.096 F 
ATOM     11  F3  UNL d   1       2.191  -2.610  -0.579  0.00  0.00    -0.097 F 
ATOM     12  F4  UNL d   1       1.351  -2.478   2.013  0.00  0.00    -0.092 F 
ENDROOT
TORSDOF 0
ENDMDL
