MODEL 1
REMARK minimizedAffinity -4.57515907
REMARK minimizedRMSD -1
REMARK  0 active torsions:
REMARK  status: ('A' for Active; 'I' for Inactive)
ROOT
ATOM      1  C   UNL d   1       2.222  -0.920   0.182  0.00  0.00     0.124 A 
ATOM      2  C1  UNL d   1       1.763  -0.541   1.436  0.00  0.00     0.062 A 
ATOM      3  C2  UNL d   1       0.398  -0.528   1.707  0.00  0.00     0.162 A 
ATOM      4  C3  UNL d   1      -0.519  -0.896   0.722  0.00  0.00    -0.034 A 
ATOM      5  C4  UNL d   1      -0.050  -1.275  -0.537  0.00  0.00     0.162 A 
ATOM      6  C5  UNL d   1       1.315  -1.286  -0.803  0.00  0.00     0.062 A 
ATOM      7  F   UNL d   1       1.757  -1.653  -2.015  0.00  0.00    -0.097 F 
ATOM      8  F1  UNL d   1      -0.904  -1.635  -1.507  0.00  0.00    -0.096 F 
ATOM      9  I   UNL d   1      -2.561  -0.877   1.124  0.00  0.00    -0.060 I 
ATOM     10  F2  UNL d   1      -0.017  -0.157   2.927  0.00  0.00    -0.096 F 
ATOM     11  F3  UNL d   1       2.637  -0.186   2.389  0.00  0.00    -0.097 F 
ATOM     12  F4  UNL d   1       3.536  -0.931  -0.077  0.00  0.00    -0.092 F 
ENDROOT
TORSDOF 0
ENDMDL
