MODEL 1
REMARK minimizedAffinity 7.32613182
REMARK minimizedRMSD -1
REMARK  3 active torsions:
REMARK  status: ('A' for Active; 'I' for Inactive)
REMARK    1  A    between atoms: C3'_2  and  C2'_3 
REMARK    2  A    between atoms: C2'_3  and  C1'_4 
REMARK    3  A    between atoms: C1'_4  and  C1_5 
ROOT
ATOM      1  C1  N4B d   1       0.534   3.761  -1.067  0.00  0.00    -0.075 A 
ATOM      2  C2  N4B d   1       1.101   3.288   0.137  0.00  0.00     0.002 A 
ATOM      3  C3  N4B d   1       0.386   2.439   0.945  0.00  0.00     0.002 A 
ATOM      4  C4  N4B d   1      -0.899   2.065   0.581  0.00  0.00    -0.004 A 
ATOM      5  C5  N4B d   1      -1.429   2.505  -0.597  0.00  0.00     0.002 A 
ATOM      6  C6  N4B d   1      -0.720   3.356  -1.421  0.00  0.00     0.002 A 
ENDROOT
BRANCH   1   7
ATOM      7  C1' N4B d   1       1.244   4.759  -1.941  0.00  0.00     0.057 C 
BRANCH   7   8
ATOM      8  C2' N4B d   1       0.705   4.651  -3.364  0.00  0.00     0.009 C 
BRANCH   8   9
ATOM      9  C3' N4B d   1       0.751   5.984  -4.092  0.00  0.00     0.004 C 
ATOM     10  C4' N4B d   1       0.841   5.829  -5.581  0.00  0.00     0.003 C 
ENDBRANCH   8   9
ENDBRANCH   7   8
ENDBRANCH   1   7
TORSDOF 3
ENDMDL
