MODEL 1
REMARK minimizedAffinity 10.4039803
REMARK minimizedRMSD -1
REMARK  3 active torsions:
REMARK  status: ('A' for Active; 'I' for Inactive)
REMARK    1  A    between atoms: C3'_2  and  C2'_3 
REMARK    2  A    between atoms: C2'_3  and  C1'_4 
REMARK    3  A    between atoms: C1'_4  and  C1_5 
ROOT
ATOM      1  C1  N4B d   1      -0.947   2.606   0.895  0.00  0.00    -0.075 A 
ATOM      2  C2  N4B d   1      -1.198   2.986  -0.442  0.00  0.00     0.002 A 
ATOM      3  C3  N4B d   1      -0.153   3.323  -1.267  0.00  0.00     0.002 A 
ATOM      4  C4  N4B d   1       1.143   3.306  -0.775  0.00  0.00    -0.004 A 
ATOM      5  C5  N4B d   1       1.379   2.913   0.510  0.00  0.00     0.002 A 
ATOM      6  C6  N4B d   1       0.339   2.568   1.350  0.00  0.00     0.002 A 
ENDROOT
BRANCH   1   7
ATOM      7  C1' N4B d   1      -2.063   2.312   1.859  0.00  0.00     0.057 C 
BRANCH   7   8
ATOM      8  C2' N4B d   1      -2.380   3.573   2.658  0.00  0.00     0.009 C 
BRANCH   8   9
ATOM      9  C3' N4B d   1      -2.365   4.817   1.786  0.00  0.00     0.004 C 
ATOM     10  C4' N4B d   1      -3.009   5.998   2.448  0.00  0.00     0.003 C 
ENDBRANCH   8   9
ENDBRANCH   7   8
ENDBRANCH   1   7
TORSDOF 3
ENDMDL
