MODEL 1
REMARK minimizedAffinity 9.31249905
REMARK minimizedRMSD -1
REMARK  3 active torsions:
REMARK  status: ('A' for Active; 'I' for Inactive)
REMARK    1  A    between atoms: C3'_2  and  C2'_3 
REMARK    2  A    between atoms: C2'_3  and  C1'_4 
REMARK    3  A    between atoms: C1'_4  and  C1_5 
ROOT
ATOM      1  C1  N4B d   1      -1.813   3.671   0.511  0.00  0.00    -0.075 A 
ATOM      2  C2  N4B d   1      -2.320   3.503   1.818  0.00  0.00     0.002 A 
ATOM      3  C3  N4B d   1      -2.785   4.589   2.518  0.00  0.00     0.002 A 
ATOM      4  C4  N4B d   1      -2.735   5.850   1.942  0.00  0.00    -0.004 A 
ATOM      5  C5  N4B d   1      -2.267   6.000   0.670  0.00  0.00     0.002 A 
ATOM      6  C6  N4B d   1      -1.800   4.917  -0.048  0.00  0.00     0.002 A 
ENDROOT
BRANCH   1   7
ATOM      7  C1' N4B d   1      -1.214   2.528  -0.262  0.00  0.00     0.057 C 
BRANCH   7   8
ATOM      8  C2' N4B d   1      -0.596   3.063  -1.550  0.00  0.00     0.009 C 
BRANCH   8   9
ATOM      9  C3' N4B d   1       0.915   2.902  -1.565  0.00  0.00     0.004 C 
ATOM     10  C4' N4B d   1       1.627   4.142  -2.016  0.00  0.00     0.003 C 
ENDBRANCH   8   9
ENDBRANCH   7   8
ENDBRANCH   1   7
TORSDOF 3
ENDMDL
