MODEL 1
REMARK minimizedAffinity 10.9435167
REMARK minimizedRMSD -1
REMARK  3 active torsions:
REMARK  status: ('A' for Active; 'I' for Inactive)
REMARK    1  A    between atoms: C3'_2  and  C2'_3 
REMARK    2  A    between atoms: C2'_3  and  C1'_4 
REMARK    3  A    between atoms: C1'_4  and  C1_5 
ROOT
ATOM      1  C1  N4B d   1      -0.987  -5.468  -2.868  0.00  0.00    -0.075 A 
ATOM      2  C2  N4B d   1       0.319  -6.000  -2.949  0.00  0.00     0.002 A 
ATOM      3  C3  N4B d   1       1.337  -5.434  -2.222  0.00  0.00     0.002 A 
ATOM      4  C4  N4B d   1       1.078  -4.328  -1.425  0.00  0.00    -0.004 A 
ATOM      5  C5  N4B d   1      -0.191  -3.836  -1.333  0.00  0.00     0.002 A 
ATOM      6  C6  N4B d   1      -1.225  -4.397  -2.055  0.00  0.00     0.002 A 
ENDROOT
BRANCH   1   7
ATOM      7  C1' N4B d   1      -2.114  -5.999  -3.710  0.00  0.00     0.057 C 
BRANCH   7   8
ATOM      8  C2' N4B d   1      -2.419  -5.003  -4.825  0.00  0.00     0.009 C 
BRANCH   8   9
ATOM      9  C3' N4B d   1      -3.121  -5.663  -6.000  0.00  0.00     0.004 C 
ATOM     10  C4' N4B d   1      -4.605  -5.443  -5.988  0.00  0.00     0.003 C 
ENDBRANCH   8   9
ENDBRANCH   7   8
ENDBRANCH   1   7
TORSDOF 3
ENDMDL
