MODEL 1
REMARK minimizedAffinity 6.36165428
REMARK minimizedRMSD -1
REMARK  3 active torsions:
REMARK  status: ('A' for Active; 'I' for Inactive)
REMARK    1  A    between atoms: C3'_2  and  C2'_3 
REMARK    2  A    between atoms: C2'_3  and  C1'_4 
REMARK    3  A    between atoms: C1'_4  and  C1_5 
ROOT
ATOM      1  C1  N4B d   1       0.605   1.861   1.558  0.00  0.00    -0.075 A 
ATOM      2  C2  N4B d   1       1.446   1.359   0.541  0.00  0.00     0.002 A 
ATOM      3  C3  N4B d   1       1.122   1.559  -0.779  0.00  0.00     0.002 A 
ATOM      4  C4  N4B d   1      -0.042   2.238  -1.104  0.00  0.00    -0.004 A 
ATOM      5  C5  N4B d   1      -0.836   2.742  -0.116  0.00  0.00     0.002 A 
ATOM      6  C6  N4B d   1      -0.521   2.552   1.215  0.00  0.00     0.002 A 
ENDROOT
BRANCH   1   7
ATOM      7  C1' N4B d   1       0.872   1.594   3.014  0.00  0.00     0.057 C 
BRANCH   7   8
ATOM      8  C2' N4B d   1      -0.126   0.559   3.524  0.00  0.00     0.009 C 
BRANCH   8   9
ATOM      9  C3' N4B d   1       0.382  -0.155   4.766  0.00  0.00     0.004 C 
ATOM     10  C4' N4B d   1       0.899  -1.532   4.473  0.00  0.00     0.003 C 
ENDBRANCH   8   9
ENDBRANCH   7   8
ENDBRANCH   1   7
TORSDOF 3
ENDMDL
