MODEL 1
REMARK minimizedAffinity 5.30907917
REMARK minimizedRMSD -1
REMARK  3 active torsions:
REMARK  status: ('A' for Active; 'I' for Inactive)
REMARK    1  A    between atoms: C3'_2  and  C2'_3 
REMARK    2  A    between atoms: C2'_3  and  C1'_4 
REMARK    3  A    between atoms: C1'_4  and  C1_5 
ROOT
ATOM      1  C1  N4B d   1       0.287   2.787   1.011  0.00  0.00    -0.075 A 
ATOM      2  C2  N4B d   1      -0.230   2.576  -0.286  0.00  0.00     0.002 A 
ATOM      3  C3  N4B d   1       0.392   3.139  -1.373  0.00  0.00     0.002 A 
ATOM      4  C4  N4B d   1       1.516   3.929  -1.187  0.00  0.00    -0.004 A 
ATOM      5  C5  N4B d   1       2.025   4.106   0.067  0.00  0.00     0.002 A 
ATOM      6  C6  N4B d   1       1.412   3.543   1.168  0.00  0.00     0.002 A 
ENDROOT
BRANCH   1   7
ATOM      7  C1' N4B d   1      -0.407   2.262   2.238  0.00  0.00     0.057 C 
BRANCH   7   8
ATOM      8  C2' N4B d   1      -1.850   2.759   2.247  0.00  0.00     0.009 C 
BRANCH   8   9
ATOM      9  C3' N4B d   1      -2.115   3.757   1.133  0.00  0.00     0.004 C 
ATOM     10  C4' N4B d   1      -2.665   5.058   1.638  0.00  0.00     0.003 C 
ENDBRANCH   8   9
ENDBRANCH   7   8
ENDBRANCH   1   7
TORSDOF 3
ENDMDL
