MODEL 1
REMARK minimizedAffinity 5.87747622
REMARK minimizedRMSD -1
REMARK  2 active torsions:
REMARK  status: ('A' for Active; 'I' for Inactive)
REMARK    1  A    between atoms: C1_2  and  C2_3 
REMARK    2  A    between atoms: C2_3  and  C3_4 
ROOT
ATOM      1  C3  UNL d   1       1.804  -2.363   1.767  0.00  0.00    -0.075 A 
ATOM      2  C4  UNL d   1       2.668  -3.374   2.211  0.00  0.00     0.002 A 
ATOM      3  C5  UNL d   1       4.022  -3.348   1.875  0.00  0.00     0.002 A 
ATOM      4  C6  UNL d   1       4.527  -2.317   1.085  0.00  0.00    -0.004 A 
ATOM      5  C7  UNL d   1       3.674  -1.316   0.625  0.00  0.00     0.002 A 
ATOM      6  C8  UNL d   1       2.320  -1.338   0.962  0.00  0.00     0.002 A 
ENDROOT
BRANCH   1   7
ATOM      7  C2  UNL d   1       0.344  -2.370   2.150  0.00  0.00     0.056 C 
BRANCH   7   8
ATOM      8  C1  UNL d   1      -0.004  -1.418   3.300  0.00  0.00     0.007 C 
ATOM      9  C   UNL d   1      -1.484  -1.065   3.360  0.00  0.00     0.009 C 
ENDBRANCH   7   8
ENDBRANCH   1   7
TORSDOF 2
ENDMDL
