MODEL 1
REMARK minimizedAffinity 9.22603798
REMARK minimizedRMSD -1
REMARK  2 active torsions:
REMARK  status: ('A' for Active; 'I' for Inactive)
REMARK    1  A    between atoms: C1_2  and  C2_3 
REMARK    2  A    between atoms: C2_3  and  C3_4 
ROOT
ATOM      1  C3  UNL d   1      -0.189  -0.572  -1.784  0.00  0.00    -0.075 A 
ATOM      2  C4  UNL d   1       0.367   0.650  -2.192  0.00  0.00     0.002 A 
ATOM      3  C5  UNL d   1      -0.456   1.708  -2.578  0.00  0.00     0.002 A 
ATOM      4  C6  UNL d   1      -1.841   1.557  -2.570  0.00  0.00    -0.004 A 
ATOM      5  C7  UNL d   1      -2.403   0.343  -2.182  0.00  0.00     0.002 A 
ATOM      6  C8  UNL d   1      -1.583  -0.716  -1.791  0.00  0.00     0.002 A 
ENDROOT
BRANCH   1   7
ATOM      7  C2  UNL d   1       0.694  -1.712  -1.337  0.00  0.00     0.056 C 
BRANCH   7   8
ATOM      8  C1  UNL d   1       1.434  -1.449  -0.021  0.00  0.00     0.007 C 
ATOM      9  C   UNL d   1       1.383  -2.627   0.942  0.00  0.00     0.009 C 
ENDBRANCH   7   8
ENDBRANCH   1   7
TORSDOF 2
ENDMDL
