MODEL 1
REMARK minimizedAffinity 3.47343063
REMARK minimizedRMSD -1
REMARK  2 active torsions:
REMARK  status: ('A' for Active; 'I' for Inactive)
REMARK    1  A    between atoms: C1_2  and  C2_3 
REMARK    2  A    between atoms: C2_3  and  C3_4 
ROOT
ATOM      1  C3  UNL d   1       1.265   2.979   4.315  0.00  0.00    -0.075 A 
ATOM      2  C4  UNL d   1       0.382   4.040   4.065  0.00  0.00     0.002 A 
ATOM      3  C5  UNL d   1       0.500   5.240   4.766  0.00  0.00     0.002 A 
ATOM      4  C6  UNL d   1       1.494   5.393   5.730  0.00  0.00    -0.004 A 
ATOM      5  C7  UNL d   1       2.366   4.340   5.999  0.00  0.00     0.002 A 
ATOM      6  C8  UNL d   1       2.253   3.139   5.296  0.00  0.00     0.002 A 
ENDROOT
BRANCH   1   7
ATOM      7  C2  UNL d   1       1.161   1.688   3.540  0.00  0.00     0.056 C 
BRANCH   7   8
ATOM      8  C1  UNL d   1       0.710   0.490   4.382  0.00  0.00     0.007 C 
ATOM      9  C   UNL d   1       0.810  -0.837   3.641  0.00  0.00     0.009 C 
ENDBRANCH   7   8
ENDBRANCH   1   7
TORSDOF 2
ENDMDL
