MODEL 1
REMARK minimizedAffinity 2.60855055
REMARK minimizedRMSD -1
REMARK  2 active torsions:
REMARK  status: ('A' for Active; 'I' for Inactive)
REMARK    1  A    between atoms: C1_2  and  C2_3 
REMARK    2  A    between atoms: C2_3  and  C3_4 
ROOT
ATOM      1  C3  UNL d   1      -1.243  -0.915   2.162  0.00  0.00    -0.075 A 
ATOM      2  C4  UNL d   1      -0.580  -1.540   1.096  0.00  0.00     0.002 A 
ATOM      3  C5  UNL d   1       0.542  -2.337   1.330  0.00  0.00     0.002 A 
ATOM      4  C6  UNL d   1       1.019  -2.510   2.627  0.00  0.00    -0.004 A 
ATOM      5  C7  UNL d   1       0.378  -1.880   3.691  0.00  0.00     0.002 A 
ATOM      6  C8  UNL d   1      -0.747  -1.085   3.461  0.00  0.00     0.002 A 
ENDROOT
BRANCH   1   7
ATOM      7  C2  UNL d   1      -2.474  -0.075   1.919  0.00  0.00     0.056 C 
BRANCH   7   8
ATOM      8  C1  UNL d   1      -2.970   0.679   3.158  0.00  0.00     0.007 C 
ATOM      9  C   UNL d   1      -4.456   1.004   3.108  0.00  0.00     0.009 C 
ENDBRANCH   7   8
ENDBRANCH   1   7
TORSDOF 2
ENDMDL
