MODEL 1
REMARK minimizedAffinity 2.78467369
REMARK minimizedRMSD -1
REMARK  2 active torsions:
REMARK  status: ('A' for Active; 'I' for Inactive)
REMARK    1  A    between atoms: C1_2  and  C2_3 
REMARK    2  A    between atoms: C2_3  and  C3_4 
ROOT
ATOM      1  C3  UNL d   1      -1.266  -0.814   2.801  0.00  0.00    -0.075 A 
ATOM      2  C4  UNL d   1      -1.753  -0.115   3.915  0.00  0.00     0.002 A 
ATOM      3  C5  UNL d   1      -2.911   0.657   3.815  0.00  0.00     0.002 A 
ATOM      4  C6  UNL d   1      -3.589   0.748   2.601  0.00  0.00    -0.004 A 
ATOM      5  C7  UNL d   1      -3.104   0.070   1.484  0.00  0.00     0.002 A 
ATOM      6  C8  UNL d   1      -1.948  -0.706   1.582  0.00  0.00     0.002 A 
ENDROOT
BRANCH   1   7
ATOM      7  C2  UNL d   1      -0.029  -1.675   2.910  0.00  0.00     0.056 C 
BRANCH   7   8
ATOM      8  C1  UNL d   1       0.480  -2.207   1.567  0.00  0.00     0.007 C 
ATOM      9  C   UNL d   1       1.959  -2.571   1.587  0.00  0.00     0.009 C 
ENDBRANCH   7   8
ENDBRANCH   1   7
TORSDOF 2
ENDMDL
