MODEL 1
REMARK minimizedAffinity 7.33187628
REMARK minimizedRMSD -1
REMARK  2 active torsions:
REMARK  status: ('A' for Active; 'I' for Inactive)
REMARK    1  A    between atoms: C1_2  and  C2_3 
REMARK    2  A    between atoms: C2_3  and  C3_4 
ROOT
ATOM      1  C3  UNL d   1       0.696  -1.352  -0.217  0.00  0.00    -0.075 A 
ATOM      2  C4  UNL d   1       2.077  -1.593  -0.200  0.00  0.00     0.002 A 
ATOM      3  C5  UNL d   1       2.672  -2.231   0.889  0.00  0.00     0.002 A 
ATOM      4  C6  UNL d   1       1.897  -2.627   1.977  0.00  0.00    -0.004 A 
ATOM      5  C7  UNL d   1       0.526  -2.378   1.978  0.00  0.00     0.002 A 
ATOM      6  C8  UNL d   1      -0.072  -1.743   0.888  0.00  0.00     0.002 A 
ENDROOT
BRANCH   1   7
ATOM      7  C2  UNL d   1       0.042  -0.688  -1.405  0.00  0.00     0.056 C 
BRANCH   7   8
ATOM      8  C1  UNL d   1       0.034   0.843  -1.338  0.00  0.00     0.007 C 
ATOM      9  C   UNL d   1      -0.503   1.496  -2.604  0.00  0.00     0.009 C 
ENDBRANCH   7   8
ENDBRANCH   1   7
TORSDOF 2
ENDMDL
