MODEL 1
REMARK minimizedAffinity 5.76011467
REMARK minimizedRMSD -1
REMARK  2 active torsions:
REMARK  status: ('A' for Active; 'I' for Inactive)
REMARK    1  A    between atoms: C1_2  and  C2_3 
REMARK    2  A    between atoms: C2_3  and  C3_4 
ROOT
ATOM      1  C3  UNL d   1       0.431  -2.090   2.377  0.00  0.00    -0.075 A 
ATOM      2  C4  UNL d   1      -0.608  -2.180   1.440  0.00  0.00     0.002 A 
ATOM      3  C5  UNL d   1      -1.807  -1.495   1.642  0.00  0.00     0.002 A 
ATOM      4  C6  UNL d   1      -1.985  -0.721   2.787  0.00  0.00    -0.004 A 
ATOM      5  C7  UNL d   1      -0.966  -0.638   3.733  0.00  0.00     0.002 A 
ATOM      6  C8  UNL d   1       0.236  -1.319   3.531  0.00  0.00     0.002 A 
ENDROOT
BRANCH   1   7
ATOM      7  C2  UNL d   1       1.741  -2.804   2.149  0.00  0.00     0.056 C 
BRANCH   7   8
ATOM      8  C1  UNL d   1       1.860  -3.465   0.772  0.00  0.00     0.007 C 
ATOM      9  C   UNL d   1       1.823  -4.986   0.831  0.00  0.00     0.009 C 
ENDBRANCH   7   8
ENDBRANCH   1   7
TORSDOF 2
ENDMDL
