MODEL 1
REMARK minimizedAffinity 9.97212791
REMARK minimizedRMSD -1
REMARK  1 active torsions:
REMARK  status: ('A' for Active; 'I' for Inactive)
REMARK    1  A    between atoms: C1_2  and  C2_3 
ROOT
ATOM      1  C2  UNL d   1       1.983   1.150   2.452  0.00  0.00    -0.076 A 
ATOM      2  C3  UNL d   1       2.014   0.111   1.506  0.00  0.00     0.004 A 
ATOM      3  C4  UNL d   1       2.219  -1.211   1.897  0.00  0.00    -0.003 A 
ATOM      4  C5  UNL d   1       2.396  -1.516   3.242  0.00  0.00     0.000 A 
ATOM      5  C6  UNL d   1       2.350  -0.500   4.197  0.00  0.00     0.000 A 
ATOM      6  C7  UNL d   1       2.128   0.836   3.821  0.00  0.00    -0.073 A 
ATOM      7  C8  UNL d   1       2.095   1.892   4.891  0.00  0.00     0.078 C 
ENDROOT
BRANCH   1   8
ATOM      8  C1  UNL d   1       1.784   2.568   1.966  0.00  0.00     0.053 C 
ATOM      9  C   UNL d   1       2.710   2.923   0.812  0.00  0.00     0.018 C 
ENDBRANCH   1   8
TORSDOF 1
ENDMDL
