MODEL 1
REMARK minimizedAffinity 12.677742
REMARK minimizedRMSD -1
REMARK  1 active torsions:
REMARK  status: ('A' for Active; 'I' for Inactive)
REMARK    1  A    between atoms: C1_2  and  C2_3 
ROOT
ATOM      1  C2  UNL d   1      -4.088   2.629  -0.071  0.00  0.00    -0.076 A 
ATOM      2  C3  UNL d   1      -5.385   3.167  -0.004  0.00  0.00     0.004 A 
ATOM      3  C4  UNL d   1      -5.999   3.409   1.224  0.00  0.00    -0.003 A 
ATOM      4  C5  UNL d   1      -5.325   3.118   2.405  0.00  0.00     0.000 A 
ATOM      5  C6  UNL d   1      -4.031   2.600   2.357  0.00  0.00     0.000 A 
ATOM      6  C7  UNL d   1      -3.392   2.365   1.128  0.00  0.00    -0.073 A 
ATOM      7  C8  UNL d   1      -1.998   1.800   1.135  0.00  0.00     0.078 C 
ENDROOT
BRANCH   1   8
ATOM      8  C1  UNL d   1      -3.484   2.362  -1.431  0.00  0.00     0.053 C 
ATOM      9  C   UNL d   1      -4.517   1.899  -2.447  0.00  0.00     0.018 C 
ENDBRANCH   1   8
TORSDOF 1
ENDMDL
