MODEL 1
REMARK minimizedAffinity 9.66950703
REMARK minimizedRMSD -1
REMARK  1 active torsions:
REMARK  status: ('A' for Active; 'I' for Inactive)
REMARK    1  A    between atoms: C1_2  and  C2_3 
ROOT
ATOM      1  C2  UNL d   1       2.111  -2.546   4.190  0.00  0.00    -0.076 A 
ATOM      2  C3  UNL d   1       1.390  -1.349   4.030  0.00  0.00     0.004 A 
ATOM      3  C4  UNL d   1       1.593  -0.531   2.921  0.00  0.00    -0.003 A 
ATOM      4  C5  UNL d   1       2.521  -0.896   1.951  0.00  0.00     0.000 A 
ATOM      5  C6  UNL d   1       3.233  -2.088   2.084  0.00  0.00     0.000 A 
ATOM      6  C7  UNL d   1       3.027  -2.933   3.189  0.00  0.00    -0.073 A 
ATOM      7  C8  UNL d   1       3.826  -4.203   3.284  0.00  0.00     0.078 C 
ENDROOT
BRANCH   1   8
ATOM      8  C1  UNL d   1       1.867  -3.379   5.427  0.00  0.00     0.053 C 
ATOM      9  C   UNL d   1       0.483  -4.010   5.442  0.00  0.00     0.018 C 
ENDBRANCH   1   8
TORSDOF 1
ENDMDL
