MODEL 1
REMARK minimizedAffinity 4.54821587
REMARK minimizedRMSD -1
REMARK  1 active torsions:
REMARK  status: ('A' for Active; 'I' for Inactive)
REMARK    1  A    between atoms: C1_2  and  C2_3 
ROOT
ATOM      1  C2  UNL d   1       3.298  -1.366   4.780  0.00  0.00    -0.076 A 
ATOM      2  C3  UNL d   1       3.023  -2.221   3.699  0.00  0.00     0.004 A 
ATOM      3  C4  UNL d   1       2.370  -1.752   2.561  0.00  0.00    -0.003 A 
ATOM      4  C5  UNL d   1       1.982  -0.418   2.485  0.00  0.00     0.000 A 
ATOM      5  C6  UNL d   1       2.263   0.448   3.540  0.00  0.00     0.000 A 
ATOM      6  C7  UNL d   1       2.935  -0.005   4.688  0.00  0.00    -0.073 A 
ATOM      7  C8  UNL d   1       3.207   0.972   5.799  0.00  0.00     0.078 C 
ENDROOT
BRANCH   1   8
ATOM      8  C1  UNL d   1       3.985  -1.938   6.000  0.00  0.00     0.053 C 
ATOM      9  C   UNL d   1       5.287  -2.645   5.657  0.00  0.00     0.018 C 
ENDBRANCH   1   8
TORSDOF 1
ENDMDL
