MODEL 1
REMARK minimizedAffinity 6.62529755
REMARK minimizedRMSD -1
REMARK  1 active torsions:
REMARK  status: ('A' for Active; 'I' for Inactive)
REMARK    1  A    between atoms: C1_2  and  C2_3 
ROOT
ATOM      1  C2  UNL d   1       1.963   4.038   0.674  0.00  0.00    -0.076 A 
ATOM      2  C3  UNL d   1       1.738   5.379   0.317  0.00  0.00     0.004 A 
ATOM      3  C4  UNL d   1       2.222   5.891  -0.885  0.00  0.00    -0.003 A 
ATOM      4  C5  UNL d   1       2.937   5.071  -1.751  0.00  0.00     0.000 A 
ATOM      5  C6  UNL d   1       3.154   3.734  -1.421  0.00  0.00     0.000 A 
ATOM      6  C7  UNL d   1       2.659   3.197  -0.220  0.00  0.00    -0.073 A 
ATOM      7  C8  UNL d   1       2.927   1.749   0.089  0.00  0.00     0.078 C 
ENDROOT
BRANCH   1   8
ATOM      8  C1  UNL d   1       1.438   3.545   2.004  0.00  0.00     0.053 C 
ATOM      9  C   UNL d   1       2.342   3.927   3.165  0.00  0.00     0.018 C 
ENDBRANCH   1   8
TORSDOF 1
ENDMDL
