MODEL 1
REMARK minimizedAffinity 8.92546272
REMARK minimizedRMSD -1
REMARK  1 active torsions:
REMARK  status: ('A' for Active; 'I' for Inactive)
REMARK    1  A    between atoms: C1_2  and  C2_3 
ROOT
ATOM      1  C2  UNL d   1       2.414   0.516   3.724  0.00  0.00    -0.076 A 
ATOM      2  C3  UNL d   1       2.553   1.809   3.193  0.00  0.00     0.004 A 
ATOM      3  C4  UNL d   1       2.728   2.008   1.824  0.00  0.00    -0.003 A 
ATOM      4  C5  UNL d   1       2.765   0.915   0.964  0.00  0.00     0.000 A 
ATOM      5  C6  UNL d   1       2.611  -0.374   1.472  0.00  0.00     0.000 A 
ATOM      6  C7  UNL d   1       2.418  -0.591   2.848  0.00  0.00    -0.073 A 
ATOM      7  C8  UNL d   1       2.264  -2.003   3.341  0.00  0.00     0.078 C 
ENDROOT
BRANCH   1   8
ATOM      8  C1  UNL d   1       2.255   0.360   5.220  0.00  0.00     0.053 C 
ATOM      9  C   UNL d   1       3.367   1.046   5.998  0.00  0.00     0.018 C 
ENDBRANCH   1   8
TORSDOF 1
ENDMDL
