MODEL 1
REMARK minimizedAffinity 13.5045614
REMARK minimizedRMSD -1
REMARK  1 active torsions:
REMARK  status: ('A' for Active; 'I' for Inactive)
REMARK    1  A    between atoms: C1_2  and  C2_3 
ROOT
ATOM      1  C2  UNL d   1       1.347   3.899   1.646  0.00  0.00    -0.076 A 
ATOM      2  C3  UNL d   1       2.518   4.331   1.000  0.00  0.00     0.004 A 
ATOM      3  C4  UNL d   1       2.497   4.719  -0.339  0.00  0.00    -0.003 A 
ATOM      4  C5  UNL d   1       1.304   4.682  -1.053  0.00  0.00     0.000 A 
ATOM      5  C6  UNL d   1       0.129   4.273  -0.423  0.00  0.00     0.000 A 
ATOM      6  C7  UNL d   1       0.130   3.894   0.931  0.00  0.00    -0.073 A 
ATOM      7  C8  UNL d   1      -1.165   3.455   1.558  0.00  0.00     0.078 C 
ENDROOT
BRANCH   1   8
ATOM      8  C1  UNL d   1       1.435   3.464   3.092  0.00  0.00     0.053 C 
ATOM      9  C   UNL d   1       2.477   4.250   3.873  0.00  0.00     0.018 C 
ENDBRANCH   1   8
TORSDOF 1
ENDMDL
