MODEL 1
REMARK minimizedAffinity 4.99198151
REMARK minimizedRMSD -1
REMARK  1 active torsions:
REMARK  status: ('A' for Active; 'I' for Inactive)
REMARK    1  A    between atoms: C1_2  and  C2_3 
ROOT
ATOM      1  C2  UNL d   1       2.419   0.483   4.264  0.00  0.00    -0.076 A 
ATOM      2  C3  UNL d   1       1.892   0.762   2.991  0.00  0.00     0.004 A 
ATOM      3  C4  UNL d   1       1.899  -0.203   1.985  0.00  0.00    -0.003 A 
ATOM      4  C5  UNL d   1       2.432  -1.463   2.236  0.00  0.00     0.000 A 
ATOM      5  C6  UNL d   1       2.944  -1.762   3.499  0.00  0.00     0.000 A 
ATOM      6  C7  UNL d   1       2.930  -0.805   4.529  0.00  0.00    -0.073 A 
ATOM      7  C8  UNL d   1       3.500  -1.180   5.869  0.00  0.00     0.078 C 
ENDROOT
BRANCH   1   8
ATOM      8  C1  UNL d   1       2.410   1.578   5.307  0.00  0.00     0.053 C 
ATOM      9  C   UNL d   1       2.591   2.961   4.701  0.00  0.00     0.018 C 
ENDBRANCH   1   8
TORSDOF 1
ENDMDL
