MODEL 1
REMARK minimizedAffinity 5.26285982
REMARK minimizedRMSD -1
REMARK  1 active torsions:
REMARK  status: ('A' for Active; 'I' for Inactive)
REMARK    1  A    between atoms: C3_4  and  O_7 
ROOT
ATOM      1  C   UNL d   1       4.135  -3.983  -0.752  0.00  0.00    -0.033 A 
ATOM      2  C1  UNL d   1       5.478  -3.996  -0.372  0.00  0.00     0.039 A 
ATOM      3  C2  UNL d   1       6.000  -2.950   0.393  0.00  0.00    -0.080 A 
ATOM      4  C3  UNL d   1       5.168  -1.900   0.771  0.00  0.00     0.150 A 
ATOM      5  C4  UNL d   1       3.828  -1.883   0.399  0.00  0.00    -0.007 A 
ATOM      6  C5  UNL d   1       3.309  -2.927  -0.365  0.00  0.00     0.039 A 
ENDROOT
BRANCH   4   7
ATOM      7  O   UNL d   1       5.633  -0.855   1.513  0.00  0.00    -0.526 OA
ATOM      8  H5  UNL d   1       6.582  -0.988   1.671  0.00  0.00     0.418 HD
ENDBRANCH   4   7
TORSDOF 1
ENDMDL
