MODEL 1
REMARK minimizedAffinity 7.11350393
REMARK minimizedRMSD -1
REMARK  1 active torsions:
REMARK  status: ('A' for Active; 'I' for Inactive)
REMARK    1  A    between atoms: C3_4  and  O_7 
ROOT
ATOM      1  C   UNL d   1       3.979  -5.799  -1.760  0.00  0.00    -0.033 A 
ATOM      2  C1  UNL d   1       3.753  -4.914  -2.815  0.00  0.00     0.039 A 
ATOM      3  C2  UNL d   1       4.423  -3.689  -2.857  0.00  0.00    -0.080 A 
ATOM      4  C3  UNL d   1       5.315  -3.363  -1.840  0.00  0.00     0.150 A 
ATOM      5  C4  UNL d   1       5.548  -4.242  -0.787  0.00  0.00    -0.007 A 
ATOM      6  C5  UNL d   1       4.878  -5.464  -0.747  0.00  0.00     0.039 A 
ENDROOT
BRANCH   4   7
ATOM      7  O   UNL d   1       5.988  -2.177  -1.835  0.00  0.00    -0.526 OA
ATOM      8  H5  UNL d   1       5.705  -1.660  -2.607  0.00  0.00     0.418 HD
ENDBRANCH   4   7
TORSDOF 1
ENDMDL
