MODEL 1
REMARK minimizedAffinity 7.6715579
REMARK minimizedRMSD -1
REMARK  1 active torsions:
REMARK  status: ('A' for Active; 'I' for Inactive)
REMARK    1  A    between atoms: C3_4  and  O_7 
ROOT
ATOM      1  C   UNL d   1      -0.010   1.992   1.901  0.00  0.00    -0.033 A 
ATOM      2  C1  UNL d   1      -0.994   1.408   2.701  0.00  0.00     0.039 A 
ATOM      3  C2  UNL d   1      -0.649   0.420   3.626  0.00  0.00    -0.080 A 
ATOM      4  C3  UNL d   1       0.681   0.028   3.742  0.00  0.00     0.150 A 
ATOM      5  C4  UNL d   1       1.667   0.609   2.951  0.00  0.00    -0.007 A 
ATOM      6  C5  UNL d   1       1.321   1.594   2.028  0.00  0.00     0.039 A 
ENDROOT
BRANCH   4   7
ATOM      7  O   UNL d   1       1.066  -0.935   4.627  0.00  0.00    -0.526 OA
ATOM      8  H5  UNL d   1       0.275  -1.266   5.085  0.00  0.00     0.418 HD
ENDBRANCH   4   7
TORSDOF 1
ENDMDL
