MODEL 1
REMARK minimizedAffinity 8.61853981
REMARK minimizedRMSD -1
REMARK  1 active torsions:
REMARK  status: ('A' for Active; 'I' for Inactive)
REMARK    1  A    between atoms: C3_4  and  O_7 
ROOT
ATOM      1  C   UNL d   1      -4.520   6.000   0.651  0.00  0.00    -0.033 A 
ATOM      2  C1  UNL d   1      -5.624   6.000  -0.204  0.00  0.00     0.039 A 
ATOM      3  C2  UNL d   1      -5.502   5.505  -1.504  0.00  0.00    -0.080 A 
ATOM      4  C3  UNL d   1      -4.273   5.013  -1.935  0.00  0.00     0.150 A 
ATOM      5  C4  UNL d   1      -3.171   5.007  -1.088  0.00  0.00    -0.007 A 
ATOM      6  C5  UNL d   1      -3.294   5.502   0.210  0.00  0.00     0.039 A 
ENDROOT
BRANCH   4   7
ATOM      7  O   UNL d   1      -4.105   4.524  -3.197  0.00  0.00    -0.526 OA
ATOM      8  H5  UNL d   1      -4.944   4.619  -3.678  0.00  0.00     0.418 HD
ENDBRANCH   4   7
TORSDOF 1
ENDMDL
