MODEL 1
REMARK minimizedAffinity 7.23822927
REMARK minimizedRMSD -1
REMARK  1 active torsions:
REMARK  status: ('A' for Active; 'I' for Inactive)
REMARK    1  A    between atoms: C3_4  and  O_7 
ROOT
ATOM      1  C   UNL d   1      -2.233   0.185  -0.698  0.00  0.00    -0.033 A 
ATOM      2  C1  UNL d   1      -2.888   1.093  -1.533  0.00  0.00     0.039 A 
ATOM      3  C2  UNL d   1      -2.638   1.085  -2.907  0.00  0.00    -0.080 A 
ATOM      4  C3  UNL d   1      -1.734   0.166  -3.432  0.00  0.00     0.150 A 
ATOM      5  C4  UNL d   1      -1.082  -0.743  -2.607  0.00  0.00    -0.007 A 
ATOM      6  C5  UNL d   1      -1.331  -0.734  -1.236  0.00  0.00     0.039 A 
ENDROOT
BRANCH   4   7
ATOM      7  O   UNL d   1      -1.455   0.125  -4.766  0.00  0.00    -0.526 OA
ATOM      8  H5  UNL d   1      -1.957   0.829  -5.208  0.00  0.00     0.418 HD
ENDBRANCH   4   7
TORSDOF 1
ENDMDL
