MODEL 1
REMARK minimizedAffinity 1.03435385
REMARK minimizedRMSD -1
REMARK  1 active torsions:
REMARK  status: ('A' for Active; 'I' for Inactive)
REMARK    1  A    between atoms: C3_4  and  O_7 
ROOT
ATOM      1  C   UNL d   1      -1.785   3.056   0.446  0.00  0.00    -0.033 A 
ATOM      2  C1  UNL d   1      -2.590   2.145  -0.242  0.00  0.00     0.039 A 
ATOM      3  C2  UNL d   1      -3.242   1.125   0.452  0.00  0.00    -0.080 A 
ATOM      4  C3  UNL d   1      -3.083   1.027   1.832  0.00  0.00     0.150 A 
ATOM      5  C4  UNL d   1      -2.285   1.933   2.524  0.00  0.00    -0.007 A 
ATOM      6  C5  UNL d   1      -1.634   2.951   1.828  0.00  0.00     0.039 A 
ENDROOT
BRANCH   4   7
ATOM      7  O   UNL d   1      -3.696   0.045   2.552  0.00  0.00    -0.526 OA
ATOM      8  H5  UNL d   1      -4.190  -0.524   1.938  0.00  0.00     0.418 HD
ENDBRANCH   4   7
TORSDOF 1
ENDMDL
