MODEL 1
REMARK minimizedAffinity 8.07962894
REMARK minimizedRMSD -1
REMARK  1 active torsions:
REMARK  status: ('A' for Active; 'I' for Inactive)
REMARK    1  A    between atoms: C3_4  and  O_7 
ROOT
ATOM      1  C   UNL d   1       0.225   2.287   1.102  0.00  0.00    -0.033 A 
ATOM      2  C1  UNL d   1       1.370   2.122   1.884  0.00  0.00     0.039 A 
ATOM      3  C2  UNL d   1       2.335   3.130   1.934  0.00  0.00    -0.080 A 
ATOM      4  C3  UNL d   1       2.143   4.296   1.198  0.00  0.00     0.150 A 
ATOM      5  C4  UNL d   1       1.003   4.469   0.420  0.00  0.00    -0.007 A 
ATOM      6  C5  UNL d   1       0.041   3.461   0.371  0.00  0.00     0.039 A 
ENDROOT
BRANCH   4   7
ATOM      7  O   UNL d   1       3.059   5.306   1.212  0.00  0.00    -0.526 OA
ATOM      8  H5  UNL d   1       3.808   5.035   1.769  0.00  0.00     0.418 HD
ENDBRANCH   4   7
TORSDOF 1
ENDMDL
