MODEL 1
REMARK minimizedAffinity 6.61434078
REMARK minimizedRMSD -1
REMARK  1 active torsions:
REMARK  status: ('A' for Active; 'I' for Inactive)
REMARK    1  A    between atoms: C1_2  and  C2_3 
ROOT
ATOM      1  C2  UNL d   1       0.969   1.952   0.622  0.00  0.00    -0.073 A 
ATOM      2  C3  UNL d   1       0.690   0.848  -0.190  0.00  0.00    -0.002 A 
ATOM      3  C4  UNL d   1       0.047  -0.272   0.339  0.00  0.00     0.004 A 
ATOM      4  C5  UNL d   1      -0.328  -0.297   1.682  0.00  0.00    -0.004 A 
ATOM      5  C6  UNL d   1      -0.068   0.802   2.507  0.00  0.00    -0.075 A 
ATOM      6  C7  UNL d   1      -0.463   0.791   3.955  0.00  0.00     0.076 C 
ATOM      7  C8  UNL d   1       0.580   1.922   1.969  0.00  0.00     0.001 A 
ENDROOT
BRANCH   1   8
ATOM      8  C1  UNL d   1       1.657   3.166   0.053  0.00  0.00     0.053 C 
ATOM      9  C   UNL d   1       3.147   2.936  -0.146  0.00  0.00     0.018 C 
ENDBRANCH   1   8
TORSDOF 1
ENDMDL
