MODEL 1
REMARK minimizedAffinity 0.367252916
REMARK minimizedRMSD -1
REMARK  1 active torsions:
REMARK  status: ('A' for Active; 'I' for Inactive)
REMARK    1  A    between atoms: C1_2  and  C2_3 
ROOT
ATOM      1  C2  UNL d   1      -0.619   5.990  -4.082  0.00  0.00    -0.073 A 
ATOM      2  C3  UNL d   1       0.002   5.984  -2.828  0.00  0.00    -0.002 A 
ATOM      3  C4  UNL d   1      -0.763   5.991  -1.662  0.00  0.00     0.004 A 
ATOM      4  C5  UNL d   1      -2.156   5.997  -1.736  0.00  0.00    -0.004 A 
ATOM      5  C6  UNL d   1      -2.796   5.990  -2.980  0.00  0.00    -0.075 A 
ATOM      6  C7  UNL d   1      -4.293   5.998  -3.077  0.00  0.00     0.076 C 
ATOM      7  C8  UNL d   1      -2.020   5.986  -4.147  0.00  0.00     0.001 A 
ENDROOT
BRANCH   1   8
ATOM      8  C1  UNL d   1       0.203   5.976  -5.345  0.00  0.00     0.053 C 
ATOM      9  C   UNL d   1       1.695   5.980  -5.053  0.00  0.00     0.018 C 
ENDBRANCH   1   8
TORSDOF 1
ENDMDL
