MODEL 1
REMARK minimizedAffinity 3.62490559
REMARK minimizedRMSD -1
REMARK  1 active torsions:
REMARK  status: ('A' for Active; 'I' for Inactive)
REMARK    1  A    between atoms: C1_2  and  C2_3 
ROOT
ATOM      1  C2  UNL d   1      -1.129   5.975  -2.999  0.00  0.00    -0.073 A 
ATOM      2  C3  UNL d   1      -2.256   5.990  -3.829  0.00  0.00    -0.002 A 
ATOM      3  C4  UNL d   1      -3.538   5.998  -3.278  0.00  0.00     0.004 A 
ATOM      4  C5  UNL d   1      -3.706   5.999  -1.893  0.00  0.00    -0.004 A 
ATOM      5  C6  UNL d   1      -2.593   5.997  -1.047  0.00  0.00    -0.075 A 
ATOM      6  C7  UNL d   1      -2.757   5.996   0.444  0.00  0.00     0.076 C 
ATOM      7  C8  UNL d   1      -1.309   5.986  -1.608  0.00  0.00     0.001 A 
ENDROOT
BRANCH   1   8
ATOM      8  C1  UNL d   1       0.257   5.973  -3.590  0.00  0.00     0.053 C 
ATOM      9  C   UNL d   1       0.327   5.165  -4.876  0.00  0.00     0.018 C 
ENDBRANCH   1   8
TORSDOF 1
ENDMDL
