MODEL 1
REMARK minimizedAffinity 10.5420103
REMARK minimizedRMSD -1
REMARK  1 active torsions:
REMARK  status: ('A' for Active; 'I' for Inactive)
REMARK    1  A    between atoms: C1_2  and  C2_3 
ROOT
ATOM      1  C2  UNL d   1      -1.467   0.853   3.271  0.00  0.00    -0.073 A 
ATOM      2  C3  UNL d   1      -2.615   1.258   2.579  0.00  0.00    -0.002 A 
ATOM      3  C4  UNL d   1      -2.674   1.153   1.189  0.00  0.00     0.004 A 
ATOM      4  C5  UNL d   1      -1.592   0.636   0.477  0.00  0.00    -0.004 A 
ATOM      5  C6  UNL d   1      -0.441   0.215   1.151  0.00  0.00    -0.075 A 
ATOM      6  C7  UNL d   1       0.733  -0.341   0.400  0.00  0.00     0.076 C 
ATOM      7  C8  UNL d   1      -0.388   0.327   2.547  0.00  0.00     0.001 A 
ENDROOT
BRANCH   1   8
ATOM      8  C1  UNL d   1      -1.401   0.959   4.772  0.00  0.00     0.053 C 
ATOM      9  C   UNL d   1      -0.203   0.217   5.344  0.00  0.00     0.018 C 
ENDBRANCH   1   8
TORSDOF 1
ENDMDL
