MODEL 1
REMARK minimizedAffinity 3.44203877
REMARK minimizedRMSD -1
REMARK  1 active torsions:
REMARK  status: ('A' for Active; 'I' for Inactive)
REMARK    1  A    between atoms: C1_2  and  C2_3 
ROOT
ATOM      1  C2  UNL d   1       0.034   5.996  -4.247  0.00  0.00    -0.073 A 
ATOM      2  C3  UNL d   1       0.880   5.983  -3.133  0.00  0.00    -0.002 A 
ATOM      3  C4  UNL d   1       0.348   5.982  -1.843  0.00  0.00     0.004 A 
ATOM      4  C5  UNL d   1      -1.034   5.987  -1.654  0.00  0.00    -0.004 A 
ATOM      5  C6  UNL d   1      -1.897   5.988  -2.755  0.00  0.00    -0.075 A 
ATOM      6  C7  UNL d   1      -3.386   5.995  -2.569  0.00  0.00     0.076 C 
ATOM      7  C8  UNL d   1      -1.354   5.991  -4.047  0.00  0.00     0.001 A 
ENDROOT
BRANCH   1   8
ATOM      8  C1  UNL d   1       0.604   5.990  -5.642  0.00  0.00     0.053 C 
ATOM      9  C   UNL d   1       2.124   5.989  -5.636  0.00  0.00     0.018 C 
ENDBRANCH   1   8
TORSDOF 1
ENDMDL
