MODEL 1
REMARK minimizedAffinity 7.63627005
REMARK minimizedRMSD -1
REMARK  1 active torsions:
REMARK  status: ('A' for Active; 'I' for Inactive)
REMARK    1  A    between atoms: C1_2  and  C2_3 
ROOT
ATOM      1  C2  UNL d   1       3.083   3.364  -4.473  0.00  0.00    -0.073 A 
ATOM      2  C3  UNL d   1       4.338   3.840  -4.869  0.00  0.00    -0.002 A 
ATOM      3  C4  UNL d   1       4.442   5.004  -5.631  0.00  0.00     0.004 A 
ATOM      4  C5  UNL d   1       3.296   5.708  -5.998  0.00  0.00    -0.004 A 
ATOM      5  C6  UNL d   1       2.033   5.255  -5.601  0.00  0.00    -0.075 A 
ATOM      6  C7  UNL d   1       0.789   6.000  -5.990  0.00  0.00     0.076 C 
ATOM      7  C8  UNL d   1       1.936   4.084  -4.839  0.00  0.00     0.001 A 
ENDROOT
BRANCH   1   8
ATOM      8  C1  UNL d   1       2.966   2.111  -3.645  0.00  0.00     0.053 C 
ATOM      9  C   UNL d   1       2.007   2.286  -2.478  0.00  0.00     0.018 C 
ENDBRANCH   1   8
TORSDOF 1
ENDMDL
