MODEL 1
REMARK minimizedAffinity 7.76948071
REMARK minimizedRMSD -1
REMARK  3 active torsions:
REMARK  status: ('A' for Active; 'I' for Inactive)
REMARK    1  A    between atoms: C3'_2  and  C2'_3 
REMARK    2  A    between atoms: C2'_3  and  C1'_4 
REMARK    3  A    between atoms: C1'_4  and  C1_5 
ROOT
ATOM      1  C1  N4B d   1      -2.854  -1.791  -3.253  0.00  0.00    -0.075 A 
ATOM      2  C2  N4B d   1      -1.572  -2.265  -2.897  0.00  0.00     0.002 A 
ATOM      3  C3  N4B d   1      -1.446  -3.408  -2.146  0.00  0.00     0.002 A 
ATOM      4  C4  N4B d   1      -2.584  -4.080  -1.725  0.00  0.00    -0.004 A 
ATOM      5  C5  N4B d   1      -3.818  -3.630  -2.095  0.00  0.00     0.002 A 
ATOM      6  C6  N4B d   1      -3.959  -2.485  -2.853  0.00  0.00     0.002 A 
ENDROOT
BRANCH   1   7
ATOM      7  C1' N4B d   1      -3.044  -0.499  -4.000  0.00  0.00     0.057 C 
BRANCH   7   8
ATOM      8  C2' N4B d   1      -2.406   0.637  -3.205  0.00  0.00     0.009 C 
BRANCH   8   9
ATOM      9  C3' N4B d   1      -3.449   1.519  -2.539  0.00  0.00     0.004 C 
ATOM     10  C4' N4B d   1      -3.822   2.708  -3.373  0.00  0.00     0.003 C 
ENDBRANCH   8   9
ENDBRANCH   7   8
ENDBRANCH   1   7
TORSDOF 3
ENDMDL
