MODEL 1
REMARK minimizedAffinity 0.574814916
REMARK minimizedRMSD -1
REMARK  3 active torsions:
REMARK  status: ('A' for Active; 'I' for Inactive)
REMARK    1  A    between atoms: C3'_2  and  C2'_3 
REMARK    2  A    between atoms: C2'_3  and  C1'_4 
REMARK    3  A    between atoms: C1'_4  and  C1_5 
ROOT
ATOM      1  C1  N4B d   1       0.472  -1.803  -0.454  0.00  0.00    -0.075 A 
ATOM      2  C2  N4B d   1      -0.681  -1.875  -1.265  0.00  0.00     0.002 A 
ATOM      3  C3  N4B d   1      -0.869  -2.951  -2.098  0.00  0.00     0.002 A 
ATOM      4  C4  N4B d   1       0.088  -3.953  -2.150  0.00  0.00    -0.004 A 
ATOM      5  C5  N4B d   1       1.187  -3.888  -1.344  0.00  0.00     0.002 A 
ATOM      6  C6  N4B d   1       1.387  -2.815  -0.499  0.00  0.00     0.002 A 
ENDROOT
BRANCH   1   7
ATOM      7  C1' N4B d   1       0.763  -0.606   0.409  0.00  0.00     0.057 C 
BRANCH   7   8
ATOM      8  C2' N4B d   1       0.795   0.645  -0.464  0.00  0.00     0.009 C 
BRANCH   8   9
ATOM      9  C3' N4B d   1       1.922   1.584  -0.071  0.00  0.00     0.004 C 
ATOM     10  C4' N4B d   1       2.478   1.286   1.290  0.00  0.00     0.003 C 
ENDBRANCH   8   9
ENDBRANCH   7   8
ENDBRANCH   1   7
TORSDOF 3
ENDMDL
