MODEL 1
REMARK minimizedAffinity -1.89098728
REMARK minimizedRMSD -1
REMARK  3 active torsions:
REMARK  status: ('A' for Active; 'I' for Inactive)
REMARK    1  A    between atoms: C3'_2  and  C2'_3 
REMARK    2  A    between atoms: C2'_3  and  C1'_4 
REMARK    3  A    between atoms: C1'_4  and  C1_5 
ROOT
ATOM      1  C1  N4B d   1       0.376   0.342   1.244  0.00  0.00    -0.075 A 
ATOM      2  C2  N4B d   1       1.697   0.822   1.105  0.00  0.00     0.002 A 
ATOM      3  C3  N4B d   1       1.923   2.064   0.565  0.00  0.00     0.002 A 
ATOM      4  C4  N4B d   1       0.849   2.833   0.141  0.00  0.00    -0.004 A 
ATOM      5  C5  N4B d   1      -0.425   2.372   0.303  0.00  0.00     0.002 A 
ATOM      6  C6  N4B d   1      -0.667   1.127   0.847  0.00  0.00     0.002 A 
ENDROOT
BRANCH   1   7
ATOM      7  C1' N4B d   1       0.085  -1.045   1.750  0.00  0.00     0.057 C 
BRANCH   7   8
ATOM      8  C2' N4B d   1      -0.690  -1.814   0.684  0.00  0.00     0.009 C 
BRANCH   8   9
ATOM      9  C3' N4B d   1       0.085  -3.017   0.175  0.00  0.00     0.004 C 
ATOM     10  C4' N4B d   1       0.393  -2.933  -1.290  0.00  0.00     0.003 C 
ENDBRANCH   8   9
ENDBRANCH   7   8
ENDBRANCH   1   7
TORSDOF 3
ENDMDL
