MODEL 1
REMARK minimizedAffinity 8.73040104
REMARK minimizedRMSD -1
REMARK  3 active torsions:
REMARK  status: ('A' for Active; 'I' for Inactive)
REMARK    1  A    between atoms: C3'_2  and  C2'_3 
REMARK    2  A    between atoms: C2'_3  and  C1'_4 
REMARK    3  A    between atoms: C1'_4  and  C1_5 
ROOT
ATOM      1  C1  N4B d   1      -0.136   1.299  -0.076  0.00  0.00    -0.075 A 
ATOM      2  C2  N4B d   1       0.502   0.225   0.582  0.00  0.00     0.002 A 
ATOM      3  C3  N4B d   1       1.824   0.327   0.942  0.00  0.00     0.002 A 
ATOM      4  C4  N4B d   1       2.529   1.482   0.638  0.00  0.00    -0.004 A 
ATOM      5  C5  N4B d   1       1.899   2.525   0.026  0.00  0.00     0.002 A 
ATOM      6  C6  N4B d   1       0.570   2.437  -0.338  0.00  0.00     0.002 A 
ENDROOT
BRANCH   1   7
ATOM      7  C1' N4B d   1      -1.555   1.201  -0.565  0.00  0.00     0.057 C 
BRANCH   7   8
ATOM      8  C2' N4B d   1      -1.570   1.327  -2.086  0.00  0.00     0.009 C 
BRANCH   8   9
ATOM      9  C3' N4B d   1      -2.967   1.152  -2.656  0.00  0.00     0.004 C 
ATOM     10  C4' N4B d   1      -3.708   2.450  -2.786  0.00  0.00     0.003 C 
ENDBRANCH   8   9
ENDBRANCH   7   8
ENDBRANCH   1   7
TORSDOF 3
ENDMDL
