MODEL 1
REMARK minimizedAffinity -3.2468648
REMARK minimizedRMSD -1
REMARK  3 active torsions:
REMARK  status: ('A' for Active; 'I' for Inactive)
REMARK    1  A    between atoms: C3'_2  and  C2'_3 
REMARK    2  A    between atoms: C2'_3  and  C1'_4 
REMARK    3  A    between atoms: C1'_4  and  C1_5 
ROOT
ATOM      1  C1  N4B d   1       4.375  -2.950  -4.635  0.00  0.00    -0.075 A 
ATOM      2  C2  N4B d   1       5.157  -1.891  -4.125  0.00  0.00     0.002 A 
ATOM      3  C3  N4B d   1       4.948  -0.608  -4.569  0.00  0.00     0.002 A 
ATOM      4  C4  N4B d   1       3.979  -0.364  -5.530  0.00  0.00    -0.004 A 
ATOM      5  C5  N4B d   1       3.210  -1.390  -5.998  0.00  0.00     0.002 A 
ATOM      6  C6  N4B d   1       3.407  -2.683  -5.559  0.00  0.00     0.002 A 
ENDROOT
BRANCH   1   7
ATOM      7  C1' N4B d   1       4.625  -4.381  -4.244  0.00  0.00     0.057 C 
BRANCH   7   8
ATOM      8  C2' N4B d   1       4.771  -4.468  -2.728  0.00  0.00     0.009 C 
BRANCH   8   9
ATOM      9  C3' N4B d   1       4.649  -5.897  -2.226  0.00  0.00     0.004 C 
ATOM     10  C4' N4B d   1       3.883  -5.997  -0.940  0.00  0.00     0.003 C 
ENDBRANCH   8   9
ENDBRANCH   7   8
ENDBRANCH   1   7
TORSDOF 3
ENDMDL
