MODEL 1
REMARK minimizedAffinity 8.97847271
REMARK minimizedRMSD -1
REMARK  3 active torsions:
REMARK  status: ('A' for Active; 'I' for Inactive)
REMARK    1  A    between atoms: C3'_2  and  C2'_3 
REMARK    2  A    between atoms: C2'_3  and  C1'_4 
REMARK    3  A    between atoms: C1'_4  and  C1_5 
ROOT
ATOM      1  C1  N4B d   1       2.470   1.251   1.712  0.00  0.00    -0.075 A 
ATOM      2  C2  N4B d   1       2.757   2.558   2.163  0.00  0.00     0.002 A 
ATOM      3  C3  N4B d   1       2.865   2.812   3.508  0.00  0.00     0.002 A 
ATOM      4  C4  N4B d   1       2.672   1.783   4.418  0.00  0.00    -0.004 A 
ATOM      5  C5  N4B d   1       2.420   0.518   3.973  0.00  0.00     0.002 A 
ATOM      6  C6  N4B d   1       2.312   0.248   2.624  0.00  0.00     0.002 A 
ENDROOT
BRANCH   1   7
ATOM      7  C1' N4B d   1       2.257   0.943   0.255  0.00  0.00     0.057 C 
BRANCH   7   8
ATOM      8  C2' N4B d   1       0.953   1.586  -0.208  0.00  0.00     0.009 C 
BRANCH   8   9
ATOM      9  C3' N4B d   1      -0.263   0.799   0.251  0.00  0.00     0.004 C 
ATOM     10  C4' N4B d   1       0.003  -0.673   0.354  0.00  0.00     0.003 C 
ENDBRANCH   8   9
ENDBRANCH   7   8
ENDBRANCH   1   7
TORSDOF 3
ENDMDL
