MODEL 1
REMARK minimizedAffinity -4.20111179
REMARK minimizedRMSD -1
REMARK  3 active torsions:
REMARK  status: ('A' for Active; 'I' for Inactive)
REMARK    1  A    between atoms: C3'_2  and  C2'_3 
REMARK    2  A    between atoms: C2'_3  and  C1'_4 
REMARK    3  A    between atoms: C1'_4  and  C1_5 
ROOT
ATOM      1  C1  N4B d   1       4.110  -2.981  -4.877  0.00  0.00    -0.075 A 
ATOM      2  C2  N4B d   1       3.769  -2.184  -5.992  0.00  0.00     0.002 A 
ATOM      3  C3  N4B d   1       4.079  -0.846  -6.000  0.00  0.00     0.002 A 
ATOM      4  C4  N4B d   1       4.708  -0.281  -4.901  0.00  0.00    -0.004 A 
ATOM      5  C5  N4B d   1       5.057  -1.063  -3.838  0.00  0.00     0.002 A 
ATOM      6  C6  N4B d   1       4.756  -2.410  -3.818  0.00  0.00     0.002 A 
ENDROOT
BRANCH   1   7
ATOM      7  C1' N4B d   1       3.716  -4.430  -4.786  0.00  0.00     0.057 C 
BRANCH   7   8
ATOM      8  C2' N4B d   1       4.962  -5.298  -4.929  0.00  0.00     0.009 C 
BRANCH   8   9
ATOM      9  C3' N4B d   1       5.350  -5.956  -3.616  0.00  0.00     0.004 C 
ATOM     10  C4' N4B d   1       4.219  -6.000  -2.632  0.00  0.00     0.003 C 
ENDBRANCH   8   9
ENDBRANCH   7   8
ENDBRANCH   1   7
TORSDOF 3
ENDMDL
