MODEL 1
REMARK minimizedAffinity 3.08250999
REMARK minimizedRMSD -1
REMARK  3 active torsions:
REMARK  status: ('A' for Active; 'I' for Inactive)
REMARK    1  A    between atoms: C3'_2  and  C2'_3 
REMARK    2  A    between atoms: C2'_3  and  C1'_4 
REMARK    3  A    between atoms: C1'_4  and  C1_5 
ROOT
ATOM      1  C1  N4B d   1      -1.527   0.557  -1.540  0.00  0.00    -0.075 A 
ATOM      2  C2  N4B d   1      -2.374   1.682  -1.646  0.00  0.00     0.002 A 
ATOM      3  C3  N4B d   1      -3.079   1.904  -2.804  0.00  0.00     0.002 A 
ATOM      4  C4  N4B d   1      -2.938   1.030  -3.871  0.00  0.00    -0.004 A 
ATOM      5  C5  N4B d   1      -2.138  -0.069  -3.751  0.00  0.00     0.002 A 
ATOM      6  C6  N4B d   1      -1.427  -0.307  -2.592  0.00  0.00     0.002 A 
ENDROOT
BRANCH   1   7
ATOM      7  C1' N4B d   1      -0.671   0.319  -0.326  0.00  0.00     0.057 C 
BRANCH   7   8
ATOM      8  C2' N4B d   1      -0.451  -1.181  -0.155  0.00  0.00     0.009 C 
BRANCH   8   9
ATOM      9  C3' N4B d   1      -0.776  -1.646   1.255  0.00  0.00     0.004 C 
ATOM     10  C4' N4B d   1      -0.527  -3.111   1.455  0.00  0.00     0.003 C 
ENDBRANCH   8   9
ENDBRANCH   7   8
ENDBRANCH   1   7
TORSDOF 3
ENDMDL
