MODEL 1
REMARK minimizedAffinity -0.501025438
REMARK minimizedRMSD -1
REMARK  3 active torsions:
REMARK  status: ('A' for Active; 'I' for Inactive)
REMARK    1  A    between atoms: C3'_2  and  C2'_3 
REMARK    2  A    between atoms: C2'_3  and  C1'_4 
REMARK    3  A    between atoms: C1'_4  and  C1_5 
ROOT
ATOM      1  C1  N4B d   1       2.830  -0.497   1.873  0.00  0.00    -0.075 A 
ATOM      2  C2  N4B d   1       2.649   0.410   2.940  0.00  0.00     0.002 A 
ATOM      3  C3  N4B d   1       2.459   1.745   2.681  0.00  0.00     0.002 A 
ATOM      4  C4  N4B d   1       2.465   2.198   1.370  0.00  0.00    -0.004 A 
ATOM      5  C5  N4B d   1       2.614   1.311   0.344  0.00  0.00     0.002 A 
ATOM      6  C6  N4B d   1       2.802  -0.034   0.589  0.00  0.00     0.002 A 
ENDROOT
BRANCH   1   7
ATOM      7  C1' N4B d   1       3.126  -1.953   2.109  0.00  0.00     0.057 C 
BRANCH   7   8
ATOM      8  C2' N4B d   1       1.930  -2.787   1.661  0.00  0.00     0.009 C 
BRANCH   8   9
ATOM      9  C3' N4B d   1       0.737  -2.613   2.586  0.00  0.00     0.004 C 
ATOM     10  C4' N4B d   1       1.125  -2.584   4.034  0.00  0.00     0.003 C 
ENDBRANCH   8   9
ENDBRANCH   7   8
ENDBRANCH   1   7
TORSDOF 3
ENDMDL
