MODEL 1
REMARK minimizedAffinity -0.943796635
REMARK minimizedRMSD -1
REMARK  3 active torsions:
REMARK  status: ('A' for Active; 'I' for Inactive)
REMARK    1  A    between atoms: C3'_2  and  C2'_3 
REMARK    2  A    between atoms: C2'_3  and  C1'_4 
REMARK    3  A    between atoms: C1'_4  and  C1_5 
ROOT
ATOM      1  C1  N4B d   1       4.261  -3.674  -5.272  0.00  0.00    -0.075 A 
ATOM      2  C2  N4B d   1       3.734  -3.597  -3.964  0.00  0.00     0.002 A 
ATOM      3  C3  N4B d   1       3.215  -4.720  -3.366  0.00  0.00     0.002 A 
ATOM      4  C4  N4B d   1       3.195  -5.920  -4.061  0.00  0.00    -0.004 A 
ATOM      5  C5  N4B d   1       3.729  -5.991  -5.315  0.00  0.00     0.002 A 
ATOM      6  C6  N4B d   1       4.258  -4.872  -5.926  0.00  0.00     0.002 A 
ENDROOT
BRANCH   1   7
ATOM      7  C1' N4B d   1       4.760  -2.455  -5.999  0.00  0.00     0.057 C 
BRANCH   7   8
ATOM      8  C2' N4B d   1       4.482  -1.217  -5.152  0.00  0.00     0.009 C 
BRANCH   8   9
ATOM      9  C3' N4B d   1       4.005  -0.047  -5.996  0.00  0.00     0.004 C 
ATOM     10  C4' N4B d   1       4.939   1.125  -5.942  0.00  0.00     0.003 C 
ENDBRANCH   8   9
ENDBRANCH   7   8
ENDBRANCH   1   7
TORSDOF 3
ENDMDL
