MODEL 1
REMARK minimizedAffinity 9.85695934
REMARK minimizedRMSD -1
REMARK  1 active torsions:
REMARK  status: ('A' for Active; 'I' for Inactive)
REMARK    1  A    between atoms: C3_4  and  O_7 
ROOT
ATOM      1  C   UNL d   1      -3.240  -5.999  -5.572  0.00  0.00    -0.033 A 
ATOM      2  C1  UNL d   1      -1.890  -5.681  -5.419  0.00  0.00     0.039 A 
ATOM      3  C2  UNL d   1      -1.462  -4.359  -5.558  0.00  0.00    -0.080 A 
ATOM      4  C3  UNL d   1      -2.393  -3.366  -5.849  0.00  0.00     0.150 A 
ATOM      5  C4  UNL d   1      -3.741  -3.676  -6.000  0.00  0.00    -0.007 A 
ATOM      6  C5  UNL d   1      -4.166  -4.996  -5.861  0.00  0.00     0.039 A 
ENDROOT
BRANCH   4   7
ATOM      7  O   UNL d   1      -2.023  -2.063  -5.999  0.00  0.00    -0.526 OA
ATOM      8  H5  UNL d   1      -1.058  -2.004  -5.896  0.00  0.00     0.418 HD
ENDBRANCH   4   7
TORSDOF 1
ENDMDL
