MODEL 1
REMARK minimizedAffinity 9.89764595
REMARK minimizedRMSD -1
REMARK  1 active torsions:
REMARK  status: ('A' for Active; 'I' for Inactive)
REMARK    1  A    between atoms: C3_4  and  O_7 
ROOT
ATOM      1  C   UNL d   1      -5.644  -6.000  -4.771  0.00  0.00    -0.033 A 
ATOM      2  C1  UNL d   1      -4.957  -5.972  -5.986  0.00  0.00     0.039 A 
ATOM      3  C2  UNL d   1      -3.562  -5.924  -6.000  0.00  0.00    -0.080 A 
ATOM      4  C3  UNL d   1      -2.867  -5.906  -4.794  0.00  0.00     0.150 A 
ATOM      5  C4  UNL d   1      -3.545  -5.938  -3.580  0.00  0.00    -0.007 A 
ATOM      6  C5  UNL d   1      -4.938  -5.984  -3.568  0.00  0.00     0.039 A 
ENDROOT
BRANCH   4   7
ATOM      7  O   UNL d   1      -1.505  -5.855  -4.757  0.00  0.00    -0.526 OA
ATOM      8  H5  UNL d   1      -1.174  -5.809  -5.669  0.00  0.00     0.418 HD
ENDBRANCH   4   7
TORSDOF 1
ENDMDL
