MODEL 1
REMARK minimizedAffinity -2.78267026
REMARK minimizedRMSD -1
REMARK  1 active torsions:
REMARK  status: ('A' for Active; 'I' for Inactive)
REMARK    1  A    between atoms: C3_4  and  O_7 
ROOT
ATOM      1  C   UNL d   1      -0.433   1.509   2.022  0.00  0.00    -0.033 A 
ATOM      2  C1  UNL d   1       0.309   2.650   2.335  0.00  0.00     0.039 A 
ATOM      3  C2  UNL d   1       0.712   3.523   1.323  0.00  0.00    -0.080 A 
ATOM      4  C3  UNL d   1       0.367   3.244   0.003  0.00  0.00     0.150 A 
ATOM      5  C4  UNL d   1      -0.375   2.112  -0.316  0.00  0.00    -0.007 A 
ATOM      6  C5  UNL d   1      -0.776   1.241   0.696  0.00  0.00     0.039 A 
ENDROOT
BRANCH   4   7
ATOM      7  O   UNL d   1       0.742   4.064  -1.020  0.00  0.00    -0.526 OA
ATOM      8  H5  UNL d   1       1.274   4.790  -0.653  0.00  0.00     0.418 HD
ENDBRANCH   4   7
TORSDOF 1
ENDMDL
