MODEL 1
REMARK minimizedAffinity 1.57555795
REMARK minimizedRMSD -1
REMARK  1 active torsions:
REMARK  status: ('A' for Active; 'I' for Inactive)
REMARK    1  A    between atoms: C3_4  and  O_7 
ROOT
ATOM      1  C   UNL d   1       1.103   2.094   1.906  0.00  0.00    -0.033 A 
ATOM      2  C1  UNL d   1       1.596   3.379   1.673  0.00  0.00     0.039 A 
ATOM      3  C2  UNL d   1       1.471   3.959   0.409  0.00  0.00    -0.080 A 
ATOM      4  C3  UNL d   1       0.851   3.244  -0.612  0.00  0.00     0.150 A 
ATOM      5  C4  UNL d   1       0.354   1.965  -0.386  0.00  0.00    -0.007 A 
ATOM      6  C5  UNL d   1       0.481   1.387   0.876  0.00  0.00     0.039 A 
ENDROOT
BRANCH   4   7
ATOM      7  O   UNL d   1       0.710   3.767  -1.863  0.00  0.00    -0.526 OA
ATOM      8  H5  UNL d   1       1.126   4.645  -1.879  0.00  0.00     0.418 HD
ENDBRANCH   4   7
TORSDOF 1
ENDMDL
