MODEL 1
REMARK minimizedAffinity -2.95354319
REMARK minimizedRMSD -1
REMARK  1 active torsions:
REMARK  status: ('A' for Active; 'I' for Inactive)
REMARK    1  A    between atoms: C3_4  and  O_7 
ROOT
ATOM      1  C   UNL d   1       4.495  -2.808  -2.167  0.00  0.00    -0.033 A 
ATOM      2  C1  UNL d   1       4.314  -4.092  -2.684  0.00  0.00     0.039 A 
ATOM      3  C2  UNL d   1       3.149  -4.805  -2.396  0.00  0.00    -0.080 A 
ATOM      4  C3  UNL d   1       2.173  -4.223  -1.591  0.00  0.00     0.150 A 
ATOM      5  C4  UNL d   1       2.345  -2.943  -1.076  0.00  0.00    -0.007 A 
ATOM      6  C5  UNL d   1       3.510  -2.232  -1.364  0.00  0.00     0.039 A 
ENDROOT
BRANCH   4   7
ATOM      7  O   UNL d   1       1.021  -4.882  -1.279  0.00  0.00    -0.526 OA
ATOM      8  H5  UNL d   1       1.054  -5.766  -1.681  0.00  0.00     0.418 HD
ENDBRANCH   4   7
TORSDOF 1
ENDMDL
