MODEL 1
REMARK minimizedAffinity -3.81159425
REMARK minimizedRMSD -1
REMARK  1 active torsions:
REMARK  status: ('A' for Active; 'I' for Inactive)
REMARK    1  A    between atoms: C3_4  and  O_7 
ROOT
ATOM      1  C   UNL d   1      -0.017   0.452   1.511  0.00  0.00    -0.033 A 
ATOM      2  C1  UNL d   1       0.273   0.279   0.156  0.00  0.00     0.039 A 
ATOM      3  C2  UNL d   1       0.396   1.390  -0.681  0.00  0.00    -0.080 A 
ATOM      4  C3  UNL d   1       0.227   2.667  -0.151  0.00  0.00     0.150 A 
ATOM      5  C4  UNL d   1      -0.059   2.846   1.198  0.00  0.00    -0.007 A 
ATOM      6  C5  UNL d   1      -0.182   1.736   2.032  0.00  0.00     0.039 A 
ENDROOT
BRANCH   4   7
ATOM      7  O   UNL d   1       0.332   3.781  -0.930  0.00  0.00    -0.526 OA
ATOM      8  H5  UNL d   1       0.504   3.502  -1.844  0.00  0.00     0.418 HD
ENDBRANCH   4   7
TORSDOF 1
ENDMDL
