MODEL 1
REMARK minimizedAffinity 7.40743399
REMARK minimizedRMSD -1
REMARK  1 active torsions:
REMARK  status: ('A' for Active; 'I' for Inactive)
REMARK    1  A    between atoms: C3_4  and  O_7 
ROOT
ATOM      1  C   UNL d   1       0.873   3.340   1.141  0.00  0.00    -0.033 A 
ATOM      2  C1  UNL d   1       0.927   2.835   2.442  0.00  0.00     0.039 A 
ATOM      3  C2  UNL d   1      -0.243   2.711   3.194  0.00  0.00    -0.080 A 
ATOM      4  C3  UNL d   1      -1.459   3.092   2.633  0.00  0.00     0.150 A 
ATOM      5  C4  UNL d   1      -1.521   3.592   1.337  0.00  0.00    -0.007 A 
ATOM      6  C5  UNL d   1      -0.351   3.717   0.588  0.00  0.00     0.039 A 
ENDROOT
BRANCH   4   7
ATOM      7  O   UNL d   1      -2.627   2.994   3.330  0.00  0.00    -0.526 OA
ATOM      8  H5  UNL d   1      -2.427   2.660   4.220  0.00  0.00     0.418 HD
ENDBRANCH   4   7
TORSDOF 1
ENDMDL
