MODEL 1
REMARK minimizedAffinity 10.5834188
REMARK minimizedRMSD -1
REMARK  1 active torsions:
REMARK  status: ('A' for Active; 'I' for Inactive)
REMARK    1  A    between atoms: C3_4  and  O_7 
ROOT
ATOM      1  C   UNL d   1      -0.636   2.151   0.884  0.00  0.00    -0.033 A 
ATOM      2  C1  UNL d   1      -1.420   2.121   2.038  0.00  0.00     0.039 A 
ATOM      3  C2  UNL d   1      -2.362   3.125   2.272  0.00  0.00    -0.080 A 
ATOM      4  C3  UNL d   1      -2.509   4.152   1.344  0.00  0.00     0.150 A 
ATOM      5  C4  UNL d   1      -1.734   4.187   0.189  0.00  0.00    -0.007 A 
ATOM      6  C5  UNL d   1      -0.794   3.183  -0.042  0.00  0.00     0.039 A 
ENDROOT
BRANCH   4   7
ATOM      7  O   UNL d   1      -3.412   5.157   1.530  0.00  0.00    -0.526 OA
ATOM      8  H5  UNL d   1      -3.855   5.018   2.384  0.00  0.00     0.418 HD
ENDBRANCH   4   7
TORSDOF 1
ENDMDL
