MODEL 1
REMARK minimizedAffinity 5.37682915
REMARK minimizedRMSD -1
REMARK  1 active torsions:
REMARK  status: ('A' for Active; 'I' for Inactive)
REMARK    1  A    between atoms: C3_4  and  O_7 
ROOT
ATOM      1  C   UNL d   1      -3.531  -5.618  -6.000  0.00  0.00    -0.033 A 
ATOM      2  C1  UNL d   1      -2.188  -5.999  -5.995  0.00  0.00     0.039 A 
ATOM      3  C2  UNL d   1      -1.250  -5.247  -5.286  0.00  0.00    -0.080 A 
ATOM      4  C3  UNL d   1      -1.666  -4.118  -4.586  0.00  0.00     0.150 A 
ATOM      5  C4  UNL d   1      -3.003  -3.734  -4.584  0.00  0.00    -0.007 A 
ATOM      6  C5  UNL d   1      -3.939  -4.486  -5.293  0.00  0.00     0.039 A 
ENDROOT
BRANCH   4   7
ATOM      7  O   UNL d   1      -0.786  -3.350  -3.884  0.00  0.00    -0.526 OA
ATOM      8  H5  UNL d   1       0.105  -3.719  -4.000  0.00  0.00     0.418 HD
ENDBRANCH   4   7
TORSDOF 1
ENDMDL
