MODEL 1
REMARK minimizedAffinity 0.256722212
REMARK minimizedRMSD -1
REMARK  0 active torsions:
REMARK  status: ('A' for Active; 'I' for Inactive)
ROOT
ATOM      1  O1  BZF d   1       1.780  -0.016  -5.999  0.00  0.00    -0.204 OA
ATOM      2  C2  BZF d   1       3.070  -0.293  -5.590  0.00  0.00     0.174 A 
ATOM      3  C3  BZF d   1       3.068  -1.114  -4.520  0.00  0.00    -0.012 A 
ATOM      4  C3A BZF d   1       1.692  -1.440  -4.300  0.00  0.00    -0.107 A 
ATOM      5  C4  BZF d   1       1.048  -2.229  -3.390  0.00  0.00     0.055 A 
ATOM      6  C5  BZF d   1      -0.310  -2.276  -3.400  0.00  0.00    -0.016 A 
ATOM      7  C6  BZF d   1      -1.055  -1.543  -4.300  0.00  0.00     0.022 A 
ATOM      8  C7  BZF d   1      -0.461  -0.750  -5.225  0.00  0.00     0.029 A 
ATOM      9  C7A BZF d   1       0.912  -0.726  -5.239  0.00  0.00     0.058 A 
ENDROOT
TORSDOF 0
ENDMDL
