MODEL 1
REMARK minimizedAffinity 7.42147827
REMARK minimizedRMSD -1
REMARK  0 active torsions:
REMARK  status: ('A' for Active; 'I' for Inactive)
ROOT
ATOM      1  O1  BZF d   1       0.031  -0.427  -5.925  0.00  0.00    -0.204 OA
ATOM      2  C2  BZF d   1      -0.907  -0.966  -5.067  0.00  0.00     0.174 A 
ATOM      3  C3  BZF d   1      -0.308  -1.673  -4.087  0.00  0.00    -0.012 A 
ATOM      4  C3A BZF d   1       1.096  -1.492  -4.296  0.00  0.00    -0.107 A 
ATOM      5  C4  BZF d   1       2.208  -1.934  -3.639  0.00  0.00     0.055 A 
ATOM      6  C5  BZF d   1       3.435  -1.638  -4.144  0.00  0.00    -0.016 A 
ATOM      7  C6  BZF d   1       3.586  -0.909  -5.305  0.00  0.00     0.022 A 
ATOM      8  C7  BZF d   1       2.512  -0.444  -5.989  0.00  0.00     0.029 A 
ATOM      9  C7A BZF d   1       1.272  -0.713  -5.464  0.00  0.00     0.058 A 
ENDROOT
TORSDOF 0
ENDMDL
