MODEL 1
REMARK minimizedAffinity 11.8692074
REMARK minimizedRMSD -1
REMARK  0 active torsions:
REMARK  status: ('A' for Active; 'I' for Inactive)
ROOT
ATOM      1  O1  BZF d   1       3.392  -0.004  -5.991  0.00  0.00    -0.204 OA
ATOM      2  C2  BZF d   1       4.366  -0.625  -5.235  0.00  0.00     0.174 A 
ATOM      3  C3  BZF d   1       3.811  -1.399  -4.281  0.00  0.00    -0.012 A 
ATOM      4  C3A BZF d   1       2.400  -1.325  -4.510  0.00  0.00    -0.107 A 
ATOM      5  C4  BZF d   1       1.318  -1.891  -3.899  0.00  0.00     0.055 A 
ATOM      6  C5  BZF d   1       0.071  -1.556  -4.321  0.00  0.00    -0.016 A 
ATOM      7  C6  BZF d   1      -0.132  -0.655  -5.345  0.00  0.00     0.022 A 
ATOM      8  C7  BZF d   1       0.911  -0.071  -5.986  0.00  0.00     0.029 A 
ATOM      9  C7A BZF d   1       2.173  -0.433  -5.584  0.00  0.00     0.058 A 
ENDROOT
TORSDOF 0
ENDMDL
