MODEL 1
REMARK minimizedAffinity 5.58488607
REMARK minimizedRMSD -1
REMARK  0 active torsions:
REMARK  status: ('A' for Active; 'I' for Inactive)
ROOT
ATOM      1  O1  BZF d   1       3.237  -5.989  -4.437  0.00  0.00    -0.204 OA
ATOM      2  C2  BZF d   1       3.360  -5.971  -3.061  0.00  0.00     0.174 A 
ATOM      3  C3  BZF d   1       2.149  -5.884  -2.473  0.00  0.00    -0.012 A 
ATOM      4  C3A BZF d   1       1.205  -5.938  -3.547  0.00  0.00    -0.107 A 
ATOM      5  C4  BZF d   1      -0.159  -5.911  -3.600  0.00  0.00     0.055 A 
ATOM      6  C5  BZF d   1      -0.773  -5.907  -4.812  0.00  0.00    -0.016 A 
ATOM      7  C6  BZF d   1      -0.055  -5.924  -5.990  0.00  0.00     0.022 A 
ATOM      8  C7  BZF d   1       1.300  -5.956  -5.988  0.00  0.00     0.029 A 
ATOM      9  C7A BZF d   1       1.922  -5.993  -4.764  0.00  0.00     0.058 A 
ENDROOT
TORSDOF 0
ENDMDL
