MODEL 1
REMARK minimizedAffinity 10.1023331
REMARK minimizedRMSD -1
REMARK  0 active torsions:
REMARK  status: ('A' for Active; 'I' for Inactive)
ROOT
ATOM      1  O1  BZF d   1       1.903   1.515  -5.645  0.00  0.00    -0.204 OA
ATOM      2  C2  BZF d   1       3.043   0.778  -5.902  0.00  0.00     0.174 A 
ATOM      3  C3  BZF d   1       2.752  -0.535  -6.000  0.00  0.00    -0.012 A 
ATOM      4  C3A BZF d   1       1.328  -0.615  -5.883  0.00  0.00    -0.107 A 
ATOM      5  C4  BZF d   1       0.440  -1.652  -5.917  0.00  0.00     0.055 A 
ATOM      6  C5  BZF d   1      -0.878  -1.400  -5.699  0.00  0.00    -0.016 A 
ATOM      7  C6  BZF d   1      -1.340  -0.127  -5.438  0.00  0.00     0.022 A 
ATOM      8  C7  BZF d   1      -0.498   0.934  -5.398  0.00  0.00     0.029 A 
ATOM      9  C7A BZF d   1       0.830   0.688  -5.651  0.00  0.00     0.058 A 
ENDROOT
TORSDOF 0
ENDMDL
