MODEL 1
REMARK minimizedAffinity 11.5699444
REMARK minimizedRMSD -1
REMARK  0 active torsions:
REMARK  status: ('A' for Active; 'I' for Inactive)
ROOT
ATOM      1  O1  BZF d   1      -1.192  -3.203   2.611  0.00  0.00    -0.204 OA
ATOM      2  C2  BZF d   1      -2.261  -2.494   2.098  0.00  0.00     0.174 A 
ATOM      3  C3  BZF d   1      -2.034  -1.167   2.171  0.00  0.00    -0.012 A 
ATOM      4  C3A BZF d   1      -0.704  -1.040   2.682  0.00  0.00    -0.107 A 
ATOM      5  C4  BZF d   1       0.096   0.031   2.963  0.00  0.00     0.055 A 
ATOM      6  C5  BZF d   1       1.316  -0.185   3.521  0.00  0.00    -0.016 A 
ATOM      7  C6  BZF d   1       1.766  -1.455   3.815  0.00  0.00     0.022 A 
ATOM      8  C7  BZF d   1       1.010  -2.549   3.550  0.00  0.00     0.029 A 
ATOM      9  C7A BZF d   1      -0.210  -2.336   2.956  0.00  0.00     0.058 A 
ENDROOT
TORSDOF 0
ENDMDL
