MODEL 1
REMARK minimizedAffinity 6.41706228
REMARK minimizedRMSD -1
REMARK  0 active torsions:
REMARK  status: ('A' for Active; 'I' for Inactive)
ROOT
ATOM      1  O1  BZF d   1       1.556  -2.070   2.168  0.00  0.00    -0.204 OA
ATOM      2  C2  BZF d   1       0.197  -1.835   2.087  0.00  0.00     0.174 A 
ATOM      3  C3  BZF d   1      -0.290  -1.431   3.278  0.00  0.00    -0.012 A 
ATOM      4  C3A BZF d   1       0.851  -1.323   4.135  0.00  0.00    -0.107 A 
ATOM      5  C4  BZF d   1       1.014  -0.951   5.438  0.00  0.00     0.055 A 
ATOM      6  C5  BZF d   1       2.250  -1.025   5.997  0.00  0.00    -0.016 A 
ATOM      7  C6  BZF d   1       3.344  -1.471   5.283  0.00  0.00     0.022 A 
ATOM      8  C7  BZF d   1       3.232  -1.846   3.986  0.00  0.00     0.029 A 
ATOM      9  C7A BZF d   1       1.990  -1.741   3.409  0.00  0.00     0.058 A 
ENDROOT
TORSDOF 0
ENDMDL
