MODEL 1
REMARK minimizedAffinity 6.89981461
REMARK minimizedRMSD -1
REMARK  0 active torsions:
REMARK  status: ('A' for Active; 'I' for Inactive)
ROOT
ATOM      1  O1  BZF d   1       3.491  -1.110  -3.920  0.00  0.00    -0.204 OA
ATOM      2  C2  BZF d   1       4.157  -0.563  -5.000  0.00  0.00     0.174 A 
ATOM      3  C3  BZF d   1       3.297  -0.282  -6.000  0.00  0.00    -0.012 A 
ATOM      4  C3A BZF d   1       2.001  -0.593  -5.480  0.00  0.00    -0.107 A 
ATOM      5  C4  BZF d   1       0.739  -0.510  -5.995  0.00  0.00     0.055 A 
ATOM      6  C5  BZF d   1      -0.307  -0.962  -5.254  0.00  0.00    -0.016 A 
ATOM      7  C6  BZF d   1      -0.127  -1.507  -4.000  0.00  0.00     0.022 A 
ATOM      8  C7  BZF d   1       1.106  -1.605  -3.445  0.00  0.00     0.029 A 
ATOM      9  C7A BZF d   1       2.161  -1.119  -4.178  0.00  0.00     0.058 A 
ENDROOT
TORSDOF 0
ENDMDL
