MODEL 1
REMARK minimizedAffinity 7.91789579
REMARK minimizedRMSD -1
REMARK  0 active torsions:
REMARK  status: ('A' for Active; 'I' for Inactive)
ROOT
ATOM      1  O1  BZF d   1       1.773   0.140  -5.987  0.00  0.00    -0.204 OA
ATOM      2  C2  BZF d   1       0.821  -0.474  -5.196  0.00  0.00     0.174 A 
ATOM      3  C3  BZF d   1       1.405  -1.216  -4.233  0.00  0.00    -0.012 A 
ATOM      4  C3A BZF d   1       2.810  -0.982  -4.377  0.00  0.00    -0.107 A 
ATOM      5  C4  BZF d   1       3.910  -1.426  -3.702  0.00  0.00     0.055 A 
ATOM      6  C5  BZF d   1       5.145  -1.067  -4.141  0.00  0.00    -0.016 A 
ATOM      7  C6  BZF d   1       5.316  -0.270  -5.254  0.00  0.00     0.022 A 
ATOM      8  C7  BZF d   1       4.254   0.199  -5.954  0.00  0.00     0.029 A 
ATOM      9  C7A BZF d   1       3.005  -0.135  -5.493  0.00  0.00     0.058 A 
ENDROOT
TORSDOF 0
ENDMDL
