MODEL 1
REMARK minimizedAffinity 4.47798395
REMARK minimizedRMSD -1
REMARK  0 active torsions:
REMARK  status: ('A' for Active; 'I' for Inactive)
ROOT
ATOM      1  O1  BZF d   1       1.599  -1.027  -4.022  0.00  0.00    -0.204 OA
ATOM      2  C2  BZF d   1       0.832  -0.592  -5.085  0.00  0.00     0.174 A 
ATOM      3  C3  BZF d   1       1.596   0.039  -6.000  0.00  0.00    -0.012 A 
ATOM      4  C3A BZF d   1       2.938  -0.086  -5.519  0.00  0.00    -0.107 A 
ATOM      5  C4  BZF d   1       4.149   0.324  -6.000  0.00  0.00     0.055 A 
ATOM      6  C5  BZF d   1       5.264   0.107  -5.253  0.00  0.00    -0.016 A 
ATOM      7  C6  BZF d   1       5.203  -0.511  -4.021  0.00  0.00     0.022 A 
ATOM      8  C7  BZF d   1       4.025  -0.939  -3.505  0.00  0.00     0.029 A 
ATOM      9  C7A BZF d   1       2.902  -0.751  -4.272  0.00  0.00     0.058 A 
ENDROOT
TORSDOF 0
ENDMDL
