MODEL 1
REMARK minimizedAffinity -3.53862643
REMARK minimizedRMSD -1
REMARK  0 active torsions:
REMARK  status: ('A' for Active; 'I' for Inactive)
ROOT
ATOM      1  C   UNL d   1       2.366  -1.113   2.092  0.00  0.00    -0.002 A 
ATOM      2  C1  UNL d   1       1.365  -1.107   3.052  0.00  0.00     0.010 A 
ATOM      3  C2  UNL d   1       0.094  -0.612   2.750  0.00  0.00     0.041 A 
ATOM      4  C3  UNL d   1      -0.155  -0.120   1.454  0.00  0.00    -0.075 A 
ATOM      5  S   UNL d   1      -1.635   0.534   0.857  0.00  0.00     0.015 SA
ATOM      6  C4  UNL d   1      -0.972   0.819  -0.687  0.00  0.00     0.022 A 
ATOM      7  C5  UNL d   1       0.345   0.432  -0.763  0.00  0.00     0.026 A 
ATOM      8  C6  UNL d   1       0.837  -0.117   0.470  0.00  0.00    -0.082 A 
ATOM      9  C7  UNL d   1       2.115  -0.624   0.807  0.00  0.00     0.045 A 
ENDROOT
TORSDOF 0
ENDMDL
