MODEL 1
REMARK minimizedAffinity 0.849303067
REMARK minimizedRMSD -1
REMARK  0 active torsions:
REMARK  status: ('A' for Active; 'I' for Inactive)
ROOT
ATOM      1  C   UNL d   1      -0.868  -0.141   2.628  0.00  0.00    -0.002 A 
ATOM      2  C1  UNL d   1       0.354  -0.796   2.671  0.00  0.00     0.010 A 
ATOM      3  C2  UNL d   1       1.120  -0.946   1.513  0.00  0.00     0.041 A 
ATOM      4  C3  UNL d   1       0.633  -0.420   0.300  0.00  0.00    -0.075 A 
ATOM      5  S   UNL d   1       1.399  -0.484  -1.243  0.00  0.00     0.015 SA
ATOM      6  C4  UNL d   1       0.122   0.358  -1.995  0.00  0.00     0.022 A 
ATOM      7  C5  UNL d   1      -0.873   0.687  -1.105  0.00  0.00     0.026 A 
ATOM      8  C6  UNL d   1      -0.595   0.245   0.233  0.00  0.00    -0.082 A 
ATOM      9  C7  UNL d   1      -1.348   0.380   1.424  0.00  0.00     0.045 A 
ENDROOT
TORSDOF 0
ENDMDL
