MODEL 1
REMARK minimizedAffinity -1.70297384
REMARK minimizedRMSD -1
REMARK  0 active torsions:
REMARK  status: ('A' for Active; 'I' for Inactive)
ROOT
ATOM      1  C   UNL d   1       1.143  -0.943   2.690  0.00  0.00    -0.002 A 
ATOM      2  C1  UNL d   1       2.281  -1.224   1.948  0.00  0.00     0.010 A 
ATOM      3  C2  UNL d   1       2.284  -1.054   0.562  0.00  0.00     0.041 A 
ATOM      4  C3  UNL d   1       1.113  -0.592  -0.071  0.00  0.00    -0.075 A 
ATOM      5  S   UNL d   1       0.885  -0.309  -1.756  0.00  0.00     0.015 SA
ATOM      6  C4  UNL d   1      -0.728   0.192  -1.530  0.00  0.00     0.022 A 
ATOM      7  C5  UNL d   1      -1.100   0.151  -0.207  0.00  0.00     0.026 A 
ATOM      8  C6  UNL d   1      -0.045  -0.302   0.656  0.00  0.00    -0.082 A 
ATOM      9  C7  UNL d   1      -0.016  -0.484   2.059  0.00  0.00     0.045 A 
ENDROOT
TORSDOF 0
ENDMDL
