MODEL 1
REMARK minimizedAffinity -3.51733041
REMARK minimizedRMSD -1
REMARK  0 active torsions:
REMARK  status: ('A' for Active; 'I' for Inactive)
ROOT
ATOM      1  C   UNL d   1       0.958  -0.442   3.116  0.00  0.00    -0.002 A 
ATOM      2  C1  UNL d   1      -0.359  -0.066   2.889  0.00  0.00     0.010 A 
ATOM      3  C2  UNL d   1      -0.857   0.030   1.588  0.00  0.00     0.041 A 
ATOM      4  C3  UNL d   1      -0.001  -0.263   0.508  0.00  0.00    -0.075 A 
ATOM      5  S   UNL d   1      -0.392  -0.214  -1.170  0.00  0.00     0.015 SA
ATOM      6  C4  UNL d   1       1.180  -0.692  -1.626  0.00  0.00     0.022 A 
ATOM      7  C5  UNL d   1       1.995  -0.888  -0.537  0.00  0.00     0.026 A 
ATOM      8  C6  UNL d   1       1.328  -0.644   0.711  0.00  0.00    -0.082 A 
ATOM      9  C7  UNL d   1       1.803  -0.731   2.042  0.00  0.00     0.045 A 
ENDROOT
TORSDOF 0
ENDMDL
