MODEL 1
REMARK minimizedAffinity 13.8412266
REMARK minimizedRMSD -1
REMARK  0 active torsions:
REMARK  status: ('A' for Active; 'I' for Inactive)
ROOT
ATOM      1  C   UNL d   1      -5.531  -2.341  -1.789  0.00  0.00     0.077 C 
ATOM      2  C1  UNL d   1      -5.326  -3.622  -1.036  0.00  0.00    -0.074 A 
ATOM      3  C2  UNL d   1      -4.713  -4.722  -1.644  0.00  0.00    -0.005 A 
ATOM      4  C3  UNL d   1      -4.521  -5.904  -0.928  0.00  0.00     0.006 A 
ATOM      5  C4  UNL d   1      -4.939  -5.997   0.400  0.00  0.00    -0.005 A 
ATOM      6  C5  UNL d   1      -5.553  -4.907   1.024  0.00  0.00    -0.074 A 
ATOM      7  C6  UNL d   1      -5.999  -4.987   2.454  0.00  0.00     0.077 C 
ATOM      8  C7  UNL d   1      -5.736  -3.720   0.301  0.00  0.00    -0.001 A 
ENDROOT
TORSDOF 0
ENDMDL
