MODEL 1
REMARK minimizedAffinity 14.3485851
REMARK minimizedRMSD -1
REMARK  0 active torsions:
REMARK  status: ('A' for Active; 'I' for Inactive)
ROOT
ATOM      1  C   UNL d   1       0.377   1.955   2.279  0.00  0.00     0.077 C 
ATOM      2  C1  UNL d   1      -0.874   1.156   2.064  0.00  0.00    -0.074 A 
ATOM      3  C2  UNL d   1      -1.054  -0.080   2.694  0.00  0.00    -0.005 A 
ATOM      4  C3  UNL d   1      -2.227  -0.808   2.492  0.00  0.00     0.006 A 
ATOM      5  C4  UNL d   1      -3.230  -0.308   1.661  0.00  0.00    -0.005 A 
ATOM      6  C5  UNL d   1      -3.068   0.926   1.024  0.00  0.00    -0.074 A 
ATOM      7  C6  UNL d   1      -4.141   1.483   0.136  0.00  0.00     0.077 C 
ATOM      8  C7  UNL d   1      -1.890   1.655   1.237  0.00  0.00    -0.001 A 
ENDROOT
TORSDOF 0
ENDMDL
