MODEL 1
REMARK minimizedAffinity 7.72427797
REMARK minimizedRMSD -1
REMARK  0 active torsions:
REMARK  status: ('A' for Active; 'I' for Inactive)
ROOT
ATOM      1  C   UNL d   1      -4.977  -3.461   2.742  0.00  0.00     0.077 C 
ATOM      2  C1  UNL d   1      -5.061  -3.514   1.245  0.00  0.00    -0.074 A 
ATOM      3  C2  UNL d   1      -5.509  -2.410   0.511  0.00  0.00    -0.005 A 
ATOM      4  C3  UNL d   1      -5.573  -2.471  -0.881  0.00  0.00     0.006 A 
ATOM      5  C4  UNL d   1      -5.191  -3.633  -1.552  0.00  0.00    -0.005 A 
ATOM      6  C5  UNL d   1      -4.740  -4.746  -0.835  0.00  0.00    -0.074 A 
ATOM      7  C6  UNL d   1      -4.316  -5.999  -1.541  0.00  0.00     0.077 C 
ATOM      8  C7  UNL d   1      -4.672  -4.675   0.563  0.00  0.00    -0.001 A 
ENDROOT
TORSDOF 0
ENDMDL
