MODEL 1
REMARK minimizedAffinity 10.0143423
REMARK minimizedRMSD -1
REMARK  0 active torsions:
REMARK  status: ('A' for Active; 'I' for Inactive)
ROOT
ATOM      1  C   UNL d   1       1.058   1.833   2.617  0.00  0.00     0.077 C 
ATOM      2  C1  UNL d   1      -0.402   1.820   2.275  0.00  0.00    -0.074 A 
ATOM      3  C2  UNL d   1      -1.173   2.982   2.371  0.00  0.00    -0.005 A 
ATOM      4  C3  UNL d   1      -2.528   2.956   2.040  0.00  0.00     0.006 A 
ATOM      5  C4  UNL d   1      -3.124   1.770   1.611  0.00  0.00    -0.005 A 
ATOM      6  C5  UNL d   1      -2.368   0.598   1.507  0.00  0.00    -0.074 A 
ATOM      7  C6  UNL d   1      -2.991  -0.683   1.037  0.00  0.00     0.077 C 
ATOM      8  C7  UNL d   1      -1.006   0.633   1.835  0.00  0.00    -0.001 A 
ENDROOT
TORSDOF 0
ENDMDL
