MODEL 1
REMARK minimizedAffinity -3.9370091
REMARK minimizedRMSD -1
REMARK  0 active torsions:
REMARK  status: ('A' for Active; 'I' for Inactive)
ROOT
ATOM      1  C   UNL d   1      -5.547  -1.085  -3.715  0.00  0.00     0.077 C 
ATOM      2  C1  UNL d   1      -4.271  -0.987  -2.933  0.00  0.00    -0.074 A 
ATOM      3  C2  UNL d   1      -4.107  -0.013  -1.943  0.00  0.00    -0.005 A 
ATOM      4  C3  UNL d   1      -2.918   0.059  -1.217  0.00  0.00     0.006 A 
ATOM      5  C4  UNL d   1      -1.882  -0.840  -1.474  0.00  0.00    -0.005 A 
ATOM      6  C5  UNL d   1      -2.028  -1.821  -2.459  0.00  0.00    -0.074 A 
ATOM      7  C6  UNL d   1      -0.929  -2.802  -2.741  0.00  0.00     0.077 C 
ATOM      8  C7  UNL d   1      -3.229  -1.892  -3.179  0.00  0.00    -0.001 A 
ENDROOT
TORSDOF 0
ENDMDL
