MODEL 1
REMARK minimizedAffinity 2.99926138
REMARK minimizedRMSD -1
REMARK  0 active torsions:
REMARK  status: ('A' for Active; 'I' for Inactive)
ROOT
ATOM      1  C   UNL d   1       4.101   0.132  -3.703  0.00  0.00     0.077 C 
ATOM      2  C1  UNL d   1       2.818  -0.419  -3.156  0.00  0.00    -0.074 A 
ATOM      3  C2  UNL d   1       2.275  -1.607  -3.655  0.00  0.00    -0.005 A 
ATOM      4  C3  UNL d   1       1.086  -2.112  -3.130  0.00  0.00     0.006 A 
ATOM      5  C4  UNL d   1       0.428  -1.435  -2.103  0.00  0.00    -0.005 A 
ATOM      6  C5  UNL d   1       0.955  -0.245  -1.591  0.00  0.00    -0.074 A 
ATOM      7  C6  UNL d   1       0.266   0.490  -0.481  0.00  0.00     0.077 C 
ATOM      8  C7  UNL d   1       2.155   0.252  -2.119  0.00  0.00    -0.001 A 
ENDROOT
TORSDOF 0
ENDMDL
