MODEL 1
REMARK minimizedAffinity -5.00718641
REMARK minimizedRMSD -1
REMARK  0 active torsions:
REMARK  status: ('A' for Active; 'I' for Inactive)
ROOT
ATOM      1  C   UNL d   1      -2.580  -0.460  -0.822  0.00  0.00     0.077 C 
ATOM      2  C1  UNL d   1      -1.823  -1.282  -1.823  0.00  0.00    -0.074 A 
ATOM      3  C2  UNL d   1      -0.810  -0.713  -2.601  0.00  0.00    -0.005 A 
ATOM      4  C3  UNL d   1      -0.108  -1.492  -3.521  0.00  0.00     0.006 A 
ATOM      5  C4  UNL d   1      -0.413  -2.845  -3.672  0.00  0.00    -0.005 A 
ATOM      6  C5  UNL d   1      -1.423  -3.432  -2.903  0.00  0.00    -0.074 A 
ATOM      7  C6  UNL d   1      -1.756  -4.887  -3.046  0.00  0.00     0.077 C 
ATOM      8  C7  UNL d   1      -2.118  -2.644  -1.975  0.00  0.00    -0.001 A 
ENDROOT
TORSDOF 0
ENDMDL
