MODEL 1
REMARK minimizedAffinity -5.08843327
REMARK minimizedRMSD -1
REMARK  0 active torsions:
REMARK  status: ('A' for Active; 'I' for Inactive)
ROOT
ATOM      1  C   UNL d   1      -1.900  -0.208  -1.941  0.00  0.00     0.077 C 
ATOM      2  C1  UNL d   1      -0.887  -0.024  -0.850  0.00  0.00    -0.074 A 
ATOM      3  C2  UNL d   1       0.404   0.430  -1.137  0.00  0.00    -0.005 A 
ATOM      4  C3  UNL d   1       1.332   0.605  -0.111  0.00  0.00     0.006 A 
ATOM      5  C4  UNL d   1       0.979   0.330   1.210  0.00  0.00    -0.005 A 
ATOM      6  C5  UNL d   1      -0.308  -0.124   1.517  0.00  0.00    -0.074 A 
ATOM      7  C6  UNL d   1      -0.707  -0.415   2.933  0.00  0.00     0.077 C 
ATOM      8  C7  UNL d   1      -1.237  -0.291   0.481  0.00  0.00    -0.001 A 
ENDROOT
TORSDOF 0
ENDMDL
