MODEL 1
REMARK minimizedAffinity -4.7114706
REMARK minimizedRMSD -1
REMARK  0 active torsions:
REMARK  status: ('A' for Active; 'I' for Inactive)
ROOT
ATOM      1  C   UNL d   1      -2.112   0.604  -1.137  0.00  0.00     0.077 C 
ATOM      2  C1  UNL d   1      -1.490  -0.244  -2.205  0.00  0.00    -0.074 A 
ATOM      3  C2  UNL d   1      -2.260  -0.767  -3.248  0.00  0.00    -0.005 A 
ATOM      4  C3  UNL d   1      -1.666  -1.547  -4.240  0.00  0.00     0.006 A 
ATOM      5  C4  UNL d   1      -0.296  -1.812  -4.198  0.00  0.00    -0.005 A 
ATOM      6  C5  UNL d   1       0.491  -1.297  -3.163  0.00  0.00    -0.074 A 
ATOM      7  C6  UNL d   1       1.966  -1.564  -3.109  0.00  0.00     0.077 C 
ATOM      8  C7  UNL d   1      -0.113  -0.509  -2.174  0.00  0.00    -0.001 A 
ENDROOT
TORSDOF 0
ENDMDL
