MODEL 1
REMARK minimizedAffinity -1.3751725
REMARK minimizedRMSD -1
REMARK  0 active torsions:
REMARK  status: ('A' for Active; 'I' for Inactive)
ROOT
ATOM      1  C   UNL d   1       1.675   0.270  -2.876  0.00  0.00     0.077 C 
ATOM      2  C1  UNL d   1       0.699   0.265  -1.738  0.00  0.00    -0.074 A 
ATOM      3  C2  UNL d   1       1.139   0.347  -0.413  0.00  0.00    -0.005 A 
ATOM      4  C3  UNL d   1       0.219   0.351   0.635  0.00  0.00     0.006 A 
ATOM      5  C4  UNL d   1      -1.149   0.272   0.370  0.00  0.00    -0.005 A 
ATOM      6  C5  UNL d   1      -1.608   0.190  -0.949  0.00  0.00    -0.074 A 
ATOM      7  C6  UNL d   1      -3.075   0.115  -1.252  0.00  0.00     0.077 C 
ATOM      8  C7  UNL d   1      -0.677   0.194  -1.997  0.00  0.00    -0.001 A 
ENDROOT
TORSDOF 0
ENDMDL
