MODEL 1
REMARK minimizedAffinity -1.46535587
REMARK minimizedRMSD -1
REMARK  0 active torsions:
REMARK  status: ('A' for Active; 'I' for Inactive)
ROOT
ATOM      1  C   UNL d   1       1.074   0.928  -0.050  0.00  0.00     0.077 C 
ATOM      2  C1  UNL d   1       0.941  -0.101  -1.134  0.00  0.00    -0.074 A 
ATOM      3  C2  UNL d   1       2.010  -0.387  -1.988  0.00  0.00    -0.005 A 
ATOM      4  C3  UNL d   1       1.875  -1.353  -2.985  0.00  0.00     0.006 A 
ATOM      5  C4  UNL d   1       0.671  -2.042  -3.137  0.00  0.00    -0.005 A 
ATOM      6  C5  UNL d   1      -0.410  -1.769  -2.292  0.00  0.00    -0.074 A 
ATOM      7  C6  UNL d   1      -1.708  -2.506  -2.436  0.00  0.00     0.077 C 
ATOM      8  C7  UNL d   1      -0.263  -0.802  -1.288  0.00  0.00    -0.001 A 
ENDROOT
TORSDOF 0
ENDMDL
