MODEL 1
REMARK minimizedAffinity -3.34141445
REMARK minimizedRMSD -1
REMARK  0 active torsions:
REMARK  status: ('A' for Active; 'I' for Inactive)
ROOT
ATOM      1  C   UNL d   1      -2.452  -2.758  -2.357  0.00  0.00     0.077 C 
ATOM      2  C1  UNL d   1      -1.342  -1.770  -2.149  0.00  0.00    -0.074 A 
ATOM      3  C2  UNL d   1      -1.447  -0.763  -1.184  0.00  0.00    -0.005 A 
ATOM      4  C3  UNL d   1      -0.403   0.142  -0.995  0.00  0.00     0.006 A 
ATOM      5  C4  UNL d   1       0.754   0.051  -1.769  0.00  0.00    -0.005 A 
ATOM      6  C5  UNL d   1       0.878  -0.949  -2.739  0.00  0.00    -0.074 A 
ATOM      7  C6  UNL d   1       2.119  -1.067  -3.573  0.00  0.00     0.077 C 
ATOM      8  C7  UNL d   1      -0.173  -1.860  -2.917  0.00  0.00    -0.001 A 
ENDROOT
TORSDOF 0
ENDMDL
