MODEL 1
REMARK minimizedAffinity -5.90696621
REMARK minimizedRMSD -1
REMARK  0 active torsions:
REMARK  status: ('A' for Active; 'I' for Inactive)
ROOT
ATOM      1  C   UNL d   1      -1.033  -0.392   2.978  0.00  0.00     0.077 C 
ATOM      2  C1  UNL d   1      -0.747  -0.133   1.529  0.00  0.00    -0.074 A 
ATOM      3  C2  UNL d   1       0.464   0.438   1.126  0.00  0.00    -0.005 A 
ATOM      4  C3  UNL d   1       0.720   0.665  -0.226  0.00  0.00     0.006 A 
ATOM      5  C4  UNL d   1      -0.232   0.324  -1.188  0.00  0.00    -0.005 A 
ATOM      6  C5  UNL d   1      -1.449  -0.249  -0.804  0.00  0.00    -0.074 A 
ATOM      7  C6  UNL d   1      -2.478  -0.631  -1.826  0.00  0.00     0.077 C 
ATOM      8  C7  UNL d   1      -1.695  -0.480   0.556  0.00  0.00    -0.001 A 
ENDROOT
TORSDOF 0
ENDMDL
