MODEL 1
REMARK minimizedAffinity -5.98217154
REMARK minimizedRMSD -1
REMARK  0 active torsions:
REMARK  status: ('A' for Active; 'I' for Inactive)
ROOT
ATOM      1  C   UNL d   1       0.051   0.775  -1.743  0.00  0.00     0.077 C 
ATOM      2  C1  UNL d   1      -0.926   0.249  -0.735  0.00  0.00    -0.074 A 
ATOM      3  C2  UNL d   1      -2.248  -0.035  -1.095  0.00  0.00    -0.005 A 
ATOM      4  C3  UNL d   1      -3.143  -0.534  -0.148  0.00  0.00     0.006 A 
ATOM      5  C4  UNL d   1      -2.727  -0.753   1.165  0.00  0.00    -0.005 A 
ATOM      6  C5  UNL d   1      -1.409  -0.476   1.543  0.00  0.00    -0.074 A 
ATOM      7  C6  UNL d   1      -0.943  -0.715   2.949  0.00  0.00     0.077 C 
ATOM      8  C7  UNL d   1      -0.514   0.018   0.585  0.00  0.00    -0.001 A 
ENDROOT
TORSDOF 0
ENDMDL
