MODEL 1
REMARK minimizedAffinity -3.2835176
REMARK minimizedRMSD -1
REMARK  0 active torsions:
REMARK  status: ('A' for Active; 'I' for Inactive)
ROOT
ATOM      1  C   UNL d   1      -2.357   0.542  -1.008  0.00  0.00     0.077 C 
ATOM      2  C1  UNL d   1      -1.113   0.509  -0.170  0.00  0.00    -0.074 A 
ATOM      3  C2  UNL d   1       0.152   0.626  -0.756  0.00  0.00    -0.005 A 
ATOM      4  C3  UNL d   1       1.299   0.603   0.037  0.00  0.00     0.006 A 
ATOM      5  C4  UNL d   1       1.193   0.464   1.421  0.00  0.00    -0.005 A 
ATOM      6  C5  UNL d   1      -0.063   0.347   2.025  0.00  0.00    -0.074 A 
ATOM      7  C6  UNL d   1      -0.194   0.207   3.513  0.00  0.00     0.077 C 
ATOM      8  C7  UNL d   1      -1.211   0.378   1.222  0.00  0.00    -0.001 A 
ENDROOT
TORSDOF 0
ENDMDL
