MODEL 1
REMARK minimizedAffinity -5.08091593
REMARK minimizedRMSD -1
REMARK  0 active torsions:
REMARK  status: ('A' for Active; 'I' for Inactive)
ROOT
ATOM      1  C   UNL d   1      -1.342  -0.185   3.509  0.00  0.00     0.077 C 
ATOM      2  C1  UNL d   1      -0.900   0.090   2.102  0.00  0.00    -0.074 A 
ATOM      3  C2  UNL d   1       0.354   0.652   1.840  0.00  0.00    -0.005 A 
ATOM      4  C3  UNL d   1       0.756   0.894   0.527  0.00  0.00     0.006 A 
ATOM      5  C4  UNL d   1      -0.090   0.576  -0.536  0.00  0.00    -0.005 A 
ATOM      6  C5  UNL d   1      -1.347   0.013  -0.294  0.00  0.00    -0.074 A 
ATOM      7  C6  UNL d   1      -2.265  -0.343  -1.426  0.00  0.00     0.077 C 
ATOM      8  C7  UNL d   1      -1.741  -0.233   1.029  0.00  0.00    -0.001 A 
ENDROOT
TORSDOF 0
ENDMDL
