MODEL 1
REMARK minimizedAffinity 0.931738377
REMARK minimizedRMSD -1
REMARK  0 active torsions:
REMARK  status: ('A' for Active; 'I' for Inactive)
ROOT
ATOM      1  C1  BNZ d   1      -0.839   0.257   2.930  0.00  0.00     0.000 A 
ATOM      2  C2  BNZ d   1      -1.176  -1.044   2.666  0.00  0.00     0.000 A 
ATOM      3  C3  BNZ d   1      -0.372  -1.833   1.891  0.00  0.00     0.000 A 
ATOM      4  C4  BNZ d   1       0.746  -1.308   1.348  0.00  0.00     0.000 A 
ATOM      5  C5  BNZ d   1       1.094   0.004   1.596  0.00  0.00     0.000 A 
ATOM      6  C6  BNZ d   1       0.303   0.783   2.409  0.00  0.00     0.000 A 
ENDROOT
TORSDOF 0
ENDMDL
