MODEL 1
REMARK minimizedAffinity 1.45800841
REMARK minimizedRMSD -1
REMARK  0 active torsions:
REMARK  status: ('A' for Active; 'I' for Inactive)
ROOT
ATOM      1  C1  BNZ d   1       5.308   5.961   5.024  0.00  0.00     0.000 A 
ATOM      2  C2  BNZ d   1       4.009   5.997   5.455  0.00  0.00     0.000 A 
ATOM      3  C3  BNZ d   1       3.393   4.868   5.917  0.00  0.00     0.000 A 
ATOM      4  C4  BNZ d   1       4.063   3.698   5.911  0.00  0.00     0.000 A 
ATOM      5  C5  BNZ d   1       5.370   3.643   5.472  0.00  0.00     0.000 A 
ATOM      6  C6  BNZ d   1       6.000   4.789   5.043  0.00  0.00     0.000 A 
ENDROOT
TORSDOF 0
ENDMDL
