MODEL 1
REMARK minimizedAffinity -0.139825299
REMARK minimizedRMSD -1
REMARK  0 active torsions:
REMARK  status: ('A' for Active; 'I' for Inactive)
ROOT
ATOM      1  C1  BNZ d   1       5.229   3.598   5.939  0.00  0.00     0.000 A 
ATOM      2  C2  BNZ d   1       3.929   3.676   5.515  0.00  0.00     0.000 A 
ATOM      3  C3  BNZ d   1       3.388   4.871   5.133  0.00  0.00     0.000 A 
ATOM      4  C4  BNZ d   1       4.133   5.992   5.212  0.00  0.00     0.000 A 
ATOM      5  C5  BNZ d   1       5.442   5.932   5.646  0.00  0.00     0.000 A 
ATOM      6  C6  BNZ d   1       5.996   4.721   5.994  0.00  0.00     0.000 A 
ENDROOT
TORSDOF 0
ENDMDL
