MODEL 1
REMARK minimizedAffinity 3.34333372
REMARK minimizedRMSD -1
REMARK  0 active torsions:
REMARK  status: ('A' for Active; 'I' for Inactive)
ROOT
ATOM      1  C1  BNZ d   1       5.880   0.757  -3.348  0.00  0.00     0.000 A 
ATOM      2  C2  BNZ d   1       4.814   1.160  -2.589  0.00  0.00     0.000 A 
ATOM      3  C3  BNZ d   1       3.831   0.277  -2.240  0.00  0.00     0.000 A 
ATOM      4  C4  BNZ d   1       3.893  -0.995  -2.683  0.00  0.00     0.000 A 
ATOM      5  C5  BNZ d   1       4.957  -1.414  -3.457  0.00  0.00     0.000 A 
ATOM      6  C6  BNZ d   1       5.965  -0.533  -3.774  0.00  0.00     0.000 A 
ENDROOT
TORSDOF 0
ENDMDL
