MODEL 1
REMARK minimizedAffinity 0.934790075
REMARK minimizedRMSD -1
REMARK  0 active torsions:
REMARK  status: ('A' for Active; 'I' for Inactive)
ROOT
ATOM      1  C1  BNZ d   1       5.348   3.629   5.533  0.00  0.00     0.000 A 
ATOM      2  C2  BNZ d   1       5.966   4.808   5.215  0.00  0.00     0.000 A 
ATOM      3  C3  BNZ d   1       5.296   5.997   5.306  0.00  0.00     0.000 A 
ATOM      4  C4  BNZ d   1       3.999   6.000   5.678  0.00  0.00     0.000 A 
ATOM      5  C5  BNZ d   1       3.360   4.818   5.993  0.00  0.00     0.000 A 
ATOM      6  C6  BNZ d   1       4.048   3.628   5.937  0.00  0.00     0.000 A 
ENDROOT
TORSDOF 0
ENDMDL
