MODEL 1
REMARK minimizedAffinity 2.39886427
REMARK minimizedRMSD -1
REMARK  0 active torsions:
REMARK  status: ('A' for Active; 'I' for Inactive)
ROOT
ATOM      1  C1  BNZ d   1       5.367   3.705   5.325  0.00  0.00     0.000 A 
ATOM      2  C2  BNZ d   1       4.139   3.709   5.932  0.00  0.00     0.000 A 
ATOM      3  C3  BNZ d   1       3.374   4.842   5.956  0.00  0.00     0.000 A 
ATOM      4  C4  BNZ d   1       3.854   5.978   5.410  0.00  0.00     0.000 A 
ATOM      5  C5  BNZ d   1       5.094   5.992   4.803  0.00  0.00     0.000 A 
ATOM      6  C6  BNZ d   1       5.844   4.841   4.746  0.00  0.00     0.000 A 
ENDROOT
TORSDOF 0
ENDMDL
