MODEL 1
REMARK minimizedAffinity -2.78640676
REMARK minimizedRMSD -1
REMARK  0 active torsions:
REMARK  status: ('A' for Active; 'I' for Inactive)
ROOT
ATOM      1  C1  BNZ d   1       3.760   3.725   5.991  0.00  0.00     0.000 A 
ATOM      2  C2  BNZ d   1       4.992   3.767   5.396  0.00  0.00     0.000 A 
ATOM      3  C3  BNZ d   1       5.443   4.912   4.801  0.00  0.00     0.000 A 
ATOM      4  C4  BNZ d   1       4.646   5.999   4.766  0.00  0.00     0.000 A 
ATOM      5  C5  BNZ d   1       3.397   5.969   5.353  0.00  0.00     0.000 A 
ATOM      6  C6  BNZ d   1       2.962   4.827   5.986  0.00  0.00     0.000 A 
ENDROOT
TORSDOF 0
ENDMDL
