MODEL 1
REMARK minimizedAffinity -1.23608899
REMARK minimizedRMSD -1
REMARK  0 active torsions:
REMARK  status: ('A' for Active; 'I' for Inactive)
ROOT
ATOM      1  C1  BNZ d   1       4.883   5.882   5.399  0.00  0.00     0.000 A 
ATOM      2  C2  BNZ d   1       6.000   5.090   5.394  0.00  0.00     0.000 A 
ATOM      3  C3  BNZ d   1       5.911   3.753   5.666  0.00  0.00     0.000 A 
ATOM      4  C4  BNZ d   1       4.714   3.219   5.981  0.00  0.00     0.000 A 
ATOM      5  C5  BNZ d   1       3.580   4.007   5.999  0.00  0.00     0.000 A 
ATOM      6  C6  BNZ d   1       3.667   5.344   5.687  0.00  0.00     0.000 A 
ENDROOT
TORSDOF 0
ENDMDL
