MODEL 1
REMARK minimizedAffinity -4.87057781
REMARK minimizedRMSD -1
REMARK  0 active torsions:
REMARK  status: ('A' for Active; 'I' for Inactive)
ROOT
ATOM      1  C1  BNZ d   1      -0.804   0.452  -0.995  0.00  0.00     0.000 A 
ATOM      2  C2  BNZ d   1      -2.037   0.057  -0.550  0.00  0.00     0.000 A 
ATOM      3  C3  BNZ d   1      -2.164  -0.697   0.584  0.00  0.00     0.000 A 
ATOM      4  C4  BNZ d   1      -1.057  -1.088   1.247  0.00  0.00     0.000 A 
ATOM      5  C5  BNZ d   1       0.194  -0.705   0.806  0.00  0.00     0.000 A 
ATOM      6  C6  BNZ d   1       0.316   0.086  -0.313  0.00  0.00     0.000 A 
ENDROOT
TORSDOF 0
ENDMDL
