MODEL 1
REMARK minimizedAffinity -2.86869574
REMARK minimizedRMSD -1
REMARK  0 active torsions:
REMARK  status: ('A' for Active; 'I' for Inactive)
ROOT
ATOM      1  C1  BNZ d   1       1.372  -0.458   0.130  0.00  0.00     0.000 A 
ATOM      2  C2  BNZ d   1       0.924   0.131  -1.022  0.00  0.00     0.000 A 
ATOM      3  C3  BNZ d   1      -0.393   0.057  -1.380  0.00  0.00     0.000 A 
ATOM      4  C4  BNZ d   1      -1.252  -0.638  -0.607  0.00  0.00     0.000 A 
ATOM      5  C5  BNZ d   1      -0.814  -1.245   0.554  0.00  0.00     0.000 A 
ATOM      6  C6  BNZ d   1       0.505  -1.135   0.931  0.00  0.00     0.000 A 
ENDROOT
TORSDOF 0
ENDMDL
