MODEL 1
REMARK minimizedAffinity -3.37374067
REMARK minimizedRMSD -1
REMARK  0 active torsions:
REMARK  status: ('A' for Active; 'I' for Inactive)
ROOT
ATOM      1  C1  BNZ d   1      -1.327  -0.696   0.411  0.00  0.00     0.000 A 
ATOM      2  C2  BNZ d   1      -2.008  -1.386   1.378  0.00  0.00     0.000 A 
ATOM      3  C3  BNZ d   1      -3.033  -2.227   1.048  0.00  0.00     0.000 A 
ATOM      4  C4  BNZ d   1      -3.402  -2.347  -0.244  0.00  0.00     0.000 A 
ATOM      5  C5  BNZ d   1      -2.732  -1.651  -1.230  0.00  0.00     0.000 A 
ATOM      6  C6  BNZ d   1      -1.675  -0.835  -0.897  0.00  0.00     0.000 A 
ENDROOT
TORSDOF 0
ENDMDL
