MODEL 1
REMARK minimizedAffinity -2.29939032
REMARK minimizedRMSD -1
REMARK  0 active torsions:
REMARK  status: ('A' for Active; 'I' for Inactive)
ROOT
ATOM      1  C1  BNZ d   1      -0.812  -0.844   1.160  0.00  0.00     0.000 A 
ATOM      2  C2  BNZ d   1       0.545  -0.726   1.020  0.00  0.00     0.000 A 
ATOM      3  C3  BNZ d   1       1.092  -0.286  -0.153  0.00  0.00     0.000 A 
ATOM      4  C4  BNZ d   1       0.284  -0.002  -1.196  0.00  0.00     0.000 A 
ATOM      5  C5  BNZ d   1      -1.085  -0.125  -1.073  0.00  0.00     0.000 A 
ATOM      6  C6  BNZ d   1      -1.634  -0.531   0.122  0.00  0.00     0.000 A 
ENDROOT
TORSDOF 0
ENDMDL
