MODEL 1
REMARK minimizedAffinity -3.05780673
REMARK minimizedRMSD -1
REMARK  0 active torsions:
REMARK  status: ('A' for Active; 'I' for Inactive)
ROOT
ATOM      1  C1  BNZ d   1      -1.879  -0.220   0.616  0.00  0.00     0.000 A 
ATOM      2  C2  BNZ d   1      -0.597   0.232   0.455  0.00  0.00     0.000 A 
ATOM      3  C3  BNZ d   1      -0.063   0.393  -0.793  0.00  0.00     0.000 A 
ATOM      4  C4  BNZ d   1      -0.797   0.063  -1.875  0.00  0.00     0.000 A 
ATOM      5  C5  BNZ d   1      -2.089  -0.403  -1.729  0.00  0.00     0.000 A 
ATOM      6  C6  BNZ d   1      -2.636  -0.526  -0.472  0.00  0.00     0.000 A 
ENDROOT
TORSDOF 0
ENDMDL
