MODEL 1
REMARK minimizedAffinity -0.446869522
REMARK minimizedRMSD -1
REMARK  0 active torsions:
REMARK  status: ('A' for Active; 'I' for Inactive)
ROOT
ATOM      1  C1  BNZ d   1      -2.303   0.233  -1.750  0.00  0.00     0.000 A 
ATOM      2  C2  BNZ d   1      -1.298   0.991  -2.288  0.00  0.00     0.000 A 
ATOM      3  C3  BNZ d   1      -0.019   0.895  -1.816  0.00  0.00     0.000 A 
ATOM      4  C4  BNZ d   1       0.245   0.072  -0.780  0.00  0.00     0.000 A 
ATOM      5  C5  BNZ d   1      -0.760  -0.692  -0.221  0.00  0.00     0.000 A 
ATOM      6  C6  BNZ d   1      -2.038  -0.621  -0.725  0.00  0.00     0.000 A 
ENDROOT
TORSDOF 0
ENDMDL
