MODEL 1
REMARK minimizedAffinity -3.25891614
REMARK minimizedRMSD -1
REMARK  0 active torsions:
REMARK  status: ('A' for Active; 'I' for Inactive)
ROOT
ATOM      1  C1  BNZ d   1       0.315  -0.666   0.775  0.00  0.00     0.000 A 
ATOM      2  C2  BNZ d   1      -0.923  -1.221   0.959  0.00  0.00     0.000 A 
ATOM      3  C3  BNZ d   1      -1.872  -1.158  -0.024  0.00  0.00     0.000 A 
ATOM      4  C4  BNZ d   1      -1.595  -0.507  -1.172  0.00  0.00     0.000 A 
ATOM      5  C5  BNZ d   1      -0.354   0.066  -1.369  0.00  0.00     0.000 A 
ATOM      6  C6  BNZ d   1       0.611  -0.033  -0.393  0.00  0.00     0.000 A 
ENDROOT
TORSDOF 0
ENDMDL
