MODEL 1
REMARK minimizedAffinity -2.91283631
REMARK minimizedRMSD -1
REMARK  0 active torsions:
REMARK  status: ('A' for Active; 'I' for Inactive)
ROOT
ATOM      1  C1  BNZ d   1      -2.739  -0.984   1.062  0.00  0.00     0.000 A 
ATOM      2  C2  BNZ d   1      -1.448  -0.532   1.124  0.00  0.00     0.000 A 
ATOM      3  C3  BNZ d   1      -0.647  -0.546   0.016  0.00  0.00     0.000 A 
ATOM      4  C4  BNZ d   1      -1.125  -1.047  -1.141  0.00  0.00     0.000 A 
ATOM      5  C5  BNZ d   1      -2.421  -1.516  -1.217  0.00  0.00     0.000 A 
ATOM      6  C6  BNZ d   1      -3.237  -1.465  -0.110  0.00  0.00     0.000 A 
ENDROOT
TORSDOF 0
ENDMDL
