MODEL 1
REMARK minimizedAffinity -3.54113603
REMARK minimizedRMSD -1
REMARK  0 active torsions:
REMARK  status: ('A' for Active; 'I' for Inactive)
ROOT
ATOM      1  C1  BNZ d   1      -0.364  -1.539   1.566  0.00  0.00     0.000 A 
ATOM      2  C2  BNZ d   1      -0.227  -0.430   0.774  0.00  0.00     0.000 A 
ATOM      3  C3  BNZ d   1      -1.180  -0.108  -0.151  0.00  0.00     0.000 A 
ATOM      4  C4  BNZ d   1      -2.247  -0.916  -0.312  0.00  0.00     0.000 A 
ATOM      5  C5  BNZ d   1      -2.396  -2.043   0.471  0.00  0.00     0.000 A 
ATOM      6  C6  BNZ d   1      -1.454  -2.343   1.429  0.00  0.00     0.000 A 
ENDROOT
TORSDOF 0
ENDMDL
