MODEL 1
REMARK minimizedAffinity -0.174397603
REMARK minimizedRMSD -1
REMARK  0 active torsions:
REMARK  status: ('A' for Active; 'I' for Inactive)
ROOT
ATOM      1  C   UNL d   1      -2.600   2.618   1.386  0.00  0.00     0.077 C 
ATOM      2  C1  UNL d   1      -1.567   1.535   1.490  0.00  0.00    -0.074 A 
ATOM      3  C2  UNL d   1      -1.918   0.244   1.896  0.00  0.00    -0.005 A 
ATOM      4  C3  UNL d   1      -0.948  -0.755   1.980  0.00  0.00     0.006 A 
ATOM      5  C4  UNL d   1       0.380  -0.473   1.658  0.00  0.00    -0.005 A 
ATOM      6  C5  UNL d   1       0.750   0.812   1.248  0.00  0.00    -0.074 A 
ATOM      7  C6  UNL d   1       2.171   1.129   0.889  0.00  0.00     0.077 C 
ATOM      8  C7  UNL d   1      -0.232   1.809   1.160  0.00  0.00    -0.001 A 
ENDROOT
TORSDOF 0
ENDMDL
