MODEL 1
REMARK minimizedAffinity 1.23657978
REMARK minimizedRMSD -1
REMARK  0 active torsions:
REMARK  status: ('A' for Active; 'I' for Inactive)
ROOT
ATOM      1  C   UNL d   1      -2.096   2.907   1.877  0.00  0.00     0.077 C 
ATOM      2  C1  UNL d   1      -1.076   1.834   1.638  0.00  0.00    -0.074 A 
ATOM      3  C2  UNL d   1      -1.198   0.578   2.241  0.00  0.00    -0.005 A 
ATOM      4  C3  UNL d   1      -0.246  -0.412   2.001  0.00  0.00     0.006 A 
ATOM      5  C4  UNL d   1       0.836  -0.158   1.158  0.00  0.00    -0.005 A 
ATOM      6  C5  UNL d   1       0.974   1.091   0.545  0.00  0.00    -0.074 A 
ATOM      7  C6  UNL d   1       2.126   1.378  -0.372  0.00  0.00     0.077 C 
ATOM      8  C7  UNL d   1       0.010   2.080   0.785  0.00  0.00    -0.001 A 
ENDROOT
TORSDOF 0
ENDMDL
