MODEL 1
REMARK minimizedAffinity -1.01325369
REMARK minimizedRMSD -1
REMARK  0 active torsions:
REMARK  status: ('A' for Active; 'I' for Inactive)
ROOT
ATOM      1  C   UNL d   1      -0.253   2.006   1.152  0.00  0.00     0.077 C 
ATOM      2  C1  UNL d   1       0.831   1.119   0.616  0.00  0.00    -0.074 A 
ATOM      3  C2  UNL d   1       1.158  -0.082   1.254  0.00  0.00    -0.005 A 
ATOM      4  C3  UNL d   1       2.162  -0.902   0.738  0.00  0.00     0.006 A 
ATOM      5  C4  UNL d   1       2.848  -0.529  -0.418  0.00  0.00    -0.005 A 
ATOM      6  C5  UNL d   1       2.535   0.668  -1.070  0.00  0.00    -0.074 A 
ATOM      7  C6  UNL d   1       3.256   1.078  -2.319  0.00  0.00     0.077 C 
ATOM      8  C7  UNL d   1       1.520   1.482  -0.550  0.00  0.00    -0.001 A 
ENDROOT
TORSDOF 0
ENDMDL
