MODEL 1
REMARK minimizedAffinity 4.06836891
REMARK minimizedRMSD -1
REMARK  0 active torsions:
REMARK  status: ('A' for Active; 'I' for Inactive)
ROOT
ATOM      1  C   UNL d   1      -0.318  -1.499   2.357  0.00  0.00     0.077 C 
ATOM      2  C1  UNL d   1      -0.084  -0.175   1.693  0.00  0.00    -0.074 A 
ATOM      3  C2  UNL d   1       1.085   0.068   0.965  0.00  0.00    -0.005 A 
ATOM      4  C3  UNL d   1       1.284   1.301   0.344  0.00  0.00     0.006 A 
ATOM      5  C4  UNL d   1       0.317   2.303   0.446  0.00  0.00    -0.005 A 
ATOM      6  C5  UNL d   1      -0.858   2.078   1.170  0.00  0.00    -0.074 A 
ATOM      7  C6  UNL d   1      -1.912   3.140   1.281  0.00  0.00     0.077 C 
ATOM      8  C7  UNL d   1      -1.054   0.834   1.784  0.00  0.00    -0.001 A 
ENDROOT
TORSDOF 0
ENDMDL
