MODEL 1
REMARK minimizedAffinity -2.17211342
REMARK minimizedRMSD -1
REMARK  0 active torsions:
REMARK  status: ('A' for Active; 'I' for Inactive)
ROOT
ATOM      1  C   UNL d   1       1.956   0.696  -0.008  0.00  0.00     0.077 C 
ATOM      2  C1  UNL d   1       0.623   0.503   0.651  0.00  0.00    -0.074 A 
ATOM      3  C2  UNL d   1       0.126  -0.780   0.906  0.00  0.00    -0.005 A 
ATOM      4  C3  UNL d   1      -1.111  -0.944   1.529  0.00  0.00     0.006 A 
ATOM      5  C4  UNL d   1      -1.863   0.171   1.902  0.00  0.00    -0.005 A 
ATOM      6  C5  UNL d   1      -1.383   1.461   1.656  0.00  0.00    -0.074 A 
ATOM      7  C6  UNL d   1      -2.174   2.669   2.060  0.00  0.00     0.077 C 
ATOM      8  C7  UNL d   1      -0.135   1.617   1.036  0.00  0.00    -0.001 A 
ENDROOT
TORSDOF 0
ENDMDL
