MODEL 1
REMARK minimizedAffinity 5.36013794
REMARK minimizedRMSD -1
REMARK  0 active torsions:
REMARK  status: ('A' for Active; 'I' for Inactive)
ROOT
ATOM      1  C   UNL d   1      -2.675   2.537   1.831  0.00  0.00     0.077 C 
ATOM      2  C1  UNL d   1      -1.467   1.688   1.565  0.00  0.00    -0.074 A 
ATOM      3  C2  UNL d   1      -0.275   2.259   1.107  0.00  0.00    -0.005 A 
ATOM      4  C3  UNL d   1       0.843   1.458   0.872  0.00  0.00     0.006 A 
ATOM      5  C4  UNL d   1       0.780   0.082   1.093  0.00  0.00    -0.005 A 
ATOM      6  C5  UNL d   1      -0.403  -0.506   1.551  0.00  0.00    -0.074 A 
ATOM      7  C6  UNL d   1      -0.485  -1.982   1.803  0.00  0.00     0.077 C 
ATOM      8  C7  UNL d   1      -1.520   0.306   1.791  0.00  0.00    -0.001 A 
ENDROOT
TORSDOF 0
ENDMDL
