MODEL 1
REMARK minimizedAffinity 1.20701754
REMARK minimizedRMSD -1
REMARK  0 active torsions:
REMARK  status: ('A' for Active; 'I' for Inactive)
ROOT
ATOM      1  C   UNL d   1      -1.075   3.660   1.685  0.00  0.00     0.077 C 
ATOM      2  C1  UNL d   1      -0.789   2.199   1.509  0.00  0.00    -0.074 A 
ATOM      3  C2  UNL d   1       0.501   1.750   1.206  0.00  0.00    -0.005 A 
ATOM      4  C3  UNL d   1       0.754   0.387   1.054  0.00  0.00     0.006 A 
ATOM      5  C4  UNL d   1      -0.279  -0.540   1.203  0.00  0.00    -0.005 A 
ATOM      6  C5  UNL d   1      -1.574  -0.111   1.507  0.00  0.00    -0.074 A 
ATOM      7  C6  UNL d   1      -2.693  -1.094   1.680  0.00  0.00     0.077 C 
ATOM      8  C7  UNL d   1      -1.819   1.260   1.665  0.00  0.00    -0.001 A 
ENDROOT
TORSDOF 0
ENDMDL
