MODEL 1
REMARK minimizedAffinity -0.945149779
REMARK minimizedRMSD -1
REMARK  0 active torsions:
REMARK  status: ('A' for Active; 'I' for Inactive)
ROOT
ATOM      1  C   UNL d   1      -1.913   2.878   1.618  0.00  0.00     0.077 C 
ATOM      2  C1  UNL d   1      -0.784   1.939   1.312  0.00  0.00    -0.074 A 
ATOM      3  C2  UNL d   1       0.303   2.351   0.535  0.00  0.00    -0.005 A 
ATOM      4  C3  UNL d   1       1.350   1.469   0.267  0.00  0.00     0.006 A 
ATOM      5  C4  UNL d   1       1.321   0.169   0.774  0.00  0.00    -0.005 A 
ATOM      6  C5  UNL d   1       0.243  -0.260   1.554  0.00  0.00    -0.074 A 
ATOM      7  C6  UNL d   1       0.201  -1.651   2.114  0.00  0.00     0.077 C 
ATOM      8  C7  UNL d   1      -0.802   0.634   1.824  0.00  0.00    -0.001 A 
ENDROOT
TORSDOF 0
ENDMDL
