MODEL 1
REMARK minimizedAffinity 8.99546337
REMARK minimizedRMSD -1
REMARK  0 active torsions:
REMARK  status: ('A' for Active; 'I' for Inactive)
ROOT
ATOM      1  C   UNL d   1      -1.687   2.664   1.717  0.00  0.00     0.077 C 
ATOM      2  C1  UNL d   1      -0.803   1.512   2.093  0.00  0.00    -0.074 A 
ATOM      3  C2  UNL d   1       0.588   1.655   2.128  0.00  0.00    -0.005 A 
ATOM      4  C3  UNL d   1       1.397   0.578   2.489  0.00  0.00     0.006 A 
ATOM      5  C4  UNL d   1       0.825  -0.652   2.818  0.00  0.00    -0.005 A 
ATOM      6  C5  UNL d   1      -0.564  -0.813   2.789  0.00  0.00    -0.074 A 
ATOM      7  C6  UNL d   1      -1.196  -2.125   3.150  0.00  0.00     0.077 C 
ATOM      8  C7  UNL d   1      -1.371   0.276   2.433  0.00  0.00    -0.001 A 
ENDROOT
TORSDOF 0
ENDMDL
