MODEL 1
REMARK minimizedAffinity 2.36796927
REMARK minimizedRMSD -1
REMARK  0 active torsions:
REMARK  status: ('A' for Active; 'I' for Inactive)
ROOT
ATOM      1  C   UNL d   1      -0.160  -2.197   2.435  0.00  0.00     0.077 C 
ATOM      2  C1  UNL d   1      -0.513  -0.858   1.859  0.00  0.00    -0.074 A 
ATOM      3  C2  UNL d   1      -1.836  -0.540   1.538  0.00  0.00    -0.005 A 
ATOM      4  C3  UNL d   1      -2.150   0.713   1.012  0.00  0.00     0.006 A 
ATOM      5  C4  UNL d   1      -1.146   1.659   0.802  0.00  0.00    -0.005 A 
ATOM      6  C5  UNL d   1       0.183   1.359   1.119  0.00  0.00    -0.074 A 
ATOM      7  C6  UNL d   1       1.273   2.368   0.909  0.00  0.00     0.077 C 
ATOM      8  C7  UNL d   1       0.490   0.100   1.653  0.00  0.00    -0.001 A 
ENDROOT
TORSDOF 0
ENDMDL
