MODEL 1
REMARK minimizedAffinity 0.930361211
REMARK minimizedRMSD -1
REMARK  0 active torsions:
REMARK  status: ('A' for Active; 'I' for Inactive)
ROOT
ATOM      1  C   UNL d   1      -2.920  -1.055   2.683  0.00  0.00     0.077 C 
ATOM      2  C1  UNL d   1      -1.965   0.020   2.260  0.00  0.00    -0.074 A 
ATOM      3  C2  UNL d   1      -2.252   1.369   2.492  0.00  0.00    -0.005 A 
ATOM      4  C3  UNL d   1      -1.349   2.358   2.101  0.00  0.00     0.006 A 
ATOM      5  C4  UNL d   1      -0.152   2.009   1.476  0.00  0.00    -0.005 A 
ATOM      6  C5  UNL d   1       0.153   0.665   1.236  0.00  0.00    -0.074 A 
ATOM      7  C6  UNL d   1       1.440   0.272   0.574  0.00  0.00     0.077 C 
ATOM      8  C7  UNL d   1      -0.756  -0.323   1.638  0.00  0.00    -0.001 A 
ENDROOT
TORSDOF 0
ENDMDL
