MODEL 1
REMARK minimizedAffinity 0.59665668
REMARK minimizedRMSD -1
REMARK  0 active torsions:
REMARK  status: ('A' for Active; 'I' for Inactive)
ROOT
ATOM      1  C   UNL d   1       1.520   0.130  -0.016  0.00  0.00     0.077 C 
ATOM      2  C1  UNL d   1       0.284   0.227   0.828  0.00  0.00    -0.074 A 
ATOM      3  C2  UNL d   1      -0.372  -0.924   1.277  0.00  0.00    -0.005 A 
ATOM      4  C3  UNL d   1      -1.515  -0.818   2.069  0.00  0.00     0.006 A 
ATOM      5  C4  UNL d   1      -2.014   0.438   2.419  0.00  0.00    -0.005 A 
ATOM      6  C5  UNL d   1      -1.371   1.600   1.980  0.00  0.00    -0.074 A 
ATOM      7  C6  UNL d   1      -1.887   2.957   2.355  0.00  0.00     0.077 C 
ATOM      8  C7  UNL d   1      -0.218   1.485   1.190  0.00  0.00    -0.001 A 
ENDROOT
TORSDOF 0
ENDMDL
