MODEL 1
REMARK minimizedAffinity -2.64343882
REMARK minimizedRMSD -1
REMARK  0 active torsions:
REMARK  status: ('A' for Active; 'I' for Inactive)
ROOT
ATOM      1  C   UNL d   1       2.049   0.794   0.543  0.00  0.00     0.077 C 
ATOM      2  C1  UNL d   1       0.651   0.526   1.017  0.00  0.00    -0.074 A 
ATOM      3  C2  UNL d   1       0.193  -0.783   1.202  0.00  0.00    -0.005 A 
ATOM      4  C3  UNL d   1      -1.106  -1.016   1.651  0.00  0.00     0.006 A 
ATOM      5  C4  UNL d   1      -1.960   0.055   1.921  0.00  0.00    -0.005 A 
ATOM      6  C5  UNL d   1      -1.519   1.370   1.743  0.00  0.00    -0.074 A 
ATOM      7  C6  UNL d   1      -2.420   2.533   2.037  0.00  0.00     0.077 C 
ATOM      8  C7  UNL d   1      -0.210   1.597   1.297  0.00  0.00    -0.001 A 
ENDROOT
TORSDOF 0
ENDMDL
