MODEL 1
REMARK minimizedAffinity -3.33136797
REMARK minimizedRMSD -1
REMARK  0 active torsions:
REMARK  status: ('A' for Active; 'I' for Inactive)
ROOT
ATOM      1  C   UNL d   1      -2.070  -0.623   2.502  0.00  0.00     0.077 C 
ATOM      2  C1  UNL d   1      -1.248   0.510   1.964  0.00  0.00    -0.074 A 
ATOM      3  C2  UNL d   1       0.119   0.352   1.715  0.00  0.00    -0.005 A 
ATOM      4  C3  UNL d   1       0.869   1.412   1.206  0.00  0.00     0.006 A 
ATOM      5  C4  UNL d   1       0.261   2.639   0.941  0.00  0.00    -0.005 A 
ATOM      6  C5  UNL d   1      -1.105   2.817   1.183  0.00  0.00    -0.074 A 
ATOM      7  C6  UNL d   1      -1.777   4.126   0.895  0.00  0.00     0.077 C 
ATOM      8  C7  UNL d   1      -1.853   1.744   1.688  0.00  0.00    -0.001 A 
ENDROOT
TORSDOF 0
ENDMDL
