MODEL 1
REMARK minimizedAffinity 5.54666758
REMARK minimizedRMSD -1
REMARK  0 active torsions:
REMARK  status: ('A' for Active; 'I' for Inactive)
ROOT
ATOM      1  C   UNL d   1      -3.277  -2.339  -5.031  0.00  0.00     0.077 C 
ATOM      2  C1  UNL d   1      -3.295  -2.246  -3.535  0.00  0.00    -0.074 A 
ATOM      3  C2  UNL d   1      -3.215  -1.007  -2.891  0.00  0.00    -0.005 A 
ATOM      4  C3  UNL d   1      -3.242  -0.935  -1.498  0.00  0.00     0.006 A 
ATOM      5  C4  UNL d   1      -3.349  -2.099  -0.736  0.00  0.00    -0.005 A 
ATOM      6  C5  UNL d   1      -3.431  -3.347  -1.363  0.00  0.00    -0.074 A 
ATOM      7  C6  UNL d   1      -3.557  -4.607  -0.559  0.00  0.00     0.077 C 
ATOM      8  C7  UNL d   1      -3.410  -3.410  -2.763  0.00  0.00    -0.001 A 
ENDROOT
TORSDOF 0
ENDMDL
