MODEL 1
REMARK minimizedAffinity 3.24566579
REMARK minimizedRMSD -1
REMARK  0 active torsions:
REMARK  status: ('A' for Active; 'I' for Inactive)
ROOT
ATOM      1  C   UNL d   1       5.254   5.994  -5.747  0.00  0.00     0.077 C 
ATOM      2  C1  UNL d   1       4.154   5.070  -5.316  0.00  0.00    -0.074 A 
ATOM      3  C2  UNL d   1       2.811   5.428  -5.473  0.00  0.00    -0.005 A 
ATOM      4  C3  UNL d   1       1.799   4.555  -5.077  0.00  0.00     0.006 A 
ATOM      5  C4  UNL d   1       2.118   3.315  -4.521  0.00  0.00    -0.005 A 
ATOM      6  C5  UNL d   1       3.455   2.939  -4.357  0.00  0.00    -0.074 A 
ATOM      7  C6  UNL d   1       3.815   1.606  -3.770  0.00  0.00     0.077 C 
ATOM      8  C7  UNL d   1       4.466   3.819  -4.764  0.00  0.00    -0.001 A 
ENDROOT
TORSDOF 0
ENDMDL
