MODEL 1
REMARK minimizedAffinity -1.04259002
REMARK minimizedRMSD -1
REMARK  0 active torsions:
REMARK  status: ('A' for Active; 'I' for Inactive)
ROOT
ATOM      1  C   UNL d   1      -1.335  -1.041   2.461  0.00  0.00     0.077 C 
ATOM      2  C1  UNL d   1      -1.334   0.404   2.058  0.00  0.00    -0.074 A 
ATOM      3  C2  UNL d   1      -2.439   1.222   2.314  0.00  0.00    -0.005 A 
ATOM      4  C3  UNL d   1      -2.420   2.566   1.941  0.00  0.00     0.006 A 
ATOM      5  C4  UNL d   1      -1.298   3.105   1.310  0.00  0.00    -0.005 A 
ATOM      6  C5  UNL d   1      -0.184   2.302   1.046  0.00  0.00    -0.074 A 
ATOM      7  C6  UNL d   1       1.033   2.867   0.376  0.00  0.00     0.077 C 
ATOM      8  C7  UNL d   1      -0.208   0.954   1.429  0.00  0.00    -0.001 A 
ENDROOT
TORSDOF 0
ENDMDL
