MODEL 1
REMARK minimizedAffinity 4.92153025
REMARK minimizedRMSD -1
REMARK  0 active torsions:
REMARK  status: ('A' for Active; 'I' for Inactive)
ROOT
ATOM      1  C   UNL d   1       0.931   2.542  -0.482  0.00  0.00     0.077 C 
ATOM      2  C1  UNL d   1      -0.102   2.238   0.562  0.00  0.00    -0.074 A 
ATOM      3  C2  UNL d   1      -0.923   3.247   1.075  0.00  0.00    -0.005 A 
ATOM      4  C3  UNL d   1      -1.887   2.947   2.039  0.00  0.00     0.006 A 
ATOM      5  C4  UNL d   1      -2.038   1.638   2.498  0.00  0.00    -0.005 A 
ATOM      6  C5  UNL d   1      -1.226   0.616   1.996  0.00  0.00    -0.074 A 
ATOM      7  C6  UNL d   1      -1.382  -0.798   2.471  0.00  0.00     0.077 C 
ATOM      8  C7  UNL d   1      -0.265   0.924   1.022  0.00  0.00    -0.001 A 
ENDROOT
TORSDOF 0
ENDMDL
