MODEL 1
REMARK minimizedAffinity 15.8724585
REMARK minimizedRMSD -1
REMARK  1 active torsions:
REMARK  status: ('A' for Active; 'I' for Inactive)
REMARK    1  A    between atoms: C1_2  and  C2_3 
ROOT
ATOM      1  C2  UNL d   1      -3.204   4.827  -0.525  0.00  0.00    -0.077 A 
ATOM      2  C3  UNL d   1      -3.486   5.299   0.764  0.00  0.00     0.002 A 
ATOM      3  C4  UNL d   1      -4.722   5.885   1.046  0.00  0.00     0.002 A 
ATOM      4  C5  UNL d   1      -5.685   6.000   0.046  0.00  0.00    -0.004 A 
ATOM      5  C6  UNL d   1      -5.413   5.535  -1.240  0.00  0.00     0.002 A 
ATOM      6  C7  UNL d   1      -4.178   4.951  -1.524  0.00  0.00     0.002 A 
ENDROOT
BRANCH   1   7
ATOM      7  C1  UNL d   1      -1.890   4.150  -0.820  0.00  0.00     0.055 C 
ATOM      8  C   UNL d   1      -1.796   2.798  -0.127  0.00  0.00     0.019 C 
ENDBRANCH   1   7
TORSDOF 1
ENDMDL
