MODEL 1
REMARK minimizedAffinity 17.3387604
REMARK minimizedRMSD -1
REMARK  1 active torsions:
REMARK  status: ('A' for Active; 'I' for Inactive)
REMARK    1  A    between atoms: C1_2  and  C2_3 
ROOT
ATOM      1  C2  UNL d   1       1.402  -3.247  -0.568  0.00  0.00    -0.077 A 
ATOM      2  C3  UNL d   1       2.075  -2.019  -0.504  0.00  0.00     0.002 A 
ATOM      3  C4  UNL d   1       2.425  -1.468   0.730  0.00  0.00     0.002 A 
ATOM      4  C5  UNL d   1       2.111  -2.140   1.909  0.00  0.00    -0.004 A 
ATOM      5  C6  UNL d   1       1.440  -3.362   1.857  0.00  0.00     0.002 A 
ATOM      6  C7  UNL d   1       1.088  -3.913   0.624  0.00  0.00     0.002 A 
ENDROOT
BRANCH   1   7
ATOM      7  C1  UNL d   1       1.067  -3.867  -1.899  0.00  0.00     0.055 C 
ATOM      8  C   UNL d   1       1.850  -5.153  -2.124  0.00  0.00     0.019 C 
ENDBRANCH   1   7
TORSDOF 1
ENDMDL
