MODEL 1
REMARK minimizedAffinity 10.6871614
REMARK minimizedRMSD -1
REMARK  1 active torsions:
REMARK  status: ('A' for Active; 'I' for Inactive)
REMARK    1  A    between atoms: C1_2  and  C2_3 
ROOT
ATOM      1  C2  UNL d   1      -1.768   2.257  -2.276  0.00  0.00    -0.077 A 
ATOM      2  C3  UNL d   1      -0.771   2.916  -3.009  0.00  0.00     0.002 A 
ATOM      3  C4  UNL d   1       0.360   3.423  -2.366  0.00  0.00     0.002 A 
ATOM      4  C5  UNL d   1       0.507   3.272  -0.989  0.00  0.00    -0.004 A 
ATOM      5  C6  UNL d   1      -0.480   2.620  -0.251  0.00  0.00     0.002 A 
ATOM      6  C7  UNL d   1      -1.612   2.114  -0.891  0.00  0.00     0.002 A 
ENDROOT
BRANCH   1   7
ATOM      7  C1  UNL d   1      -2.965   1.667  -2.974  0.00  0.00     0.055 C 
ATOM      8  C   UNL d   1      -3.483   0.438  -2.241  0.00  0.00     0.019 C 
ENDBRANCH   1   7
TORSDOF 1
ENDMDL
