MODEL 1
REMARK minimizedAffinity 16.5108204
REMARK minimizedRMSD -1
REMARK  1 active torsions:
REMARK  status: ('A' for Active; 'I' for Inactive)
REMARK    1  A    between atoms: C1_2  and  C2_3 
ROOT
ATOM      1  C2  UNL d   1       2.263  -3.789  -5.252  0.00  0.00    -0.077 A 
ATOM      2  C3  UNL d   1       2.172  -3.785  -3.853  0.00  0.00     0.002 A 
ATOM      3  C4  UNL d   1       1.629  -4.879  -3.178  0.00  0.00     0.002 A 
ATOM      4  C5  UNL d   1       1.177  -5.987  -3.892  0.00  0.00    -0.004 A 
ATOM      5  C6  UNL d   1       1.261  -6.000  -5.284  0.00  0.00     0.002 A 
ATOM      6  C7  UNL d   1       1.803  -4.906  -5.961  0.00  0.00     0.002 A 
ENDROOT
BRANCH   1   7
ATOM      7  C1  UNL d   1       2.894  -2.630  -5.979  0.00  0.00     0.055 C 
ATOM      8  C   UNL d   1       4.411  -2.749  -6.000  0.00  0.00     0.019 C 
ENDBRANCH   1   7
TORSDOF 1
ENDMDL
