MODEL 1
REMARK minimizedAffinity 14.21912
REMARK minimizedRMSD -1
REMARK  1 active torsions:
REMARK  status: ('A' for Active; 'I' for Inactive)
REMARK    1  A    between atoms: C1_2  and  C2_3 
ROOT
ATOM      1  C2  UNL d   1       0.952   5.007  -3.570  0.00  0.00    -0.077 A 
ATOM      2  C3  UNL d   1      -0.309   4.513  -3.934  0.00  0.00     0.002 A 
ATOM      3  C4  UNL d   1      -0.990   3.629  -3.095  0.00  0.00     0.002 A 
ATOM      4  C5  UNL d   1      -0.420   3.234  -1.887  0.00  0.00    -0.004 A 
ATOM      5  C6  UNL d   1       0.834   3.717  -1.517  0.00  0.00     0.002 A 
ATOM      6  C7  UNL d   1       1.517   4.600  -2.355  0.00  0.00     0.002 A 
ENDROOT
BRANCH   1   7
ATOM      7  C1  UNL d   1       1.666   5.999  -4.450  0.00  0.00     0.055 C 
ATOM      8  C   UNL d   1       1.099   5.995  -5.863  0.00  0.00     0.019 C 
ENDBRANCH   1   7
TORSDOF 1
ENDMDL
