MODEL 1
REMARK minimizedAffinity 18.9145737
REMARK minimizedRMSD -1
REMARK  1 active torsions:
REMARK  status: ('A' for Active; 'I' for Inactive)
REMARK    1  A    between atoms: C1_2  and  C2_3 
ROOT
ATOM      1  C2  UNL d   1       0.061   4.320  -4.319  0.00  0.00    -0.077 A 
ATOM      2  C3  UNL d   1       0.074   5.163  -5.439  0.00  0.00     0.002 A 
ATOM      3  C4  UNL d   1       1.165   5.999  -5.681  0.00  0.00     0.002 A 
ATOM      4  C5  UNL d   1       2.253   5.997  -4.811  0.00  0.00    -0.004 A 
ATOM      5  C6  UNL d   1       2.250   5.164  -3.693  0.00  0.00     0.002 A 
ATOM      6  C7  UNL d   1       1.159   4.328  -3.449  0.00  0.00     0.002 A 
ENDROOT
BRANCH   1   7
ATOM      7  C1  UNL d   1      -1.093   3.381  -4.082  0.00  0.00     0.055 C 
ATOM      8  C   UNL d   1      -1.575   3.449  -2.640  0.00  0.00     0.019 C 
ENDBRANCH   1   7
TORSDOF 1
ENDMDL
