MODEL 1
REMARK minimizedAffinity 12.0394573
REMARK minimizedRMSD -1
REMARK  1 active torsions:
REMARK  status: ('A' for Active; 'I' for Inactive)
REMARK    1  A    between atoms: C1_2  and  C2_3 
ROOT
ATOM      1  C2  UNL d   1      -5.117   5.927  -0.501  0.00  0.00    -0.077 A 
ATOM      2  C3  UNL d   1      -5.997   5.960   0.591  0.00  0.00     0.002 A 
ATOM      3  C4  UNL d   1      -5.502   5.994   1.896  0.00  0.00     0.002 A 
ATOM      4  C5  UNL d   1      -4.127   6.000   2.121  0.00  0.00    -0.004 A 
ATOM      5  C6  UNL d   1      -3.244   5.965   1.042  0.00  0.00     0.002 A 
ATOM      6  C7  UNL d   1      -3.737   5.930  -0.263  0.00  0.00     0.002 A 
ENDROOT
BRANCH   1   7
ATOM      7  C1  UNL d   1      -5.649   5.939  -1.910  0.00  0.00     0.055 C 
ATOM      8  C   UNL d   1      -4.571   5.552  -2.912  0.00  0.00     0.019 C 
ENDBRANCH   1   7
TORSDOF 1
ENDMDL
