MODEL 1
REMARK minimizedAffinity 13.9112482
REMARK minimizedRMSD -1
REMARK  1 active torsions:
REMARK  status: ('A' for Active; 'I' for Inactive)
REMARK    1  A    between atoms: C1_2  and  C2_3 
ROOT
ATOM      1  C2  UNL d   1       2.241  -3.501  -3.694  0.00  0.00    -0.077 A 
ATOM      2  C3  UNL d   1       3.618  -3.349  -3.911  0.00  0.00     0.002 A 
ATOM      3  C4  UNL d   1       4.085  -2.705  -5.058  0.00  0.00     0.002 A 
ATOM      4  C5  UNL d   1       3.183  -2.205  -5.995  0.00  0.00    -0.004 A 
ATOM      5  C6  UNL d   1       1.812  -2.353  -5.789  0.00  0.00     0.002 A 
ATOM      6  C7  UNL d   1       1.343  -2.997  -4.643  0.00  0.00     0.002 A 
ENDROOT
BRANCH   1   7
ATOM      7  C1  UNL d   1       1.734  -4.152  -2.433  0.00  0.00     0.055 C 
ATOM      8  C   UNL d   1       2.239  -5.582  -2.307  0.00  0.00     0.019 C 
ENDBRANCH   1   7
TORSDOF 1
ENDMDL
