MODEL 1
REMARK minimizedAffinity 11.5965891
REMARK minimizedRMSD -1
REMARK  1 active torsions:
REMARK  status: ('A' for Active; 'I' for Inactive)
REMARK    1  A    between atoms: C1_2  and  C2_3 
ROOT
ATOM      1  C2  UNL d   1      -5.101   5.902   1.417  0.00  0.00    -0.077 A 
ATOM      2  C3  UNL d   1      -6.000   5.936   0.342  0.00  0.00     0.002 A 
ATOM      3  C4  UNL d   1      -5.539   5.800  -0.969  0.00  0.00     0.002 A 
ATOM      4  C5  UNL d   1      -4.179   5.625  -1.216  0.00  0.00    -0.004 A 
ATOM      5  C6  UNL d   1      -3.276   5.592  -0.154  0.00  0.00     0.002 A 
ATOM      6  C7  UNL d   1      -3.736   5.729   1.157  0.00  0.00     0.002 A 
ENDROOT
BRANCH   1   7
ATOM      7  C1  UNL d   1      -5.602   5.999   2.835  0.00  0.00     0.055 C 
ATOM      8  C   UNL d   1      -4.451   5.998   3.830  0.00  0.00     0.019 C 
ENDBRANCH   1   7
TORSDOF 1
ENDMDL
