MODEL 1
REMARK minimizedAffinity 4.2191782
REMARK minimizedRMSD -1
REMARK  1 active torsions:
REMARK  status: ('A' for Active; 'I' for Inactive)
REMARK    1  A    between atoms: C1_2  and  C2_3 
ROOT
ATOM      1  C2  UNL d   1       2.143  -3.523  -3.822  0.00  0.00    -0.077 A 
ATOM      2  C3  UNL d   1       1.403  -3.005  -4.894  0.00  0.00     0.002 A 
ATOM      3  C4  UNL d   1       2.051  -2.405  -5.976  0.00  0.00     0.002 A 
ATOM      4  C5  UNL d   1       3.441  -2.322  -5.998  0.00  0.00    -0.004 A 
ATOM      5  C6  UNL d   1       4.187  -2.833  -4.936  0.00  0.00     0.002 A 
ATOM      6  C7  UNL d   1       3.540  -3.431  -3.853  0.00  0.00     0.002 A 
ENDROOT
BRANCH   1   7
ATOM      7  C1  UNL d   1       1.448  -4.214  -2.678  0.00  0.00     0.055 C 
ATOM      8  C   UNL d   1       1.423  -3.336  -1.435  0.00  0.00     0.019 C 
ENDBRANCH   1   7
TORSDOF 1
ENDMDL
