MODEL 1
REMARK minimizedAffinity 9.53824425
REMARK minimizedRMSD -1
REMARK  1 active torsions:
REMARK  status: ('A' for Active; 'I' for Inactive)
REMARK    1  A    between atoms: C1_2  and  C2_3 
ROOT
ATOM      1  C2  UNL d   1       1.705  -3.663  -4.076  0.00  0.00    -0.077 A 
ATOM      2  C3  UNL d   1       2.664  -2.640  -4.085  0.00  0.00     0.002 A 
ATOM      3  C4  UNL d   1       2.607  -1.628  -5.045  0.00  0.00     0.002 A 
ATOM      4  C5  UNL d   1       1.593  -1.626  -6.000  0.00  0.00    -0.004 A 
ATOM      5  C6  UNL d   1       0.636  -2.640  -6.000  0.00  0.00     0.002 A 
ATOM      6  C7  UNL d   1       0.691  -3.653  -5.042  0.00  0.00     0.002 A 
ENDROOT
BRANCH   1   7
ATOM      7  C1  UNL d   1       1.736  -4.728  -3.011  0.00  0.00     0.055 C 
ATOM      8  C   UNL d   1       1.504  -4.135  -1.628  0.00  0.00     0.019 C 
ENDBRANCH   1   7
TORSDOF 1
ENDMDL
