MODEL 1
REMARK minimizedAffinity 10.1858368
REMARK minimizedRMSD -1
REMARK  1 active torsions:
REMARK  status: ('A' for Active; 'I' for Inactive)
REMARK    1  A    between atoms: C1_2  and  C2_3 
ROOT
ATOM      1  C2  UNL d   1      -5.111   5.919   2.235  0.00  0.00    -0.077 A 
ATOM      2  C3  UNL d   1      -6.000   5.851   1.152  0.00  0.00     0.002 A 
ATOM      3  C4  UNL d   1      -5.516   5.733  -0.152  0.00  0.00     0.002 A 
ATOM      4  C5  UNL d   1      -4.143   5.679  -0.386  0.00  0.00    -0.004 A 
ATOM      5  C6  UNL d   1      -3.252   5.748   0.684  0.00  0.00     0.002 A 
ATOM      6  C7  UNL d   1      -3.733   5.867   1.988  0.00  0.00     0.002 A 
ENDROOT
BRANCH   1   7
ATOM      7  C1  UNL d   1      -5.632   5.997   3.646  0.00  0.00     0.055 C 
ATOM      8  C   UNL d   1      -4.494   5.998   4.657  0.00  0.00     0.019 C 
ENDBRANCH   1   7
TORSDOF 1
ENDMDL
