MODEL 1
REMARK minimizedAffinity 3.99766231
REMARK minimizedRMSD -1
REMARK  1 active torsions:
REMARK  status: ('A' for Active; 'I' for Inactive)
REMARK    1  A    between atoms: C1_2  and  C2_3 
ROOT
ATOM      1  C2  UNL d   1      -0.223   2.887  -0.352  0.00  0.00    -0.077 A 
ATOM      2  C3  UNL d   1       0.345   4.149  -0.125  0.00  0.00     0.002 A 
ATOM      3  C4  UNL d   1       0.165   5.181  -1.048  0.00  0.00     0.002 A 
ATOM      4  C5  UNL d   1      -0.586   4.962  -2.202  0.00  0.00    -0.004 A 
ATOM      5  C6  UNL d   1      -1.152   3.710  -2.437  0.00  0.00     0.002 A 
ATOM      6  C7  UNL d   1      -0.972   2.678  -1.516  0.00  0.00     0.002 A 
ENDROOT
BRANCH   1   7
ATOM      7  C1  UNL d   1      -0.071   1.788   0.667  0.00  0.00     0.055 C 
ATOM      8  C   UNL d   1      -1.305   1.679   1.551  0.00  0.00     0.019 C 
ENDBRANCH   1   7
TORSDOF 1
ENDMDL
