MODEL 1
REMARK minimizedAffinity -3.52099252
REMARK minimizedRMSD -1
REMARK  0 active torsions:
REMARK  status: ('A' for Active; 'I' for Inactive)
ROOT
ATOM      1  C   UNL d   1      -0.568   1.187   0.284  0.00  0.00     0.020 A 
ATOM      2  C1  UNL d   1      -1.468   0.153   0.540  0.00  0.00     0.020 A 
ATOM      3  C2  UNL d   1      -0.995  -1.132   0.815  0.00  0.00     0.034 A 
ATOM      4  C3  UNL d   1       0.382  -1.386   0.836  0.00  0.00     0.017 A 
ATOM      5  C4  UNL d   1       1.284  -0.347   0.578  0.00  0.00     0.017 A 
ATOM      6  C5  UNL d   1       0.805   0.937   0.303  0.00  0.00     0.034 A 
ATOM      7 Cl   UNL d   1       2.996  -0.584   0.586  0.00  0.00    -0.070 Cl
ATOM      8 Cl1  UNL d   1       0.896  -2.998   1.184  0.00  0.00    -0.070 Cl
ENDROOT
TORSDOF 0
ENDMDL
