MODEL 1
REMARK minimizedAffinity -0.241192609
REMARK minimizedRMSD -1
REMARK  0 active torsions:
REMARK  status: ('A' for Active; 'I' for Inactive)
ROOT
ATOM      1  C   UNL d   1      -3.671   1.818  -3.684  0.00  0.00     0.020 A 
ATOM      2  C1  UNL d   1      -3.433   2.558  -2.527  0.00  0.00     0.020 A 
ATOM      3  C2  UNL d   1      -2.887   1.938  -1.402  0.00  0.00     0.034 A 
ATOM      4  C3  UNL d   1      -2.577   0.573  -1.431  0.00  0.00     0.017 A 
ATOM      5  C4  UNL d   1      -2.816  -0.169  -2.594  0.00  0.00     0.017 A 
ATOM      6  C5  UNL d   1      -3.363   0.458  -3.718  0.00  0.00     0.034 A 
ATOM      7 Cl   UNL d   1      -2.459  -1.856  -2.706  0.00  0.00    -0.070 Cl
ATOM      8 Cl1  UNL d   1      -1.903  -0.129  -0.003  0.00  0.00    -0.070 Cl
ENDROOT
TORSDOF 0
ENDMDL
