MODEL 1
REMARK minimizedAffinity -3.88359714
REMARK minimizedRMSD -1
REMARK  0 active torsions:
REMARK  status: ('A' for Active; 'I' for Inactive)
ROOT
ATOM      1  C   UNL d   1       1.962  -1.456   0.147  0.00  0.00     0.020 A 
ATOM      2  C1  UNL d   1       2.735  -0.387   0.598  0.00  0.00     0.020 A 
ATOM      3  C2  UNL d   1       2.189   0.898   0.646  0.00  0.00     0.034 A 
ATOM      4  C3  UNL d   1       0.866   1.116   0.244  0.00  0.00     0.017 A 
ATOM      5  C4  UNL d   1       0.091   0.042  -0.208  0.00  0.00     0.017 A 
ATOM      6  C5  UNL d   1       0.643  -1.242  -0.255  0.00  0.00     0.034 A 
ATOM      7 Cl   UNL d   1      -1.548   0.233  -0.721  0.00  0.00    -0.070 Cl
ATOM      8 Cl1  UNL d   1       0.256   2.730   0.331  0.00  0.00    -0.070 Cl
ENDROOT
TORSDOF 0
ENDMDL
