MODEL 1
REMARK minimizedAffinity -3.17355418
REMARK minimizedRMSD -1
REMARK  0 active torsions:
REMARK  status: ('A' for Active; 'I' for Inactive)
ROOT
ATOM      1  C   UNL d   1      -1.370  -0.512  -0.728  0.00  0.00     0.020 A 
ATOM      2  C1  UNL d   1      -0.487  -1.394  -0.107  0.00  0.00     0.020 A 
ATOM      3  C2  UNL d   1       0.661  -0.906   0.520  0.00  0.00     0.034 A 
ATOM      4  C3  UNL d   1       0.929   0.468   0.529  0.00  0.00     0.017 A 
ATOM      5  C4  UNL d   1       0.041   1.353  -0.094  0.00  0.00     0.017 A 
ATOM      6  C5  UNL d   1      -1.107   0.858  -0.721  0.00  0.00     0.034 A 
ATOM      7 Cl   UNL d   1       0.303   3.061  -0.126  0.00  0.00    -0.070 Cl
ATOM      8 Cl1  UNL d   1       2.367   1.002   1.324  0.00  0.00    -0.070 Cl
ENDROOT
TORSDOF 0
ENDMDL
