MODEL 1
REMARK minimizedAffinity -2.88708353
REMARK minimizedRMSD -1
REMARK  0 active torsions:
REMARK  status: ('A' for Active; 'I' for Inactive)
ROOT
ATOM      1  C   UNL d   1       1.788  -0.899   0.819  0.00  0.00     0.020 A 
ATOM      2  C1  UNL d   1       2.642   0.182   1.034  0.00  0.00     0.020 A 
ATOM      3  C2  UNL d   1       2.240   1.471   0.676  0.00  0.00     0.034 A 
ATOM      4  C3  UNL d   1       0.982   1.682   0.102  0.00  0.00     0.017 A 
ATOM      5  C4  UNL d   1       0.125   0.596  -0.113  0.00  0.00     0.017 A 
ATOM      6  C5  UNL d   1       0.532  -0.692   0.247  0.00  0.00     0.034 A 
ATOM      7 Cl   UNL d   1      -1.443   0.778  -0.816  0.00  0.00    -0.070 Cl
ATOM      8 Cl1  UNL d   1       0.550   3.302  -0.315  0.00  0.00    -0.070 Cl
ENDROOT
TORSDOF 0
ENDMDL
