MODEL 1
REMARK minimizedAffinity -5.4558177
REMARK minimizedRMSD -1
REMARK  0 active torsions:
REMARK  status: ('A' for Active; 'I' for Inactive)
ROOT
ATOM      1  C   UNL d   1       1.948  -1.470   0.935  0.00  0.00     0.020 A 
ATOM      2  C1  UNL d   1       2.947  -0.500   0.865  0.00  0.00     0.020 A 
ATOM      3  C2  UNL d   1       2.621   0.816   0.529  0.00  0.00     0.034 A 
ATOM      4  C3  UNL d   1       1.292   1.165   0.261  0.00  0.00     0.017 A 
ATOM      5  C4  UNL d   1       0.290   0.191   0.332  0.00  0.00     0.017 A 
ATOM      6  C5  UNL d   1       0.622  -1.125   0.669  0.00  0.00     0.034 A 
ATOM      7 Cl   UNL d   1      -1.372   0.546   0.015  0.00  0.00    -0.070 Cl
ATOM      8 Cl1  UNL d   1       0.961   2.811  -0.149  0.00  0.00    -0.070 Cl
ENDROOT
TORSDOF 0
ENDMDL
