MODEL 1
REMARK minimizedAffinity -3.95996523
REMARK minimizedRMSD -1
REMARK  0 active torsions:
REMARK  status: ('A' for Active; 'I' for Inactive)
ROOT
ATOM      1  C   UNL d   1      -0.122   1.313   0.064  0.00  0.00     0.020 A 
ATOM      2  C1  UNL d   1      -1.071   0.292   0.100  0.00  0.00     0.020 A 
ATOM      3  C2  UNL d   1      -0.673  -1.022   0.354  0.00  0.00     0.034 A 
ATOM      4  C3  UNL d   1       0.677  -1.319   0.574  0.00  0.00     0.017 A 
ATOM      5  C4  UNL d   1       1.629  -0.293   0.537  0.00  0.00     0.017 A 
ATOM      6  C5  UNL d   1       1.225   1.021   0.282  0.00  0.00     0.034 A 
ATOM      7 Cl   UNL d   1       3.313  -0.582   0.799  0.00  0.00    -0.070 Cl
ATOM      8 Cl1  UNL d   1       1.098  -2.966   0.883  0.00  0.00    -0.070 Cl
ENDROOT
TORSDOF 0
ENDMDL
