MODEL 1
REMARK minimizedAffinity -5.49548244
REMARK minimizedRMSD -1
REMARK  0 active torsions:
REMARK  status: ('A' for Active; 'I' for Inactive)
ROOT
ATOM      1  C   UNL d   1       2.519  -0.578   1.491  0.00  0.00     0.020 A 
ATOM      2  C1  UNL d   1       2.448   0.485   0.592  0.00  0.00     0.020 A 
ATOM      3  C2  UNL d   1       1.225   0.825   0.008  0.00  0.00     0.034 A 
ATOM      4  C3  UNL d   1       0.070   0.101   0.323  0.00  0.00     0.017 A 
ATOM      5  C4  UNL d   1       0.142  -0.966   1.226  0.00  0.00     0.017 A 
ATOM      6  C5  UNL d   1       1.369  -1.302   1.807  0.00  0.00     0.034 A 
ATOM      7 Cl   UNL d   1      -1.240  -1.906   1.663  0.00  0.00    -0.070 Cl
ATOM      8 Cl1  UNL d   1      -1.408   0.576  -0.436  0.00  0.00    -0.070 Cl
ENDROOT
TORSDOF 0
ENDMDL
