MODEL 1
REMARK minimizedAffinity -5.20097828
REMARK minimizedRMSD -1
REMARK  0 active torsions:
REMARK  status: ('A' for Active; 'I' for Inactive)
ROOT
ATOM      1  C   UNL d   1       2.814  -0.571   0.762  0.00  0.00     0.020 A 
ATOM      2  C1  UNL d   1       1.854  -1.582   0.759  0.00  0.00     0.020 A 
ATOM      3  C2  UNL d   1       0.516  -1.274   0.505  0.00  0.00     0.034 A 
ATOM      4  C3  UNL d   1       0.133   0.049   0.253  0.00  0.00     0.017 A 
ATOM      5  C4  UNL d   1       1.098   1.063   0.257  0.00  0.00     0.017 A 
ATOM      6  C5  UNL d   1       2.436   0.749   0.511  0.00  0.00     0.034 A 
ATOM      7 Cl   UNL d   1       0.703   2.719  -0.045  0.00  0.00    -0.070 Cl
ATOM      8 Cl1  UNL d   1      -1.539   0.358  -0.053  0.00  0.00    -0.070 Cl
ENDROOT
TORSDOF 0
ENDMDL
