MODEL 1
REMARK minimizedAffinity -4.82603693
REMARK minimizedRMSD -1
REMARK  0 active torsions:
REMARK  status: ('A' for Active; 'I' for Inactive)
ROOT
ATOM      1  C   UNL d   1       3.121  -0.939   1.446  0.00  0.00     0.020 A 
ATOM      2  C1  UNL d   1       2.238  -2.002   1.633  0.00  0.00     0.020 A 
ATOM      3  C2  UNL d   1       0.925  -1.908   1.166  0.00  0.00     0.034 A 
ATOM      4  C3  UNL d   1       0.491  -0.750   0.511  0.00  0.00     0.017 A 
ATOM      5  C4  UNL d   1       1.379   0.316   0.325  0.00  0.00     0.017 A 
ATOM      6  C5  UNL d   1       2.692   0.218   0.794  0.00  0.00     0.034 A 
ATOM      7 Cl   UNL d   1       0.917   1.778  -0.474  0.00  0.00    -0.070 Cl
ATOM      8 Cl1  UNL d   1      -1.146  -0.704  -0.040  0.00  0.00    -0.070 Cl
ENDROOT
TORSDOF 0
ENDMDL
