MODEL 1
REMARK minimizedAffinity -3.26715493
REMARK minimizedRMSD -1
REMARK  0 active torsions:
REMARK  status: ('A' for Active; 'I' for Inactive)
ROOT
ATOM      1  C2' OXE d   1       1.039  -1.464   0.572  0.00  0.00     0.078 C 
ATOM      2  C1' OXE d   1      -1.048   0.266  -0.159  0.00  0.00     0.078 C 
ATOM      3  C1  OXE d   1      -0.914  -1.033  -0.914  0.00  0.00    -0.078 A 
ATOM      4  C2  OXE d   1       0.138  -1.852  -0.580  0.00  0.00    -0.078 A 
ATOM      5  C3  OXE d   1       0.276  -3.087  -1.208  0.00  0.00     0.003 A 
ATOM      6  C4  OXE d   1      -0.555  -3.434  -2.279  0.00  0.00    -0.002 A 
ATOM      7  C5  OXE d   1      -1.608  -2.597  -2.662  0.00  0.00    -0.002 A 
ATOM      8  C6  OXE d   1      -1.827  -1.415  -1.962  0.00  0.00     0.003 A 
ENDROOT
TORSDOF 0
ENDMDL
