MODEL 1
REMARK minimizedAffinity -4.01347446
REMARK minimizedRMSD -1
REMARK  0 active torsions:
REMARK  status: ('A' for Active; 'I' for Inactive)
ROOT
ATOM      1  C2' OXE d   1       1.118  -1.202   1.054  0.00  0.00     0.078 C 
ATOM      2  C1' OXE d   1      -1.034  -2.208  -0.443  0.00  0.00     0.078 C 
ATOM      3  C1  OXE d   1      -1.087  -0.762  -0.019  0.00  0.00    -0.078 A 
ATOM      4  C2  OXE d   1      -0.052  -0.291   0.753  0.00  0.00    -0.078 A 
ATOM      5  C3  OXE d   1      -0.025   1.050   1.126  0.00  0.00     0.003 A 
ATOM      6  C4  OXE d   1      -1.116   1.884   0.852  0.00  0.00    -0.002 A 
ATOM      7  C5  OXE d   1      -2.199   1.414   0.101  0.00  0.00    -0.002 A 
ATOM      8  C6  OXE d   1      -2.180   0.108  -0.377  0.00  0.00     0.003 A 
ENDROOT
TORSDOF 0
ENDMDL
