MODEL 1
REMARK minimizedAffinity -0.299883068
REMARK minimizedRMSD -1
REMARK  0 active torsions:
REMARK  status: ('A' for Active; 'I' for Inactive)
ROOT
ATOM      1  C2' OXE d   1       1.627  -0.624   0.249  0.00  0.00     0.078 C 
ATOM      2  C1' OXE d   1      -0.702  -1.916  -0.638  0.00  0.00     0.078 C 
ATOM      3  C1  OXE d   1      -0.846  -0.537  -0.044  0.00  0.00    -0.078 A 
ATOM      4  C2  OXE d   1       0.293   0.068   0.430  0.00  0.00    -0.078 A 
ATOM      5  C3  OXE d   1       0.225   1.363   0.938  0.00  0.00     0.003 A 
ATOM      6  C4  OXE d   1      -1.014   1.992   1.112  0.00  0.00    -0.002 A 
ATOM      7  C5  OXE d   1      -2.190   1.376   0.672  0.00  0.00    -0.002 A 
ATOM      8  C6  OXE d   1      -2.119   0.132   0.054  0.00  0.00     0.003 A 
ENDROOT
TORSDOF 0
ENDMDL
