MODEL 1
REMARK minimizedAffinity -2.33151484
REMARK minimizedRMSD -1
REMARK  0 active torsions:
REMARK  status: ('A' for Active; 'I' for Inactive)
ROOT
ATOM      1  C2' OXE d   1       0.259   2.869   0.387  0.00  0.00     0.078 C 
ATOM      2  C1' OXE d   1       2.716   1.515   0.485  0.00  0.00     0.078 C 
ATOM      3  C1  OXE d   1       1.472   0.698   0.241  0.00  0.00    -0.078 A 
ATOM      4  C2  OXE d   1       0.269   1.362   0.241  0.00  0.00    -0.078 A 
ATOM      5  C3  OXE d   1      -0.904   0.665  -0.033  0.00  0.00     0.003 A 
ATOM      6  C4  OXE d   1      -0.887  -0.730  -0.157  0.00  0.00    -0.002 A 
ATOM      7  C5  OXE d   1       0.323  -1.431  -0.121  0.00  0.00    -0.002 A 
ATOM      8  C6  OXE d   1       1.513  -0.729   0.034  0.00  0.00     0.003 A 
ENDROOT
TORSDOF 0
ENDMDL
