MODEL 1
REMARK minimizedAffinity -2.36285567
REMARK minimizedRMSD -1
REMARK  0 active torsions:
REMARK  status: ('A' for Active; 'I' for Inactive)
ROOT
ATOM      1  C2' OXE d   1       2.305  -0.397   0.514  0.00  0.00     0.078 C 
ATOM      2  C1' OXE d   1      -0.090  -1.665  -0.220  0.00  0.00     0.078 C 
ATOM      3  C1  OXE d   1      -0.137  -0.185   0.069  0.00  0.00    -0.078 A 
ATOM      4  C2  OXE d   1       1.030   0.417   0.473  0.00  0.00    -0.078 A 
ATOM      5  C3  OXE d   1       1.054   1.791   0.700  0.00  0.00     0.003 A 
ATOM      6  C4  OXE d   1      -0.131   2.535   0.669  0.00  0.00    -0.002 A 
ATOM      7  C5  OXE d   1      -1.338   1.933   0.299  0.00  0.00    -0.002 A 
ATOM      8  C6  OXE d   1      -1.350   0.586  -0.045  0.00  0.00     0.003 A 
ENDROOT
TORSDOF 0
ENDMDL
