MODEL 1
REMARK minimizedAffinity -4.12083149
REMARK minimizedRMSD -1
REMARK  0 active torsions:
REMARK  status: ('A' for Active; 'I' for Inactive)
ROOT
ATOM      1  C2' OXE d   1       1.840  -2.246  -1.584  0.00  0.00     0.078 C 
ATOM      2  C1' OXE d   1      -0.623  -3.255  -0.691  0.00  0.00     0.078 C 
ATOM      3  C1  OXE d   1      -0.284  -1.825  -0.351  0.00  0.00    -0.078 A 
ATOM      4  C2  OXE d   1       0.944  -1.354  -0.752  0.00  0.00    -0.078 A 
ATOM      5  C3  OXE d   1       1.284  -0.026  -0.513  0.00  0.00     0.003 A 
ATOM      6  C4  OXE d   1       0.454   0.789   0.266  0.00  0.00    -0.002 A 
ATOM      7  C5  OXE d   1      -0.783   0.317   0.719  0.00  0.00    -0.002 A 
ATOM      8  C6  OXE d   1      -1.184  -0.971   0.383  0.00  0.00     0.003 A 
ENDROOT
TORSDOF 0
ENDMDL
