MODEL 1
REMARK minimizedAffinity -1.14386249
REMARK minimizedRMSD -1
REMARK  0 active torsions:
REMARK  status: ('A' for Active; 'I' for Inactive)
ROOT
ATOM      1  C2' OXE d   1       1.100   0.288   0.000  0.00  0.00     0.078 C 
ATOM      2  C1' OXE d   1      -1.359  -0.426   1.150  0.00  0.00     0.078 C 
ATOM      3  C1  OXE d   1      -0.794  -1.328   0.080  0.00  0.00    -0.078 A 
ATOM      4  C2  OXE d   1       0.386  -0.946  -0.509  0.00  0.00    -0.078 A 
ATOM      5  C3  OXE d   1       0.979  -1.769  -1.463  0.00  0.00     0.003 A 
ATOM      6  C4  OXE d   1       0.307  -2.903  -1.935  0.00  0.00    -0.002 A 
ATOM      7  C5  OXE d   1      -0.916  -3.289  -1.376  0.00  0.00    -0.002 A 
ATOM      8  C6  OXE d   1      -1.458  -2.537  -0.340  0.00  0.00     0.003 A 
ENDROOT
TORSDOF 0
ENDMDL
