MODEL 1
REMARK minimizedAffinity 1.24244058
REMARK minimizedRMSD -1
REMARK  0 active torsions:
REMARK  status: ('A' for Active; 'I' for Inactive)
ROOT
ATOM      1  C2' OXE d   1      -1.936   0.731   0.021  0.00  0.00     0.078 C 
ATOM      2  C1' OXE d   1      -0.188  -1.438  -0.326  0.00  0.00     0.078 C 
ATOM      3  C1  OXE d   1       0.384  -0.154   0.221  0.00  0.00    -0.078 A 
ATOM      4  C2  OXE d   1      -0.469   0.916   0.344  0.00  0.00    -0.078 A 
ATOM      5  C3  OXE d   1      -0.006   2.108   0.895  0.00  0.00     0.003 A 
ATOM      6  C4  OXE d   1       1.355   2.274   1.181  0.00  0.00    -0.002 A 
ATOM      7  C5  OXE d   1       2.248   1.209   1.026  0.00  0.00    -0.002 A 
ATOM      8  C6  OXE d   1       1.772  -0.022   0.588  0.00  0.00     0.003 A 
ENDROOT
TORSDOF 0
ENDMDL
