MODEL 1
REMARK minimizedAffinity -0.665915608
REMARK minimizedRMSD -1
REMARK  0 active torsions:
REMARK  status: ('A' for Active; 'I' for Inactive)
ROOT
ATOM      1  C2' OXE d   1      -1.215   0.546   0.304  0.00  0.00     0.078 C 
ATOM      2  C1' OXE d   1       1.273  -0.732   0.065  0.00  0.00     0.078 C 
ATOM      3  C1  OXE d   1       1.253   0.669   0.624  0.00  0.00    -0.078 A 
ATOM      4  C2  OXE d   1       0.036   1.304   0.694  0.00  0.00    -0.078 A 
ATOM      5  C3  OXE d   1      -0.047   2.576   1.253  0.00  0.00     0.003 A 
ATOM      6  C4  OXE d   1       1.116   3.274   1.601  0.00  0.00    -0.002 A 
ATOM      7  C5  OXE d   1       2.369   2.660   1.501  0.00  0.00    -0.002 A 
ATOM      8  C6  OXE d   1       2.451   1.346   1.055  0.00  0.00     0.003 A 
ENDROOT
TORSDOF 0
ENDMDL
