MODEL 1
REMARK minimizedAffinity -2.70567203
REMARK minimizedRMSD -1
REMARK  0 active torsions:
REMARK  status: ('A' for Active; 'I' for Inactive)
ROOT
ATOM      1  C2' OXE d   1       2.898   1.299   0.977  0.00  0.00     0.078 C 
ATOM      2  C1' OXE d   1       1.013   3.359   1.264  0.00  0.00     0.078 C 
ATOM      3  C1  OXE d   1       0.501   1.976   0.949  0.00  0.00    -0.078 A 
ATOM      4  C2  OXE d   1       1.433   0.983   0.764  0.00  0.00    -0.078 A 
ATOM      5  C3  OXE d   1       1.012  -0.322   0.526  0.00  0.00     0.003 A 
ATOM      6  C4  OXE d   1      -0.344  -0.603   0.321  0.00  0.00    -0.002 A 
ATOM      7  C5  OXE d   1      -1.307   0.401   0.465  0.00  0.00    -0.002 A 
ATOM      8  C6  OXE d   1      -0.906   1.684   0.820  0.00  0.00     0.003 A 
ENDROOT
TORSDOF 0
ENDMDL
