MODEL 1
REMARK minimizedAffinity -4.35634136
REMARK minimizedRMSD -1
REMARK  0 active torsions:
REMARK  status: ('A' for Active; 'I' for Inactive)
ROOT
ATOM      1  C2' OXE d   1       2.182   1.201   0.823  0.00  0.00     0.078 C 
ATOM      2  C1' OXE d   1      -0.136   2.775   0.652  0.00  0.00     0.078 C 
ATOM      3  C1  OXE d   1      -0.263   1.301   0.357  0.00  0.00    -0.078 A 
ATOM      4  C2  OXE d   1       0.885   0.547   0.397  0.00  0.00    -0.078 A 
ATOM      5  C3  OXE d   1       0.815  -0.827   0.186  0.00  0.00     0.003 A 
ATOM      6  C4  OXE d   1      -0.387  -1.422  -0.217  0.00  0.00    -0.002 A 
ATOM      7  C5  OXE d   1      -1.560  -0.665  -0.303  0.00  0.00    -0.002 A 
ATOM      8  C6  OXE d   1      -1.524   0.687   0.021  0.00  0.00     0.003 A 
ENDROOT
TORSDOF 0
ENDMDL
