MODEL 1
REMARK minimizedAffinity -1.57933521
REMARK minimizedRMSD -1
REMARK  0 active torsions:
REMARK  status: ('A' for Active; 'I' for Inactive)
ROOT
ATOM      1  C2' OXE d   1      -1.747   0.543   0.066  0.00  0.00     0.078 C 
ATOM      2  C1' OXE d   1       0.791  -0.649  -0.079  0.00  0.00     0.078 C 
ATOM      3  C1  OXE d   1       0.710   0.777   0.407  0.00  0.00    -0.078 A 
ATOM      4  C2  OXE d   1      -0.531   1.367   0.431  0.00  0.00    -0.078 A 
ATOM      5  C3  OXE d   1      -0.669   2.662   0.922  0.00  0.00     0.003 A 
ATOM      6  C4  OXE d   1       0.462   3.421   1.248  0.00  0.00    -0.002 A 
ATOM      7  C5  OXE d   1       1.738   2.852   1.194  0.00  0.00    -0.002 A 
ATOM      8  C6  OXE d   1       1.876   1.521   0.817  0.00  0.00     0.003 A 
ENDROOT
TORSDOF 0
ENDMDL
