MODEL 1
REMARK minimizedAffinity -3.00124836
REMARK minimizedRMSD -1
REMARK  0 active torsions:
REMARK  status: ('A' for Active; 'I' for Inactive)
ROOT
ATOM      1  C2' OXE d   1       0.127  -0.101  -0.046  0.00  0.00     0.078 C 
ATOM      2  C1' OXE d   1       0.551   0.036  -2.817  0.00  0.00     0.078 C 
ATOM      3  C1  OXE d   1      -0.094  -1.210  -2.265  0.00  0.00    -0.078 A 
ATOM      4  C2  OXE d   1      -0.255  -1.288  -0.903  0.00  0.00    -0.078 A 
ATOM      5  C3  OXE d   1      -0.895  -2.392  -0.346  0.00  0.00     0.003 A 
ATOM      6  C4  OXE d   1      -1.237  -3.490  -1.145  0.00  0.00    -0.002 A 
ATOM      7  C5  OXE d   1      -1.045  -3.448  -2.530  0.00  0.00    -0.002 A 
ATOM      8  C6  OXE d   1      -0.515  -2.301  -3.110  0.00  0.00     0.003 A 
ENDROOT
TORSDOF 0
ENDMDL
