MODEL 1
REMARK minimizedAffinity -0.432290971
REMARK minimizedRMSD -1
REMARK  0 active torsions:
REMARK  status: ('A' for Active; 'I' for Inactive)
ROOT
ATOM      1  C2' OXE d   1       0.412  -1.384   0.004  0.00  0.00     0.078 C 
ATOM      2  C1' OXE d   1      -1.478  -1.038   2.050  0.00  0.00     0.078 C 
ATOM      3  C1  OXE d   1      -1.177   0.144   1.163  0.00  0.00    -0.078 A 
ATOM      4  C2  OXE d   1      -0.217  -0.021   0.194  0.00  0.00    -0.078 A 
ATOM      5  C3  OXE d   1       0.060   1.021  -0.687  0.00  0.00     0.003 A 
ATOM      6  C4  OXE d   1      -0.519   2.281  -0.498  0.00  0.00    -0.002 A 
ATOM      7  C5  OXE d   1      -1.470   2.482   0.508  0.00  0.00    -0.002 A 
ATOM      8  C6  OXE d   1      -1.841   1.415   1.318  0.00  0.00     0.003 A 
ENDROOT
TORSDOF 0
ENDMDL
