MODEL 1
REMARK minimizedAffinity -2.07974577
REMARK minimizedRMSD -1
REMARK  0 active torsions:
REMARK  status: ('A' for Active; 'I' for Inactive)
ROOT
ATOM      1  C2' OXE d   1      -2.090   1.108   0.724  0.00  0.00     0.078 C 
ATOM      2  C1' OXE d   1      -0.078   3.063   0.642  0.00  0.00     0.078 C 
ATOM      3  C1  OXE d   1       0.346   1.616   0.628  0.00  0.00    -0.078 A 
ATOM      4  C2  OXE d   1      -0.643   0.666   0.716  0.00  0.00    -0.078 A 
ATOM      5  C3  OXE d   1      -0.309  -0.684   0.653  0.00  0.00     0.003 A 
ATOM      6  C4  OXE d   1       1.032  -1.084   0.655  0.00  0.00    -0.002 A 
ATOM      7  C5  OXE d   1       2.057  -0.132   0.606  0.00  0.00    -0.002 A 
ATOM      8  C6  OXE d   1       1.730   1.218   0.549  0.00  0.00     0.003 A 
ENDROOT
TORSDOF 0
ENDMDL
