MODEL 1
REMARK minimizedAffinity -1.5504781
REMARK minimizedRMSD -1
REMARK  0 active torsions:
REMARK  status: ('A' for Active; 'I' for Inactive)
ROOT
ATOM      1  C   UNL d   1       1.904   3.390   2.974  0.00  0.00     0.077 C 
ATOM      2  C1  UNL d   1       1.168   2.856   1.782  0.00  0.00    -0.074 A 
ATOM      3  C2  UNL d   1       0.650   3.718   0.811  0.00  0.00    -0.005 A 
ATOM      4  C3  UNL d   1      -0.025   3.206  -0.297  0.00  0.00     0.006 A 
ATOM      5  C4  UNL d   1      -0.187   1.828  -0.446  0.00  0.00    -0.005 A 
ATOM      6  C5  UNL d   1       0.325   0.950   0.514  0.00  0.00    -0.074 A 
ATOM      7  C6  UNL d   1       0.168  -0.534   0.365  0.00  0.00     0.077 C 
ATOM      8  C7  UNL d   1       1.008   1.472   1.622  0.00  0.00    -0.001 A 
ENDROOT
TORSDOF 0
ENDMDL
