MODEL 1
REMARK minimizedAffinity 2.44819903
REMARK minimizedRMSD -1
REMARK  0 active torsions:
REMARK  status: ('A' for Active; 'I' for Inactive)
ROOT
ATOM      1  C   UNL d   1       0.493   4.583   0.373  0.00  0.00     0.077 C 
ATOM      2  C1  UNL d   1       0.204   3.160   0.747  0.00  0.00    -0.074 A 
ATOM      3  C2  UNL d   1       0.305   2.731   2.075  0.00  0.00    -0.005 A 
ATOM      4  C3  UNL d   1       0.024   1.406   2.409  0.00  0.00     0.006 A 
ATOM      5  C4  UNL d   1      -0.360   0.498   1.421  0.00  0.00    -0.005 A 
ATOM      6  C5  UNL d   1      -0.467   0.909   0.089  0.00  0.00    -0.074 A 
ATOM      7  C6  UNL d   1      -0.888  -0.051  -0.984  0.00  0.00     0.077 C 
ATOM      8  C7  UNL d   1      -0.190   2.244  -0.238  0.00  0.00    -0.001 A 
ENDROOT
TORSDOF 0
ENDMDL
