MODEL 1
REMARK minimizedAffinity 4.46539402
REMARK minimizedRMSD -1
REMARK  0 active torsions:
REMARK  status: ('A' for Active; 'I' for Inactive)
ROOT
ATOM      1  C   UNL d   1       1.094  -0.061   2.399  0.00  0.00     0.077 C 
ATOM      2  C1  UNL d   1       0.301   0.963   1.642  0.00  0.00    -0.074 A 
ATOM      3  C2  UNL d   1      -0.283   2.050   2.299  0.00  0.00    -0.005 A 
ATOM      4  C3  UNL d   1      -1.010   2.999   1.580  0.00  0.00     0.006 A 
ATOM      5  C4  UNL d   1      -1.160   2.870   0.199  0.00  0.00    -0.005 A 
ATOM      6  C5  UNL d   1      -0.582   1.790  -0.476  0.00  0.00    -0.074 A 
ATOM      7  C6  UNL d   1      -0.725   1.642  -1.962  0.00  0.00     0.077 C 
ATOM      8  C7  UNL d   1       0.152   0.844   0.252  0.00  0.00    -0.001 A 
ENDROOT
TORSDOF 0
ENDMDL
