MODEL 1
REMARK minimizedAffinity 2.48342204
REMARK minimizedRMSD -1
REMARK  0 active torsions:
REMARK  status: ('A' for Active; 'I' for Inactive)
ROOT
ATOM      1  C   UNL d   1       0.781  -0.163   3.036  0.00  0.00     0.077 C 
ATOM      2  C1  UNL d   1       0.335   1.189   2.565  0.00  0.00    -0.074 A 
ATOM      3  C2  UNL d   1      -1.023   1.514   2.493  0.00  0.00    -0.005 A 
ATOM      4  C3  UNL d   1      -1.423   2.779   2.062  0.00  0.00     0.006 A 
ATOM      5  C4  UNL d   1      -0.469   3.730   1.698  0.00  0.00    -0.005 A 
ATOM      6  C5  UNL d   1       0.894   3.424   1.764  0.00  0.00    -0.074 A 
ATOM      7  C6  UNL d   1       1.932   4.439   1.387  0.00  0.00     0.077 C 
ATOM      8  C7  UNL d   1       1.287   2.154   2.205  0.00  0.00    -0.001 A 
ENDROOT
TORSDOF 0
ENDMDL
