MODEL 1
REMARK minimizedAffinity 0.0762208179
REMARK minimizedRMSD -1
REMARK  0 active torsions:
REMARK  status: ('A' for Active; 'I' for Inactive)
ROOT
ATOM      1  C   UNL d   1       1.624  -0.331  -0.940  0.00  0.00     0.077 C 
ATOM      2  C1  UNL d   1       1.281   0.412   0.317  0.00  0.00    -0.074 A 
ATOM      3  C2  UNL d   1       1.598  -0.115   1.573  0.00  0.00    -0.005 A 
ATOM      4  C3  UNL d   1       1.281   0.592   2.733  0.00  0.00     0.006 A 
ATOM      5  C4  UNL d   1       0.644   1.831   2.649  0.00  0.00    -0.005 A 
ATOM      6  C5  UNL d   1       0.320   2.374   1.402  0.00  0.00    -0.074 A 
ATOM      7  C6  UNL d   1      -0.356   3.709   1.293  0.00  0.00     0.077 C 
ATOM      8  C7  UNL d   1       0.648   1.661   0.241  0.00  0.00    -0.001 A 
ENDROOT
TORSDOF 0
ENDMDL
