MODEL 1
REMARK minimizedAffinity -2.57201338
REMARK minimizedRMSD -1
REMARK  0 active torsions:
REMARK  status: ('A' for Active; 'I' for Inactive)
ROOT
ATOM      1  C   UNL d   1       0.412   1.966   2.115  0.00  0.00     0.077 C 
ATOM      2  C1  UNL d   1       1.010   3.242   1.602  0.00  0.00    -0.074 A 
ATOM      3  C2  UNL d   1       2.130   3.810   2.218  0.00  0.00    -0.005 A 
ATOM      4  C3  UNL d   1       2.681   4.993   1.724  0.00  0.00     0.006 A 
ATOM      5  C4  UNL d   1       2.118   5.618   0.610  0.00  0.00    -0.005 A 
ATOM      6  C5  UNL d   1       0.999   5.064  -0.020  0.00  0.00    -0.074 A 
ATOM      7  C6  UNL d   1       0.388   5.718  -1.223  0.00  0.00     0.077 C 
ATOM      8  C7  UNL d   1       0.456   3.872   0.479  0.00  0.00    -0.001 A 
ENDROOT
TORSDOF 0
ENDMDL
