MODEL 1
REMARK minimizedAffinity 1.99558568
REMARK minimizedRMSD -1
REMARK  0 active torsions:
REMARK  status: ('A' for Active; 'I' for Inactive)
ROOT
ATOM      1  C4' PXY d   1       3.247  -4.061   0.748  0.00  0.00     0.077 C 
ATOM      2  C1' PXY d   1       5.663  -4.073   6.000  0.00  0.00     0.077 C 
ATOM      3  C1  PXY d   1       5.037  -4.080   4.619  0.00  0.00    -0.082 A 
ATOM      4  C2  PXY d   1       4.455  -2.984   4.159  0.00  0.00     0.003 A 
ATOM      5  C3  PXY d   1       3.856  -2.982   2.926  0.00  0.00     0.003 A 
ATOM      6  C4  PXY d   1       3.900  -4.097   2.133  0.00  0.00    -0.082 A 
ATOM      7  C5  PXY d   1       4.501  -5.216   2.590  0.00  0.00     0.003 A 
ATOM      8  C6  PXY d   1       5.067  -5.210   3.862  0.00  0.00     0.003 A 
ENDROOT
TORSDOF 0
ENDMDL
