MODEL 1
REMARK minimizedAffinity 0.883542001
REMARK minimizedRMSD -1
REMARK  0 active torsions:
REMARK  status: ('A' for Active; 'I' for Inactive)
ROOT
ATOM      1  C4' PXY d   1      -3.527  -2.330  -1.209  0.00  0.00     0.077 C 
ATOM      2  C1' PXY d   1      -4.526   0.747  -6.000  0.00  0.00     0.077 C 
ATOM      3  C1  PXY d   1      -4.251  -0.060  -4.746  0.00  0.00    -0.082 A 
ATOM      4  C2  PXY d   1      -5.215  -0.797  -4.219  0.00  0.00     0.003 A 
ATOM      5  C3  PXY d   1      -4.993  -1.508  -3.067  0.00  0.00     0.003 A 
ATOM      6  C4  PXY d   1      -3.757  -1.506  -2.479  0.00  0.00    -0.082 A 
ATOM      7  C5  PXY d   1      -2.765  -0.765  -3.018  0.00  0.00     0.003 A 
ATOM      8  C6  PXY d   1      -3.022  -0.018  -4.164  0.00  0.00     0.003 A 
ENDROOT
TORSDOF 0
ENDMDL
