MODEL 1
REMARK minimizedAffinity 9.20193863
REMARK minimizedRMSD -1
REMARK  0 active torsions:
REMARK  status: ('A' for Active; 'I' for Inactive)
ROOT
ATOM      1  C4' PXY d   1       2.437  -3.460   0.774  0.00  0.00     0.077 C 
ATOM      2  C1' PXY d   1       3.562   1.989  -0.795  0.00  0.00     0.077 C 
ATOM      3  C1  PXY d   1       3.255   0.563  -0.379  0.00  0.00    -0.082 A 
ATOM      4  C2  PXY d   1       4.249  -0.267  -0.106  0.00  0.00     0.003 A 
ATOM      5  C3  PXY d   1       3.990  -1.568   0.241  0.00  0.00     0.003 A 
ATOM      6  C4  PXY d   1       2.699  -2.009   0.359  0.00  0.00    -0.082 A 
ATOM      7  C5  PXY d   1       1.680  -1.166   0.092  0.00  0.00     0.003 A 
ATOM      8  C6  PXY d   1       1.965   0.140  -0.298  0.00  0.00     0.003 A 
ENDROOT
TORSDOF 0
ENDMDL
