MODEL 1
REMARK minimizedAffinity -3.89467573
REMARK minimizedRMSD -1
REMARK  0 active torsions:
REMARK  status: ('A' for Active; 'I' for Inactive)
ROOT
ATOM      1  C4' PXY d   1       4.697  -3.930   4.501  0.00  0.00     0.077 C 
ATOM      2  C1' PXY d   1       2.296  -1.415  -0.117  0.00  0.00     0.077 C 
ATOM      3  C1  PXY d   1       2.931  -2.083   1.086  0.00  0.00    -0.082 A 
ATOM      4  C2  PXY d   1       2.359  -1.972   2.274  0.00  0.00     0.003 A 
ATOM      5  C3  PXY d   1       2.938  -2.543   3.379  0.00  0.00     0.003 A 
ATOM      6  C4  PXY d   1       4.085  -3.280   3.257  0.00  0.00    -0.082 A 
ATOM      7  C5  PXY d   1       4.669  -3.407   2.046  0.00  0.00     0.003 A 
ATOM      8  C6  PXY d   1       4.088  -2.785   0.945  0.00  0.00     0.003 A 
ENDROOT
TORSDOF 0
ENDMDL
