MODEL 1
REMARK minimizedAffinity -1.66554427
REMARK minimizedRMSD -1
REMARK  0 active torsions:
REMARK  status: ('A' for Active; 'I' for Inactive)
ROOT
ATOM      1  C4' PXY d   1      -3.885  -1.142  -2.907  0.00  0.00     0.077 C 
ATOM      2  C1' PXY d   1      -3.275   4.085  -5.298  0.00  0.00     0.077 C 
ATOM      3  C1  PXY d   1      -3.441   2.710  -4.682  0.00  0.00    -0.082 A 
ATOM      4  C2  PXY d   1      -3.461   2.581  -3.365  0.00  0.00     0.003 A 
ATOM      5  C3  PXY d   1      -3.578   1.342  -2.791  0.00  0.00     0.003 A 
ATOM      6  C4  PXY d   1      -3.729   0.228  -3.573  0.00  0.00    -0.082 A 
ATOM      7  C5  PXY d   1      -3.721   0.352  -4.917  0.00  0.00     0.003 A 
ATOM      8  C6  PXY d   1      -3.559   1.614  -5.480  0.00  0.00     0.003 A 
ENDROOT
TORSDOF 0
ENDMDL
