MODEL 1
REMARK minimizedAffinity 6.57452869
REMARK minimizedRMSD -1
REMARK  0 active torsions:
REMARK  status: ('A' for Active; 'I' for Inactive)
ROOT
ATOM      1  C4' PXY d   1       3.502  -3.994   0.712  0.00  0.00     0.077 C 
ATOM      2  C1' PXY d   1       5.327  -5.453   6.000  0.00  0.00     0.077 C 
ATOM      3  C1  PXY d   1       4.842  -5.060   4.618  0.00  0.00    -0.082 A 
ATOM      4  C2  PXY d   1       4.805  -5.967   3.656  0.00  0.00     0.003 A 
ATOM      5  C3  PXY d   1       4.399  -5.622   2.392  0.00  0.00     0.003 A 
ATOM      6  C4  PXY d   1       3.976  -4.347   2.125  0.00  0.00    -0.082 A 
ATOM      7  C5  PXY d   1       4.000  -3.419   3.104  0.00  0.00     0.003 A 
ATOM      8  C6  PXY d   1       4.455  -3.780   4.370  0.00  0.00     0.003 A 
ENDROOT
TORSDOF 0
ENDMDL
