MODEL 1
REMARK minimizedAffinity -0.849614978
REMARK minimizedRMSD -1
REMARK  0 active torsions:
REMARK  status: ('A' for Active; 'I' for Inactive)
ROOT
ATOM      1  C4' PXY d   1      -6.000   1.550  -4.852  0.00  0.00     0.077 C 
ATOM      2  C1' PXY d   1      -1.215  -1.598  -4.069  0.00  0.00     0.077 C 
ATOM      3  C1  PXY d   1      -2.463  -0.763  -4.281  0.00  0.00    -0.082 A 
ATOM      4  C2  PXY d   1      -3.469  -0.861  -3.427  0.00  0.00     0.003 A 
ATOM      5  C3  PXY d   1      -4.617  -0.138  -3.621  0.00  0.00     0.003 A 
ATOM      6  C4  PXY d   1      -4.717   0.734  -4.672  0.00  0.00    -0.082 A 
ATOM      7  C5  PXY d   1      -3.691   0.848  -5.542  0.00  0.00     0.003 A 
ATOM      8  C6  PXY d   1      -2.550   0.074  -5.350  0.00  0.00     0.003 A 
ENDROOT
TORSDOF 0
ENDMDL
