MODEL 1
REMARK minimizedAffinity 1.65944004
REMARK minimizedRMSD -1
REMARK  0 active torsions:
REMARK  status: ('A' for Active; 'I' for Inactive)
ROOT
ATOM      1  C4' PXY d   1      -3.150   3.844  -3.771  0.00  0.00     0.077 C 
ATOM      2  C1' PXY d   1      -4.446  -1.756  -3.152  0.00  0.00     0.077 C 
ATOM      3  C1  PXY d   1      -4.103  -0.289  -3.327  0.00  0.00    -0.082 A 
ATOM      4  C2  PXY d   1      -3.789   0.439  -2.268  0.00  0.00     0.003 A 
ATOM      5  C3  PXY d   1      -3.507   1.774  -2.404  0.00  0.00     0.003 A 
ATOM      6  C4  PXY d   1      -3.495   2.357  -3.643  0.00  0.00    -0.082 A 
ATOM      7  C5  PXY d   1      -3.804   1.618  -4.729  0.00  0.00     0.003 A 
ATOM      8  C6  PXY d   1      -4.127   0.274  -4.565  0.00  0.00     0.003 A 
ENDROOT
TORSDOF 0
ENDMDL
