MODEL 1
REMARK minimizedAffinity 0.123830058
REMARK minimizedRMSD -1
REMARK  0 active torsions:
REMARK  status: ('A' for Active; 'I' for Inactive)
ROOT
ATOM      1  C4' PXY d   1      -6.000   1.794  -5.247  0.00  0.00     0.077 C 
ATOM      2  C1' PXY d   1      -1.700  -1.995  -4.491  0.00  0.00     0.077 C 
ATOM      3  C1  PXY d   1      -2.836  -1.011  -4.692  0.00  0.00    -0.082 A 
ATOM      4  C2  PXY d   1      -2.565   0.246  -5.006  0.00  0.00     0.003 A 
ATOM      5  C3  PXY d   1      -3.579   1.156  -5.160  0.00  0.00     0.003 A 
ATOM      6  C4  PXY d   1      -4.885   0.764  -5.044  0.00  0.00    -0.082 A 
ATOM      7  C5  PXY d   1      -5.170  -0.519  -4.735  0.00  0.00     0.003 A 
ATOM      8  C6  PXY d   1      -4.125  -1.418  -4.542  0.00  0.00     0.003 A 
ENDROOT
TORSDOF 0
ENDMDL
