MODEL 1
REMARK minimizedAffinity -0.648013294
REMARK minimizedRMSD -1
REMARK  0 active torsions:
REMARK  status: ('A' for Active; 'I' for Inactive)
ROOT
ATOM      1  C4' PXY d   1      -5.999   1.354  -5.265  0.00  0.00     0.077 C 
ATOM      2  C1' PXY d   1      -1.343  -1.963  -4.408  0.00  0.00     0.077 C 
ATOM      3  C1  PXY d   1      -2.557  -1.085  -4.640  0.00  0.00    -0.082 A 
ATOM      4  C2  PXY d   1      -3.561  -1.117  -3.779  0.00  0.00     0.003 A 
ATOM      5  C3  PXY d   1      -4.680  -0.353  -3.990  0.00  0.00     0.003 A 
ATOM      6  C4  PXY d   1      -4.750   0.492  -5.066  0.00  0.00    -0.082 A 
ATOM      7  C5  PXY d   1      -3.725   0.538  -5.943  0.00  0.00     0.003 A 
ATOM      8  C6  PXY d   1      -2.615  -0.276  -5.732  0.00  0.00     0.003 A 
ENDROOT
TORSDOF 0
ENDMDL
