MODEL 1
REMARK minimizedAffinity 4.45990658
REMARK minimizedRMSD -1
REMARK  0 active torsions:
REMARK  status: ('A' for Active; 'I' for Inactive)
ROOT
ATOM      1  C4' PXY d   1      -1.265  -1.909  -4.380  0.00  0.00     0.077 C 
ATOM      2  C1' PXY d   1      -5.995   1.372  -4.915  0.00  0.00     0.077 C 
ATOM      3  C1  PXY d   1      -4.756   0.511  -4.761  0.00  0.00    -0.082 A 
ATOM      4  C2  PXY d   1      -3.826   0.530  -5.703  0.00  0.00     0.003 A 
ATOM      5  C3  PXY d   1      -2.715  -0.266  -5.595  0.00  0.00     0.003 A 
ATOM      6  C4  PXY d   1      -2.528  -1.049  -4.488  0.00  0.00    -0.082 A 
ATOM      7  C5  PXY d   1      -3.467  -1.065  -3.518  0.00  0.00     0.003 A 
ATOM      8  C6  PXY d   1      -4.607  -0.281  -3.665  0.00  0.00     0.003 A 
ENDROOT
TORSDOF 0
ENDMDL
