MODEL 1
REMARK minimizedAffinity -4.01719522
REMARK minimizedRMSD -1
REMARK  1 active torsions:
REMARK  status: ('A' for Active; 'I' for Inactive)
REMARK    1  A    between atoms: C1_2  and  C2_3 
ROOT
ATOM      1  C2  UNL d   1       0.632  -1.157  -0.144  0.00  0.00    -0.077 A 
ATOM      2  C3  UNL d   1       0.541  -1.106   1.254  0.00  0.00     0.002 A 
ATOM      3  C4  UNL d   1       1.642  -1.436   2.047  0.00  0.00     0.002 A 
ATOM      4  C5  UNL d   1       2.842  -1.816   1.450  0.00  0.00    -0.004 A 
ATOM      5  C6  UNL d   1       2.942  -1.872   0.061  0.00  0.00     0.002 A 
ATOM      6  C7  UNL d   1       1.842  -1.544  -0.733  0.00  0.00     0.002 A 
ENDROOT
BRANCH   1   7
ATOM      7  C1  UNL d   1      -0.540  -0.754  -1.001  0.00  0.00     0.055 C 
ATOM      8  C   UNL d   1      -1.086   0.605  -0.587  0.00  0.00     0.019 C 
ENDBRANCH   1   7
TORSDOF 1
ENDMDL
