MODEL 1
REMARK minimizedAffinity -5.28348303
REMARK minimizedRMSD -1
REMARK  1 active torsions:
REMARK  status: ('A' for Active; 'I' for Inactive)
REMARK    1  A    between atoms: C1_2  and  C2_3 
ROOT
ATOM      1  C2  UNL d   1      -0.255  -0.340  -0.154  0.00  0.00    -0.077 A 
ATOM      2  C3  UNL d   1      -0.091  -1.676  -0.546  0.00  0.00     0.002 A 
ATOM      3  C4  UNL d   1       1.124  -2.331  -0.334  0.00  0.00     0.002 A 
ATOM      4  C5  UNL d   1       2.182  -1.659   0.273  0.00  0.00    -0.004 A 
ATOM      5  C6  UNL d   1       2.031  -0.330   0.665  0.00  0.00     0.002 A 
ATOM      6  C7  UNL d   1       0.817   0.327   0.453  0.00  0.00     0.002 A 
ENDROOT
BRANCH   1   7
ATOM      7  C1  UNL d   1      -1.580   0.353  -0.337  0.00  0.00     0.055 C 
ATOM      8  C   UNL d   1      -2.084   0.937   0.975  0.00  0.00     0.019 C 
ENDBRANCH   1   7
TORSDOF 1
ENDMDL
