MODEL 1
REMARK minimizedAffinity -3.8352778
REMARK minimizedRMSD -1
REMARK  1 active torsions:
REMARK  status: ('A' for Active; 'I' for Inactive)
REMARK    1  A    between atoms: C1_2  and  C2_3 
ROOT
ATOM      1  C2  UNL d   1      -1.384   0.391   0.114  0.00  0.00    -0.077 A 
ATOM      2  C3  UNL d   1      -1.679  -0.150   1.373  0.00  0.00     0.002 A 
ATOM      3  C4  UNL d   1      -2.947   0.014   1.933  0.00  0.00     0.002 A 
ATOM      4  C5  UNL d   1      -3.931   0.715   1.239  0.00  0.00    -0.004 A 
ATOM      5  C6  UNL d   1      -3.647   1.259  -0.013  0.00  0.00     0.002 A 
ATOM      6  C7  UNL d   1      -2.379   1.097  -0.574  0.00  0.00     0.002 A 
ENDROOT
BRANCH   1   7
ATOM      7  C1  UNL d   1      -0.031   0.173  -0.513  0.00  0.00     0.055 C 
ATOM      8  C   UNL d   1       0.457  -1.252  -0.294  0.00  0.00     0.019 C 
ENDBRANCH   1   7
TORSDOF 1
ENDMDL
