MODEL 1
REMARK minimizedAffinity -3.35236955
REMARK minimizedRMSD -1
REMARK  1 active torsions:
REMARK  status: ('A' for Active; 'I' for Inactive)
REMARK    1  A    between atoms: N_2  and  C1_3 
ROOT
ATOM      1  C1  UNL d   1       3.314  -5.999  -4.419  0.00  0.00     0.143 A 
ATOM      2  C2  UNL d   1       4.109  -5.973  -3.268  0.00  0.00    -0.057 A 
ATOM      3  C3  UNL d   1       3.537  -5.988  -1.990  0.00  0.00     0.033 A 
ATOM      4  C4  UNL d   1       2.154  -5.999  -1.840  0.00  0.00    -0.042 A 
ATOM      5  C5  UNL d   1       1.344  -6.000  -2.970  0.00  0.00     0.033 A 
ATOM      6  C6  UNL d   1       1.921  -5.992  -4.243  0.00  0.00    -0.057 A 
ENDROOT
BRANCH   1   7
ATOM      7  N   UNL d   1       3.819  -5.886  -5.716  0.00  0.00    -0.732 N 
ATOM      8  C   UNL d   1       5.245  -5.938  -5.959  0.00  0.00     0.284 C 
ATOM      9  H3  UNL d   1       3.263  -6.400  -6.396  0.00  0.00     0.395 HD
ENDBRANCH   1   7
TORSDOF 1
ENDMDL
