MODEL 1
REMARK minimizedAffinity 6.28096342
REMARK minimizedRMSD -1
REMARK  1 active torsions:
REMARK  status: ('A' for Active; 'I' for Inactive)
REMARK    1  A    between atoms: N_2  and  C1_3 
ROOT
ATOM      1  C1  UNL d   1      -3.807  -1.095  -2.617  0.00  0.00     0.143 A 
ATOM      2  C2  UNL d   1      -3.305  -2.371  -2.342  0.00  0.00    -0.057 A 
ATOM      3  C3  UNL d   1      -4.138  -3.391  -1.865  0.00  0.00     0.033 A 
ATOM      4  C4  UNL d   1      -5.485  -3.143  -1.625  0.00  0.00    -0.042 A 
ATOM      5  C5  UNL d   1      -6.000  -1.874  -1.867  0.00  0.00     0.033 A 
ATOM      6  C6  UNL d   1      -5.165  -0.862  -2.350  0.00  0.00    -0.057 A 
ENDROOT
BRANCH   1   7
ATOM      7  N   UNL d   1      -3.011  -0.012  -3.000  0.00  0.00    -0.732 N 
ATOM      8  C   UNL d   1      -3.384   1.340  -2.642  0.00  0.00     0.284 C 
ATOM      9  H3  UNL d   1      -2.017  -0.208  -2.905  0.00  0.00     0.395 HD
ENDBRANCH   1   7
TORSDOF 1
ENDMDL
