MODEL 1
REMARK minimizedAffinity 7.8556447
REMARK minimizedRMSD -1
REMARK  1 active torsions:
REMARK  status: ('A' for Active; 'I' for Inactive)
REMARK    1  A    between atoms: N_2  and  C1_3 
ROOT
ATOM      1  C1  UNL d   1       3.612  -2.710   4.172  0.00  0.00     0.143 A 
ATOM      2  C2  UNL d   1       2.980  -3.899   3.793  0.00  0.00    -0.057 A 
ATOM      3  C3  UNL d   1       1.873  -3.891   2.935  0.00  0.00     0.033 A 
ATOM      4  C4  UNL d   1       1.360  -2.687   2.463  0.00  0.00    -0.042 A 
ATOM      5  C5  UNL d   1       1.957  -1.492   2.846  0.00  0.00     0.033 A 
ATOM      6  C6  UNL d   1       3.066  -1.507   3.697  0.00  0.00    -0.057 A 
ENDROOT
BRANCH   1   7
ATOM      7  N   UNL d   1       4.655  -2.645   5.099  0.00  0.00    -0.732 N 
ATOM      8  C   UNL d   1       6.000  -2.319   4.675  0.00  0.00     0.284 C 
ATOM      9  H3  UNL d   1       4.374  -2.199   5.969  0.00  0.00     0.395 HD
ENDBRANCH   1   7
TORSDOF 1
ENDMDL
