MODEL 1
REMARK minimizedAffinity 4.46653271
REMARK minimizedRMSD -1
REMARK  1 active torsions:
REMARK  status: ('A' for Active; 'I' for Inactive)
REMARK    1  A    between atoms: N_2  and  C1_3 
ROOT
ATOM      1  C1  UNL d   1       1.787  -3.545   3.981  0.00  0.00     0.143 A 
ATOM      2  C2  UNL d   1       1.999  -2.359   4.693  0.00  0.00    -0.057 A 
ATOM      3  C3  UNL d   1       2.362  -1.175   4.040  0.00  0.00     0.033 A 
ATOM      4  C4  UNL d   1       2.550  -1.163   2.662  0.00  0.00    -0.042 A 
ATOM      5  C5  UNL d   1       2.369  -2.335   1.937  0.00  0.00     0.033 A 
ATOM      6  C6  UNL d   1       1.999  -3.513   2.593  0.00  0.00    -0.057 A 
ENDROOT
BRANCH   1   7
ATOM      7  N   UNL d   1       1.520  -4.777   4.583  0.00  0.00    -0.732 N 
ATOM      8  C   UNL d   1       1.240  -4.859   6.000  0.00  0.00     0.284 C 
ATOM      9  H3  UNL d   1       0.928  -5.370   4.006  0.00  0.00     0.395 HD
ENDBRANCH   1   7
TORSDOF 1
ENDMDL
