MODEL 1
REMARK minimizedAffinity 8.82653427
REMARK minimizedRMSD -1
REMARK  1 active torsions:
REMARK  status: ('A' for Active; 'I' for Inactive)
REMARK    1  A    between atoms: N_2  and  C1_3 
ROOT
ATOM      1  C1  UNL d   1       2.475  -4.009   3.425  0.00  0.00     0.143 A 
ATOM      2  C2  UNL d   1       3.132  -2.893   3.953  0.00  0.00    -0.057 A 
ATOM      3  C3  UNL d   1       2.860  -1.602   3.485  0.00  0.00     0.033 A 
ATOM      4  C4  UNL d   1       1.942  -1.407   2.457  0.00  0.00    -0.042 A 
ATOM      5  C5  UNL d   1       1.295  -2.505   1.901  0.00  0.00     0.033 A 
ATOM      6  C6  UNL d   1       1.567  -3.791   2.377  0.00  0.00    -0.057 A 
ENDROOT
BRANCH   1   7
ATOM      7  N   UNL d   1       2.774  -5.327   3.780  0.00  0.00    -0.732 N 
ATOM      8  C   UNL d   1       3.374  -5.628   5.062  0.00  0.00     0.284 C 
ATOM      9  H3  UNL d   1       2.045  -5.980   3.499  0.00  0.00     0.395 HD
ENDBRANCH   1   7
TORSDOF 1
ENDMDL
