MODEL 1
REMARK minimizedAffinity 3.21945453
REMARK minimizedRMSD -1
REMARK  1 active torsions:
REMARK  status: ('A' for Active; 'I' for Inactive)
REMARK    1  A    between atoms: N_2  and  C1_3 
ROOT
ATOM      1  C1  UNL d   1       2.079  -4.137   4.390  0.00  0.00     0.143 A 
ATOM      2  C2  UNL d   1       0.829  -3.809   3.854  0.00  0.00    -0.057 A 
ATOM      3  C3  UNL d   1       0.668  -2.703   3.011  0.00  0.00     0.033 A 
ATOM      4  C4  UNL d   1       1.753  -1.886   2.711  0.00  0.00    -0.042 A 
ATOM      5  C5  UNL d   1       3.000  -2.178   3.252  0.00  0.00     0.033 A 
ATOM      6  C6  UNL d   1       3.156  -3.288   4.089  0.00  0.00    -0.057 A 
ENDROOT
BRANCH   1   7
ATOM      7  N   UNL d   1       2.284  -5.165   5.314  0.00  0.00    -0.732 N 
ATOM      8  C   UNL d   1       1.164  -5.785   5.988  0.00  0.00     0.284 C 
ATOM      9  H3  UNL d   1       3.002  -5.820   5.012  0.00  0.00     0.395 HD
ENDBRANCH   1   7
TORSDOF 1
ENDMDL
