MODEL 1
REMARK minimizedAffinity 6.07097149
REMARK minimizedRMSD -1
REMARK  1 active torsions:
REMARK  status: ('A' for Active; 'I' for Inactive)
REMARK    1  A    between atoms: N_2  and  C1_3 
ROOT
ATOM      1  C1  UNL d   1       0.895  -4.848   3.901  0.00  0.00     0.143 A 
ATOM      2  C2  UNL d   1       0.546  -3.748   3.111  0.00  0.00    -0.057 A 
ATOM      3  C3  UNL d   1       1.518  -2.865   2.625  0.00  0.00     0.033 A 
ATOM      4  C4  UNL d   1       2.858  -3.052   2.947  0.00  0.00    -0.042 A 
ATOM      5  C5  UNL d   1       3.226  -4.124   3.751  0.00  0.00     0.033 A 
ATOM      6  C6  UNL d   1       2.251  -5.006   4.228  0.00  0.00    -0.057 A 
ENDROOT
BRANCH   1   7
ATOM      7  N   UNL d   1      -0.034  -5.705   4.495  0.00  0.00    -0.732 N 
ATOM      8  C   UNL d   1       0.034  -6.000   5.911  0.00  0.00     0.284 C 
ATOM      9  H3  UNL d   1      -0.979  -5.556   4.147  0.00  0.00     0.395 HD
ENDBRANCH   1   7
TORSDOF 1
ENDMDL
