MODEL 1
REMARK minimizedAffinity 3.44435191
REMARK minimizedRMSD -1
REMARK  0 active torsions:
REMARK  status: ('A' for Active; 'I' for Inactive)
ROOT
ATOM      1  C1  BNZ d   1       3.242   4.646   5.976  0.00  0.00     0.000 A 
ATOM      2  C2  BNZ d   1       4.035   3.529   5.971  0.00  0.00     0.000 A 
ATOM      3  C3  BNZ d   1       5.397   3.639   5.999  0.00  0.00     0.000 A 
ATOM      4  C4  BNZ d   1       5.964   4.862   5.991  0.00  0.00     0.000 A 
ATOM      5  C5  BNZ d   1       5.178   5.997   5.987  0.00  0.00     0.000 A 
ATOM      6  C6  BNZ d   1       3.807   5.883   5.999  0.00  0.00     0.000 A 
ENDROOT
TORSDOF 0
ENDMDL
