MODEL 1
REMARK minimizedAffinity 5.79988337
REMARK minimizedRMSD -1
REMARK  0 active torsions:
REMARK  status: ('A' for Active; 'I' for Inactive)
ROOT
ATOM      1  C1  BNZ d   1      -0.590  -3.909   1.553  0.00  0.00     0.000 A 
ATOM      2  C2  BNZ d   1      -0.732  -3.311   0.329  0.00  0.00     0.000 A 
ATOM      3  C3  BNZ d   1      -1.548  -2.227   0.171  0.00  0.00     0.000 A 
ATOM      4  C4  BNZ d   1      -2.252  -1.767   1.225  0.00  0.00     0.000 A 
ATOM      5  C5  BNZ d   1      -2.127  -2.365   2.463  0.00  0.00     0.000 A 
ATOM      6  C6  BNZ d   1      -1.274  -3.432   2.628  0.00  0.00     0.000 A 
ENDROOT
TORSDOF 0
ENDMDL
