MODEL 1
REMARK minimizedAffinity 0.159676298
REMARK minimizedRMSD -1
REMARK  0 active torsions:
REMARK  status: ('A' for Active; 'I' for Inactive)
ROOT
ATOM      1  C1  BNZ d   1      -1.846  -2.470   1.525  0.00  0.00     0.000 A 
ATOM      2  C2  BNZ d   1      -1.397  -3.733   1.804  0.00  0.00     0.000 A 
ATOM      3  C3  BNZ d   1      -0.646  -4.426   0.896  0.00  0.00     0.000 A 
ATOM      4  C4  BNZ d   1      -0.381  -3.872  -0.305  0.00  0.00     0.000 A 
ATOM      5  C5  BNZ d   1      -0.835  -2.604  -0.605  0.00  0.00     0.000 A 
ATOM      6  C6  BNZ d   1      -1.557  -1.894   0.327  0.00  0.00     0.000 A 
ENDROOT
TORSDOF 0
ENDMDL
