MODEL 1
REMARK minimizedAffinity 4.48100138
REMARK minimizedRMSD -1
REMARK  0 active torsions:
REMARK  status: ('A' for Active; 'I' for Inactive)
ROOT
ATOM      1  C1  BNZ d   1      -4.125   3.947  -4.868  0.00  0.00     0.000 A 
ATOM      2  C2  BNZ d   1      -5.112   3.958  -5.818  0.00  0.00     0.000 A 
ATOM      3  C3  BNZ d   1      -6.000   4.994  -5.892  0.00  0.00     0.000 A 
ATOM      4  C4  BNZ d   1      -5.926   5.997  -4.994  0.00  0.00     0.000 A 
ATOM      5  C5  BNZ d   1      -4.942   5.996  -4.024  0.00  0.00     0.000 A 
ATOM      6  C6  BNZ d   1      -4.026   4.970  -3.977  0.00  0.00     0.000 A 
ENDROOT
TORSDOF 0
ENDMDL
