MODEL 1
REMARK minimizedAffinity 2.61838198
REMARK minimizedRMSD -1
REMARK  0 active torsions:
REMARK  status: ('A' for Active; 'I' for Inactive)
ROOT
ATOM      1  C1  BNZ d   1      -6.000   3.947  -0.316  0.00  0.00     0.000 A 
ATOM      2  C2  BNZ d   1      -4.957   3.123   0.012  0.00  0.00     0.000 A 
ATOM      3  C3  BNZ d   1      -3.909   3.584   0.759  0.00  0.00     0.000 A 
ATOM      4  C4  BNZ d   1      -3.886   4.876   1.142  0.00  0.00     0.000 A 
ATOM      5  C5  BNZ d   1      -4.926   5.722   0.811  0.00  0.00     0.000 A 
ATOM      6  C6  BNZ d   1      -5.997   5.245   0.092  0.00  0.00     0.000 A 
ENDROOT
TORSDOF 0
ENDMDL
