MODEL 1
REMARK minimizedAffinity 6.98816061
REMARK minimizedRMSD -1
REMARK  0 active torsions:
REMARK  status: ('A' for Active; 'I' for Inactive)
ROOT
ATOM      1  C1  BNZ d   1      -0.979  -3.979  -1.473  0.00  0.00     0.000 A 
ATOM      2  C2  BNZ d   1      -1.511  -2.784  -1.068  0.00  0.00     0.000 A 
ATOM      3  C3  BNZ d   1      -2.169  -1.975  -1.952  0.00  0.00     0.000 A 
ATOM      4  C4  BNZ d   1      -2.258  -2.343  -3.247  0.00  0.00     0.000 A 
ATOM      5  C5  BNZ d   1      -1.718  -3.540  -3.673  0.00  0.00     0.000 A 
ATOM      6  C6  BNZ d   1      -1.091  -4.369  -2.772  0.00  0.00     0.000 A 
ENDROOT
TORSDOF 0
ENDMDL
