MODEL 1
REMARK minimizedAffinity -2.54423356
REMARK minimizedRMSD -1
REMARK  0 active torsions:
REMARK  status: ('A' for Active; 'I' for Inactive)
ROOT
ATOM      1  C1  BNZ d   1      -5.229   0.550   5.967  0.00  0.00     0.000 A 
ATOM      2  C2  BNZ d   1      -4.858  -0.768   5.974  0.00  0.00     0.000 A 
ATOM      3  C3  BNZ d   1      -3.553  -1.129   5.790  0.00  0.00     0.000 A 
ATOM      4  C4  BNZ d   1      -2.627  -0.176   5.559  0.00  0.00     0.000 A 
ATOM      5  C5  BNZ d   1      -2.987   1.157   5.540  0.00  0.00     0.000 A 
ATOM      6  C6  BNZ d   1      -4.295   1.519   5.764  0.00  0.00     0.000 A 
ENDROOT
TORSDOF 0
ENDMDL
