MODEL 1
REMARK minimizedAffinity 7.60567856
REMARK minimizedRMSD -1
REMARK  0 active torsions:
REMARK  status: ('A' for Active; 'I' for Inactive)
ROOT
ATOM      1  C1  BNZ d   1      -0.880  -3.255   0.049  0.00  0.00     0.000 A 
ATOM      2  C2  BNZ d   1      -1.819  -2.630   0.826  0.00  0.00     0.000 A 
ATOM      3  C3  BNZ d   1      -2.296  -1.395   0.489  0.00  0.00     0.000 A 
ATOM      4  C4  BNZ d   1      -1.805  -0.769  -0.601  0.00  0.00     0.000 A 
ATOM      5  C5  BNZ d   1      -0.852  -1.382  -1.389  0.00  0.00     0.000 A 
ATOM      6  C6  BNZ d   1      -0.402  -2.643  -1.068  0.00  0.00     0.000 A 
ENDROOT
TORSDOF 0
ENDMDL
