MODEL 1
REMARK minimizedAffinity 1.62931132
REMARK minimizedRMSD -1
REMARK  0 active torsions:
REMARK  status: ('A' for Active; 'I' for Inactive)
ROOT
ATOM      1  C1  BNZ d   1      -4.025   4.067  -5.074  0.00  0.00     0.000 A 
ATOM      2  C2  BNZ d   1      -5.035   4.067  -6.000  0.00  0.00     0.000 A 
ATOM      3  C3  BNZ d   1      -6.000   5.035  -5.982  0.00  0.00     0.000 A 
ATOM      4  C4  BNZ d   1      -5.977   5.977  -5.018  0.00  0.00     0.000 A 
ATOM      5  C5  BNZ d   1      -4.971   5.985  -4.072  0.00  0.00     0.000 A 
ATOM      6  C6  BNZ d   1      -3.979   5.032  -4.116  0.00  0.00     0.000 A 
ENDROOT
TORSDOF 0
ENDMDL
