MODEL 1
REMARK minimizedAffinity 6.78991985
REMARK minimizedRMSD -1
REMARK  0 active torsions:
REMARK  status: ('A' for Active; 'I' for Inactive)
ROOT
ATOM      1  C1  BNZ d   1       3.960   4.128   5.999  0.00  0.00     0.000 A 
ATOM      2  C2  BNZ d   1       5.279   4.497   6.000  0.00  0.00     0.000 A 
ATOM      3  C3  BNZ d   1       5.999   4.523   4.838  0.00  0.00     0.000 A 
ATOM      4  C4  BNZ d   1       5.412   4.141   3.686  0.00  0.00     0.000 A 
ATOM      5  C5  BNZ d   1       4.086   3.757   3.670  0.00  0.00     0.000 A 
ATOM      6  C6  BNZ d   1       3.354   3.769   4.835  0.00  0.00     0.000 A 
ENDROOT
TORSDOF 0
ENDMDL
