MODEL 1
REMARK minimizedAffinity 2.41107512
REMARK minimizedRMSD -1
REMARK  0 active torsions:
REMARK  status: ('A' for Active; 'I' for Inactive)
ROOT
ATOM      1  C1  BNZ d   1      -5.648   5.180   2.259  0.00  0.00     0.000 A 
ATOM      2  C2  BNZ d   1      -4.519   4.406   2.226  0.00  0.00     0.000 A 
ATOM      3  C3  BNZ d   1      -3.678   4.441   1.149  0.00  0.00     0.000 A 
ATOM      4  C4  BNZ d   1      -3.986   5.220   0.092  0.00  0.00     0.000 A 
ATOM      5  C5  BNZ d   1      -5.126   5.999   0.106  0.00  0.00     0.000 A 
ATOM      6  C6  BNZ d   1      -5.950   5.990   1.208  0.00  0.00     0.000 A 
ENDROOT
TORSDOF 0
ENDMDL
