MODEL 1
REMARK minimizedAffinity 2.05263257
REMARK minimizedRMSD -1
REMARK  0 active torsions:
REMARK  status: ('A' for Active; 'I' for Inactive)
ROOT
ATOM      1  C1  BNZ d   1       6.000   2.216  -2.123  0.00  0.00     0.000 A 
ATOM      2  C2  BNZ d   1       4.834   1.606  -2.501  0.00  0.00     0.000 A 
ATOM      3  C3  BNZ d   1       3.657   1.890  -1.865  0.00  0.00     0.000 A 
ATOM      4  C4  BNZ d   1       3.655   2.752  -0.828  0.00  0.00     0.000 A 
ATOM      5  C5  BNZ d   1       4.825   3.368  -0.429  0.00  0.00     0.000 A 
ATOM      6  C6  BNZ d   1       6.000   3.110  -1.097  0.00  0.00     0.000 A 
ENDROOT
TORSDOF 0
ENDMDL
