MODEL 1
REMARK minimizedAffinity 1.29307365
REMARK minimizedRMSD -1
REMARK  0 active torsions:
REMARK  status: ('A' for Active; 'I' for Inactive)
ROOT
ATOM      1  C1  BNZ d   1      -1.673  -2.755   2.703  0.00  0.00     0.000 A 
ATOM      2  C2  BNZ d   1      -2.760  -1.958   2.463  0.00  0.00     0.000 A 
ATOM      3  C3  BNZ d   1      -3.102  -1.607   1.187  0.00  0.00     0.000 A 
ATOM      4  C4  BNZ d   1      -2.335  -2.020   0.157  0.00  0.00     0.000 A 
ATOM      5  C5  BNZ d   1      -1.230  -2.817   0.384  0.00  0.00     0.000 A 
ATOM      6  C6  BNZ d   1      -0.911  -3.200   1.667  0.00  0.00     0.000 A 
ENDROOT
TORSDOF 0
ENDMDL
