MODEL 1
REMARK minimizedAffinity -2.41259313
REMARK minimizedRMSD -1
REMARK  0 active torsions:
REMARK  status: ('A' for Active; 'I' for Inactive)
ROOT
ATOM      1  C   UNL d   1       0.424   1.379  -0.828  0.00  0.00     0.172 C 
ATOM      2  N   UNL d   1       0.150   0.687   0.410  0.00  0.00    -0.070 N 
ATOM      3  C1  UNL d   1      -0.833   1.013   1.306  0.00  0.00    -0.004 A 
ATOM      4  C2  UNL d   1      -0.767   0.115   2.349  0.00  0.00    -0.047 A 
ATOM      5  C3  UNL d   1       0.292  -0.781   2.071  0.00  0.00    -0.047 A 
ATOM      6  C4  UNL d   1       0.843  -0.404   0.864  0.00  0.00    -0.004 A 
ENDROOT
TORSDOF 0
ENDMDL
