MODEL 1
REMARK minimizedAffinity -2.37763166
REMARK minimizedRMSD -1
REMARK  0 active torsions:
REMARK  status: ('A' for Active; 'I' for Inactive)
ROOT
ATOM      1  C   UNL d   1      -1.151   2.131   2.191  0.00  0.00     0.172 C 
ATOM      2  N   UNL d   1      -0.513   1.151   1.343  0.00  0.00    -0.070 N 
ATOM      3  C1  UNL d   1       0.044   1.399   0.117  0.00  0.00    -0.004 A 
ATOM      4  C2  UNL d   1       0.547   0.210  -0.366  0.00  0.00    -0.047 A 
ATOM      5  C3  UNL d   1       0.283  -0.787   0.603  0.00  0.00    -0.047 A 
ATOM      6  C4  UNL d   1      -0.374  -0.176   1.651  0.00  0.00    -0.004 A 
ENDROOT
TORSDOF 0
ENDMDL
