MODEL 1
REMARK minimizedAffinity -1.17813098
REMARK minimizedRMSD -1
REMARK  0 active torsions:
REMARK  status: ('A' for Active; 'I' for Inactive)
ROOT
ATOM      1  C   UNL d   1       0.091  -1.377  -1.034  0.00  0.00     0.172 C 
ATOM      2  N   UNL d   1      -0.397  -0.685   0.136  0.00  0.00    -0.070 N 
ATOM      3  C1  UNL d   1      -1.277  -1.191   1.054  0.00  0.00    -0.004 A 
ATOM      4  C2  UNL d   1      -1.488  -0.225   2.014  0.00  0.00    -0.047 A 
ATOM      5  C3  UNL d   1      -0.708   0.901   1.660  0.00  0.00    -0.047 A 
ATOM      6  C4  UNL d   1      -0.042   0.589   0.493  0.00  0.00    -0.004 A 
ENDROOT
TORSDOF 0
ENDMDL
