MODEL 1
REMARK minimizedAffinity -3.62630486
REMARK minimizedRMSD -1
REMARK  0 active torsions:
REMARK  status: ('A' for Active; 'I' for Inactive)
ROOT
ATOM      1  C   UNL d   1      -2.459   1.632   0.737  0.00  0.00     0.172 C 
ATOM      2  N   UNL d   1      -1.205   0.943   0.543  0.00  0.00    -0.070 N 
ATOM      3  C1  UNL d   1      -0.642   0.049   1.413  0.00  0.00    -0.004 A 
ATOM      4  C2  UNL d   1       0.546  -0.382   0.866  0.00  0.00    -0.047 A 
ATOM      5  C3  UNL d   1       0.704   0.277  -0.377  0.00  0.00    -0.047 A 
ATOM      6  C4  UNL d   1      -0.394   1.092  -0.551  0.00  0.00    -0.004 A 
ENDROOT
TORSDOF 0
ENDMDL
