MODEL 1
REMARK minimizedAffinity -4.15969801
REMARK minimizedRMSD -1
REMARK  0 active torsions:
REMARK  status: ('A' for Active; 'I' for Inactive)
ROOT
ATOM      1  C   UNL d   1       0.331   0.105  -0.351  0.00  0.00     0.172 C 
ATOM      2  N   UNL d   1      -0.531   1.051   0.317  0.00  0.00    -0.070 N 
ATOM      3  C1  UNL d   1      -1.424   0.754   1.312  0.00  0.00    -0.004 A 
ATOM      4  C2  UNL d   1      -2.049   1.925   1.682  0.00  0.00    -0.047 A 
ATOM      5  C3  UNL d   1      -1.515   2.962   0.881  0.00  0.00    -0.047 A 
ATOM      6  C4  UNL d   1      -0.577   2.393   0.045  0.00  0.00    -0.004 A 
ENDROOT
TORSDOF 0
ENDMDL
