MODEL 1
REMARK minimizedAffinity -3.76572394
REMARK minimizedRMSD -1
REMARK  0 active torsions:
REMARK  status: ('A' for Active; 'I' for Inactive)
ROOT
ATOM      1  C   UNL d   1       0.655   0.077  -0.013  0.00  0.00     0.172 C 
ATOM      2  N   UNL d   1      -0.125   1.262   0.257  0.00  0.00    -0.070 N 
ATOM      3  C1  UNL d   1      -0.039   2.446  -0.425  0.00  0.00    -0.004 A 
ATOM      4  C2  UNL d   1      -0.944   3.322   0.135  0.00  0.00    -0.047 A 
ATOM      5  C3  UNL d   1      -1.595   2.641   1.191  0.00  0.00    -0.047 A 
ATOM      6  C4  UNL d   1      -1.069   1.368   1.244  0.00  0.00    -0.004 A 
ENDROOT
TORSDOF 0
ENDMDL
