MODEL 1
REMARK minimizedAffinity -2.64724398
REMARK minimizedRMSD -1
REMARK  0 active torsions:
REMARK  status: ('A' for Active; 'I' for Inactive)
ROOT
ATOM      1  C   UNL d   1       0.102  -0.121  -0.073  0.00  0.00     0.172 C 
ATOM      2  N   UNL d   1       0.579  -1.217  -0.883  0.00  0.00    -0.070 N 
ATOM      3  C1  UNL d   1      -0.154  -1.899  -1.817  0.00  0.00    -0.004 A 
ATOM      4  C2  UNL d   1       0.659  -2.866  -2.368  0.00  0.00    -0.047 A 
ATOM      5  C3  UNL d   1       1.924  -2.762  -1.743  0.00  0.00    -0.047 A 
ATOM      6  C4  UNL d   1       1.847  -1.734  -0.828  0.00  0.00    -0.004 A 
ENDROOT
TORSDOF 0
ENDMDL
