MODEL 1
REMARK minimizedAffinity -3.28801107
REMARK minimizedRMSD -1
REMARK  0 active torsions:
REMARK  status: ('A' for Active; 'I' for Inactive)
ROOT
ATOM      1  C   UNL d   1      -1.730   2.042   2.144  0.00  0.00     0.172 C 
ATOM      2  N   UNL d   1      -0.934   1.145   1.339  0.00  0.00    -0.070 N 
ATOM      3  C1  UNL d   1      -0.570  -0.129   1.686  0.00  0.00    -0.004 A 
ATOM      4  C2  UNL d   1       0.182  -0.648   0.654  0.00  0.00    -0.047 A 
ATOM      5  C3  UNL d   1       0.273   0.348  -0.346  0.00  0.00    -0.047 A 
ATOM      6  C4  UNL d   1      -0.426   1.448   0.104  0.00  0.00    -0.004 A 
ENDROOT
TORSDOF 0
ENDMDL
