MODEL 1
REMARK minimizedAffinity -4.06434631
REMARK minimizedRMSD -1
REMARK  0 active torsions:
REMARK  status: ('A' for Active; 'I' for Inactive)
ROOT
ATOM      1  C   UNL d   1       1.061   0.161  -0.417  0.00  0.00     0.172 C 
ATOM      2  N   UNL d   1       0.075   0.919   0.317  0.00  0.00    -0.070 N 
ATOM      3  C1  UNL d   1      -0.487   2.101  -0.087  0.00  0.00    -0.004 A 
ATOM      4  C2  UNL d   1      -1.377   2.500   0.886  0.00  0.00    -0.047 A 
ATOM      5  C3  UNL d   1      -1.349   1.524   1.911  0.00  0.00    -0.047 A 
ATOM      6  C4  UNL d   1      -0.442   0.557   1.533  0.00  0.00    -0.004 A 
ENDROOT
TORSDOF 0
ENDMDL
