MODEL 1
REMARK minimizedAffinity -3.24583101
REMARK minimizedRMSD -1
REMARK  0 active torsions:
REMARK  status: ('A' for Active; 'I' for Inactive)
ROOT
ATOM      1  C   UNL d   1       0.379  -0.333  -0.111  0.00  0.00     0.172 C 
ATOM      2  N   UNL d   1      -0.561   0.519   0.581  0.00  0.00    -0.070 N 
ATOM      3  C1  UNL d   1      -0.824   1.828   0.278  0.00  0.00    -0.004 A 
ATOM      4  C2  UNL d   1      -1.775   2.284   1.165  0.00  0.00    -0.047 A 
ATOM      5  C3  UNL d   1      -2.093   1.211   2.032  0.00  0.00    -0.047 A 
ATOM      6  C4  UNL d   1      -1.327   0.131   1.648  0.00  0.00    -0.004 A 
ENDROOT
TORSDOF 0
ENDMDL
