MODEL 1
REMARK minimizedAffinity -3.86988592
REMARK minimizedRMSD -1
REMARK  0 active torsions:
REMARK  status: ('A' for Active; 'I' for Inactive)
ROOT
ATOM      1  C   UNL d   1       0.035  -0.425  -0.452  0.00  0.00     0.172 C 
ATOM      2  N   UNL d   1      -0.633   0.723   0.115  0.00  0.00    -0.070 N 
ATOM      3  C1  UNL d   1      -0.481   2.019  -0.297  0.00  0.00    -0.004 A 
ATOM      4  C2  UNL d   1      -1.286   2.811   0.493  0.00  0.00    -0.047 A 
ATOM      5  C3  UNL d   1      -1.944   1.960   1.413  0.00  0.00    -0.047 A 
ATOM      6  C4  UNL d   1      -1.521   0.673   1.157  0.00  0.00    -0.004 A 
ENDROOT
TORSDOF 0
ENDMDL
