MODEL 1
REMARK minimizedAffinity -3.27489948
REMARK minimizedRMSD -1
REMARK  0 active torsions:
REMARK  status: ('A' for Active; 'I' for Inactive)
ROOT
ATOM      1  C   UNL d   1       0.644  -0.779  -0.775  0.00  0.00     0.172 C 
ATOM      2  N   UNL d   1      -0.135   0.035   0.128  0.00  0.00    -0.070 N 
ATOM      3  C1  UNL d   1      -0.439   1.358  -0.050  0.00  0.00    -0.004 A 
ATOM      4  C2  UNL d   1      -1.196   1.766   1.027  0.00  0.00    -0.047 A 
ATOM      5  C3  UNL d   1      -1.351   0.650   1.882  0.00  0.00    -0.047 A 
ATOM      6  C4  UNL d   1      -0.685  -0.409   1.302  0.00  0.00    -0.004 A 
ENDROOT
TORSDOF 0
ENDMDL
