MODEL 1
REMARK minimizedAffinity -2.2624135
REMARK minimizedRMSD -1
REMARK  0 active torsions:
REMARK  status: ('A' for Active; 'I' for Inactive)
ROOT
ATOM      1  C   UNL d   1       1.116  -0.595  -0.359  0.00  0.00     0.172 C 
ATOM      2  N   UNL d   1       0.238   0.039   0.597  0.00  0.00    -0.070 N 
ATOM      3  C1  UNL d   1       0.517   0.247   1.921  0.00  0.00    -0.004 A 
ATOM      4  C2  UNL d   1      -0.570   0.877   2.488  0.00  0.00    -0.047 A 
ATOM      5  C3  UNL d   1      -1.536   1.053   1.469  0.00  0.00    -0.047 A 
ATOM      6  C4  UNL d   1      -1.010   0.525   0.309  0.00  0.00    -0.004 A 
ENDROOT
TORSDOF 0
ENDMDL
