MODEL 1
REMARK minimizedAffinity -4.13240957
REMARK minimizedRMSD -1
REMARK  0 active torsions:
REMARK  status: ('A' for Active; 'I' for Inactive)
ROOT
ATOM      1  C   UNL d   1      -0.014   3.537  -0.942  0.00  0.00     0.172 C 
ATOM      2  N   UNL d   1      -0.702   2.632  -0.052  0.00  0.00    -0.070 N 
ATOM      3  C1  UNL d   1      -1.499   2.999   1.000  0.00  0.00    -0.004 A 
ATOM      4  C2  UNL d   1      -1.967   1.848   1.596  0.00  0.00    -0.047 A 
ATOM      5  C3  UNL d   1      -1.432   0.751   0.879  0.00  0.00    -0.047 A 
ATOM      6  C4  UNL d   1      -0.653   1.266  -0.136  0.00  0.00    -0.004 A 
ENDROOT
TORSDOF 0
ENDMDL
