MODEL 1
REMARK minimizedAffinity -3.63599539
REMARK minimizedRMSD -1
REMARK  0 active torsions:
REMARK  status: ('A' for Active; 'I' for Inactive)
ROOT
ATOM      1  C   UNL d   1       0.623  -0.572  -0.584  0.00  0.00     0.172 C 
ATOM      2  N   UNL d   1      -0.219   0.193   0.307  0.00  0.00    -0.070 N 
ATOM      3  C1  UNL d   1      -0.584  -0.177   1.574  0.00  0.00    -0.004 A 
ATOM      4  C2  UNL d   1      -1.386   0.818   2.089  0.00  0.00    -0.047 A 
ATOM      5  C3  UNL d   1      -1.507   1.820   1.098  0.00  0.00    -0.047 A 
ATOM      6  C4  UNL d   1      -0.775   1.408   0.005  0.00  0.00    -0.004 A 
ENDROOT
TORSDOF 0
ENDMDL
