MODEL 1
REMARK minimizedAffinity -2.25431085
REMARK minimizedRMSD -1
REMARK  0 active torsions:
REMARK  status: ('A' for Active; 'I' for Inactive)
ROOT
ATOM      1  C   UNL d   1      -0.220  -0.495  -0.613  0.00  0.00     0.172 C 
ATOM      2  N   UNL d   1      -0.892   0.464   0.232  0.00  0.00    -0.070 N 
ATOM      3  C1  UNL d   1      -0.528   0.796   1.509  0.00  0.00    -0.004 A 
ATOM      4  C2  UNL d   1      -1.418   1.743   1.969  0.00  0.00    -0.047 A 
ATOM      5  C3  UNL d   1      -2.350   1.987   0.933  0.00  0.00    -0.047 A 
ATOM      6  C4  UNL d   1      -2.001   1.182  -0.131  0.00  0.00    -0.004 A 
ENDROOT
TORSDOF 0
ENDMDL
