MODEL 1
REMARK minimizedAffinity -3.55584788
REMARK minimizedRMSD -1
REMARK  2 active torsions:
REMARK  status: ('A' for Active; 'I' for Inactive)
REMARK    1  A    between atoms: C1_2  and  C2_3 
REMARK    2  A    between atoms: C2_3  and  C3_4 
ROOT
ATOM      1  C3  UNL d   1       0.576  -0.104   1.451  0.00  0.00    -0.075 A 
ATOM      2  C4  UNL d   1       0.937  -0.821   0.301  0.00  0.00     0.002 A 
ATOM      3  C5  UNL d   1       0.369  -0.511  -0.935  0.00  0.00     0.002 A 
ATOM      4  C6  UNL d   1      -0.573   0.511  -1.035  0.00  0.00    -0.004 A 
ATOM      5  C7  UNL d   1      -0.951   1.219   0.104  0.00  0.00     0.002 A 
ATOM      6  C8  UNL d   1      -0.381   0.913   1.341  0.00  0.00     0.002 A 
ENDROOT
BRANCH   1   7
ATOM      7  C2  UNL d   1       1.210  -0.415   2.786  0.00  0.00     0.056 C 
BRANCH   7   8
ATOM      8  C1  UNL d   1       2.707  -0.733   2.708  0.00  0.00     0.007 C 
ATOM      9  C   UNL d   1       3.227  -1.480   3.929  0.00  0.00     0.009 C 
ENDBRANCH   7   8
ENDBRANCH   1   7
TORSDOF 2
ENDMDL
