MODEL 1
REMARK minimizedAffinity 2.91455913
REMARK minimizedRMSD -1
REMARK  2 active torsions:
REMARK  status: ('A' for Active; 'I' for Inactive)
REMARK    1  A    between atoms: C1_2  and  C2_3 
REMARK    2  A    between atoms: C2_3  and  C3_4 
ROOT
ATOM      1  C3  UNL d   1       3.618  -1.372  -0.447  0.00  0.00    -0.075 A 
ATOM      2  C4  UNL d   1       3.915  -2.740  -0.371  0.00  0.00     0.002 A 
ATOM      3  C5  UNL d   1       5.046  -3.256  -1.005  0.00  0.00     0.002 A 
ATOM      4  C6  UNL d   1       5.886  -2.414  -1.731  0.00  0.00    -0.004 A 
ATOM      5  C7  UNL d   1       5.591  -1.056  -1.828  0.00  0.00     0.002 A 
ATOM      6  C8  UNL d   1       4.463  -0.537  -1.190  0.00  0.00     0.002 A 
ENDROOT
BRANCH   1   7
ATOM      7  C2  UNL d   1       2.412  -0.803   0.261  0.00  0.00     0.056 C 
BRANCH   7   8
ATOM      8  C1  UNL d   1       1.126  -0.837  -0.570  0.00  0.00     0.007 C 
ATOM      9  C   UNL d   1       0.830   0.480  -1.275  0.00  0.00     0.009 C 
ENDBRANCH   7   8
ENDBRANCH   1   7
TORSDOF 2
ENDMDL
