MODEL 1
REMARK minimizedAffinity 15.5684013
REMARK minimizedRMSD -1
REMARK  0 active torsions:
REMARK  status: ('A' for Active; 'I' for Inactive)
ROOT
ATOM      1  O1  BZF d   1      -4.224   4.253   3.671  0.00  0.00    -0.204 OA
ATOM      2  C2  BZF d   1      -5.472   4.011   4.213  0.00  0.00     0.174 A 
ATOM      3  C3  BZF d   1      -5.756   2.693   4.189  0.00  0.00    -0.012 A 
ATOM      4  C3A BZF d   1      -4.577   2.063   3.680  0.00  0.00    -0.107 A 
ATOM      5  C4  BZF d   1      -4.238   0.762   3.437  0.00  0.00     0.055 A 
ATOM      6  C5  BZF d   1      -3.035   0.489   2.868  0.00  0.00    -0.016 A 
ATOM      7  C6  BZF d   1      -2.150   1.489   2.525  0.00  0.00     0.022 A 
ATOM      8  C7  BZF d   1      -2.440   2.794   2.751  0.00  0.00     0.029 A 
ATOM      9  C7A BZF d   1      -3.641   3.072   3.356  0.00  0.00     0.058 A 
ENDROOT
TORSDOF 0
ENDMDL
