MODEL 1
REMARK minimizedAffinity -3.70076227
REMARK minimizedRMSD -1
REMARK  0 active torsions:
REMARK  status: ('A' for Active; 'I' for Inactive)
ROOT
ATOM      1  O1  BZF d   1       5.731  -4.217  -1.047  0.00  0.00    -0.204 OA
ATOM      2  C2  BZF d   1       5.503  -4.409   0.302  0.00  0.00     0.174 A 
ATOM      3  C3  BZF d   1       4.181  -4.455   0.562  0.00  0.00    -0.012 A 
ATOM      4  C3A BZF d   1       3.543  -4.373  -0.717  0.00  0.00    -0.107 A 
ATOM      5  C4  BZF d   1       2.237  -4.384  -1.117  0.00  0.00     0.055 A 
ATOM      6  C5  BZF d   1       1.949  -4.212  -2.434  0.00  0.00    -0.016 A 
ATOM      7  C6  BZF d   1       2.939  -4.022  -3.375  0.00  0.00     0.022 A 
ATOM      8  C7  BZF d   1       4.249  -4.008  -3.027  0.00  0.00     0.029 A 
ATOM      9  C7A BZF d   1       4.545  -4.214  -1.701  0.00  0.00     0.058 A 
ENDROOT
TORSDOF 0
ENDMDL
