MODEL 1
REMARK minimizedAffinity -1.87970245
REMARK minimizedRMSD -1
REMARK  0 active torsions:
REMARK  status: ('A' for Active; 'I' for Inactive)
ROOT
ATOM      1  O1  BZF d   1       0.394   4.842   0.322  0.00  0.00    -0.204 OA
ATOM      2  C2  BZF d   1       0.709   5.999  -0.364  0.00  0.00     0.174 A 
ATOM      3  C3  BZF d   1       1.540   5.735  -1.392  0.00  0.00    -0.012 A 
ATOM      4  C3A BZF d   1       1.686   4.311  -1.402  0.00  0.00    -0.107 A 
ATOM      5  C4  BZF d   1       2.376   3.444  -2.200  0.00  0.00     0.055 A 
ATOM      6  C5  BZF d   1       2.368   2.119  -1.896  0.00  0.00    -0.016 A 
ATOM      7  C6  BZF d   1       1.685   1.629  -0.802  0.00  0.00     0.022 A 
ATOM      8  C7  BZF d   1       0.982   2.450   0.015  0.00  0.00     0.029 A 
ATOM      9  C7A BZF d   1       0.962   3.785  -0.307  0.00  0.00     0.058 A 
ENDROOT
TORSDOF 0
ENDMDL
