MODEL 1
REMARK minimizedAffinity 4.26260567
REMARK minimizedRMSD -1
REMARK  0 active torsions:
REMARK  status: ('A' for Active; 'I' for Inactive)
ROOT
ATOM      1  O1  BZF d   1       1.903  -2.828  -0.045  0.00  0.00    -0.204 OA
ATOM      2  C2  BZF d   1       0.723  -3.216  -0.652  0.00  0.00     0.174 A 
ATOM      3  C3  BZF d   1       0.364  -2.333  -1.606  0.00  0.00    -0.012 A 
ATOM      4  C3A BZF d   1       1.430  -1.380  -1.658  0.00  0.00    -0.107 A 
ATOM      5  C4  BZF d   1       1.661  -0.271  -2.420  0.00  0.00     0.055 A 
ATOM      6  C5  BZF d   1       2.764   0.483  -2.171  0.00  0.00    -0.016 A 
ATOM      7  C6  BZF d   1       3.653   0.160  -1.167  0.00  0.00     0.022 A 
ATOM      8  C7  BZF d   1       3.469  -0.934  -0.389  0.00  0.00     0.029 A 
ATOM      9  C7A BZF d   1       2.373  -1.716  -0.659  0.00  0.00     0.058 A 
ENDROOT
TORSDOF 0
ENDMDL
