MODEL 1
REMARK minimizedAffinity 0.0605056062
REMARK minimizedRMSD -1
REMARK  0 active torsions:
REMARK  status: ('A' for Active; 'I' for Inactive)
ROOT
ATOM      1  O1  BZF d   1       1.369  -0.355  -0.537  0.00  0.00    -0.204 OA
ATOM      2  C2  BZF d   1       2.194  -1.097  -1.360  0.00  0.00     0.174 A 
ATOM      3  C3  BZF d   1       2.814  -0.304  -2.257  0.00  0.00    -0.012 A 
ATOM      4  C3A BZF d   1       2.417   1.029  -1.918  0.00  0.00    -0.107 A 
ATOM      5  C4  BZF d   1       2.716   2.257  -2.435  0.00  0.00     0.055 A 
ATOM      6  C5  BZF d   1       2.104   3.356  -1.920  0.00  0.00    -0.016 A 
ATOM      7  C6  BZF d   1       1.187   3.263  -0.893  0.00  0.00     0.022 A 
ATOM      8  C7  BZF d   1       0.863   2.067  -0.345  0.00  0.00     0.029 A 
ATOM      9  C7A BZF d   1       1.504   0.958  -0.841  0.00  0.00     0.058 A 
ENDROOT
TORSDOF 0
ENDMDL
