MODEL 1
REMARK minimizedAffinity 17.7345695
REMARK minimizedRMSD -1
REMARK  0 active torsions:
REMARK  status: ('A' for Active; 'I' for Inactive)
ROOT
ATOM      1  O1  BZF d   1      -0.367   0.753   2.147  0.00  0.00    -0.204 OA
ATOM      2  C2  BZF d   1      -0.130   1.328   3.380  0.00  0.00     0.174 A 
ATOM      3  C3  BZF d   1       1.180   1.610   3.533  0.00  0.00    -0.012 A 
ATOM      4  C3A BZF d   1       1.786   1.270   2.282  0.00  0.00    -0.107 A 
ATOM      5  C4  BZF d   1       3.066   1.339   1.809  0.00  0.00     0.055 A 
ATOM      6  C5  BZF d   1       3.338   0.858   0.567  0.00  0.00    -0.016 A 
ATOM      7  C6  BZF d   1       2.357   0.297  -0.225  0.00  0.00     0.022 A 
ATOM      8  C7  BZF d   1       1.073   0.211   0.199  0.00  0.00     0.029 A 
ATOM      9  C7A BZF d   1       0.789   0.726   1.440  0.00  0.00     0.058 A 
ENDROOT
TORSDOF 0
ENDMDL
