MODEL 1
REMARK minimizedAffinity 18.7810898
REMARK minimizedRMSD -1
REMARK  0 active torsions:
REMARK  status: ('A' for Active; 'I' for Inactive)
ROOT
ATOM      1  O1  BZF d   1       4.435  -1.729   0.260  0.00  0.00    -0.204 OA
ATOM      2  C2  BZF d   1       4.365  -3.066  -0.081  0.00  0.00     0.174 A 
ATOM      3  C3  BZF d   1       3.193  -3.344  -0.688  0.00  0.00    -0.012 A 
ATOM      4  C3A BZF d   1       2.524  -2.085  -0.810  0.00  0.00    -0.107 A 
ATOM      5  C4  BZF d   1       1.325  -1.707  -1.342  0.00  0.00     0.055 A 
ATOM      6  C5  BZF d   1       0.934  -0.410  -1.236  0.00  0.00    -0.016 A 
ATOM      7  C6  BZF d   1       1.715   0.533  -0.600  0.00  0.00     0.022 A 
ATOM      8  C7  BZF d   1       2.915   0.207  -0.061  0.00  0.00     0.029 A 
ATOM      9  C7A BZF d   1       3.327  -1.096  -0.196  0.00  0.00     0.058 A 
ENDROOT
TORSDOF 0
ENDMDL
