MODEL 1
REMARK minimizedAffinity 6.83235359
REMARK minimizedRMSD -1
REMARK  0 active torsions:
REMARK  status: ('A' for Active; 'I' for Inactive)
ROOT
ATOM      1  O1  BZF d   1      -4.458  -5.338   1.700  0.00  0.00    -0.204 OA
ATOM      2  C2  BZF d   1      -3.109  -5.563   1.897  0.00  0.00     0.174 A 
ATOM      3  C3  BZF d   1      -2.531  -4.504   2.501  0.00  0.00    -0.012 A 
ATOM      4  C3A BZF d   1      -3.602  -3.597   2.777  0.00  0.00    -0.107 A 
ATOM      5  C4  BZF d   1      -3.664  -2.373   3.380  0.00  0.00     0.055 A 
ATOM      6  C5  BZF d   1      -4.854  -1.719   3.425  0.00  0.00    -0.016 A 
ATOM      7  C6  BZF d   1      -5.999  -2.255   2.874  0.00  0.00     0.022 A 
ATOM      8  C7  BZF d   1      -5.988  -3.469   2.271  0.00  0.00     0.029 A 
ATOM      9  C7A BZF d   1      -4.794  -4.147   2.253  0.00  0.00     0.058 A 
ENDROOT
TORSDOF 0
ENDMDL
