MODEL 1
REMARK minimizedAffinity 22.0233536
REMARK minimizedRMSD -1
REMARK  0 active torsions:
REMARK  status: ('A' for Active; 'I' for Inactive)
ROOT
ATOM      1  O1  BZF d   1       1.911   1.530   0.134  0.00  0.00    -0.204 OA
ATOM      2  C2  BZF d   1       2.731   1.272   1.215  0.00  0.00     0.174 A 
ATOM      3  C3  BZF d   1       3.127  -0.018   1.218  0.00  0.00    -0.012 A 
ATOM      4  C3A BZF d   1       2.591  -0.578   0.015  0.00  0.00    -0.107 A 
ATOM      5  C4  BZF d   1       2.655  -1.819  -0.552  0.00  0.00     0.055 A 
ATOM      6  C5  BZF d   1       1.960  -2.058  -1.695  0.00  0.00    -0.016 A 
ATOM      7  C6  BZF d   1       1.189  -1.084  -2.294  0.00  0.00     0.022 A 
ATOM      8  C7  BZF d   1       1.099   0.163  -1.771  0.00  0.00     0.029 A 
ATOM      9  C7A BZF d   1       1.826   0.418  -0.634  0.00  0.00     0.058 A 
ENDROOT
TORSDOF 0
ENDMDL
