MODEL 1
REMARK minimizedAffinity -2.61666608
REMARK minimizedRMSD -1
REMARK  0 active torsions:
REMARK  status: ('A' for Active; 'I' for Inactive)
ROOT
ATOM      1  O1  BZF d   1      -4.863   2.347  -5.799  0.00  0.00    -0.204 OA
ATOM      2  C2  BZF d   1      -3.744   1.552  -5.643  0.00  0.00     0.174 A 
ATOM      3  C3  BZF d   1      -2.623   2.301  -5.632  0.00  0.00    -0.012 A 
ATOM      4  C3A BZF d   1      -3.076   3.657  -5.698  0.00  0.00    -0.107 A 
ATOM      5  C4  BZF d   1      -2.433   4.862  -5.705  0.00  0.00     0.055 A 
ATOM      6  C5  BZF d   1      -3.163   5.999  -5.852  0.00  0.00    -0.016 A 
ATOM      7  C6  BZF d   1      -4.534   5.967  -6.000  0.00  0.00     0.022 A 
ATOM      8  C7  BZF d   1      -5.216   4.796  -5.994  0.00  0.00     0.029 A 
ATOM      9  C7A BZF d   1      -4.485   3.648  -5.812  0.00  0.00     0.058 A 
ENDROOT
TORSDOF 0
ENDMDL
