MODEL 1
REMARK minimizedAffinity 8.87728405
REMARK minimizedRMSD -1
REMARK  0 active torsions:
REMARK  status: ('A' for Active; 'I' for Inactive)
ROOT
ATOM      1  O1  BZF d   1       1.008   2.335  -2.917  0.00  0.00    -0.204 OA
ATOM      2  C2  BZF d   1       1.363   3.439  -2.166  0.00  0.00     0.174 A 
ATOM      3  C3  BZF d   1       2.125   3.078  -1.114  0.00  0.00    -0.012 A 
ATOM      4  C3A BZF d   1       2.333   1.671  -1.265  0.00  0.00    -0.107 A 
ATOM      5  C4  BZF d   1       3.023   0.740  -0.542  0.00  0.00     0.055 A 
ATOM      6  C5  BZF d   1       2.966  -0.564  -0.918  0.00  0.00    -0.016 A 
ATOM      7  C6  BZF d   1       2.224  -0.974  -2.007  0.00  0.00     0.022 A 
ATOM      8  C7  BZF d   1       1.527  -0.087  -2.758  0.00  0.00     0.029 A 
ATOM      9  C7A BZF d   1       1.610   1.236  -2.400  0.00  0.00     0.058 A 
ENDROOT
TORSDOF 0
ENDMDL
