MODEL 1
REMARK minimizedAffinity 6.30230808
REMARK minimizedRMSD -1
REMARK  0 active torsions:
REMARK  status: ('A' for Active; 'I' for Inactive)
ROOT
ATOM      1  O1  BZF d   1      -1.770  -5.941  -3.120  0.00  0.00    -0.204 OA
ATOM      2  C2  BZF d   1      -1.543  -5.532  -1.820  0.00  0.00     0.174 A 
ATOM      3  C3  BZF d   1      -1.679  -4.195  -1.708  0.00  0.00    -0.012 A 
ATOM      4  C3A BZF d   1      -2.103  -3.751  -3.001  0.00  0.00    -0.107 A 
ATOM      5  C4  BZF d   1      -2.419  -2.526  -3.515  0.00  0.00     0.055 A 
ATOM      6  C5  BZF d   1      -2.724  -2.423  -4.836  0.00  0.00    -0.016 A 
ATOM      7  C6  BZF d   1      -2.718  -3.522  -5.670  0.00  0.00     0.022 A 
ATOM      8  C7  BZF d   1      -2.416  -4.758  -5.204  0.00  0.00     0.029 A 
ATOM      9  C7A BZF d   1      -2.139  -4.871  -3.863  0.00  0.00     0.058 A 
ENDROOT
TORSDOF 0
ENDMDL
