MODEL 1
REMARK minimizedAffinity 11.2125578
REMARK minimizedRMSD -1
REMARK  0 active torsions:
REMARK  status: ('A' for Active; 'I' for Inactive)
ROOT
ATOM      1  O1  BZF d   1      -1.419  -5.823  -2.424  0.00  0.00    -0.204 OA
ATOM      2  C2  BZF d   1      -1.340  -5.393  -1.113  0.00  0.00     0.174 A 
ATOM      3  C3  BZF d   1      -1.513  -4.058  -1.036  0.00  0.00    -0.012 A 
ATOM      4  C3A BZF d   1      -1.805  -3.638  -2.373  0.00  0.00    -0.107 A 
ATOM      5  C4  BZF d   1      -2.088  -2.427  -2.936  0.00  0.00     0.055 A 
ATOM      6  C5  BZF d   1      -2.253  -2.347  -4.283  0.00  0.00    -0.016 A 
ATOM      7  C6  BZF d   1      -2.137  -3.456  -5.096  0.00  0.00     0.022 A 
ATOM      8  C7  BZF d   1      -1.862  -4.680  -4.582  0.00  0.00     0.029 A 
ATOM      9  C7A BZF d   1      -1.728  -4.769  -3.218  0.00  0.00     0.058 A 
ENDROOT
TORSDOF 0
ENDMDL
