MODEL 1
REMARK minimizedAffinity 12.4889498
REMARK minimizedRMSD -1
REMARK  0 active torsions:
REMARK  status: ('A' for Active; 'I' for Inactive)
ROOT
ATOM      1  O1  BZF d   1       0.468  -1.876   3.787  0.00  0.00    -0.204 OA
ATOM      2  C2  BZF d   1       0.010  -0.914   4.667  0.00  0.00     0.174 A 
ATOM      3  C3  BZF d   1      -1.334  -0.964   4.772  0.00  0.00    -0.012 A 
ATOM      4  C3A BZF d   1      -1.732  -2.084   3.975  0.00  0.00    -0.107 A 
ATOM      5  C4  BZF d   1      -2.941  -2.654   3.695  0.00  0.00     0.055 A 
ATOM      6  C5  BZF d   1      -2.995  -3.693   2.821  0.00  0.00    -0.016 A 
ATOM      7  C6  BZF d   1      -1.861  -4.184   2.206  0.00  0.00     0.022 A 
ATOM      8  C7  BZF d   1      -0.639  -3.654   2.457  0.00  0.00     0.029 A 
ATOM      9  C7A BZF d   1      -0.578  -2.625   3.364  0.00  0.00     0.058 A 
ENDROOT
TORSDOF 0
ENDMDL
