MODEL 1
REMARK minimizedAffinity 7.41226864
REMARK minimizedRMSD -1
REMARK  0 active torsions:
REMARK  status: ('A' for Active; 'I' for Inactive)
ROOT
ATOM      1  O1  BZF d   1       1.721   3.233  -2.883  0.00  0.00    -0.204 OA
ATOM      2  C2  BZF d   1       1.569   1.926  -2.464  0.00  0.00     0.174 A 
ATOM      3  C3  BZF d   1       1.501   1.859  -1.119  0.00  0.00    -0.012 A 
ATOM      4  C3A BZF d   1       1.524   3.219  -0.673  0.00  0.00    -0.107 A 
ATOM      5  C4  BZF d   1       1.467   3.804   0.560  0.00  0.00     0.055 A 
ATOM      6  C5  BZF d   1       1.587   5.154   0.656  0.00  0.00    -0.016 A 
ATOM      7  C6  BZF d   1       1.769   5.948  -0.457  0.00  0.00     0.022 A 
ATOM      8  C7  BZF d   1       1.827   5.414  -1.701  0.00  0.00     0.029 A 
ATOM      9  C7A BZF d   1       1.673   4.053  -1.805  0.00  0.00     0.058 A 
ENDROOT
TORSDOF 0
ENDMDL
