MODEL 1
REMARK minimizedAffinity 5.46269798
REMARK minimizedRMSD -1
REMARK  0 active torsions:
REMARK  status: ('A' for Active; 'I' for Inactive)
ROOT
ATOM      1  O1  BZF d   1      -2.886  -3.615   1.953  0.00  0.00    -0.204 OA
ATOM      2  C2  BZF d   1      -2.419  -3.141   3.164  0.00  0.00     0.174 A 
ATOM      3  C3  BZF d   1      -1.111  -2.823   3.081  0.00  0.00    -0.012 A 
ATOM      4  C3A BZF d   1      -0.760  -3.029   1.709  0.00  0.00    -0.107 A 
ATOM      5  C4  BZF d   1       0.397  -2.869   1.002  0.00  0.00     0.055 A 
ATOM      6  C5  BZF d   1       0.426  -3.228  -0.308  0.00  0.00    -0.016 A 
ATOM      7  C6  BZF d   1      -0.681  -3.756  -0.941  0.00  0.00     0.022 A 
ATOM      8  C7  BZF d   1      -1.853  -3.929  -0.282  0.00  0.00     0.029 A 
ATOM      9  C7A BZF d   1      -1.894  -3.535   1.033  0.00  0.00     0.058 A 
ENDROOT
TORSDOF 0
ENDMDL
