MODEL 1
REMARK minimizedAffinity 10.8401794
REMARK minimizedRMSD -1
REMARK  0 active torsions:
REMARK  status: ('A' for Active; 'I' for Inactive)
ROOT
ATOM      1  C   UNL d   1       1.402  -4.502  -1.792  0.00  0.00     0.020 A 
ATOM      2  C1  UNL d   1       0.687  -5.680  -2.007  0.00  0.00     0.020 A 
ATOM      3  C2  UNL d   1      -0.496  -5.917  -1.304  0.00  0.00     0.034 A 
ATOM      4  C3  UNL d   1      -0.969  -4.974  -0.383  0.00  0.00     0.017 A 
ATOM      5  C4  UNL d   1      -0.251  -3.792  -0.168  0.00  0.00     0.017 A 
ATOM      6  C5  UNL d   1       0.933  -3.560  -0.875  0.00  0.00     0.034 A 
ATOM      7 Cl   UNL d   1      -0.771  -2.583   0.951  0.00  0.00    -0.070 Cl
ATOM      8 Cl1  UNL d   1      -2.439  -5.332   0.450  0.00  0.00    -0.070 Cl
ENDROOT
TORSDOF 0
ENDMDL
