MODEL 1
REMARK minimizedAffinity 8.32491493
REMARK minimizedRMSD -1
REMARK  0 active torsions:
REMARK  status: ('A' for Active; 'I' for Inactive)
ROOT
ATOM      1  C   UNL d   1      -3.644   3.425  -5.358  0.00  0.00     0.020 A 
ATOM      2  C1  UNL d   1      -4.167   4.569  -4.757  0.00  0.00     0.020 A 
ATOM      3  C2  UNL d   1      -4.516   4.549  -3.404  0.00  0.00     0.034 A 
ATOM      4  C3  UNL d   1      -4.341   3.383  -2.650  0.00  0.00     0.017 A 
ATOM      5  C4  UNL d   1      -3.816   2.236  -3.255  0.00  0.00     0.017 A 
ATOM      6  C5  UNL d   1      -3.469   2.261  -4.609  0.00  0.00     0.034 A 
ATOM      7 Cl   UNL d   1      -3.572   0.760  -2.388  0.00  0.00    -0.070 Cl
ATOM      8 Cl1  UNL d   1      -4.793   3.430  -0.983  0.00  0.00    -0.070 Cl
ENDROOT
TORSDOF 0
ENDMDL
