MODEL 1
REMARK minimizedAffinity 16.5850449
REMARK minimizedRMSD -1
REMARK  0 active torsions:
REMARK  status: ('A' for Active; 'I' for Inactive)
ROOT
ATOM      1  C   UNL d   1       5.597  -2.616   0.381  0.00  0.00     0.020 A 
ATOM      2  C1  UNL d   1       4.248  -2.272   0.451  0.00  0.00     0.020 A 
ATOM      3  C2  UNL d   1       3.300  -3.013  -0.258  0.00  0.00     0.034 A 
ATOM      4  C3  UNL d   1       3.700  -4.102  -1.041  0.00  0.00     0.017 A 
ATOM      5  C4  UNL d   1       5.055  -4.447  -1.111  0.00  0.00     0.017 A 
ATOM      6  C5  UNL d   1       5.999  -3.701  -0.399  0.00  0.00     0.034 A 
ATOM      7 Cl   UNL d   1       5.625  -5.777  -2.055  0.00  0.00    -0.070 Cl
ATOM      8 Cl1  UNL d   1       2.475  -4.974  -1.891  0.00  0.00    -0.070 Cl
ENDROOT
TORSDOF 0
ENDMDL
