MODEL 1
REMARK minimizedAffinity 11.6785841
REMARK minimizedRMSD -1
REMARK  0 active torsions:
REMARK  status: ('A' for Active; 'I' for Inactive)
ROOT
ATOM      1  C   UNL d   1       2.725  -2.988  -1.729  0.00  0.00     0.020 A 
ATOM      2  C1  UNL d   1       1.741  -3.947  -1.967  0.00  0.00     0.020 A 
ATOM      3  C2  UNL d   1       0.768  -4.204  -1.000  0.00  0.00     0.034 A 
ATOM      4  C3  UNL d   1       0.775  -3.500   0.210  0.00  0.00     0.017 A 
ATOM      5  C4  UNL d   1       1.763  -2.538   0.448  0.00  0.00     0.017 A 
ATOM      6  C5  UNL d   1       2.735  -2.285  -0.524  0.00  0.00     0.034 A 
ATOM      7 Cl   UNL d   1       1.837  -1.630   1.917  0.00  0.00    -0.070 Cl
ATOM      8 Cl1  UNL d   1      -0.459  -3.869   1.361  0.00  0.00    -0.070 Cl
ENDROOT
TORSDOF 0
ENDMDL
