MODEL 1
REMARK minimizedAffinity 10.3049955
REMARK minimizedRMSD -1
REMARK  0 active torsions:
REMARK  status: ('A' for Active; 'I' for Inactive)
ROOT
ATOM      1  C   UNL d   1       5.855  -4.914  -1.366  0.00  0.00     0.020 A 
ATOM      2  C1  UNL d   1       6.000  -4.152  -0.207  0.00  0.00     0.020 A 
ATOM      3  C2  UNL d   1       4.878  -3.582   0.398  0.00  0.00     0.034 A 
ATOM      4  C3  UNL d   1       3.606  -3.774  -0.154  0.00  0.00     0.017 A 
ATOM      5  C4  UNL d   1       3.462  -4.539  -1.317  0.00  0.00     0.017 A 
ATOM      6  C5  UNL d   1       4.589  -5.107  -1.920  0.00  0.00     0.034 A 
ATOM      7 Cl   UNL d   1       1.926  -4.819  -2.058  0.00  0.00    -0.070 Cl
ATOM      8 Cl1  UNL d   1       2.263  -3.040   0.648  0.00  0.00    -0.070 Cl
ENDROOT
TORSDOF 0
ENDMDL
