MODEL 1
REMARK minimizedAffinity 12.4620628
REMARK minimizedRMSD -1
REMARK  0 active torsions:
REMARK  status: ('A' for Active; 'I' for Inactive)
ROOT
ATOM      1  C   UNL d   1       2.719  -1.045   0.240  0.00  0.00     0.020 A 
ATOM      2  C1  UNL d   1       1.998  -0.010   0.833  0.00  0.00     0.020 A 
ATOM      3  C2  UNL d   1       1.357  -0.217   2.056  0.00  0.00     0.034 A 
ATOM      4  C3  UNL d   1       1.434  -1.463   2.689  0.00  0.00     0.017 A 
ATOM      5  C4  UNL d   1       2.157  -2.502   2.093  0.00  0.00     0.017 A 
ATOM      6  C5  UNL d   1       2.798  -2.289   0.868  0.00  0.00     0.034 A 
ATOM      7 Cl   UNL d   1       2.297  -4.066   2.814  0.00  0.00    -0.070 Cl
ATOM      8 Cl1  UNL d   1       0.616  -1.648   4.200  0.00  0.00    -0.070 Cl
ENDROOT
TORSDOF 0
ENDMDL
