MODEL 1
REMARK minimizedAffinity 17.4242649
REMARK minimizedRMSD -1
REMARK  0 active torsions:
REMARK  status: ('A' for Active; 'I' for Inactive)
ROOT
ATOM      1  C   UNL d   1       2.049  -3.260   5.993  0.00  0.00     0.020 A 
ATOM      2  C1  UNL d   1       1.380  -2.037   6.000  0.00  0.00     0.020 A 
ATOM      3  C2  UNL d   1       1.064  -1.407   4.795  0.00  0.00     0.034 A 
ATOM      4  C3  UNL d   1       1.418  -1.999   3.577  0.00  0.00     0.017 A 
ATOM      5  C4  UNL d   1       2.089  -3.227   3.570  0.00  0.00     0.017 A 
ATOM      6  C5  UNL d   1       2.403  -3.854   4.780  0.00  0.00     0.034 A 
ATOM      7 Cl   UNL d   1       2.559  -4.019   2.108  0.00  0.00    -0.070 Cl
ATOM      8 Cl1  UNL d   1       0.995  -1.164   2.124  0.00  0.00    -0.070 Cl
ENDROOT
TORSDOF 0
ENDMDL
