MODEL 1
REMARK minimizedAffinity -2.44619179
REMARK minimizedRMSD -1
REMARK  0 active torsions:
REMARK  status: ('A' for Active; 'I' for Inactive)
ROOT
ATOM      1  C   UNL d   1      -0.701  -0.734  -1.991  0.00  0.00     0.078 C 
ATOM      2  C1  UNL d   1      -0.665  -0.211  -0.586  0.00  0.00    -0.077 A 
ATOM      3  C2  UNL d   1       0.553   0.041   0.058  0.00  0.00    -0.001 A 
ATOM      4  C3  UNL d   1       0.572   0.519   1.370  0.00  0.00     0.003 A 
ATOM      5  C4  UNL d   1      -0.623   0.749   2.048  0.00  0.00    -0.005 A 
ATOM      6  C5  UNL d   1      -1.840   0.499   1.416  0.00  0.00     0.003 A 
ATOM      7  C6  UNL d   1      -1.861   0.021   0.105  0.00  0.00    -0.001 A 
ENDROOT
TORSDOF 0
ENDMDL
