MODEL 1
REMARK minimizedAffinity -3.86429572
REMARK minimizedRMSD -1
REMARK  0 active torsions:
REMARK  status: ('A' for Active; 'I' for Inactive)
ROOT
ATOM      1  C   UNL d   1      -0.522   1.706   2.152  0.00  0.00     0.078 C 
ATOM      2  C1  UNL d   1       0.047   0.784   1.115  0.00  0.00    -0.077 A 
ATOM      3  C2  UNL d   1       1.306   0.195   1.287  0.00  0.00    -0.001 A 
ATOM      4  C3  UNL d   1       1.827  -0.654   0.310  0.00  0.00     0.003 A 
ATOM      5  C4  UNL d   1       1.097  -0.921  -0.847  0.00  0.00    -0.005 A 
ATOM      6  C5  UNL d   1      -0.155  -0.338  -1.028  0.00  0.00     0.003 A 
ATOM      7  C6  UNL d   1      -0.678   0.511  -0.052  0.00  0.00    -0.001 A 
ENDROOT
TORSDOF 0
ENDMDL
