MODEL 1
REMARK minimizedAffinity -5.73323154
REMARK minimizedRMSD -1
REMARK  0 active torsions:
REMARK  status: ('A' for Active; 'I' for Inactive)
ROOT
ATOM      1  C   UNL d   1       0.719  -0.591  -0.393  0.00  0.00     0.078 C 
ATOM      2  C1  UNL d   1       0.350   0.030   0.922  0.00  0.00    -0.077 A 
ATOM      3  C2  UNL d   1      -0.956   0.468   1.172  0.00  0.00    -0.001 A 
ATOM      4  C3  UNL d   1      -1.282   1.052   2.397  0.00  0.00     0.003 A 
ATOM      5  C4  UNL d   1      -0.308   1.204   3.381  0.00  0.00    -0.005 A 
ATOM      6  C5  UNL d   1       0.995   0.773   3.141  0.00  0.00     0.003 A 
ATOM      7  C6  UNL d   1       1.324   0.189   1.916  0.00  0.00    -0.001 A 
ENDROOT
TORSDOF 0
ENDMDL
