MODEL 1
REMARK minimizedAffinity -3.63261127
REMARK minimizedRMSD -1
REMARK  0 active torsions:
REMARK  status: ('A' for Active; 'I' for Inactive)
ROOT
ATOM      1  C   UNL d   1       0.111   1.678   2.639  0.00  0.00     0.078 C 
ATOM      2  C1  UNL d   1       0.331   0.717   1.508  0.00  0.00    -0.077 A 
ATOM      3  C2  UNL d   1       1.581   0.122   1.300  0.00  0.00    -0.001 A 
ATOM      4  C3  UNL d   1       1.773  -0.763   0.238  0.00  0.00     0.003 A 
ATOM      5  C4  UNL d   1       0.720  -1.059  -0.625  0.00  0.00    -0.005 A 
ATOM      6  C5  UNL d   1      -0.527  -0.470  -0.427  0.00  0.00     0.003 A 
ATOM      7  C6  UNL d   1      -0.721   0.415   0.634  0.00  0.00    -0.001 A 
ENDROOT
TORSDOF 0
ENDMDL
