MODEL 1
REMARK minimizedAffinity 2.95366907
REMARK minimizedRMSD -1
REMARK  0 active torsions:
REMARK  status: ('A' for Active; 'I' for Inactive)
ROOT
ATOM      1  C   UNL d   1       1.695  -0.525   1.082  0.00  0.00     0.078 C 
ATOM      2  C1  UNL d   1       0.226  -0.234   1.020  0.00  0.00    -0.077 A 
ATOM      3  C2  UNL d   1      -0.471  -0.292  -0.193  0.00  0.00    -0.001 A 
ATOM      4  C3  UNL d   1      -1.837  -0.009  -0.238  0.00  0.00     0.003 A 
ATOM      5  C4  UNL d   1      -2.518   0.336   0.928  0.00  0.00    -0.005 A 
ATOM      6  C5  UNL d   1      -1.833   0.399   2.140  0.00  0.00     0.003 A 
ATOM      7  C6  UNL d   1      -0.467   0.116   2.186  0.00  0.00    -0.001 A 
ENDROOT
TORSDOF 0
ENDMDL
