MODEL 1
REMARK minimizedAffinity -3.20109081
REMARK minimizedRMSD -1
REMARK  0 active torsions:
REMARK  status: ('A' for Active; 'I' for Inactive)
ROOT
ATOM      1  C   UNL d   1      -0.455   1.491   2.581  0.00  0.00     0.078 C 
ATOM      2  C1  UNL d   1       0.014   0.675   1.413  0.00  0.00    -0.077 A 
ATOM      3  C2  UNL d   1      -0.687   0.681   0.201  0.00  0.00    -0.001 A 
ATOM      4  C3  UNL d   1      -0.244  -0.090  -0.874  0.00  0.00     0.003 A 
ATOM      5  C4  UNL d   1       0.901  -0.874  -0.748  0.00  0.00    -0.005 A 
ATOM      6  C5  UNL d   1       1.604  -0.888   0.455  0.00  0.00     0.003 A 
ATOM      7  C6  UNL d   1       1.162  -0.118   1.531  0.00  0.00    -0.001 A 
ENDROOT
TORSDOF 0
ENDMDL
