MODEL 1
REMARK minimizedAffinity -4.40518284
REMARK minimizedRMSD -1
REMARK  0 active torsions:
REMARK  status: ('A' for Active; 'I' for Inactive)
ROOT
ATOM      1  C   UNL d   1      -0.611   1.451   2.159  0.00  0.00     0.078 C 
ATOM      2  C1  UNL d   1      -0.077   0.412   1.218  0.00  0.00    -0.077 A 
ATOM      3  C2  UNL d   1      -0.866  -0.090   0.176  0.00  0.00    -0.001 A 
ATOM      4  C3  UNL d   1      -0.359  -1.064  -0.686  0.00  0.00     0.003 A 
ATOM      5  C4  UNL d   1       0.937  -1.544  -0.515  0.00  0.00    -0.005 A 
ATOM      6  C5  UNL d   1       1.729  -1.052   0.521  0.00  0.00     0.003 A 
ATOM      7  C6  UNL d   1       1.224  -0.078   1.384  0.00  0.00    -0.001 A 
ENDROOT
TORSDOF 0
ENDMDL
