MODEL 1
REMARK minimizedAffinity 2.86662769
REMARK minimizedRMSD -1
REMARK  0 active torsions:
REMARK  status: ('A' for Active; 'I' for Inactive)
ROOT
ATOM      1  C   UNL d   1      -0.620   1.932   3.317  0.00  0.00     0.078 C 
ATOM      2  C1  UNL d   1      -1.442   0.749   2.899  0.00  0.00    -0.077 A 
ATOM      3  C2  UNL d   1      -2.049  -0.080   3.850  0.00  0.00    -0.001 A 
ATOM      4  C3  UNL d   1      -2.803  -1.183   3.447  0.00  0.00     0.003 A 
ATOM      5  C4  UNL d   1      -2.957  -1.468   2.092  0.00  0.00    -0.005 A 
ATOM      6  C5  UNL d   1      -2.356  -0.650   1.138  0.00  0.00     0.003 A 
ATOM      7  C6  UNL d   1      -1.601   0.454   1.539  0.00  0.00    -0.001 A 
ENDROOT
TORSDOF 0
ENDMDL
