MODEL 1
REMARK minimizedAffinity 3.33953929
REMARK minimizedRMSD -1
REMARK  0 active torsions:
REMARK  status: ('A' for Active; 'I' for Inactive)
ROOT
ATOM      1  C   UNL d   1       5.389  -1.831  -3.959  0.00  0.00     0.078 C 
ATOM      2  C1  UNL d   1       4.226  -0.921  -3.700  0.00  0.00    -0.077 A 
ATOM      3  C2  UNL d   1       4.251  -0.003  -2.643  0.00  0.00    -0.001 A 
ATOM      4  C3  UNL d   1       3.157   0.832  -2.407  0.00  0.00     0.003 A 
ATOM      5  C4  UNL d   1       2.031   0.756  -3.224  0.00  0.00    -0.005 A 
ATOM      6  C5  UNL d   1       1.997  -0.155  -4.278  0.00  0.00     0.003 A 
ATOM      7  C6  UNL d   1       3.089  -0.991  -4.515  0.00  0.00    -0.001 A 
ENDROOT
TORSDOF 0
ENDMDL
