MODEL 1
REMARK minimizedAffinity 3.00838041
REMARK minimizedRMSD -1
REMARK  0 active torsions:
REMARK  status: ('A' for Active; 'I' for Inactive)
ROOT
ATOM      1  C   UNL d   1       0.379   0.054  -4.636  0.00  0.00     0.078 C 
ATOM      2  C1  UNL d   1       1.789   0.211  -4.151  0.00  0.00    -0.077 A 
ATOM      3  C2  UNL d   1       2.229   1.417  -3.592  0.00  0.00    -0.001 A 
ATOM      4  C3  UNL d   1       3.547   1.552  -3.153  0.00  0.00     0.003 A 
ATOM      5  C4  UNL d   1       4.436   0.486  -3.271  0.00  0.00    -0.005 A 
ATOM      6  C5  UNL d   1       4.008  -0.717  -3.829  0.00  0.00     0.003 A 
ATOM      7  C6  UNL d   1       2.691  -0.854  -4.268  0.00  0.00    -0.001 A 
ENDROOT
TORSDOF 0
ENDMDL
