MODEL 1
REMARK minimizedAffinity 1.56505179
REMARK minimizedRMSD -1
REMARK  0 active torsions:
REMARK  status: ('A' for Active; 'I' for Inactive)
ROOT
ATOM      1  N1  IND d   1      -0.239  -1.210  -0.861  0.00  0.00    -0.196 N 
ATOM      2  C2  IND d   1      -0.385  -0.026  -0.193  0.00  0.00     0.054 A 
ATOM      3  C3  IND d   1      -1.651   0.104   0.263  0.00  0.00    -0.031 A 
ATOM      4  C4  IND d   1      -3.620  -1.548   0.115  0.00  0.00     0.051 A 
ATOM      5  C5  IND d   1      -3.982  -2.747  -0.432  0.00  0.00    -0.031 A 
ATOM      6  C6  IND d   1      -3.095  -3.512  -1.162  0.00  0.00     0.015 A 
ATOM      7  C7  IND d   1      -1.806  -3.110  -1.365  0.00  0.00    -0.016 A 
ATOM      8  C8  IND d   1      -1.437  -1.889  -0.817  0.00  0.00    -0.047 A 
ATOM      9  C9  IND d   1      -2.344  -1.089  -0.110  0.00  0.00    -0.096 A 
ATOM     10  HN1 IND d   1       0.479  -1.484  -1.245  0.00  0.00     0.298 HD
ENDROOT
TORSDOF 0
ENDMDL
