MODEL 1
REMARK minimizedAffinity -4.43601465
REMARK minimizedRMSD -1
REMARK  0 active torsions:
REMARK  status: ('A' for Active; 'I' for Inactive)
ROOT
ATOM      1  N1  IND d   1      -4.126   5.624   3.229  0.00  0.00    -0.196 N 
ATOM      2  C2  IND d   1      -5.010   5.609   2.187  0.00  0.00     0.054 A 
ATOM      3  C3  IND d   1      -5.843   4.549   2.291  0.00  0.00    -0.031 A 
ATOM      4  C4  IND d   1      -6.000   2.769   4.144  0.00  0.00     0.051 A 
ATOM      5  C5  IND d   1      -5.379   2.344   5.285  0.00  0.00    -0.031 A 
ATOM      6  C6  IND d   1      -4.289   3.006   5.812  0.00  0.00     0.015 A 
ATOM      7  C7  IND d   1      -3.783   4.129   5.220  0.00  0.00    -0.016 A 
ATOM      8  C8  IND d   1      -4.406   4.559   4.057  0.00  0.00    -0.047 A 
ATOM      9  C9  IND d   1      -5.487   3.867   3.495  0.00  0.00    -0.096 A 
ATOM     10  HN1 IND d   1      -3.499   6.201   3.348  0.00  0.00     0.298 HD
ENDROOT
TORSDOF 0
ENDMDL
