MODEL 1
REMARK minimizedAffinity 3.35987926
REMARK minimizedRMSD -1
REMARK  0 active torsions:
REMARK  status: ('A' for Active; 'I' for Inactive)
ROOT
ATOM      1  N1  IND d   1      -1.120  -2.648   0.354  0.00  0.00    -0.196 N 
ATOM      2  C2  IND d   1      -1.791  -3.686  -0.228  0.00  0.00     0.054 A 
ATOM      3  C3  IND d   1      -2.110  -3.382  -1.506  0.00  0.00    -0.031 A 
ATOM      4  C4  IND d   1      -1.541  -1.279  -2.878  0.00  0.00     0.051 A 
ATOM      5  C5  IND d   1      -0.973  -0.041  -2.766  0.00  0.00    -0.031 A 
ATOM      6  C6  IND d   1      -0.411   0.399  -1.585  0.00  0.00     0.015 A 
ATOM      7  C7  IND d   1      -0.386  -0.390  -0.470  0.00  0.00    -0.016 A 
ATOM      8  C8  IND d   1      -0.968  -1.645  -0.578  0.00  0.00    -0.047 A 
ATOM      9  C9  IND d   1      -1.578  -2.081  -1.762  0.00  0.00    -0.096 A 
ATOM     10  HN1 IND d   1      -0.839  -2.624   1.167  0.00  0.00     0.298 HD
ENDROOT
TORSDOF 0
ENDMDL
