MODEL 1
REMARK minimizedAffinity -0.882126093
REMARK minimizedRMSD -1
REMARK  0 active torsions:
REMARK  status: ('A' for Active; 'I' for Inactive)
ROOT
ATOM      1  N1  IND d   1      -2.054  -0.506   0.384  0.00  0.00    -0.196 N 
ATOM      2  C2  IND d   1      -2.511  -1.142   1.505  0.00  0.00     0.054 A 
ATOM      3  C3  IND d   1      -2.731  -2.451   1.247  0.00  0.00    -0.031 A 
ATOM      4  C4  IND d   1      -2.311  -3.785  -0.915  0.00  0.00     0.051 A 
ATOM      5  C5  IND d   1      -1.932  -3.631  -2.219  0.00  0.00    -0.031 A 
ATOM      6  C6  IND d   1      -1.565  -2.404  -2.732  0.00  0.00     0.015 A 
ATOM      7  C7  IND d   1      -1.552  -1.281  -1.953  0.00  0.00    -0.016 A 
ATOM      8  C8  IND d   1      -1.942  -1.432  -0.630  0.00  0.00    -0.047 A 
ATOM      9  C9  IND d   1      -2.356  -2.667  -0.115  0.00  0.00    -0.096 A 
ATOM     10  HN1 IND d   1      -1.867   0.331   0.323  0.00  0.00     0.298 HD
ENDROOT
TORSDOF 0
ENDMDL
