MODEL 1
REMARK minimizedAffinity -4.31570625
REMARK minimizedRMSD -1
REMARK  0 active torsions:
REMARK  status: ('A' for Active; 'I' for Inactive)
ROOT
ATOM      1  N1  IND d   1      -5.259   4.490   2.149  0.00  0.00    -0.196 N 
ATOM      2  C2  IND d   1      -5.763   5.746   2.339  0.00  0.00     0.054 A 
ATOM      3  C3  IND d   1      -5.999   5.965   3.652  0.00  0.00    -0.031 A 
ATOM      4  C4  IND d   1      -5.537   4.440   5.674  0.00  0.00     0.051 A 
ATOM      5  C5  IND d   1      -5.115   3.182   5.999  0.00  0.00    -0.031 A 
ATOM      6  C6  IND d   1      -4.709   2.278   5.039  0.00  0.00     0.015 A 
ATOM      7  C7  IND d   1      -4.699   2.604   3.713  0.00  0.00    -0.016 A 
ATOM      8  C8  IND d   1      -5.133   3.878   3.378  0.00  0.00    -0.047 A 
ATOM      9  C9  IND d   1      -5.586   4.786   4.344  0.00  0.00    -0.096 A 
ATOM     10  HN1 IND d   1      -5.055   4.140   1.391  0.00  0.00     0.298 HD
ENDROOT
TORSDOF 0
ENDMDL
