MODEL 1
REMARK minimizedAffinity -1.16463411
REMARK minimizedRMSD -1
REMARK  0 active torsions:
REMARK  status: ('A' for Active; 'I' for Inactive)
ROOT
ATOM      1  N1  IND d   1      -5.980   4.946   5.360  0.00  0.00    -0.196 N 
ATOM      2  C2  IND d   1      -5.596   3.719   5.825  0.00  0.00     0.054 A 
ATOM      3  C3  IND d   1      -5.152   2.948   4.806  0.00  0.00    -0.031 A 
ATOM      4  C4  IND d   1      -4.871   3.533   2.315  0.00  0.00     0.051 A 
ATOM      5  C5  IND d   1      -5.121   4.522   1.406  0.00  0.00    -0.031 A 
ATOM      6  C6  IND d   1      -5.679   5.728   1.776  0.00  0.00     0.015 A 
ATOM      7  C7  IND d   1      -5.998   5.996   3.077  0.00  0.00    -0.016 A 
ATOM      8  C8  IND d   1      -5.753   4.991   4.002  0.00  0.00    -0.047 A 
ATOM      9  C9  IND d   1      -5.226   3.749   3.626  0.00  0.00    -0.096 A 
ATOM     10  HN1 IND d   1      -6.309   5.582   5.836  0.00  0.00     0.298 HD
ENDROOT
TORSDOF 0
ENDMDL
