MODEL 1
REMARK minimizedAffinity -3.26367903
REMARK minimizedRMSD -1
REMARK  0 active torsions:
REMARK  status: ('A' for Active; 'I' for Inactive)
ROOT
ATOM      1  N1  IND d   1      -5.532   4.884   5.475  0.00  0.00    -0.196 N 
ATOM      2  C2  IND d   1      -4.600   3.979   5.900  0.00  0.00     0.054 A 
ATOM      3  C3  IND d   1      -3.795   3.616   4.876  0.00  0.00    -0.031 A 
ATOM      4  C4  IND d   1      -3.763   4.459   2.443  0.00  0.00     0.051 A 
ATOM      5  C5  IND d   1      -4.445   5.261   1.572  0.00  0.00    -0.031 A 
ATOM      6  C6  IND d   1      -5.546   5.995   1.966  0.00  0.00     0.015 A 
ATOM      7  C7  IND d   1      -5.999   5.963   3.254  0.00  0.00    -0.016 A 
ATOM      8  C8  IND d   1      -5.313   5.144   4.140  0.00  0.00    -0.047 A 
ATOM      9  C9  IND d   1      -4.222   4.364   3.736  0.00  0.00    -0.096 A 
ATOM     10  HN1 IND d   1      -6.151   5.232   5.959  0.00  0.00     0.298 HD
ENDROOT
TORSDOF 0
ENDMDL
