MODEL 1
REMARK minimizedAffinity 1.46584344
REMARK minimizedRMSD -1
REMARK  0 active torsions:
REMARK  status: ('A' for Active; 'I' for Inactive)
ROOT
ATOM      1  N1  IND d   1      -4.975   5.964   2.938  0.00  0.00    -0.196 N 
ATOM      2  C2  IND d   1      -4.833   4.958   3.854  0.00  0.00     0.054 A 
ATOM      3  C3  IND d   1      -5.052   3.758   3.271  0.00  0.00    -0.031 A 
ATOM      4  C4  IND d   1      -5.556   3.203   0.808  0.00  0.00     0.051 A 
ATOM      5  C5  IND d   1      -5.816   3.792  -0.397  0.00  0.00    -0.031 A 
ATOM      6  C6  IND d   1      -5.807   5.162  -0.556  0.00  0.00     0.015 A 
ATOM      7  C7  IND d   1      -5.524   5.998   0.487  0.00  0.00    -0.016 A 
ATOM      8  C8  IND d   1      -5.266   5.404   1.714  0.00  0.00    -0.047 A 
ATOM      9  C9  IND d   1      -5.316   4.016   1.891  0.00  0.00    -0.096 A 
ATOM     10  HN1 IND d   1      -4.895   6.805   3.101  0.00  0.00     0.298 HD
ENDROOT
TORSDOF 0
ENDMDL
