MODEL 1
REMARK minimizedAffinity 0.419052839
REMARK minimizedRMSD -1
REMARK  0 active torsions:
REMARK  status: ('A' for Active; 'I' for Inactive)
ROOT
ATOM      1  N1  IND d   1      -5.509   5.993   1.055  0.00  0.00    -0.196 N 
ATOM      2  C2  IND d   1      -5.085   5.027   0.185  0.00  0.00     0.054 A 
ATOM      3  C3  IND d   1      -4.893   3.859   0.837  0.00  0.00    -0.031 A 
ATOM      4  C4  IND d   1      -5.309   3.277   3.310  0.00  0.00     0.051 A 
ATOM      5  C5  IND d   1      -5.662   3.840   4.504  0.00  0.00    -0.031 A 
ATOM      6  C6  IND d   1      -5.991   5.176   4.612  0.00  0.00     0.015 A 
ATOM      7  C7  IND d   1      -5.991   5.999   3.522  0.00  0.00    -0.016 A 
ATOM      8  C8  IND d   1      -5.626   5.433   2.309  0.00  0.00    -0.047 A 
ATOM      9  C9  IND d   1      -5.250   4.088   2.201  0.00  0.00    -0.096 A 
ATOM     10  HN1 IND d   1      -5.675   6.812   0.854  0.00  0.00     0.298 HD
ENDROOT
TORSDOF 0
ENDMDL
