MODEL 1
REMARK minimizedAffinity -2.62825537
REMARK minimizedRMSD -1
REMARK  0 active torsions:
REMARK  status: ('A' for Active; 'I' for Inactive)
ROOT
ATOM      1  N1  IND d   1      -5.260   3.428   2.361  0.00  0.00    -0.196 N 
ATOM      2  C2  IND d   1      -5.395   4.491   1.512  0.00  0.00     0.054 A 
ATOM      3  C3  IND d   1      -5.721   5.606   2.202  0.00  0.00    -0.031 A 
ATOM      4  C4  IND d   1      -5.987   5.940   4.741  0.00  0.00     0.051 A 
ATOM      5  C5  IND d   1      -5.997   5.253   5.922  0.00  0.00    -0.031 A 
ATOM      6  C6  IND d   1      -5.754   3.896   5.979  0.00  0.00     0.015 A 
ATOM      7  C7  IND d   1      -5.480   3.174   4.852  0.00  0.00    -0.016 A 
ATOM      8  C8  IND d   1      -5.476   3.867   3.649  0.00  0.00    -0.047 A 
ATOM      9  C9  IND d   1      -5.764   5.236   3.581  0.00  0.00    -0.096 A 
ATOM     10  HN1 IND d   1      -5.072   2.622   2.130  0.00  0.00     0.298 HD
ENDROOT
TORSDOF 0
ENDMDL
