MODEL 1
REMARK minimizedAffinity -2.98616028
REMARK minimizedRMSD -1
REMARK  0 active torsions:
REMARK  status: ('A' for Active; 'I' for Inactive)
ROOT
ATOM      1  N1  IND d   1      -5.268   4.168   5.998  0.00  0.00    -0.196 N 
ATOM      2  C2  IND d   1      -4.562   2.997   6.000  0.00  0.00     0.054 A 
ATOM      3  C3  IND d   1      -4.162   2.688   4.746  0.00  0.00    -0.031 A 
ATOM      4  C4  IND d   1      -4.464   4.012   2.559  0.00  0.00     0.051 A 
ATOM      5  C5  IND d   1      -5.074   5.123   2.049  0.00  0.00    -0.031 A 
ATOM      6  C6  IND d   1      -5.791   5.993   2.845  0.00  0.00     0.015 A 
ATOM      7  C7  IND d   1      -5.917   5.787   4.190  0.00  0.00    -0.016 A 
ATOM      8  C8  IND d   1      -5.305   4.656   4.711  0.00  0.00    -0.047 A 
ATOM      9  C9  IND d   1      -4.612   3.747   3.900  0.00  0.00    -0.096 A 
ATOM     10  HN1 IND d   1      -5.628   4.538   6.686  0.00  0.00     0.298 HD
ENDROOT
TORSDOF 0
ENDMDL
