MODEL 1
REMARK minimizedAffinity -2.75726795
REMARK minimizedRMSD -1
REMARK  0 active torsions:
REMARK  status: ('A' for Active; 'I' for Inactive)
ROOT
ATOM      1  N1  IND d   1      -6.000   4.935   5.370  0.00  0.00    -0.196 N 
ATOM      2  C2  IND d   1      -5.758   3.678   5.849  0.00  0.00     0.054 A 
ATOM      3  C3  IND d   1      -5.310   2.875   4.858  0.00  0.00    -0.031 A 
ATOM      4  C4  IND d   1      -4.802   3.441   2.399  0.00  0.00     0.051 A 
ATOM      5  C5  IND d   1      -4.899   4.451   1.483  0.00  0.00    -0.031 A 
ATOM      6  C6  IND d   1      -5.376   5.700   1.824  0.00  0.00     0.015 A 
ATOM      7  C7  IND d   1      -5.764   5.990   3.102  0.00  0.00    -0.016 A 
ATOM      8  C8  IND d   1      -5.672   4.965   4.032  0.00  0.00    -0.047 A 
ATOM      9  C9  IND d   1      -5.230   3.683   3.683  0.00  0.00    -0.096 A 
ATOM     10  HN1 IND d   1      -6.305   5.596   5.827  0.00  0.00     0.298 HD
ENDROOT
TORSDOF 0
ENDMDL
