MODEL 1
REMARK minimizedAffinity -3.984725
REMARK minimizedRMSD -1
REMARK  0 active torsions:
REMARK  status: ('A' for Active; 'I' for Inactive)
ROOT
ATOM      1  N1  IND d   1      -6.000   2.684   3.798  0.00  0.00    -0.196 N 
ATOM      2  C2  IND d   1      -5.858   3.051   5.107  0.00  0.00     0.054 A 
ATOM      3  C3  IND d   1      -5.296   4.278   5.194  0.00  0.00    -0.031 A 
ATOM      4  C4  IND d   1      -4.623   5.905   3.315  0.00  0.00     0.051 A 
ATOM      5  C5  IND d   1      -4.527   5.999   1.955  0.00  0.00    -0.031 A 
ATOM      6  C6  IND d   1      -4.928   4.974   1.123  0.00  0.00     0.015 A 
ATOM      7  C7  IND d   1      -5.452   3.815   1.622  0.00  0.00    -0.016 A 
ATOM      8  C8  IND d   1      -5.545   3.713   3.003  0.00  0.00    -0.047 A 
ATOM      9  C9  IND d   1      -5.100   4.733   3.854  0.00  0.00    -0.096 A 
ATOM     10  HN1 IND d   1      -6.319   1.937   3.518  0.00  0.00     0.298 HD
ENDROOT
TORSDOF 0
ENDMDL
