MODEL 1
REMARK minimizedAffinity -3.09836388
REMARK minimizedRMSD -1
REMARK  0 active torsions:
REMARK  status: ('A' for Active; 'I' for Inactive)
ROOT
ATOM      1  N1  IND d   1      -5.236   5.925   2.220  0.00  0.00    -0.196 N 
ATOM      2  C2  IND d   1      -5.672   4.961   1.354  0.00  0.00     0.054 A 
ATOM      3  C3  IND d   1      -6.000   3.836   2.028  0.00  0.00    -0.031 A 
ATOM      4  C4  IND d   1      -5.997   3.389   4.563  0.00  0.00     0.051 A 
ATOM      5  C5  IND d   1      -5.644   3.954   5.756  0.00  0.00    -0.031 A 
ATOM      6  C6  IND d   1      -5.130   5.232   5.834  0.00  0.00     0.015 A 
ATOM      7  C7  IND d   1      -4.959   6.000   4.717  0.00  0.00    -0.016 A 
ATOM      8  C8  IND d   1      -5.309   5.426   3.503  0.00  0.00    -0.047 A 
ATOM      9  C9  IND d   1      -5.792   4.114   3.414  0.00  0.00    -0.096 A 
ATOM     10  HN1 IND d   1      -4.963   6.710   2.001  0.00  0.00     0.298 HD
ENDROOT
TORSDOF 0
ENDMDL
