MODEL 1
REMARK minimizedAffinity 0.992282271
REMARK minimizedRMSD -1
REMARK  0 active torsions:
REMARK  status: ('A' for Active; 'I' for Inactive)
ROOT
ATOM      1  N1  IND d   1       1.253   0.721  -0.217  0.00  0.00    -0.196 N 
ATOM      2  C2  IND d   1       0.629  -0.296   0.449  0.00  0.00     0.054 A 
ATOM      3  C3  IND d   1       0.052  -1.149  -0.428  0.00  0.00    -0.031 A 
ATOM      4  C4  IND d   1       0.093  -1.123  -3.002  0.00  0.00     0.051 A 
ATOM      5  C5  IND d   1       0.506  -0.370  -4.065  0.00  0.00    -0.031 A 
ATOM      6  C6  IND d   1       1.206   0.807  -3.897  0.00  0.00     0.015 A 
ATOM      7  C7  IND d   1       1.530   1.272  -2.653  0.00  0.00    -0.016 A 
ATOM      8  C8  IND d   1       1.106   0.514  -1.571  0.00  0.00    -0.047 A 
ATOM      9  C9  IND d   1       0.358  -0.660  -1.735  0.00  0.00    -0.096 A 
ATOM     10  HN1 IND d   1       1.667   1.380   0.148  0.00  0.00     0.298 HD
ENDROOT
TORSDOF 0
ENDMDL
