MODEL 1
REMARK minimizedAffinity -5.0386529
REMARK minimizedRMSD -1
REMARK  0 active torsions:
REMARK  status: ('A' for Active; 'I' for Inactive)
ROOT
ATOM      1  N1  IND d   1       1.129  -0.434  -0.241  0.00  0.00    -0.196 N 
ATOM      2  C2  IND d   1       0.264  -0.728  -1.258  0.00  0.00     0.054 A 
ATOM      3  C3  IND d   1      -1.013  -0.527  -0.863  0.00  0.00    -0.031 A 
ATOM      4  C4  IND d   1      -1.910   0.377   1.374  0.00  0.00     0.051 A 
ATOM      5  C5  IND d   1      -1.505   0.750   2.625  0.00  0.00    -0.031 A 
ATOM      6  C6  IND d   1      -0.175   0.750   2.991  0.00  0.00     0.015 A 
ATOM      7  C7  IND d   1       0.806   0.386   2.112  0.00  0.00    -0.016 A 
ATOM      8  C8  IND d   1       0.398   0.000   0.843  0.00  0.00    -0.047 A 
ATOM      9  C9  IND d   1      -0.954  -0.043   0.479  0.00  0.00    -0.096 A 
ATOM     10  HN1 IND d   1       1.985  -0.508  -0.273  0.00  0.00     0.298 HD
ENDROOT
TORSDOF 0
ENDMDL
