MODEL 1
REMARK minimizedAffinity -3.40326095
REMARK minimizedRMSD -1
REMARK  0 active torsions:
REMARK  status: ('A' for Active; 'I' for Inactive)
ROOT
ATOM      1  N1  IND d   1      -1.714  -0.378  -0.169  0.00  0.00    -0.196 N 
ATOM      2  C2  IND d   1      -0.768  -0.334  -1.154  0.00  0.00     0.054 A 
ATOM      3  C3  IND d   1       0.288   0.413  -0.760  0.00  0.00    -0.031 A 
ATOM      4  C4  IND d   1       0.718   1.573   1.498  0.00  0.00     0.051 A 
ATOM      5  C5  IND d   1       0.125   1.846   2.699  0.00  0.00    -0.031 A 
ATOM      6  C6  IND d   1      -1.135   1.380   3.013  0.00  0.00     0.015 A 
ATOM      7  C7  IND d   1      -1.848   0.610   2.138  0.00  0.00    -0.016 A 
ATOM      8  C8  IND d   1      -1.253   0.337   0.915  0.00  0.00    -0.047 A 
ATOM      9  C9  IND d   1       0.008   0.843   0.574  0.00  0.00    -0.096 A 
ATOM     10  HN1 IND d   1      -2.471  -0.784  -0.217  0.00  0.00     0.298 HD
ENDROOT
TORSDOF 0
ENDMDL
