MODEL 1
REMARK minimizedAffinity -3.48524213
REMARK minimizedRMSD -1
REMARK  0 active torsions:
REMARK  status: ('A' for Active; 'I' for Inactive)
ROOT
ATOM      1  N1  IND d   1       1.113   0.725  -0.797  0.00  0.00    -0.196 N 
ATOM      2  C2  IND d   1       0.658   0.245  -1.993  0.00  0.00     0.054 A 
ATOM      3  C3  IND d   1      -0.578  -0.283  -1.849  0.00  0.00    -0.031 A 
ATOM      4  C4  IND d   1      -2.084  -0.373   0.238  0.00  0.00     0.051 A 
ATOM      5  C5  IND d   1      -2.088  -0.094   1.575  0.00  0.00    -0.031 A 
ATOM      6  C6  IND d   1      -1.005   0.487   2.203  0.00  0.00     0.015 A 
ATOM      7  C7  IND d   1       0.124   0.822   1.511  0.00  0.00    -0.016 A 
ATOM      8  C8  IND d   1       0.135   0.533   0.153  0.00  0.00    -0.047 A 
ATOM      9  C9  IND d   1      -0.945  -0.095  -0.481  0.00  0.00    -0.096 A 
ATOM     10  HN1 IND d   1       1.882   1.086  -0.661  0.00  0.00     0.298 HD
ENDROOT
TORSDOF 0
ENDMDL
