MODEL 1
REMARK minimizedAffinity -1.47773421
REMARK minimizedRMSD -1
REMARK  0 active torsions:
REMARK  status: ('A' for Active; 'I' for Inactive)
ROOT
ATOM      1  N1  IND d   1       1.033  -0.205   0.200  0.00  0.00    -0.196 N 
ATOM      2  C2  IND d   1       0.862  -0.831  -1.003  0.00  0.00     0.054 A 
ATOM      3  C3  IND d   1      -0.453  -0.926  -1.301  0.00  0.00    -0.031 A 
ATOM      4  C4  IND d   1      -2.492  -0.033  -0.009  0.00  0.00     0.051 A 
ATOM      5  C5  IND d   1      -2.842   0.576   1.164  0.00  0.00    -0.031 A 
ATOM      6  C6  IND d   1      -1.899   0.966   2.092  0.00  0.00     0.015 A 
ATOM      7  C7  IND d   1      -0.564   0.771   1.877  0.00  0.00    -0.016 A 
ATOM      8  C8  IND d   1      -0.206   0.147   0.691  0.00  0.00    -0.047 A 
ATOM      9  C9  IND d   1      -1.161  -0.290  -0.236  0.00  0.00    -0.096 A 
ATOM     10  HN1 IND d   1       1.787  -0.056   0.586  0.00  0.00     0.298 HD
ENDROOT
TORSDOF 0
ENDMDL
