MODEL 1
REMARK minimizedAffinity -2.47937536
REMARK minimizedRMSD -1
REMARK  0 active torsions:
REMARK  status: ('A' for Active; 'I' for Inactive)
ROOT
ATOM      1  N1  IND d   1       1.242   0.027  -1.395  0.00  0.00    -0.196 N 
ATOM      2  C2  IND d   1       0.192  -0.739  -0.974  0.00  0.00     0.054 A 
ATOM      3  C3  IND d   1      -0.488  -1.229  -2.035  0.00  0.00    -0.031 A 
ATOM      4  C4  IND d   1       0.007  -0.985  -4.549  0.00  0.00     0.051 A 
ATOM      5  C5  IND d   1       0.840  -0.348  -5.426  0.00  0.00    -0.031 A 
ATOM      6  C6  IND d   1       1.872   0.461  -4.996  0.00  0.00     0.015 A 
ATOM      7  C7  IND d   1       2.118   0.655  -3.666  0.00  0.00    -0.016 A 
ATOM      8  C8  IND d   1       1.270   0.015  -2.772  0.00  0.00    -0.047 A 
ATOM      9  C9  IND d   1       0.195  -0.773  -3.204  0.00  0.00    -0.096 A 
ATOM     10  HN1 IND d   1       1.794   0.447  -0.885  0.00  0.00     0.298 HD
ENDROOT
TORSDOF 0
ENDMDL
