MODEL 1
REMARK minimizedAffinity -4.92895174
REMARK minimizedRMSD -1
REMARK  0 active torsions:
REMARK  status: ('A' for Active; 'I' for Inactive)
ROOT
ATOM      1  N1  IND d   1       0.286  -0.045  -0.678  0.00  0.00    -0.196 N 
ATOM      2  C2  IND d   1      -0.789  -0.792  -1.071  0.00  0.00     0.054 A 
ATOM      3  C3  IND d   1      -1.696  -0.875  -0.071  0.00  0.00    -0.031 A 
ATOM      4  C4  IND d   1      -1.667   0.223   2.257  0.00  0.00     0.051 A 
ATOM      5  C5  IND d   1      -0.877   0.968   3.087  0.00  0.00    -0.031 A 
ATOM      6  C6  IND d   1       0.365   1.425   2.696  0.00  0.00     0.015 A 
ATOM      7  C7  IND d   1       0.860   1.162   1.450  0.00  0.00    -0.016 A 
ATOM      8  C8  IND d   1       0.064   0.400   0.607  0.00  0.00    -0.047 A 
ATOM      9  C9  IND d   1      -1.179  -0.102   1.014  0.00  0.00    -0.096 A 
ATOM     10  HN1 IND d   1       0.984   0.119  -1.153  0.00  0.00     0.298 HD
ENDROOT
TORSDOF 0
ENDMDL
