MODEL 1
REMARK minimizedAffinity -3.87332225
REMARK minimizedRMSD -1
REMARK  0 active torsions:
REMARK  status: ('A' for Active; 'I' for Inactive)
ROOT
ATOM      1  N1  IND d   1       0.648  -0.686  -0.188  0.00  0.00    -0.196 N 
ATOM      2  C2  IND d   1      -0.478  -0.009   0.191  0.00  0.00     0.054 A 
ATOM      3  C3  IND d   1      -0.986   0.680  -0.856  0.00  0.00    -0.031 A 
ATOM      4  C4  IND d   1      -0.191   0.759  -3.303  0.00  0.00     0.051 A 
ATOM      5  C5  IND d   1       0.816   0.333  -4.123  0.00  0.00    -0.031 A 
ATOM      6  C6  IND d   1       1.837  -0.473  -3.664  0.00  0.00     0.015 A 
ATOM      7  C7  IND d   1       1.884  -0.894  -2.366  0.00  0.00    -0.016 A 
ATOM      8  C8  IND d   1       0.867  -0.458  -1.528  0.00  0.00    -0.047 A 
ATOM      9  C9  IND d   1      -0.149   0.395  -1.978  0.00  0.00    -0.096 A 
ATOM     10  HN1 IND d   1       1.137  -1.173   0.326  0.00  0.00     0.298 HD
ENDROOT
TORSDOF 0
ENDMDL
