MODEL 1
REMARK minimizedAffinity -3.77368784
REMARK minimizedRMSD -1
REMARK  0 active torsions:
REMARK  status: ('A' for Active; 'I' for Inactive)
ROOT
ATOM      1  N1  IND d   1       1.232   0.892  -0.163  0.00  0.00    -0.196 N 
ATOM      2  C2  IND d   1       0.939   0.038  -1.190  0.00  0.00     0.054 A 
ATOM      3  C3  IND d   1      -0.308  -0.465  -1.041  0.00  0.00    -0.031 A 
ATOM      4  C4  IND d   1      -2.077   0.053   0.756  0.00  0.00     0.051 A 
ATOM      5  C5  IND d   1      -2.258   0.743   1.921  0.00  0.00    -0.031 A 
ATOM      6  C6  IND d   1      -1.266   1.536   2.462  0.00  0.00     0.015 A 
ATOM      7  C7  IND d   1      -0.055   1.678   1.847  0.00  0.00    -0.016 A 
ATOM      8  C8  IND d   1       0.136   0.973   0.667  0.00  0.00    -0.047 A 
ATOM      9  C9  IND d   1      -0.852   0.134   0.136  0.00  0.00    -0.096 A 
ATOM     10  HN1 IND d   1       1.977   1.308  -0.054  0.00  0.00     0.298 HD
ENDROOT
TORSDOF 0
ENDMDL
