MODEL 1
REMARK minimizedAffinity 0.583188057
REMARK minimizedRMSD -1
REMARK  0 active torsions:
REMARK  status: ('A' for Active; 'I' for Inactive)
ROOT
ATOM      1  C   UNL d   1      -0.216  -0.836   0.767  0.00  0.00     0.172 C 
ATOM      2  N   UNL d   1       0.759   0.227   0.693  0.00  0.00    -0.070 N 
ATOM      3  C1  UNL d   1       0.786   1.220  -0.250  0.00  0.00    -0.004 A 
ATOM      4  C2  UNL d   1       1.865   2.033   0.025  0.00  0.00    -0.047 A 
ATOM      5  C3  UNL d   1       2.508   1.510   1.171  0.00  0.00    -0.047 A 
ATOM      6  C4  UNL d   1       1.803   0.392   1.564  0.00  0.00    -0.004 A 
ENDROOT
TORSDOF 0
ENDMDL
