MODEL 1
REMARK minimizedAffinity -1.1293596
REMARK minimizedRMSD -1
REMARK  0 active torsions:
REMARK  status: ('A' for Active; 'I' for Inactive)
ROOT
ATOM      1  C   UNL d   1       2.151   3.199  -0.262  0.00  0.00     0.172 C 
ATOM      2  N   UNL d   1       2.620   1.982   0.357  0.00  0.00    -0.070 N 
ATOM      3  C1  UNL d   1       2.229   1.507   1.580  0.00  0.00    -0.004 A 
ATOM      4  C2  UNL d   1       2.901   0.326   1.809  0.00  0.00    -0.047 A 
ATOM      5  C3  UNL d   1       3.726   0.083   0.684  0.00  0.00    -0.047 A 
ATOM      6  C4  UNL d   1       3.532   1.124  -0.199  0.00  0.00    -0.004 A 
ENDROOT
TORSDOF 0
ENDMDL
