MODEL 1
REMARK minimizedAffinity -2.04231906
REMARK minimizedRMSD -1
REMARK  0 active torsions:
REMARK  status: ('A' for Active; 'I' for Inactive)
ROOT
ATOM      1  C   UNL d   1       2.419   0.600   1.567  0.00  0.00     0.172 C 
ATOM      2  N   UNL d   1       1.872   1.625   0.708  0.00  0.00    -0.070 N 
ATOM      3  C1  UNL d   1       0.601   2.129   0.777  0.00  0.00    -0.004 A 
ATOM      4  C2  UNL d   1       0.472   3.083  -0.209  0.00  0.00    -0.047 A 
ATOM      5  C3  UNL d   1       1.708   3.154  -0.895  0.00  0.00    -0.047 A 
ATOM      6  C4  UNL d   1       2.556   2.240  -0.307  0.00  0.00    -0.004 A 
ENDROOT
TORSDOF 0
ENDMDL
