MODEL 1
REMARK minimizedAffinity -1.13783526
REMARK minimizedRMSD -1
REMARK  0 active torsions:
REMARK  status: ('A' for Active; 'I' for Inactive)
ROOT
ATOM      1  C   UNL d   1       2.280   1.244   0.549  0.00  0.00     0.172 C 
ATOM      2  N   UNL d   1       1.396   2.340   0.226  0.00  0.00    -0.070 N 
ATOM      3  C1  UNL d   1       1.761   3.504  -0.395  0.00  0.00    -0.004 A 
ATOM      4  C2  UNL d   1       0.634   4.287  -0.521  0.00  0.00    -0.047 A 
ATOM      5  C3  UNL d   1      -0.446   3.569   0.044  0.00  0.00    -0.047 A 
ATOM      6  C4  UNL d   1       0.053   2.366   0.498  0.00  0.00    -0.004 A 
ENDROOT
TORSDOF 0
ENDMDL
