MODEL 1
REMARK minimizedAffinity -0.101274043
REMARK minimizedRMSD -1
REMARK  0 active torsions:
REMARK  status: ('A' for Active; 'I' for Inactive)
ROOT
ATOM      1  C   UNL d   1       0.674   1.986   0.527  0.00  0.00     0.172 C 
ATOM      2  N   UNL d   1       1.349   0.845   1.101  0.00  0.00    -0.070 N 
ATOM      3  C1  UNL d   1       2.621   0.843   1.609  0.00  0.00    -0.004 A 
ATOM      4  C2  UNL d   1       2.893  -0.431   2.058  0.00  0.00    -0.047 A 
ATOM      5  C3  UNL d   1       1.746  -1.222   1.810  0.00  0.00    -0.047 A 
ATOM      6  C4  UNL d   1       0.806  -0.407   1.217  0.00  0.00    -0.004 A 
ENDROOT
TORSDOF 0
ENDMDL
