MODEL 1
REMARK minimizedAffinity 4.16348314
REMARK minimizedRMSD -1
REMARK  0 active torsions:
REMARK  status: ('A' for Active; 'I' for Inactive)
ROOT
ATOM      1  C   UNL d   1      -0.748  -2.544  -2.230  0.00  0.00     0.172 C 
ATOM      2  N   UNL d   1      -2.081  -2.251  -2.700  0.00  0.00    -0.070 N 
ATOM      3  C1  UNL d   1      -3.191  -3.023  -2.485  0.00  0.00    -0.004 A 
ATOM      4  C2  UNL d   1      -4.261  -2.402  -3.092  0.00  0.00    -0.047 A 
ATOM      5  C3  UNL d   1      -3.777  -1.216  -3.694  0.00  0.00    -0.047 A 
ATOM      6  C4  UNL d   1      -2.424  -1.147  -3.436  0.00  0.00    -0.004 A 
ENDROOT
TORSDOF 0
ENDMDL
