MODEL 1
REMARK minimizedAffinity 0.254670233
REMARK minimizedRMSD -1
REMARK  0 active torsions:
REMARK  status: ('A' for Active; 'I' for Inactive)
ROOT
ATOM      1  C   UNL d   1       0.702  -2.063   2.375  0.00  0.00     0.172 C 
ATOM      2  N   UNL d   1       1.084  -0.928   1.568  0.00  0.00    -0.070 N 
ATOM      3  C1  UNL d   1       0.841   0.385   1.871  0.00  0.00    -0.004 A 
ATOM      4  C2  UNL d   1       1.361   1.156   0.854  0.00  0.00    -0.047 A 
ATOM      5  C3  UNL d   1       1.935   0.276  -0.094  0.00  0.00    -0.047 A 
ATOM      6  C4  UNL d   1       1.750  -1.008   0.373  0.00  0.00    -0.004 A 
ENDROOT
TORSDOF 0
ENDMDL
