MODEL 1
REMARK minimizedAffinity -2.32157564
REMARK minimizedRMSD -1
REMARK  0 active torsions:
REMARK  status: ('A' for Active; 'I' for Inactive)
ROOT
ATOM      1  C   UNL d   1       1.202  -2.159   4.314  0.00  0.00     0.172 C 
ATOM      2  N   UNL d   1       1.189  -1.340   3.125  0.00  0.00    -0.070 N 
ATOM      3  C1  UNL d   1       0.368  -1.514   2.044  0.00  0.00    -0.004 A 
ATOM      4  C2  UNL d   1       0.664  -0.531   1.125  0.00  0.00    -0.047 A 
ATOM      5  C3  UNL d   1       1.701   0.261   1.673  0.00  0.00    -0.047 A 
ATOM      6  C4  UNL d   1       2.007  -0.261   2.912  0.00  0.00    -0.004 A 
ENDROOT
TORSDOF 0
ENDMDL
