MODEL 1
REMARK minimizedAffinity 0.70622617
REMARK minimizedRMSD -1
REMARK  0 active torsions:
REMARK  status: ('A' for Active; 'I' for Inactive)
ROOT
ATOM      1  C   UNL d   1       1.473  -2.232   3.731  0.00  0.00     0.172 C 
ATOM      2  N   UNL d   1       1.480  -1.285   2.641  0.00  0.00    -0.070 N 
ATOM      3  C1  UNL d   1       1.383   0.075   2.764  0.00  0.00    -0.004 A 
ATOM      4  C2  UNL d   1       1.428   0.618   1.497  0.00  0.00    -0.047 A 
ATOM      5  C3  UNL d   1       1.556  -0.454   0.582  0.00  0.00    -0.047 A 
ATOM      6  C4  UNL d   1       1.586  -1.620   1.317  0.00  0.00    -0.004 A 
ENDROOT
TORSDOF 0
ENDMDL
