MODEL 1
REMARK minimizedAffinity -3.44666791
REMARK minimizedRMSD -1
REMARK  0 active torsions:
REMARK  status: ('A' for Active; 'I' for Inactive)
ROOT
ATOM      1  C   UNL d   1       1.867   0.446   1.388  0.00  0.00     0.172 C 
ATOM      2  N   UNL d   1       1.719   0.038   2.765  0.00  0.00    -0.070 N 
ATOM      3  C1  UNL d   1       1.855   0.853   3.857  0.00  0.00    -0.004 A 
ATOM      4  C2  UNL d   1       1.638   0.089   4.984  0.00  0.00    -0.047 A 
ATOM      5  C3  UNL d   1       1.363  -1.231   4.553  0.00  0.00    -0.047 A 
ATOM      6  C4  UNL d   1       1.420  -1.234   3.175  0.00  0.00    -0.004 A 
ENDROOT
TORSDOF 0
ENDMDL
