MODEL 1
REMARK minimizedAffinity 1.31052029
REMARK minimizedRMSD -1
REMARK  0 active torsions:
REMARK  status: ('A' for Active; 'I' for Inactive)
ROOT
ATOM      1  C   UNL d   1      -3.058   1.406   0.917  0.00  0.00     0.124 A 
ATOM      2  C1  UNL d   1      -2.742   0.562  -0.138  0.00  0.00     0.062 A 
ATOM      3  C2  UNL d   1      -1.446   0.074  -0.280  0.00  0.00     0.162 A 
ATOM      4  C3  UNL d   1      -0.456   0.428   0.637  0.00  0.00    -0.034 A 
ATOM      5  C4  UNL d   1      -0.782   1.278   1.695  0.00  0.00     0.162 A 
ATOM      6  C5  UNL d   1      -2.078   1.763   1.833  0.00  0.00     0.062 A 
ATOM      7  F   UNL d   1      -2.382   2.578   2.853  0.00  0.00    -0.097 F 
ATOM      8  F1  UNL d   1       0.146   1.638   2.595  0.00  0.00    -0.096 F 
ATOM      9  I   UNL d   1       1.482  -0.300   0.428  0.00  0.00    -0.060 I 
ATOM     10  F2  UNL d   1      -1.169  -0.740  -1.310  0.00  0.00    -0.096 F 
ATOM     11  F3  UNL d   1      -3.686   0.216  -1.025  0.00  0.00    -0.097 F 
ATOM     12  F4  UNL d   1      -4.305   1.874   1.051  0.00  0.00    -0.092 F 
ENDROOT
TORSDOF 0
ENDMDL
