MODEL 1
REMARK minimizedAffinity 8.91818142
REMARK minimizedRMSD -1
REMARK  0 active torsions:
REMARK  status: ('A' for Active; 'I' for Inactive)
ROOT
ATOM      1  C   UNL d   1       2.101  -0.707  -0.165  0.00  0.00     0.124 A 
ATOM      2  C1  UNL d   1       1.262  -1.772  -0.462  0.00  0.00     0.062 A 
ATOM      3  C2  UNL d   1      -0.108  -1.566  -0.602  0.00  0.00     0.162 A 
ATOM      4  C3  UNL d   1      -0.647  -0.290  -0.445  0.00  0.00    -0.034 A 
ATOM      5  C4  UNL d   1       0.203   0.776  -0.145  0.00  0.00     0.162 A 
ATOM      6  C5  UNL d   1       1.571   0.566  -0.007  0.00  0.00     0.062 A 
ATOM      7  F   UNL d   1       2.380   1.596   0.281  0.00  0.00    -0.097 F 
ATOM      8  F1  UNL d   1      -0.283   2.017   0.012  0.00  0.00    -0.096 F 
ATOM      9  I   UNL d   1      -2.694   0.022  -0.653  0.00  0.00    -0.060 I 
ATOM     10  F2  UNL d   1      -0.895  -2.614  -0.890  0.00  0.00    -0.096 F 
ATOM     11  F3  UNL d   1       1.771  -3.003  -0.615  0.00  0.00    -0.097 F 
ATOM     12  F4  UNL d   1       3.418  -0.908  -0.030  0.00  0.00    -0.092 F 
ENDROOT
TORSDOF 0
ENDMDL
