MODEL 1
REMARK minimizedAffinity -3.38636017
REMARK minimizedRMSD -1
REMARK  0 active torsions:
REMARK  status: ('A' for Active; 'I' for Inactive)
ROOT
ATOM      1  C   UNL d   1       2.901  -0.327  -0.048  0.00  0.00     0.124 A 
ATOM      2  C1  UNL d   1       1.895  -1.273  -0.187  0.00  0.00     0.062 A 
ATOM      3  C2  UNL d   1       0.568  -0.870  -0.311  0.00  0.00     0.162 A 
ATOM      4  C3  UNL d   1       0.240   0.486  -0.298  0.00  0.00    -0.034 A 
ATOM      5  C4  UNL d   1       1.258   1.431  -0.157  0.00  0.00     0.162 A 
ATOM      6  C5  UNL d   1       2.582   1.023  -0.033  0.00  0.00     0.062 A 
ATOM      7  F   UNL d   1       3.553   1.938   0.101  0.00  0.00    -0.097 F 
ATOM      8  F1  UNL d   1       0.977   2.742  -0.140  0.00  0.00    -0.096 F 
ATOM      9  I   UNL d   1      -1.742   1.092  -0.484  0.00  0.00    -0.060 I 
ATOM     10  F2  UNL d   1      -0.384  -1.806  -0.444  0.00  0.00    -0.096 F 
ATOM     11  F3  UNL d   1       2.200  -2.578  -0.201  0.00  0.00    -0.097 F 
ATOM     12  F4  UNL d   1       4.177  -0.718   0.073  0.00  0.00    -0.092 F 
ENDROOT
TORSDOF 0
ENDMDL
