MODEL 1
REMARK minimizedAffinity -2.2012105
REMARK minimizedRMSD -1
REMARK  0 active torsions:
REMARK  status: ('A' for Active; 'I' for Inactive)
ROOT
ATOM      1  C   UNL d   1       1.611  -1.778  -0.323  0.00  0.00     0.124 A 
ATOM      2  C1  UNL d   1       2.233  -0.779   0.413  0.00  0.00     0.062 A 
ATOM      3  C2  UNL d   1       1.671   0.493   0.482  0.00  0.00     0.162 A 
ATOM      4  C3  UNL d   1       0.479   0.773  -0.187  0.00  0.00    -0.034 A 
ATOM      5  C4  UNL d   1      -0.140  -0.237  -0.926  0.00  0.00     0.162 A 
ATOM      6  C5  UNL d   1       0.426  -1.507  -0.991  0.00  0.00     0.062 A 
ATOM      7  F   UNL d   1      -0.177  -2.471  -1.702  0.00  0.00    -0.097 F 
ATOM      8  F1  UNL d   1      -1.287  -0.003  -1.581  0.00  0.00    -0.096 F 
ATOM      9  I   UNL d   1      -0.364   2.673  -0.087  0.00  0.00    -0.060 I 
ATOM     10  F2  UNL d   1       2.294   1.439   1.200  0.00  0.00    -0.096 F 
ATOM     11  F3  UNL d   1       3.379  -1.038   1.059  0.00  0.00    -0.097 F 
ATOM     12  F4  UNL d   1       2.155  -3.000  -0.388  0.00  0.00    -0.092 F 
ENDROOT
TORSDOF 0
ENDMDL
