MODEL 1
REMARK minimizedAffinity 2.21576548
REMARK minimizedRMSD -1
REMARK  0 active torsions:
REMARK  status: ('A' for Active; 'I' for Inactive)
ROOT
ATOM      1  C   UNL d   1       0.085  -0.182  -0.664  0.00  0.00     0.124 A 
ATOM      2  C1  UNL d   1      -0.641   0.997  -0.580  0.00  0.00     0.062 A 
ATOM      3  C2  UNL d   1      -1.772   1.067   0.229  0.00  0.00     0.162 A 
ATOM      4  C3  UNL d   1      -2.183  -0.046   0.961  0.00  0.00    -0.034 A 
ATOM      5  C4  UNL d   1      -1.448  -1.230   0.871  0.00  0.00     0.162 A 
ATOM      6  C5  UNL d   1      -0.318  -1.294   0.062  0.00  0.00     0.062 A 
ATOM      7  F   UNL d   1       0.382  -2.435  -0.018  0.00  0.00    -0.097 F 
ATOM      8  F1  UNL d   1      -1.815  -2.319   1.562  0.00  0.00    -0.096 F 
ATOM      9  I   UNL d   1      -3.873   0.054   2.172  0.00  0.00    -0.060 I 
ATOM     10  F2  UNL d   1      -2.455   2.220   0.290  0.00  0.00    -0.096 F 
ATOM     11  F3  UNL d   1      -0.254   2.073  -1.280  0.00  0.00    -0.097 F 
ATOM     12  F4  UNL d   1       1.172  -0.247  -1.443  0.00  0.00    -0.092 F 
ENDROOT
TORSDOF 0
ENDMDL
