MODEL 1
REMARK minimizedAffinity -4.10324574
REMARK minimizedRMSD -1
REMARK  0 active torsions:
REMARK  status: ('A' for Active; 'I' for Inactive)
ROOT
ATOM      1  C   UNL d   1       1.703  -0.330   0.072  0.00  0.00     0.124 A 
ATOM      2  C1  UNL d   1       0.841  -1.409  -0.070  0.00  0.00     0.062 A 
ATOM      3  C2  UNL d   1      -0.518  -1.196  -0.279  0.00  0.00     0.162 A 
ATOM      4  C3  UNL d   1      -1.026   0.102  -0.348  0.00  0.00    -0.034 A 
ATOM      5  C4  UNL d   1      -0.153   1.182  -0.204  0.00  0.00     0.162 A 
ATOM      6  C5  UNL d   1       1.205   0.964   0.005  0.00  0.00     0.062 A 
ATOM      7  F   UNL d   1       2.036   2.008   0.141  0.00  0.00    -0.097 F 
ATOM      8  F1  UNL d   1      -0.607   2.442  -0.265  0.00  0.00    -0.096 F 
ATOM      9  I   UNL d   1      -3.058   0.423  -0.660  0.00  0.00    -0.060 I 
ATOM     10  F2  UNL d   1      -1.328  -2.257  -0.412  0.00  0.00    -0.096 F 
ATOM     11  F3  UNL d   1       1.319  -2.659  -0.005  0.00  0.00    -0.097 F 
ATOM     12  F4  UNL d   1       3.010  -0.537   0.273  0.00  0.00    -0.092 F 
ENDROOT
TORSDOF 0
ENDMDL
