MODEL 1
REMARK minimizedAffinity -1.39683473
REMARK minimizedRMSD -1
REMARK  0 active torsions:
REMARK  status: ('A' for Active; 'I' for Inactive)
ROOT
ATOM      1  C   UNL d   1      -0.209   0.572  -0.667  0.00  0.00     0.124 A 
ATOM      2  C1  UNL d   1       0.563   1.523  -0.013  0.00  0.00     0.062 A 
ATOM      3  C2  UNL d   1       1.790   1.168   0.540  0.00  0.00     0.162 A 
ATOM      4  C3  UNL d   1       2.254  -0.143   0.440  0.00  0.00    -0.034 A 
ATOM      5  C4  UNL d   1       1.472  -1.094  -0.218  0.00  0.00     0.162 A 
ATOM      6  C5  UNL d   1       0.246  -0.735  -0.769  0.00  0.00     0.062 A 
ATOM      7  F   UNL d   1      -0.498  -1.655  -1.400  0.00  0.00    -0.097 F 
ATOM      8  F1  UNL d   1       1.888  -2.364  -0.332  0.00  0.00    -0.096 F 
ATOM      9  I   UNL d   1       4.089  -0.677   1.265  0.00  0.00    -0.060 I 
ATOM     10  F2  UNL d   1       2.515   2.108   1.166  0.00  0.00    -0.096 F 
ATOM     11  F3  UNL d   1       0.125   2.786   0.088  0.00  0.00    -0.097 F 
ATOM     12  F4  UNL d   1      -1.390   0.916  -1.197  0.00  0.00    -0.092 F 
ENDROOT
TORSDOF 0
ENDMDL
