MODEL 1
REMARK minimizedAffinity -0.328998029
REMARK minimizedRMSD -1
REMARK  0 active torsions:
REMARK  status: ('A' for Active; 'I' for Inactive)
ROOT
ATOM      1  C   UNL d   1       1.224   0.111   0.028  0.00  0.00     0.124 A 
ATOM      2  C1  UNL d   1       0.726   1.375   0.312  0.00  0.00     0.062 A 
ATOM      3  C2  UNL d   1      -0.627   1.547   0.591  0.00  0.00     0.162 A 
ATOM      4  C3  UNL d   1      -1.491   0.453   0.589  0.00  0.00    -0.034 A 
ATOM      5  C4  UNL d   1      -0.983  -0.815   0.302  0.00  0.00     0.162 A 
ATOM      6  C5  UNL d   1       0.370  -0.983   0.023  0.00  0.00     0.062 A 
ATOM      7  F   UNL d   1       0.849  -2.205  -0.251  0.00  0.00    -0.097 F 
ATOM      8  F1  UNL d   1      -1.786  -1.890   0.291  0.00  0.00    -0.096 F 
ATOM      9  I   UNL d   1      -3.514   0.706   1.007  0.00  0.00    -0.060 I 
ATOM     10  F2  UNL d   1      -1.081   2.780   0.862  0.00  0.00    -0.096 F 
ATOM     11  F3  UNL d   1       1.549   2.433   0.316  0.00  0.00    -0.097 F 
ATOM     12  F4  UNL d   1       2.526  -0.052  -0.242  0.00  0.00    -0.092 F 
ENDROOT
TORSDOF 0
ENDMDL
