MODEL 1
REMARK minimizedAffinity -2.39311552
REMARK minimizedRMSD -1
REMARK  0 active torsions:
REMARK  status: ('A' for Active; 'I' for Inactive)
ROOT
ATOM      1  C4' PXY d   1      -0.020   2.015   0.603  0.00  0.00     0.077 C 
ATOM      2  C1' PXY d   1       0.029  -3.751   0.196  0.00  0.00     0.077 C 
ATOM      3  C1  PXY d   1       0.004  -2.239   0.301  0.00  0.00    -0.082 A 
ATOM      4  C2  PXY d   1       1.098  -1.546   0.030  0.00  0.00     0.003 A 
ATOM      5  C3  PXY d   1       1.101  -0.180   0.151  0.00  0.00     0.003 A 
ATOM      6  C4  PXY d   1      -0.043   0.487   0.501  0.00  0.00    -0.082 A 
ATOM      7  C5  PXY d   1      -1.166  -0.212   0.768  0.00  0.00     0.003 A 
ATOM      8  C6  PXY d   1      -1.137  -1.601   0.680  0.00  0.00     0.003 A 
ENDROOT
TORSDOF 0
ENDMDL
