MODEL 1
REMARK minimizedAffinity -3.55660295
REMARK minimizedRMSD -1
REMARK  0 active torsions:
REMARK  status: ('A' for Active; 'I' for Inactive)
ROOT
ATOM      1  C4' PXY d   1      -0.013   2.035   0.045  0.00  0.00     0.077 C 
ATOM      2  C1' PXY d   1       0.221  -3.738   0.223  0.00  0.00     0.077 C 
ATOM      3  C1  PXY d   1       0.149  -2.224   0.185  0.00  0.00    -0.082 A 
ATOM      4  C2  PXY d   1       0.643  -1.572  -0.855  0.00  0.00     0.003 A 
ATOM      5  C3  PXY d   1       0.615  -0.202  -0.892  0.00  0.00     0.003 A 
ATOM      6  C4  PXY d   1       0.029   0.506   0.122  0.00  0.00    -0.082 A 
ATOM      7  C5  PXY d   1      -0.487  -0.152   1.182  0.00  0.00     0.003 A 
ATOM      8  C6  PXY d   1      -0.412  -1.542   1.219  0.00  0.00     0.003 A 
ENDROOT
TORSDOF 0
ENDMDL
