MODEL 1
REMARK minimizedAffinity -3.14798951
REMARK minimizedRMSD -1
REMARK  0 active torsions:
REMARK  status: ('A' for Active; 'I' for Inactive)
ROOT
ATOM      1  C4' PXY d   1      -0.017   2.336   0.604  0.00  0.00     0.077 C 
ATOM      2  C1' PXY d   1       0.163  -3.377  -0.261  0.00  0.00     0.077 C 
ATOM      3  C1  PXY d   1       0.103  -1.879  -0.036  0.00  0.00    -0.082 A 
ATOM      4  C2  PXY d   1       1.181  -1.142  -0.247  0.00  0.00     0.003 A 
ATOM      5  C3  PXY d   1       1.154   0.210  -0.018  0.00  0.00     0.003 A 
ATOM      6  C4  PXY d   1      -0.005   0.821   0.380  0.00  0.00    -0.082 A 
ATOM      7  C5  PXY d   1      -1.112   0.078   0.588  0.00  0.00     0.003 A 
ATOM      8  C6  PXY d   1      -1.052  -1.298   0.389  0.00  0.00     0.003 A 
ENDROOT
TORSDOF 0
ENDMDL
