MODEL 1
REMARK minimizedAffinity -3.04712439
REMARK minimizedRMSD -1
REMARK  0 active torsions:
REMARK  status: ('A' for Active; 'I' for Inactive)
ROOT
ATOM      1  C4' PXY d   1       1.311   2.794   0.211  0.00  0.00     0.077 C 
ATOM      2  C1' PXY d   1      -0.664  -2.613   0.742  0.00  0.00     0.077 C 
ATOM      3  C1  PXY d   1      -0.147  -1.196   0.589  0.00  0.00    -0.082 A 
ATOM      4  C2  PXY d   1       0.631  -0.679   1.526  0.00  0.00     0.003 A 
ATOM      5  C3  PXY d   1       1.081   0.612   1.420  0.00  0.00     0.003 A 
ATOM      6  C4  PXY d   1       0.774   1.364   0.318  0.00  0.00    -0.082 A 
ATOM      7  C5  PXY d   1      -0.011   0.840  -0.647  0.00  0.00     0.003 A 
ATOM      8  C6  PXY d   1      -0.491  -0.458  -0.501  0.00  0.00     0.003 A 
ENDROOT
TORSDOF 0
ENDMDL
