MODEL 1
REMARK minimizedAffinity -5.3060317
REMARK minimizedRMSD -1
REMARK  0 active torsions:
REMARK  status: ('A' for Active; 'I' for Inactive)
ROOT
ATOM      1  C4' PXY d   1       0.235   3.110   0.155  0.00  0.00     0.077 C 
ATOM      2  C1' PXY d   1       0.390  -2.668   0.182  0.00  0.00     0.077 C 
ATOM      3  C1  PXY d   1       0.351  -1.153   0.162  0.00  0.00    -0.082 A 
ATOM      4  C2  PXY d   1       0.649  -0.476   1.260  0.00  0.00     0.003 A 
ATOM      5  C3  PXY d   1       0.588   0.893   1.268  0.00  0.00     0.003 A 
ATOM      6  C4  PXY d   1       0.270   1.580   0.127  0.00  0.00    -0.082 A 
ATOM      7  C5  PXY d   1      -0.025   0.897  -1.000  0.00  0.00     0.003 A 
ATOM      8  C6  PXY d   1       0.003  -0.494  -0.976  0.00  0.00     0.003 A 
ENDROOT
TORSDOF 0
ENDMDL
