MODEL 1
REMARK minimizedAffinity -2.37841892
REMARK minimizedRMSD -1
REMARK  0 active torsions:
REMARK  status: ('A' for Active; 'I' for Inactive)
ROOT
ATOM      1  C4' PXY d   1      -0.296  -3.231   0.583  0.00  0.00     0.077 C 
ATOM      2  C1' PXY d   1       0.534   2.451  -0.080  0.00  0.00     0.077 C 
ATOM      3  C1  PXY d   1       0.319   0.959   0.081  0.00  0.00    -0.082 A 
ATOM      4  C2  PXY d   1      -0.452   0.511   1.059  0.00  0.00     0.003 A 
ATOM      5  C3  PXY d   1      -0.631  -0.836   1.239  0.00  0.00     0.003 A 
ATOM      6  C4  PXY d   1      -0.059  -1.733   0.377  0.00  0.00    -0.082 A 
ATOM      7  C5  PXY d   1       0.720  -1.283  -0.630  0.00  0.00     0.003 A 
ATOM      8  C6  PXY d   1       0.923   0.087  -0.770  0.00  0.00     0.003 A 
ENDROOT
TORSDOF 0
ENDMDL
