MODEL 1
REMARK minimizedAffinity -3.83020163
REMARK minimizedRMSD -1
REMARK  0 active torsions:
REMARK  status: ('A' for Active; 'I' for Inactive)
ROOT
ATOM      1  C4' PXY d   1      -1.090  -0.207   1.616  0.00  0.00     0.077 C 
ATOM      2  C1' PXY d   1       1.127  -2.387  -3.256  0.00  0.00     0.077 C 
ATOM      3  C1  PXY d   1       0.552  -1.804  -1.981  0.00  0.00    -0.082 A 
ATOM      4  C2  PXY d   1       0.208  -2.610  -0.990  0.00  0.00     0.003 A 
ATOM      5  C3  PXY d   1      -0.344  -2.102   0.158  0.00  0.00     0.003 A 
ATOM      6  C4  PXY d   1      -0.496  -0.751   0.314  0.00  0.00    -0.082 A 
ATOM      7  C5  PXY d   1      -0.139   0.079  -0.688  0.00  0.00     0.003 A 
ATOM      8  C6  PXY d   1       0.381  -0.459  -1.862  0.00  0.00     0.003 A 
ENDROOT
TORSDOF 0
ENDMDL
