MODEL 1
REMARK minimizedAffinity -4.52929497
REMARK minimizedRMSD -1
REMARK  0 active torsions:
REMARK  status: ('A' for Active; 'I' for Inactive)
ROOT
ATOM      1  C4' PXY d   1       0.367  -0.774  -3.361  0.00  0.00     0.077 C 
ATOM      2  C1' PXY d   1      -0.778  -0.534   2.300  0.00  0.00     0.077 C 
ATOM      3  C1  PXY d   1      -0.486  -0.588   0.813  0.00  0.00    -0.082 A 
ATOM      4  C2  PXY d   1      -0.018  -1.703   0.278  0.00  0.00     0.003 A 
ATOM      5  C3  PXY d   1       0.282  -1.759  -1.059  0.00  0.00     0.003 A 
ATOM      6  C4  PXY d   1       0.049  -0.678  -1.867  0.00  0.00    -0.082 A 
ATOM      7  C5  PXY d   1      -0.438   0.461  -1.330  0.00  0.00     0.003 A 
ATOM      8  C6  PXY d   1      -0.697   0.510   0.037  0.00  0.00     0.003 A 
ENDROOT
TORSDOF 0
ENDMDL
