MODEL 1
REMARK minimizedAffinity -3.26238322
REMARK minimizedRMSD -1
REMARK  0 active torsions:
REMARK  status: ('A' for Active; 'I' for Inactive)
ROOT
ATOM      1  C4' PXY d   1       1.597   2.531  -0.030  0.00  0.00     0.077 C 
ATOM      2  C1' PXY d   1      -1.262  -2.432   0.750  0.00  0.00     0.077 C 
ATOM      3  C1  PXY d   1      -0.520  -1.127   0.536  0.00  0.00    -0.082 A 
ATOM      4  C2  PXY d   1       0.745  -1.025   0.909  0.00  0.00     0.003 A 
ATOM      5  C3  PXY d   1       1.421   0.157   0.752  0.00  0.00     0.003 A 
ATOM      6  C4  PXY d   1       0.812   1.230   0.158  0.00  0.00    -0.082 A 
ATOM      7  C5  PXY d   1      -0.475   1.130  -0.236  0.00  0.00     0.003 A 
ATOM      8  C6  PXY d   1      -1.157  -0.066  -0.030  0.00  0.00     0.003 A 
ENDROOT
TORSDOF 0
ENDMDL
