MODEL 1
REMARK minimizedAffinity -2.91633272
REMARK minimizedRMSD -1
REMARK  0 active torsions:
REMARK  status: ('A' for Active; 'I' for Inactive)
ROOT
ATOM      1  C4' PXY d   1       1.900   2.599  -0.297  0.00  0.00     0.077 C 
ATOM      2  C1' PXY d   1      -0.894  -2.412   0.413  0.00  0.00     0.077 C 
ATOM      3  C1  PXY d   1      -0.168  -1.096   0.216  0.00  0.00    -0.082 A 
ATOM      4  C2  PXY d   1       1.017  -0.912   0.775  0.00  0.00     0.003 A 
ATOM      5  C3  PXY d   1       1.673   0.284   0.634  0.00  0.00     0.003 A 
ATOM      6  C4  PXY d   1       1.135   1.283  -0.133  0.00  0.00    -0.082 A 
ATOM      7  C5  PXY d   1      -0.069   1.099  -0.715  0.00  0.00     0.003 A 
ATOM      8  C6  PXY d   1      -0.737  -0.107  -0.526  0.00  0.00     0.003 A 
ENDROOT
TORSDOF 0
ENDMDL
