MODEL 1
REMARK minimizedAffinity -1.47298634
REMARK minimizedRMSD -1
REMARK  0 active torsions:
REMARK  status: ('A' for Active; 'I' for Inactive)
ROOT
ATOM      1  C4' PXY d   1       0.457   2.968  -0.220  0.00  0.00     0.077 C 
ATOM      2  C1' PXY d   1      -0.306  -2.699   0.627  0.00  0.00     0.077 C 
ATOM      3  C1  PXY d   1      -0.096  -1.216   0.397  0.00  0.00    -0.082 A 
ATOM      4  C2  PXY d   1      -0.526  -0.347   1.297  0.00  0.00     0.003 A 
ATOM      5  C3  PXY d   1      -0.372   1.000   1.090  0.00  0.00     0.003 A 
ATOM      6  C4  PXY d   1       0.275   1.460  -0.025  0.00  0.00    -0.082 A 
ATOM      7  C5  PXY d   1       0.726   0.579  -0.943  0.00  0.00     0.003 A 
ATOM      8  C6  PXY d   1       0.524  -0.782  -0.734  0.00  0.00     0.003 A 
ENDROOT
TORSDOF 0
ENDMDL
