MODEL 1
REMARK minimizedAffinity 1.50197387
REMARK minimizedRMSD -1
REMARK  0 active torsions:
REMARK  status: ('A' for Active; 'I' for Inactive)
ROOT
ATOM      1  C4' PXY d   1       0.534  -0.616  -2.521  0.00  0.00     0.077 C 
ATOM      2  C1' PXY d   1       0.609   3.868   1.126  0.00  0.00     0.077 C 
ATOM      3  C1  PXY d   1       0.582   2.686   0.178  0.00  0.00    -0.082 A 
ATOM      4  C2  PXY d   1       1.568   2.519  -0.689  0.00  0.00     0.003 A 
ATOM      5  C3  PXY d   1       1.543   1.473  -1.575  0.00  0.00     0.003 A 
ATOM      6  C4  PXY d   1       0.525   0.558  -1.538  0.00  0.00    -0.082 A 
ATOM      7  C5  PXY d   1      -0.479   0.715  -0.650  0.00  0.00     0.003 A 
ATOM      8  C6  PXY d   1      -0.456   1.807   0.214  0.00  0.00     0.003 A 
ENDROOT
TORSDOF 0
ENDMDL
