MODEL 1
REMARK minimizedAffinity -5.06374407
REMARK minimizedRMSD -1
REMARK  0 active torsions:
REMARK  status: ('A' for Active; 'I' for Inactive)
ROOT
ATOM      1  C4' PXY d   1       0.418  -4.107  -1.356  0.00  0.00     0.077 C 
ATOM      2  C1' PXY d   1      -0.390   1.549  -0.475  0.00  0.00     0.077 C 
ATOM      3  C1  PXY d   1      -0.185   0.066  -0.718  0.00  0.00    -0.082 A 
ATOM      4  C2  PXY d   1      -0.028  -0.750   0.312  0.00  0.00     0.003 A 
ATOM      5  C3  PXY d   1       0.191  -2.088   0.110  0.00  0.00     0.003 A 
ATOM      6  C4  PXY d   1       0.197  -2.605  -1.158  0.00  0.00    -0.082 A 
ATOM      7  C5  PXY d   1       0.028  -1.780  -2.214  0.00  0.00     0.003 A 
ATOM      8  C6  PXY d   1      -0.152  -0.419  -1.988  0.00  0.00     0.003 A 
ENDROOT
TORSDOF 0
ENDMDL
