MODEL 1
REMARK minimizedAffinity -4.1278863
REMARK minimizedRMSD -1
REMARK  0 active torsions:
REMARK  status: ('A' for Active; 'I' for Inactive)
ROOT
ATOM      1  C4' PXY d   1       0.139  -3.820   0.086  0.00  0.00     0.077 C 
ATOM      2  C1' PXY d   1      -0.114   1.893  -0.755  0.00  0.00     0.077 C 
ATOM      3  C1  PXY d   1      -0.049   0.397  -0.521  0.00  0.00    -0.082 A 
ATOM      4  C2  PXY d   1       0.501  -0.385  -1.437  0.00  0.00     0.003 A 
ATOM      5  C3  PXY d   1       0.540  -1.743  -1.256  0.00  0.00     0.003 A 
ATOM      6  C4  PXY d   1       0.060  -2.303  -0.103  0.00  0.00    -0.082 A 
ATOM      7  C5  PXY d   1      -0.493  -1.511   0.841  0.00  0.00     0.003 A 
ATOM      8  C6  PXY d   1      -0.560  -0.139   0.620  0.00  0.00     0.003 A 
ENDROOT
TORSDOF 0
ENDMDL
