MODEL 1
REMARK minimizedAffinity -1.60179889
REMARK minimizedRMSD -1
REMARK  0 active torsions:
REMARK  status: ('A' for Active; 'I' for Inactive)
ROOT
ATOM      1  C4' PXY d   1      -1.354  -3.382   0.472  0.00  0.00     0.077 C 
ATOM      2  C1' PXY d   1       1.529   1.600  -0.059  0.00  0.00     0.077 C 
ATOM      3  C1  PXY d   1       0.782   0.288   0.073  0.00  0.00    -0.082 A 
ATOM      4  C2  PXY d   1      -0.522   0.297   0.293  0.00  0.00     0.003 A 
ATOM      5  C3  PXY d   1      -1.208  -0.881   0.447  0.00  0.00     0.003 A 
ATOM      6  C4  PXY d   1      -0.561  -2.081   0.323  0.00  0.00    -0.082 A 
ATOM      7  C5  PXY d   1       0.768  -2.099   0.088  0.00  0.00     0.003 A 
ATOM      8  C6  PXY d   1       1.453  -0.892  -0.025  0.00  0.00     0.003 A 
ENDROOT
TORSDOF 0
ENDMDL
