MODEL 1
REMARK minimizedAffinity -4.76915646
REMARK minimizedRMSD -1
REMARK  0 active torsions:
REMARK  status: ('A' for Active; 'I' for Inactive)
ROOT
ATOM      1  C4' PXY d   1       0.892  -2.229  -3.671  0.00  0.00     0.077 C 
ATOM      2  C1' PXY d   1      -1.019  -1.291   1.703  0.00  0.00     0.077 C 
ATOM      3  C1  PXY d   1      -0.514  -1.549   0.297  0.00  0.00    -0.082 A 
ATOM      4  C2  PXY d   1      -0.180  -0.528  -0.476  0.00  0.00     0.003 A 
ATOM      5  C3  PXY d   1       0.248  -0.742  -1.761  0.00  0.00     0.003 A 
ATOM      6  C4  PXY d   1       0.386  -2.016  -2.242  0.00  0.00    -0.082 A 
ATOM      7  C5  PXY d   1       0.057  -3.064  -1.456  0.00  0.00     0.003 A 
ATOM      8  C6  PXY d   1      -0.414  -2.824  -0.169  0.00  0.00     0.003 A 
ENDROOT
TORSDOF 0
ENDMDL
