MODEL 1
REMARK minimizedAffinity -1.66657245
REMARK minimizedRMSD -1
REMARK  0 active torsions:
REMARK  status: ('A' for Active; 'I' for Inactive)
ROOT
ATOM      1  C4' PXY d   1       1.050   1.857  -0.064  0.00  0.00     0.077 C 
ATOM      2  C1' PXY d   1       0.063  -3.823   0.364  0.00  0.00     0.077 C 
ATOM      3  C1  PXY d   1       0.309  -2.332   0.249  0.00  0.00    -0.082 A 
ATOM      4  C2  PXY d   1       1.536  -1.886   0.030  0.00  0.00     0.003 A 
ATOM      5  C3  PXY d   1       1.781  -0.539  -0.046  0.00  0.00     0.003 A 
ATOM      6  C4  PXY d   1       0.753   0.359   0.051  0.00  0.00    -0.082 A 
ATOM      7  C5  PXY d   1      -0.503  -0.088   0.263  0.00  0.00     0.003 A 
ATOM      8  C6  PXY d   1      -0.725  -1.457   0.378  0.00  0.00     0.003 A 
ENDROOT
TORSDOF 0
ENDMDL
