MODEL 1
REMARK minimizedAffinity -5.18737555
REMARK minimizedRMSD -1
REMARK  0 active torsions:
REMARK  status: ('A' for Active; 'I' for Inactive)
ROOT
ATOM      1  C4' PXY d   1      -0.137  -2.996   0.650  0.00  0.00     0.077 C 
ATOM      2  C1' PXY d   1      -0.279   2.751   0.049  0.00  0.00     0.077 C 
ATOM      3  C1  PXY d   1      -0.245   1.245   0.219  0.00  0.00    -0.082 A 
ATOM      4  C2  PXY d   1       0.489   0.510  -0.601  0.00  0.00     0.003 A 
ATOM      5  C3  PXY d   1       0.506  -0.855  -0.481  0.00  0.00     0.003 A 
ATOM      6  C4  PXY d   1      -0.194  -1.472   0.522  0.00  0.00    -0.082 A 
ATOM      7  C5  PXY d   1      -0.937  -0.728   1.368  0.00  0.00     0.003 A 
ATOM      8  C6  PXY d   1      -0.974   0.653   1.204  0.00  0.00     0.003 A 
ENDROOT
TORSDOF 0
ENDMDL
