MODEL 1
REMARK minimizedAffinity -5.0323596
REMARK minimizedRMSD -1
REMARK  0 active torsions:
REMARK  status: ('A' for Active; 'I' for Inactive)
ROOT
ATOM      1  C4' PXY d   1       0.380  -4.073   0.038  0.00  0.00     0.077 C 
ATOM      2  C1' PXY d   1      -0.824   1.482   1.090  0.00  0.00     0.077 C 
ATOM      3  C1  PXY d   1      -0.514   0.022   0.826  0.00  0.00    -0.082 A 
ATOM      4  C2  PXY d   1       0.490  -0.299   0.026  0.00  0.00     0.003 A 
ATOM      5  C3  PXY d   1       0.765  -1.613  -0.249  0.00  0.00     0.003 A 
ATOM      6  C4  PXY d   1       0.037  -2.612   0.341  0.00  0.00    -0.082 A 
ATOM      7  C5  PXY d   1      -0.983  -2.293   1.166  0.00  0.00     0.003 A 
ATOM      8  C6  PXY d   1      -1.271  -0.951   1.401  0.00  0.00     0.003 A 
ENDROOT
TORSDOF 0
ENDMDL
