MODEL 1
REMARK minimizedAffinity 0.699365139
REMARK minimizedRMSD -1
REMARK  0 active torsions:
REMARK  status: ('A' for Active; 'I' for Inactive)
ROOT
ATOM      1  C1  BNZ d   1       3.848  -1.150  -2.343  0.00  0.00     0.000 A 
ATOM      2  C2  BNZ d   1       3.700  -0.412  -1.199  0.00  0.00     0.000 A 
ATOM      3  C3  BNZ d   1       2.862  -0.827  -0.201  0.00  0.00     0.000 A 
ATOM      4  C4  BNZ d   1       2.144  -1.957  -0.366  0.00  0.00     0.000 A 
ATOM      5  C5  BNZ d   1       2.276  -2.707  -1.518  0.00  0.00     0.000 A 
ATOM      6  C6  BNZ d   1       3.149  -2.307  -2.503  0.00  0.00     0.000 A 
ENDROOT
TORSDOF 0
ENDMDL
