MODEL 1
REMARK minimizedAffinity 0.943237603
REMARK minimizedRMSD -1
REMARK  0 active torsions:
REMARK  status: ('A' for Active; 'I' for Inactive)
ROOT
ATOM      1  C1  BNZ d   1      -5.998   0.486  -1.484  0.00  0.00     0.000 A 
ATOM      2  C2  BNZ d   1      -4.987   0.829  -2.341  0.00  0.00     0.000 A 
ATOM      3  C3  BNZ d   1      -3.807   0.139  -2.345  0.00  0.00     0.000 A 
ATOM      4  C4  BNZ d   1      -3.625  -0.867  -1.465  0.00  0.00     0.000 A 
ATOM      5  C5  BNZ d   1      -4.631  -1.219  -0.588  0.00  0.00     0.000 A 
ATOM      6  C6  BNZ d   1      -5.832  -0.547  -0.613  0.00  0.00     0.000 A 
ENDROOT
TORSDOF 0
ENDMDL
