MODEL 1
REMARK minimizedAffinity 4.18672895
REMARK minimizedRMSD -1
REMARK  0 active torsions:
REMARK  status: ('A' for Active; 'I' for Inactive)
ROOT
ATOM      1  C1  BNZ d   1       1.593  -3.722   5.139  0.00  0.00     0.000 A 
ATOM      2  C2  BNZ d   1       2.272  -4.800   5.642  0.00  0.00     0.000 A 
ATOM      3  C3  BNZ d   1       1.609  -5.946   5.985  0.00  0.00     0.000 A 
ATOM      4  C4  BNZ d   1       0.267  -5.998   5.862  0.00  0.00     0.000 A 
ATOM      5  C5  BNZ d   1      -0.432  -4.916   5.365  0.00  0.00     0.000 A 
ATOM      6  C6  BNZ d   1       0.242  -3.778   4.985  0.00  0.00     0.000 A 
ENDROOT
TORSDOF 0
ENDMDL
