MODEL 1
REMARK minimizedAffinity 0.365159541
REMARK minimizedRMSD -1
REMARK  0 active torsions:
REMARK  status: ('A' for Active; 'I' for Inactive)
ROOT
ATOM      1  C1  BNZ d   1       4.019   0.046  -1.418  0.00  0.00     0.000 A 
ATOM      2  C2  BNZ d   1       4.260   1.308  -0.945  0.00  0.00     0.000 A 
ATOM      3  C3  BNZ d   1       3.487   1.843   0.048  0.00  0.00     0.000 A 
ATOM      4  C4  BNZ d   1       2.451   1.132   0.537  0.00  0.00     0.000 A 
ATOM      5  C5  BNZ d   1       2.190  -0.139   0.064  0.00  0.00     0.000 A 
ATOM      6  C6  BNZ d   1       2.994  -0.689  -0.907  0.00  0.00     0.000 A 
ENDROOT
TORSDOF 0
ENDMDL
