MODEL 1
REMARK minimizedAffinity 0.815320075
REMARK minimizedRMSD -1
REMARK  0 active torsions:
REMARK  status: ('A' for Active; 'I' for Inactive)
ROOT
ATOM      1  C1  BNZ d   1       2.276   1.192   0.072  0.00  0.00     0.000 A 
ATOM      2  C2  BNZ d   1       1.608   0.003   0.202  0.00  0.00     0.000 A 
ATOM      3  C3  BNZ d   1       2.180  -1.169  -0.205  0.00  0.00     0.000 A 
ATOM      4  C4  BNZ d   1       3.400  -1.147  -0.779  0.00  0.00     0.000 A 
ATOM      5  C5  BNZ d   1       4.082   0.044  -0.927  0.00  0.00     0.000 A 
ATOM      6  C6  BNZ d   1       3.520   1.217  -0.480  0.00  0.00     0.000 A 
ENDROOT
TORSDOF 0
ENDMDL
