MODEL 1
REMARK minimizedAffinity 1.66302919
REMARK minimizedRMSD -1
REMARK  0 active torsions:
REMARK  status: ('A' for Active; 'I' for Inactive)
ROOT
ATOM      1  C1  BNZ d   1       1.481  -4.333   5.998  0.00  0.00     0.000 A 
ATOM      2  C2  BNZ d   1       1.821  -3.404   5.051  0.00  0.00     0.000 A 
ATOM      3  C3  BNZ d   1       0.919  -3.006   4.105  0.00  0.00     0.000 A 
ATOM      4  C4  BNZ d   1      -0.308  -3.565   4.082  0.00  0.00     0.000 A 
ATOM      5  C5  BNZ d   1      -0.663  -4.510   5.024  0.00  0.00     0.000 A 
ATOM      6  C6  BNZ d   1       0.235  -4.880   5.999  0.00  0.00     0.000 A 
ENDROOT
TORSDOF 0
ENDMDL
