MODEL 1
REMARK minimizedAffinity 4.87590075
REMARK minimizedRMSD -1
REMARK  0 active torsions:
REMARK  status: ('A' for Active; 'I' for Inactive)
ROOT
ATOM      1  C1  BNZ d   1       1.751  -0.945   0.780  0.00  0.00     0.000 A 
ATOM      2  C2  BNZ d   1       2.291  -1.958   0.035  0.00  0.00     0.000 A 
ATOM      3  C3  BNZ d   1       3.471  -1.784  -0.633  0.00  0.00     0.000 A 
ATOM      4  C4  BNZ d   1       4.087  -0.585  -0.589  0.00  0.00     0.000 A 
ATOM      5  C5  BNZ d   1       3.549   0.450   0.150  0.00  0.00     0.000 A 
ATOM      6  C6  BNZ d   1       2.382   0.259   0.854  0.00  0.00     0.000 A 
ENDROOT
TORSDOF 0
ENDMDL
