MODEL 1
REMARK minimizedAffinity -0.0133570833
REMARK minimizedRMSD -1
REMARK  0 active torsions:
REMARK  status: ('A' for Active; 'I' for Inactive)
ROOT
ATOM      1  C1  BNZ d   1       4.017   0.175  -0.688  0.00  0.00     0.000 A 
ATOM      2  C2  BNZ d   1       4.039  -1.192  -0.614  0.00  0.00     0.000 A 
ATOM      3  C3  BNZ d   1       2.967  -1.884  -0.123  0.00  0.00     0.000 A 
ATOM      4  C4  BNZ d   1       1.892  -1.207   0.329  0.00  0.00     0.000 A 
ATOM      5  C5  BNZ d   1       1.859   0.172   0.270  0.00  0.00     0.000 A 
ATOM      6  C6  BNZ d   1       2.924   0.863  -0.260  0.00  0.00     0.000 A 
ENDROOT
TORSDOF 0
ENDMDL
