MODEL 1
REMARK minimizedAffinity -0.540990233
REMARK minimizedRMSD -1
REMARK  1 active torsions:
REMARK  status: ('A' for Active; 'I' for Inactive)
REMARK    1  A    between atoms: C1_2  and  C2_3 
ROOT
ATOM      1  C2  UNL d   1       0.449  -0.053   0.162  0.00  0.00    -0.076 A 
ATOM      2  C3  UNL d   1       0.059  -0.877   1.233  0.00  0.00     0.004 A 
ATOM      3  C4  UNL d   1      -0.543  -0.339   2.369  0.00  0.00    -0.003 A 
ATOM      4  C5  UNL d   1      -0.767   1.031   2.452  0.00  0.00     0.000 A 
ATOM      5  C6  UNL d   1      -0.404   1.860   1.392  0.00  0.00     0.000 A 
ATOM      6  C7  UNL d   1       0.190   1.332   0.232  0.00  0.00    -0.073 A 
ATOM      7  C8  UNL d   1       0.568   2.274  -0.878  0.00  0.00     0.078 C 
ENDROOT
BRANCH   1   8
ATOM      8  C1  UNL d   1       1.123  -0.689  -1.033  0.00  0.00     0.053 C 
ATOM      9  C   UNL d   1       0.453  -1.987  -1.458  0.00  0.00     0.018 C 
ENDBRANCH   1   8
TORSDOF 1
ENDMDL
