MODEL 1
REMARK minimizedAffinity -4.53933859
REMARK minimizedRMSD -1
REMARK  1 active torsions:
REMARK  status: ('A' for Active; 'I' for Inactive)
REMARK    1  A    between atoms: C1_2  and  C2_3 
ROOT
ATOM      1  C2  UNL d   1      -0.272   2.175   1.447  0.00  0.00    -0.076 A 
ATOM      2  C3  UNL d   1      -0.893   1.483   2.502  0.00  0.00     0.004 A 
ATOM      3  C4  UNL d   1      -0.974   0.092   2.499  0.00  0.00    -0.003 A 
ATOM      4  C5  UNL d   1      -0.434  -0.631   1.440  0.00  0.00     0.000 A 
ATOM      5  C6  UNL d   1       0.201   0.037   0.394  0.00  0.00     0.000 A 
ATOM      6  C7  UNL d   1       0.305   1.439   0.390  0.00  0.00    -0.073 A 
ATOM      7  C8  UNL d   1       0.995   2.108  -0.767  0.00  0.00     0.078 C 
ENDROOT
BRANCH   1   8
ATOM      8  C1  UNL d   1      -0.239   3.686   1.492  0.00  0.00     0.053 C 
ATOM      9  C   UNL d   1       0.826   4.217   2.438  0.00  0.00     0.018 C 
ENDBRANCH   1   8
TORSDOF 1
ENDMDL
