MODEL 1
REMARK minimizedAffinity -3.71180391
REMARK minimizedRMSD -1
REMARK  1 active torsions:
REMARK  status: ('A' for Active; 'I' for Inactive)
REMARK    1  A    between atoms: C1_2  and  C2_3 
ROOT
ATOM      1  C2  UNL d   1       0.280   1.739   0.150  0.00  0.00    -0.076 A 
ATOM      2  C3  UNL d   1      -0.648   1.940   1.186  0.00  0.00     0.004 A 
ATOM      3  C4  UNL d   1      -1.005   0.899   2.041  0.00  0.00    -0.003 A 
ATOM      4  C5  UNL d   1      -0.440  -0.360   1.874  0.00  0.00     0.000 A 
ATOM      5  C6  UNL d   1       0.496  -0.573   0.863  0.00  0.00     0.000 A 
ATOM      6  C7  UNL d   1       0.880   0.470   0.002  0.00  0.00    -0.073 A 
ATOM      7  C8  UNL d   1       1.889   0.182  -1.075  0.00  0.00     0.078 C 
ENDROOT
BRANCH   1   8
ATOM      8  C1  UNL d   1       0.609   2.898  -0.764  0.00  0.00     0.053 C 
ATOM      9  C   UNL d   1       0.304   4.246  -0.127  0.00  0.00     0.018 C 
ENDBRANCH   1   8
TORSDOF 1
ENDMDL
