MODEL 1
REMARK minimizedAffinity -1.32535124
REMARK minimizedRMSD -1
REMARK  1 active torsions:
REMARK  status: ('A' for Active; 'I' for Inactive)
REMARK    1  A    between atoms: C1_2  and  C2_3 
ROOT
ATOM      1  C2  UNL d   1      -0.330   0.258   2.749  0.00  0.00    -0.076 A 
ATOM      2  C3  UNL d   1       0.832  -0.509   2.556  0.00  0.00     0.004 A 
ATOM      3  C4  UNL d   1       1.113  -1.087   1.319  0.00  0.00    -0.003 A 
ATOM      4  C5  UNL d   1       0.237  -0.906   0.254  0.00  0.00     0.000 A 
ATOM      5  C6  UNL d   1      -0.912  -0.133   0.423  0.00  0.00     0.000 A 
ATOM      6  C7  UNL d   1      -1.202   0.470   1.659  0.00  0.00    -0.073 A 
ATOM      7  C8  UNL d   1      -2.457   1.288   1.786  0.00  0.00     0.078 C 
ENDROOT
BRANCH   1   8
ATOM      8  C1  UNL d   1      -0.597   0.837   4.120  0.00  0.00     0.053 C 
ATOM      9  C   UNL d   1       0.437   1.876   4.525  0.00  0.00     0.018 C 
ENDBRANCH   1   8
TORSDOF 1
ENDMDL
