MODEL 1
REMARK minimizedAffinity -3.5346508
REMARK minimizedRMSD -1
REMARK  1 active torsions:
REMARK  status: ('A' for Active; 'I' for Inactive)
REMARK    1  A    between atoms: C1_2  and  C2_3 
ROOT
ATOM      1  C2  UNL d   1       0.005  -0.671   0.434  0.00  0.00    -0.076 A 
ATOM      2  C3  UNL d   1      -0.342   0.442  -0.353  0.00  0.00     0.004 A 
ATOM      3  C4  UNL d   1      -0.845   1.603   0.230  0.00  0.00    -0.003 A 
ATOM      4  C5  UNL d   1      -1.009   1.672   1.610  0.00  0.00     0.000 A 
ATOM      5  C6  UNL d   1      -0.653   0.584   2.407  0.00  0.00     0.000 A 
ATOM      6  C7  UNL d   1      -0.129  -0.588   1.836  0.00  0.00    -0.073 A 
ATOM      7  C8  UNL d   1       0.232  -1.733   2.743  0.00  0.00     0.078 C 
ENDROOT
BRANCH   1   8
ATOM      8  C1  UNL d   1       0.521  -1.913  -0.257  0.00  0.00     0.053 C 
ATOM      9  C   UNL d   1      -0.450  -2.445  -1.300  0.00  0.00     0.018 C 
ENDBRANCH   1   8
TORSDOF 1
ENDMDL
