MODEL 1
REMARK minimizedAffinity -4.03802061
REMARK minimizedRMSD -1
REMARK  1 active torsions:
REMARK  status: ('A' for Active; 'I' for Inactive)
REMARK    1  A    between atoms: C1_2  and  C2_3 
ROOT
ATOM      1  C2  UNL d   1       0.174  -0.047   0.218  0.00  0.00    -0.076 A 
ATOM      2  C3  UNL d   1      -0.130  -0.869   1.317  0.00  0.00     0.004 A 
ATOM      3  C4  UNL d   1      -0.845  -0.376   2.406  0.00  0.00    -0.003 A 
ATOM      4  C5  UNL d   1      -1.268   0.949   2.415  0.00  0.00     0.000 A 
ATOM      5  C6  UNL d   1      -0.991   1.774   1.326  0.00  0.00     0.000 A 
ATOM      6  C7  UNL d   1      -0.285   1.288   0.212  0.00  0.00    -0.073 A 
ATOM      7  C8  UNL d   1      -0.009   2.223  -0.933  0.00  0.00     0.078 C 
ENDROOT
BRANCH   1   8
ATOM      8  C1  UNL d   1       0.976  -0.630  -0.924  0.00  0.00     0.053 C 
ATOM      9  C   UNL d   1       0.921  -2.150  -0.958  0.00  0.00     0.018 C 
ENDBRANCH   1   8
TORSDOF 1
ENDMDL
