MODEL 1
REMARK minimizedAffinity -3.70171452
REMARK minimizedRMSD -1
REMARK  1 active torsions:
REMARK  status: ('A' for Active; 'I' for Inactive)
REMARK    1  A    between atoms: C1_2  and  C2_3 
ROOT
ATOM      1  C2  UNL d   1       0.974  -1.693  -0.678  0.00  0.00    -0.076 A 
ATOM      2  C3  UNL d   1       0.708  -3.071  -0.770  0.00  0.00     0.004 A 
ATOM      3  C4  UNL d   1       0.428  -3.667  -1.999  0.00  0.00    -0.003 A 
ATOM      4  C5  UNL d   1       0.410  -2.895  -3.156  0.00  0.00     0.000 A 
ATOM      5  C6  UNL d   1       0.689  -1.530  -3.085  0.00  0.00     0.000 A 
ATOM      6  C7  UNL d   1       0.989  -0.917  -1.857  0.00  0.00    -0.073 A 
ATOM      7  C8  UNL d   1       1.275   0.560  -1.838  0.00  0.00     0.078 C 
ENDROOT
BRANCH   1   8
ATOM      8  C1  UNL d   1       1.244  -1.097   0.685  0.00  0.00     0.053 C 
ATOM      9  C   UNL d   1       0.019  -0.416   1.276  0.00  0.00     0.018 C 
ENDBRANCH   1   8
TORSDOF 1
ENDMDL
