MODEL 1
REMARK minimizedAffinity 3.85676932
REMARK minimizedRMSD -1
REMARK  1 active torsions:
REMARK  status: ('A' for Active; 'I' for Inactive)
REMARK    1  A    between atoms: C1_2  and  C2_3 
ROOT
ATOM      1  C2  UNL d   1      -0.065   0.099  -1.843  0.00  0.00    -0.076 A 
ATOM      2  C3  UNL d   1      -0.332  -0.968  -0.967  0.00  0.00     0.004 A 
ATOM      3  C4  UNL d   1       0.185  -0.981   0.327  0.00  0.00    -0.003 A 
ATOM      4  C5  UNL d   1       0.977   0.074   0.767  0.00  0.00     0.000 A 
ATOM      5  C6  UNL d   1       1.238   1.149  -0.082  0.00  0.00     0.000 A 
ATOM      6  C7  UNL d   1       0.710   1.185  -1.384  0.00  0.00    -0.073 A 
ATOM      7  C8  UNL d   1       1.028   2.367  -2.260  0.00  0.00     0.078 C 
ENDROOT
BRANCH   1   8
ATOM      8  C1  UNL d   1      -0.631   0.045  -3.244  0.00  0.00     0.053 C 
ATOM      9  C   UNL d   1      -0.494  -1.332  -3.875  0.00  0.00     0.018 C 
ENDBRANCH   1   8
TORSDOF 1
ENDMDL
