MODEL 1
REMARK minimizedAffinity -2.92650199
REMARK minimizedRMSD -1
REMARK  1 active torsions:
REMARK  status: ('A' for Active; 'I' for Inactive)
REMARK    1  A    between atoms: C1_2  and  C2_3 
ROOT
ATOM      1  C2  UNL d   1      -0.061  -1.209   0.044  0.00  0.00    -0.076 A 
ATOM      2  C3  UNL d   1      -0.487  -2.545  -0.051  0.00  0.00     0.004 A 
ATOM      3  C4  UNL d   1      -0.643  -3.162  -1.291  0.00  0.00    -0.003 A 
ATOM      4  C5  UNL d   1      -0.375  -2.453  -2.457  0.00  0.00     0.000 A 
ATOM      5  C6  UNL d   1       0.065  -1.132  -2.381  0.00  0.00     0.000 A 
ATOM      6  C7  UNL d   1       0.244  -0.500  -1.138  0.00  0.00    -0.073 A 
ATOM      7  C8  UNL d   1       0.715   0.928  -1.115  0.00  0.00     0.078 C 
ENDROOT
BRANCH   1   8
ATOM      8  C1  UNL d   1       0.064  -0.584   1.415  0.00  0.00     0.053 C 
ATOM      9  C   UNL d   1      -1.086   0.359   1.733  0.00  0.00     0.018 C 
ENDBRANCH   1   8
TORSDOF 1
ENDMDL
