MODEL 1
REMARK minimizedAffinity -2.67122769
REMARK minimizedRMSD -1
REMARK  1 active torsions:
REMARK  status: ('A' for Active; 'I' for Inactive)
REMARK    1  A    between atoms: C1_2  and  C2_3 
ROOT
ATOM      1  C2  UNL d   1       0.434  -0.073  -0.252  0.00  0.00    -0.076 A 
ATOM      2  C3  UNL d   1       0.033  -0.664   0.959  0.00  0.00     0.004 A 
ATOM      3  C4  UNL d   1      -0.561   0.097   1.966  0.00  0.00    -0.003 A 
ATOM      4  C5  UNL d   1      -0.762   1.459   1.778  0.00  0.00     0.000 A 
ATOM      5  C6  UNL d   1      -0.386   2.058   0.576  0.00  0.00     0.000 A 
ATOM      6  C7  UNL d   1       0.198   1.303  -0.456  0.00  0.00    -0.073 A 
ATOM      7  C8  UNL d   1       0.590   2.002  -1.729  0.00  0.00     0.078 C 
ENDROOT
BRANCH   1   8
ATOM      8  C1  UNL d   1       1.097  -0.943  -1.296  0.00  0.00     0.053 C 
ATOM      9  C   UNL d   1       0.732  -2.412  -1.149  0.00  0.00     0.018 C 
ENDBRANCH   1   8
TORSDOF 1
ENDMDL
