MODEL 1
REMARK minimizedAffinity -4.91408873
REMARK minimizedRMSD -1
REMARK  1 active torsions:
REMARK  status: ('A' for Active; 'I' for Inactive)
REMARK    1  A    between atoms: C1_2  and  C2_3 
ROOT
ATOM      1  C2  UNL d   1       0.427   0.028   0.440  0.00  0.00    -0.076 A 
ATOM      2  C3  UNL d   1       0.209  -1.053   1.312  0.00  0.00     0.004 A 
ATOM      3  C4  UNL d   1      -0.505  -0.885   2.498  0.00  0.00    -0.003 A 
ATOM      4  C5  UNL d   1      -1.012   0.366   2.830  0.00  0.00     0.000 A 
ATOM      5  C6  UNL d   1      -0.820   1.445   1.969  0.00  0.00     0.000 A 
ATOM      6  C7  UNL d   1      -0.117   1.290   0.761  0.00  0.00    -0.073 A 
ATOM      7  C8  UNL d   1       0.066   2.489  -0.127  0.00  0.00     0.078 C 
ENDROOT
BRANCH   1   8
ATOM      8  C1  UNL d   1       1.231  -0.208  -0.819  0.00  0.00     0.053 C 
ATOM      9  C   UNL d   1       1.161  -1.652  -1.293  0.00  0.00     0.018 C 
ENDBRANCH   1   8
TORSDOF 1
ENDMDL
