MODEL 1
REMARK minimizedAffinity 0.505587876
REMARK minimizedRMSD -1
REMARK  0 active torsions:
REMARK  status: ('A' for Active; 'I' for Inactive)
ROOT
ATOM      1  C1  DEN d   1      -3.705  -5.937   1.132  0.00  0.00     0.130 A 
ATOM      2  C2  DEN d   1      -4.653  -5.968   2.242  0.00  0.00    -0.031 A 
ATOM      3  C3  DEN d   1      -3.880  -6.000   3.501  0.00  0.00     0.027 A 
ATOM      4  C4  DEN d   1      -1.323  -6.000   3.836  0.00  0.00     0.027 A 
ATOM      5  C5  DEN d   1      -0.106  -5.992   3.190  0.00  0.00    -0.003 A 
ATOM      6  C6  DEN d   1      -0.004  -5.999   1.824  0.00  0.00     0.001 A 
ATOM      7  C7  DEN d   1      -1.140  -5.969   1.059  0.00  0.00     0.017 A 
ATOM      8  C8  DEN d   1      -2.371  -5.985   1.702  0.00  0.00    -0.094 A 
ATOM      9  C9  DEN d   1      -2.453  -5.965   3.084  0.00  0.00    -0.072 A 
ENDROOT
TORSDOF 0
ENDMDL
