MODEL 1
REMARK minimizedAffinity 5.82600403
REMARK minimizedRMSD -1
REMARK  0 active torsions:
REMARK  status: ('A' for Active; 'I' for Inactive)
ROOT
ATOM      1  C1  DEN d   1       4.409  -0.391  -3.125  0.00  0.00     0.130 A 
ATOM      2  C2  DEN d   1       3.121  -0.926  -3.559  0.00  0.00    -0.031 A 
ATOM      3  C3  DEN d   1       2.702  -0.184  -4.765  0.00  0.00     0.027 A 
ATOM      4  C4  DEN d   1       3.918   1.726  -6.000  0.00  0.00     0.027 A 
ATOM      5  C5  DEN d   1       5.037   2.530  -5.999  0.00  0.00    -0.003 A 
ATOM      6  C6  DEN d   1       6.000   2.440  -5.029  0.00  0.00     0.001 A 
ATOM      7  C7  DEN d   1       5.885   1.495  -4.044  0.00  0.00     0.017 A 
ATOM      8  C8  DEN d   1       4.756   0.686  -4.034  0.00  0.00    -0.094 A 
ATOM      9  C9  DEN d   1       3.800   0.784  -5.030  0.00  0.00    -0.072 A 
ENDROOT
TORSDOF 0
ENDMDL
