MODEL 1
REMARK minimizedAffinity 4.65652084
REMARK minimizedRMSD -1
REMARK  0 active torsions:
REMARK  status: ('A' for Active; 'I' for Inactive)
ROOT
ATOM      1  C1  DEN d   1      -1.337  -5.948   0.839  0.00  0.00     0.130 A 
ATOM      2  C2  DEN d   1      -2.658  -5.972   1.459  0.00  0.00    -0.031 A 
ATOM      3  C3  DEN d   1      -2.474  -5.994   2.924  0.00  0.00     0.027 A 
ATOM      4  C4  DEN d   1      -0.283  -5.988   4.285  0.00  0.00     0.027 A 
ATOM      5  C5  DEN d   1       1.092  -5.983   4.198  0.00  0.00    -0.003 A 
ATOM      6  C6  DEN d   1       1.748  -6.000   2.996  0.00  0.00     0.001 A 
ATOM      7  C7  DEN d   1       1.029  -5.977   1.830  0.00  0.00     0.017 A 
ATOM      8  C8  DEN d   1      -0.357  -5.990   1.909  0.00  0.00    -0.094 A 
ATOM      9  C9  DEN d   1      -1.002  -5.960   3.134  0.00  0.00    -0.072 A 
ENDROOT
TORSDOF 0
ENDMDL
