MODEL 1
REMARK minimizedAffinity 13.2564678
REMARK minimizedRMSD -1
REMARK  0 active torsions:
REMARK  status: ('A' for Active; 'I' for Inactive)
ROOT
ATOM      1  C1  DEN d   1       2.864  -2.152  -3.333  0.00  0.00     0.130 A 
ATOM      2  C2  DEN d   1       2.950  -0.806  -2.772  0.00  0.00    -0.031 A 
ATOM      3  C3  DEN d   1       1.599  -0.212  -2.801  0.00  0.00     0.027 A 
ATOM      4  C4  DEN d   1      -0.608  -1.242  -3.650  0.00  0.00     0.027 A 
ATOM      5  C5  DEN d   1      -1.179  -2.356  -4.225  0.00  0.00    -0.003 A 
ATOM      6  C6  DEN d   1      -0.442  -3.458  -4.572  0.00  0.00     0.001 A 
ATOM      7  C7  DEN d   1       0.901  -3.487  -4.304  0.00  0.00     0.017 A 
ATOM      8  C8  DEN d   1       1.485  -2.365  -3.731  0.00  0.00    -0.094 A 
ATOM      9  C9  DEN d   1       0.721  -1.266  -3.377  0.00  0.00    -0.072 A 
ENDROOT
TORSDOF 0
ENDMDL
