MODEL 1
REMARK minimizedAffinity 10.8007374
REMARK minimizedRMSD -1
REMARK  0 active torsions:
REMARK  status: ('A' for Active; 'I' for Inactive)
ROOT
ATOM      1  C1  DEN d   1      -0.588  -5.969   2.274  0.00  0.00     0.130 A 
ATOM      2  C2  DEN d   1      -1.551  -5.990   3.372  0.00  0.00    -0.031 A 
ATOM      3  C3  DEN d   1      -0.795  -5.999   4.641  0.00  0.00     0.027 A 
ATOM      4  C4  DEN d   1       1.757  -5.977   5.010  0.00  0.00     0.027 A 
ATOM      5  C5  DEN d   1       2.982  -5.970   4.381  0.00  0.00    -0.003 A 
ATOM      6  C6  DEN d   1       3.103  -5.996   3.016  0.00  0.00     0.001 A 
ATOM      7  C7  DEN d   1       1.977  -5.985   2.236  0.00  0.00     0.017 A 
ATOM      8  C8  DEN d   1       0.738  -6.000   2.863  0.00  0.00    -0.094 A 
ATOM      9  C9  DEN d   1       0.638  -5.961   4.243  0.00  0.00    -0.072 A 
ENDROOT
TORSDOF 0
ENDMDL
