MODEL 1
REMARK minimizedAffinity 10.0736952
REMARK minimizedRMSD -1
REMARK  0 active torsions:
REMARK  status: ('A' for Active; 'I' for Inactive)
ROOT
ATOM      1  C1  DEN d   1       2.229  -5.982   2.494  0.00  0.00     0.130 A 
ATOM      2  C2  DEN d   1       2.162  -5.948   3.953  0.00  0.00    -0.031 A 
ATOM      3  C3  DEN d   1       0.738  -5.930   4.344  0.00  0.00     0.027 A 
ATOM      4  C4  DEN d   1      -1.358  -5.955   2.841  0.00  0.00     0.027 A 
ATOM      5  C5  DEN d   1      -1.805  -5.971   1.538  0.00  0.00    -0.003 A 
ATOM      6  C6  DEN d   1      -0.946  -5.957   0.471  0.00  0.00     0.001 A 
ATOM      7  C7  DEN d   1       0.406  -5.973   0.689  0.00  0.00     0.017 A 
ATOM      8  C8  DEN d   1       0.865  -5.949   1.999  0.00  0.00    -0.094 A 
ATOM      9  C9  DEN d   1      -0.020  -5.975   3.064  0.00  0.00    -0.072 A 
ENDROOT
TORSDOF 0
ENDMDL
