MODEL 1
REMARK minimizedAffinity 6.70603085
REMARK minimizedRMSD -1
REMARK  0 active torsions:
REMARK  status: ('A' for Active; 'I' for Inactive)
ROOT
ATOM      1  C1  DEN d   1       1.126  -0.976  -3.770  0.00  0.00     0.130 A 
ATOM      2  C2  DEN d   1       1.978  -1.874  -4.545  0.00  0.00    -0.031 A 
ATOM      3  C3  DEN d   1       1.154  -3.014  -4.992  0.00  0.00     0.027 A 
ATOM      4  C4  DEN d   1      -1.348  -3.473  -4.565  0.00  0.00     0.027 A 
ATOM      5  C5  DEN d   1      -2.487  -3.001  -3.950  0.00  0.00    -0.003 A 
ATOM      6  C6  DEN d   1      -2.493  -1.849  -3.210  0.00  0.00     0.001 A 
ATOM      7  C7  DEN d   1      -1.348  -1.105  -3.103  0.00  0.00     0.017 A 
ATOM      8  C8  DEN d   1      -0.194  -1.577  -3.714  0.00  0.00    -0.094 A 
ATOM      9  C9  DEN d   1      -0.211  -2.738  -4.468  0.00  0.00    -0.072 A 
ENDROOT
TORSDOF 0
ENDMDL
