MODEL 1
REMARK minimizedAffinity 14.0100107
REMARK minimizedRMSD -1
REMARK  0 active torsions:
REMARK  status: ('A' for Active; 'I' for Inactive)
ROOT
ATOM      1  C1  DEN d   1      -5.922  -0.977   3.660  0.00  0.00     0.130 A 
ATOM      2  C2  DEN d   1      -5.803  -1.624   4.964  0.00  0.00    -0.031 A 
ATOM      3  C3  DEN d   1      -5.747  -0.567   5.995  0.00  0.00     0.027 A 
ATOM      4  C4  DEN d   1      -5.835   1.993   5.699  0.00  0.00     0.027 A 
ATOM      5  C5  DEN d   1      -5.921   3.015   4.779  0.00  0.00    -0.003 A 
ATOM      6  C6  DEN d   1      -5.978   2.781   3.431  0.00  0.00     0.001 A 
ATOM      7  C7  DEN d   1      -5.996   1.492   2.966  0.00  0.00     0.017 A 
ATOM      8  C8  DEN d   1      -5.902   0.457   3.887  0.00  0.00    -0.094 A 
ATOM      9  C9  DEN d   1      -5.858   0.714   5.247  0.00  0.00    -0.072 A 
ENDROOT
TORSDOF 0
ENDMDL
