MODEL 1
REMARK minimizedAffinity 10.9685793
REMARK minimizedRMSD -1
REMARK  0 active torsions:
REMARK  status: ('A' for Active; 'I' for Inactive)
ROOT
ATOM      1  C1  DEN d   1       1.727   2.406  -0.307  0.00  0.00     0.130 A 
ATOM      2  C2  DEN d   1       1.004   1.250   0.218  0.00  0.00    -0.031 A 
ATOM      3  C3  DEN d   1       1.830   0.640   1.280  0.00  0.00     0.027 A 
ATOM      4  C4  DEN d   1       4.141   1.372   2.160  0.00  0.00     0.027 A 
ATOM      5  C5  DEN d   1       5.158   2.290   2.016  0.00  0.00    -0.003 A 
ATOM      6  C6  DEN d   1       5.118   3.281   1.072  0.00  0.00     0.001 A 
ATOM      7  C7  DEN d   1       4.019   3.407   0.265  0.00  0.00     0.017 A 
ATOM      8  C8  DEN d   1       2.992   2.481   0.400  0.00  0.00    -0.094 A 
ATOM      9  C9  DEN d   1       3.046   1.493   1.368  0.00  0.00    -0.072 A 
ENDROOT
TORSDOF 0
ENDMDL
