MODEL 1
REMARK minimizedAffinity 9.95449924
REMARK minimizedRMSD -1
REMARK  0 active torsions:
REMARK  status: ('A' for Active; 'I' for Inactive)
ROOT
ATOM      1  C1  DEN d   1       1.442  -5.997   4.411  0.00  0.00     0.130 A 
ATOM      2  C2  DEN d   1       0.508  -5.965   5.533  0.00  0.00    -0.031 A 
ATOM      3  C3  DEN d   1      -0.863  -5.953   4.985  0.00  0.00     0.027 A 
ATOM      4  C4  DEN d   1      -1.626  -5.984   2.521  0.00  0.00     0.027 A 
ATOM      5  C5  DEN d   1      -1.196  -6.000   1.213  0.00  0.00    -0.003 A 
ATOM      6  C6  DEN d   1       0.132  -5.981   0.881  0.00  0.00     0.001 A 
ATOM      7  C7  DEN d   1       1.080  -5.992   1.871  0.00  0.00     0.017 A 
ATOM      8  C8  DEN d   1       0.654  -5.968   3.192  0.00  0.00    -0.094 A 
ATOM      9  C9  DEN d   1      -0.694  -6.000   3.508  0.00  0.00    -0.072 A 
ENDROOT
TORSDOF 0
ENDMDL
