MODEL 1
REMARK minimizedAffinity 6.88816071
REMARK minimizedRMSD -1
REMARK  0 active torsions:
REMARK  status: ('A' for Active; 'I' for Inactive)
ROOT
ATOM      1  C1  DEN d   1      -1.295  -5.998   0.901  0.00  0.00     0.130 A 
ATOM      2  C2  DEN d   1      -0.467  -5.960   2.103  0.00  0.00    -0.031 A 
ATOM      3  C3  DEN d   1      -1.364  -5.942   3.276  0.00  0.00     0.027 A 
ATOM      4  C4  DEN d   1      -3.942  -5.975   3.347  0.00  0.00     0.027 A 
ATOM      5  C5  DEN d   1      -5.086  -5.996   2.580  0.00  0.00    -0.003 A 
ATOM      6  C6  DEN d   1      -5.047  -5.985   1.211  0.00  0.00     0.001 A 
ATOM      7  C7  DEN d   1      -3.839  -5.997   0.566  0.00  0.00     0.017 A 
ATOM      8  C8  DEN d   1      -2.681  -5.969   1.332  0.00  0.00    -0.094 A 
ATOM      9  C9  DEN d   1      -2.741  -5.993   2.715  0.00  0.00    -0.072 A 
ENDROOT
TORSDOF 0
ENDMDL
