MODEL 1
REMARK minimizedAffinity 7.95893669
REMARK minimizedRMSD -1
REMARK  0 active torsions:
REMARK  status: ('A' for Active; 'I' for Inactive)
ROOT
ATOM      1  C1  DEN d   1       0.738  -0.234   0.171  0.00  0.00     0.130 A 
ATOM      2  C2  DEN d   1       0.955   1.127   0.653  0.00  0.00    -0.031 A 
ATOM      3  C3  DEN d   1       0.345   1.239   1.993  0.00  0.00     0.027 A 
ATOM      4  C4  DEN d   1      -0.902  -0.555   3.363  0.00  0.00     0.027 A 
ATOM      5  C5  DEN d   1      -1.346  -1.859   3.365  0.00  0.00    -0.003 A 
ATOM      6  C6  DEN d   1      -1.157  -2.696   2.297  0.00  0.00     0.001 A 
ATOM      7  C7  DEN d   1      -0.468  -2.251   1.200  0.00  0.00     0.017 A 
ATOM      8  C8  DEN d   1      -0.024  -0.936   1.188  0.00  0.00    -0.094 A 
ATOM      9  C9  DEN d   1      -0.214  -0.109   2.282  0.00  0.00    -0.072 A 
ENDROOT
TORSDOF 0
ENDMDL
