MODEL 1
REMARK minimizedAffinity 7.6031847
REMARK minimizedRMSD -1
REMARK  0 active torsions:
REMARK  status: ('A' for Active; 'I' for Inactive)
ROOT
ATOM      1  C1  DEN d   1      -6.000   3.731   3.624  0.00  0.00     0.130 A 
ATOM      2  C2  DEN d   1      -5.968   4.532   4.845  0.00  0.00    -0.031 A 
ATOM      3  C3  DEN d   1      -5.799   3.615   5.989  0.00  0.00     0.027 A 
ATOM      4  C4  DEN d   1      -5.581   1.045   5.990  0.00  0.00     0.027 A 
ATOM      5  C5  DEN d   1      -5.563  -0.081   5.196  0.00  0.00    -0.003 A 
ATOM      6  C6  DEN d   1      -5.722  -0.018   3.837  0.00  0.00     0.001 A 
ATOM      7  C7  DEN d   1      -5.861   1.200   3.225  0.00  0.00     0.017 A 
ATOM      8  C8  DEN d   1      -5.888   2.338   4.020  0.00  0.00    -0.094 A 
ATOM      9  C9  DEN d   1      -5.713   2.255   5.391  0.00  0.00    -0.072 A 
ENDROOT
TORSDOF 0
ENDMDL
