MODEL 1
REMARK minimizedAffinity 10.037219
REMARK minimizedRMSD -1
REMARK  0 active torsions:
REMARK  status: ('A' for Active; 'I' for Inactive)
ROOT
ATOM      1  C1  DEN d   1      -5.955  -0.903   3.289  0.00  0.00     0.130 A 
ATOM      2  C2  DEN d   1      -5.547  -0.328   4.568  0.00  0.00    -0.031 A 
ATOM      3  C3  DEN d   1      -4.089  -0.516   4.708  0.00  0.00     0.027 A 
ATOM      4  C4  DEN d   1      -2.432  -1.629   3.076  0.00  0.00     0.027 A 
ATOM      5  C5  DEN d   1      -2.312  -2.275   1.865  0.00  0.00    -0.003 A 
ATOM      6  C6  DEN d   1      -3.393  -2.537   1.066  0.00  0.00     0.001 A 
ATOM      7  C7  DEN d   1      -4.638  -2.110   1.448  0.00  0.00     0.017 A 
ATOM      8  C8  DEN d   1      -4.768  -1.465   2.671  0.00  0.00    -0.094 A 
ATOM      9  C9  DEN d   1      -3.661  -1.199   3.458  0.00  0.00    -0.072 A 
ENDROOT
TORSDOF 0
ENDMDL
