MODEL 1
REMARK minimizedAffinity 3.50410247
REMARK minimizedRMSD -1
REMARK  0 active torsions:
REMARK  status: ('A' for Active; 'I' for Inactive)
ROOT
ATOM      1  C1  BNZ d   1       4.143  -3.518   2.889  0.00  0.00     0.000 A 
ATOM      2  C2  BNZ d   1       3.162  -3.047   2.059  0.00  0.00     0.000 A 
ATOM      3  C3  BNZ d   1       3.214  -3.276   0.712  0.00  0.00     0.000 A 
ATOM      4  C4  BNZ d   1       4.267  -3.940   0.193  0.00  0.00     0.000 A 
ATOM      5  C5  BNZ d   1       5.269  -4.413   1.016  0.00  0.00     0.000 A 
ATOM      6  C6  BNZ d   1       5.194  -4.215   2.376  0.00  0.00     0.000 A 
ENDROOT
TORSDOF 0
ENDMDL
