MODEL 1
REMARK minimizedAffinity -4.53839016
REMARK minimizedRMSD -1
REMARK  0 active torsions:
REMARK  status: ('A' for Active; 'I' for Inactive)
ROOT
ATOM      1  C1  BNZ d   1      -2.807   0.831  -5.271  0.00  0.00     0.000 A 
ATOM      2  C2  BNZ d   1      -2.124   0.227  -4.249  0.00  0.00     0.000 A 
ATOM      3  C3  BNZ d   1      -2.716  -0.744  -3.490  0.00  0.00     0.000 A 
ATOM      4  C4  BNZ d   1      -4.000  -1.081  -3.727  0.00  0.00     0.000 A 
ATOM      5  C5  BNZ d   1      -4.704  -0.475  -4.749  0.00  0.00     0.000 A 
ATOM      6  C6  BNZ d   1      -4.093   0.474  -5.536  0.00  0.00     0.000 A 
ENDROOT
TORSDOF 0
ENDMDL
