MODEL 1
REMARK minimizedAffinity 0.751104116
REMARK minimizedRMSD -1
REMARK  0 active torsions:
REMARK  status: ('A' for Active; 'I' for Inactive)
ROOT
ATOM      1  C1  BNZ d   1      -5.094   0.305  -4.999  0.00  0.00     0.000 A 
ATOM      2  C2  BNZ d   1      -5.577  -0.436  -3.953  0.00  0.00     0.000 A 
ATOM      3  C3  BNZ d   1      -4.726  -1.086  -3.104  0.00  0.00     0.000 A 
ATOM      4  C4  BNZ d   1      -3.396  -1.026  -3.324  0.00  0.00     0.000 A 
ATOM      5  C5  BNZ d   1      -2.895  -0.291  -4.379  0.00  0.00     0.000 A 
ATOM      6  C6  BNZ d   1      -3.753   0.394  -5.209  0.00  0.00     0.000 A 
ENDROOT
TORSDOF 0
ENDMDL
