MODEL 1
REMARK minimizedAffinity -1.23553336
REMARK minimizedRMSD -1
REMARK  0 active torsions:
REMARK  status: ('A' for Active; 'I' for Inactive)
ROOT
ATOM      1  C1  BNZ d   1      -5.453   0.025  -4.879  0.00  0.00     0.000 A 
ATOM      2  C2  BNZ d   1      -4.807  -1.091  -4.417  0.00  0.00     0.000 A 
ATOM      3  C3  BNZ d   1      -3.492  -1.312  -4.716  0.00  0.00     0.000 A 
ATOM      4  C4  BNZ d   1      -2.836  -0.440  -5.508  0.00  0.00     0.000 A 
ATOM      5  C5  BNZ d   1      -3.476   0.685  -5.989  0.00  0.00     0.000 A 
ATOM      6  C6  BNZ d   1      -4.789   0.925  -5.654  0.00  0.00     0.000 A 
ENDROOT
TORSDOF 0
ENDMDL
