MODEL 1
REMARK minimizedAffinity -1.55826926
REMARK minimizedRMSD -1
REMARK  0 active torsions:
REMARK  status: ('A' for Active; 'I' for Inactive)
ROOT
ATOM      1  C1  BNZ d   1      -3.793   0.706  -4.238  0.00  0.00     0.000 A 
ATOM      2  C2  BNZ d   1      -4.133  -0.038  -3.140  0.00  0.00     0.000 A 
ATOM      3  C3  BNZ d   1      -4.403  -1.373  -3.254  0.00  0.00     0.000 A 
ATOM      4  C4  BNZ d   1      -4.372  -1.954  -4.471  0.00  0.00     0.000 A 
ATOM      5  C5  BNZ d   1      -4.040  -1.216  -5.589  0.00  0.00     0.000 A 
ATOM      6  C6  BNZ d   1      -3.731   0.119  -5.465  0.00  0.00     0.000 A 
ENDROOT
TORSDOF 0
ENDMDL
