MODEL 1
REMARK minimizedAffinity -0.998407662
REMARK minimizedRMSD -1
REMARK  0 active torsions:
REMARK  status: ('A' for Active; 'I' for Inactive)
ROOT
ATOM      1  C1  BNZ d   1       3.761  -3.966   2.709  0.00  0.00     0.000 A 
ATOM      2  C2  BNZ d   1       3.244  -3.678   1.475  0.00  0.00     0.000 A 
ATOM      3  C3  BNZ d   1       3.857  -4.122   0.337  0.00  0.00     0.000 A 
ATOM      4  C4  BNZ d   1       5.008  -4.819   0.434  0.00  0.00     0.000 A 
ATOM      5  C5  BNZ d   1       5.547  -5.110   1.671  0.00  0.00     0.000 A 
ATOM      6  C6  BNZ d   1       4.906  -4.694   2.815  0.00  0.00     0.000 A 
ENDROOT
TORSDOF 0
ENDMDL
