MODEL 1
REMARK minimizedAffinity -2.46191192
REMARK minimizedRMSD -1
REMARK  0 active torsions:
REMARK  status: ('A' for Active; 'I' for Inactive)
ROOT
ATOM      1  C1  BNZ d   1      -2.999   3.034  -5.228  0.00  0.00     0.000 A 
ATOM      2  C2  BNZ d   1      -4.079   3.431  -4.486  0.00  0.00     0.000 A 
ATOM      3  C3  BNZ d   1      -4.510   4.728  -4.515  0.00  0.00     0.000 A 
ATOM      4  C4  BNZ d   1      -3.836   5.633  -5.253  0.00  0.00     0.000 A 
ATOM      5  C5  BNZ d   1      -2.740   5.251  -6.000  0.00  0.00     0.000 A 
ATOM      6  C6  BNZ d   1      -2.333   3.936  -5.999  0.00  0.00     0.000 A 
ENDROOT
TORSDOF 0
ENDMDL
