MODEL 1
REMARK minimizedAffinity -4.69371414
REMARK minimizedRMSD -1
REMARK  0 active torsions:
REMARK  status: ('A' for Active; 'I' for Inactive)
ROOT
ATOM      1  C1  BNZ d   1      -3.913  -1.209  -3.168  0.00  0.00     0.000 A 
ATOM      2  C2  BNZ d   1      -5.139  -0.651  -3.412  0.00  0.00     0.000 A 
ATOM      3  C3  BNZ d   1      -5.411  -0.055  -4.612  0.00  0.00     0.000 A 
ATOM      4  C4  BNZ d   1      -4.445   0.016  -5.550  0.00  0.00     0.000 A 
ATOM      5  C5  BNZ d   1      -3.200  -0.534  -5.316  0.00  0.00     0.000 A 
ATOM      6  C6  BNZ d   1      -2.943  -1.167  -4.121  0.00  0.00     0.000 A 
ENDROOT
TORSDOF 0
ENDMDL
