MODEL 1
REMARK minimizedAffinity 0.93825388
REMARK minimizedRMSD -1
REMARK  0 active torsions:
REMARK  status: ('A' for Active; 'I' for Inactive)
ROOT
ATOM      1  C4' PXY d   1      -1.975   0.168  -5.989  0.00  0.00     0.077 C 
ATOM      2  C1' PXY d   1      -3.373   5.777  -5.990  0.00  0.00     0.077 C 
ATOM      3  C1  PXY d   1      -2.995   4.309  -5.995  0.00  0.00    -0.082 A 
ATOM      4  C2  PXY d   1      -3.945   3.389  -6.000  0.00  0.00     0.003 A 
ATOM      5  C3  PXY d   1      -3.621   2.057  -5.972  0.00  0.00     0.003 A 
ATOM      6  C4  PXY d   1      -2.310   1.662  -5.993  0.00  0.00    -0.082 A 
ATOM      7  C5  PXY d   1      -1.335   2.595  -5.999  0.00  0.00     0.003 A 
ATOM      8  C6  PXY d   1      -1.685   3.942  -5.986  0.00  0.00     0.003 A 
ENDROOT
TORSDOF 0
ENDMDL
