MODEL 1
REMARK minimizedAffinity -2.67098331
REMARK minimizedRMSD -1
REMARK  0 active torsions:
REMARK  status: ('A' for Active; 'I' for Inactive)
ROOT
ATOM      1  C4' PXY d   1      -3.283  -0.665  -5.996  0.00  0.00     0.077 C 
ATOM      2  C1' PXY d   1      -5.282   4.759  -5.983  0.00  0.00     0.077 C 
ATOM      3  C1  PXY d   1      -4.746   3.341  -5.992  0.00  0.00    -0.082 A 
ATOM      4  C2  PXY d   1      -5.591   2.323  -6.000  0.00  0.00     0.003 A 
ATOM      5  C3  PXY d   1      -5.124   1.034  -5.975  0.00  0.00     0.003 A 
ATOM      6  C4  PXY d   1      -3.778   0.784  -5.997  0.00  0.00    -0.082 A 
ATOM      7  C5  PXY d   1      -2.910   1.817  -6.000  0.00  0.00     0.003 A 
ATOM      8  C6  PXY d   1      -3.404   3.118  -5.983  0.00  0.00     0.003 A 
ENDROOT
TORSDOF 0
ENDMDL
