MODEL 1
REMARK minimizedAffinity -0.714735687
REMARK minimizedRMSD -1
REMARK  0 active torsions:
REMARK  status: ('A' for Active; 'I' for Inactive)
ROOT
ATOM      1  C4' PXY d   1      -2.440  -5.991  -5.999  0.00  0.00     0.077 C 
ATOM      2  C1' PXY d   1      -5.998  -1.435  -5.975  0.00  0.00     0.077 C 
ATOM      3  C1  PXY d   1      -5.074  -2.637  -5.976  0.00  0.00    -0.082 A 
ATOM      4  C2  PXY d   1      -3.764  -2.455  -5.963  0.00  0.00     0.003 A 
ATOM      5  C3  PXY d   1      -2.914  -3.531  -5.996  0.00  0.00     0.003 A 
ATOM      6  C4  PXY d   1      -3.410  -4.806  -5.989  0.00  0.00    -0.082 A 
ATOM      7  C5  PXY d   1      -4.746  -5.000  -5.991  0.00  0.00     0.003 A 
ATOM      8  C6  PXY d   1      -5.592  -3.895  -5.999  0.00  0.00     0.003 A 
ENDROOT
TORSDOF 0
ENDMDL
