MODEL 1
REMARK minimizedAffinity 0.134435073
REMARK minimizedRMSD -1
REMARK  0 active torsions:
REMARK  status: ('A' for Active; 'I' for Inactive)
ROOT
ATOM      1  C4' PXY d   1      -4.044   5.965  -5.972  0.00  0.00     0.077 C 
ATOM      2  C1' PXY d   1      -4.501   0.203  -6.000  0.00  0.00     0.077 C 
ATOM      3  C1  PXY d   1      -4.393   1.715  -5.998  0.00  0.00    -0.082 A 
ATOM      4  C2  PXY d   1      -3.199   2.285  -5.994  0.00  0.00     0.003 A 
ATOM      5  C3  PXY d   1      -3.083   3.651  -5.960  0.00  0.00     0.003 A 
ATOM      6  C4  PXY d   1      -4.201   4.442  -5.984  0.00  0.00    -0.082 A 
ATOM      7  C5  PXY d   1      -5.422   3.867  -5.998  0.00  0.00     0.003 A 
ATOM      8  C6  PXY d   1      -5.519   2.479  -5.991  0.00  0.00     0.003 A 
ENDROOT
TORSDOF 0
ENDMDL
