MODEL 1
REMARK minimizedAffinity -2.27040696
REMARK minimizedRMSD -1
REMARK  0 active torsions:
REMARK  status: ('A' for Active; 'I' for Inactive)
ROOT
ATOM      1  C4' PXY d   1      -2.578   0.895  -5.989  0.00  0.00     0.077 C 
ATOM      2  C1' PXY d   1      -5.923   5.610  -5.970  0.00  0.00     0.077 C 
ATOM      3  C1  PXY d   1      -5.055   4.367  -5.970  0.00  0.00    -0.082 A 
ATOM      4  C2  PXY d   1      -3.738   4.488  -5.949  0.00  0.00     0.003 A 
ATOM      5  C3  PXY d   1      -2.938   3.375  -5.981  0.00  0.00     0.003 A 
ATOM      6  C4  PXY d   1      -3.493   2.123  -5.980  0.00  0.00    -0.082 A 
ATOM      7  C5  PXY d   1      -4.837   1.991  -5.990  0.00  0.00     0.003 A 
ATOM      8  C6  PXY d   1      -5.630   3.134  -6.000  0.00  0.00     0.003 A 
ENDROOT
TORSDOF 0
ENDMDL
