MODEL 1
REMARK minimizedAffinity 2.33904576
REMARK minimizedRMSD -1
REMARK  0 active torsions:
REMARK  status: ('A' for Active; 'I' for Inactive)
ROOT
ATOM      1  C4' PXY d   1      -5.189   4.620  -5.949  0.00  0.00     0.077 C 
ATOM      2  C1' PXY d   1      -4.047  -1.046  -5.994  0.00  0.00     0.077 C 
ATOM      3  C1  PXY d   1      -4.335   0.442  -5.977  0.00  0.00    -0.082 A 
ATOM      4  C2  PXY d   1      -5.588   0.866  -5.976  0.00  0.00     0.003 A 
ATOM      5  C3  PXY d   1      -5.866   2.208  -5.993  0.00  0.00     0.003 A 
ATOM      6  C4  PXY d   1      -4.851   3.127  -5.957  0.00  0.00    -0.082 A 
ATOM      7  C5  PXY d   1      -3.570   2.702  -5.947  0.00  0.00     0.003 A 
ATOM      8  C6  PXY d   1      -3.308   1.335  -5.972  0.00  0.00     0.003 A 
ENDROOT
TORSDOF 0
ENDMDL
