MODEL 1
REMARK minimizedAffinity -0.0950621888
REMARK minimizedRMSD -1
REMARK  0 active torsions:
REMARK  status: ('A' for Active; 'I' for Inactive)
ROOT
ATOM      1  C4' PXY d   1      -4.545   0.249  -5.959  0.00  0.00     0.077 C 
ATOM      2  C1' PXY d   1      -3.969   6.000  -5.850  0.00  0.00     0.077 C 
ATOM      3  C1  PXY d   1      -4.132   4.493  -5.874  0.00  0.00    -0.082 A 
ATOM      4  C2  PXY d   1      -3.059   3.719  -5.877  0.00  0.00     0.003 A 
ATOM      5  C3  PXY d   1      -3.188   2.355  -5.931  0.00  0.00     0.003 A 
ATOM      6  C4  PXY d   1      -4.428   1.776  -5.926  0.00  0.00    -0.082 A 
ATOM      7  C5  PXY d   1      -5.528   2.558  -5.912  0.00  0.00     0.003 A 
ATOM      8  C6  PXY d   1      -5.376   3.942  -5.899  0.00  0.00     0.003 A 
ENDROOT
TORSDOF 0
ENDMDL
