MODEL 1
REMARK minimizedAffinity -2.11351514
REMARK minimizedRMSD -1
REMARK  0 active torsions:
REMARK  status: ('A' for Active; 'I' for Inactive)
ROOT
ATOM      1  C4' PXY d   1      -3.968  -1.350  -5.998  0.00  0.00     0.077 C 
ATOM      2  C1' PXY d   1      -4.653   4.390  -5.978  0.00  0.00     0.077 C 
ATOM      3  C1  PXY d   1      -4.461   2.886  -5.988  0.00  0.00    -0.082 A 
ATOM      4  C2  PXY d   1      -5.520   2.092  -5.999  0.00  0.00     0.003 A 
ATOM      5  C3  PXY d   1      -5.365   0.730  -5.977  0.00  0.00     0.003 A 
ATOM      6  C4  PXY d   1      -4.114   0.174  -5.997  0.00  0.00    -0.082 A 
ATOM      7  C5  PXY d   1      -3.029   0.977  -5.997  0.00  0.00     0.003 A 
ATOM      8  C6  PXY d   1      -3.207   2.358  -5.978  0.00  0.00     0.003 A 
ENDROOT
TORSDOF 0
ENDMDL
