MODEL 1
REMARK minimizedAffinity 4.57579422
REMARK minimizedRMSD -1
REMARK  0 active torsions:
REMARK  status: ('A' for Active; 'I' for Inactive)
ROOT
ATOM      1  C4' PXY d   1      -4.127  -0.272  -6.000  0.00  0.00     0.077 C 
ATOM      2  C1' PXY d   1      -3.813   5.500  -5.980  0.00  0.00     0.077 C 
ATOM      3  C1  PXY d   1      -3.883   3.985  -5.990  0.00  0.00    -0.082 A 
ATOM      4  C2  PXY d   1      -5.062   3.386  -6.000  0.00  0.00     0.003 A 
ATOM      5  C3  PXY d   1      -5.145   2.017  -5.977  0.00  0.00     0.003 A 
ATOM      6  C4  PXY d   1      -4.008   1.254  -5.999  0.00  0.00    -0.082 A 
ATOM      7  C5  PXY d   1      -2.801   1.859  -6.000  0.00  0.00     0.003 A 
ATOM      8  C6  PXY d   1      -2.739   3.249  -5.981  0.00  0.00     0.003 A 
ENDROOT
TORSDOF 0
ENDMDL
