MODEL 1
REMARK minimizedAffinity -0.297077686
REMARK minimizedRMSD -1
REMARK  0 active torsions:
REMARK  status: ('A' for Active; 'I' for Inactive)
ROOT
ATOM      1  C4' PXY d   1      -3.819   0.168  -5.999  0.00  0.00     0.077 C 
ATOM      2  C1' PXY d   1      -3.561   5.943  -5.977  0.00  0.00     0.077 C 
ATOM      3  C1  PXY d   1      -3.616   4.428  -5.988  0.00  0.00    -0.082 A 
ATOM      4  C2  PXY d   1      -4.790   3.817  -6.000  0.00  0.00     0.003 A 
ATOM      5  C3  PXY d   1      -4.859   2.448  -5.978  0.00  0.00     0.003 A 
ATOM      6  C4  PXY d   1      -3.715   1.696  -5.997  0.00  0.00    -0.082 A 
ATOM      7  C5  PXY d   1      -2.514   2.312  -5.996  0.00  0.00     0.003 A 
ATOM      8  C6  PXY d   1      -2.465   3.703  -5.977  0.00  0.00     0.003 A 
ENDROOT
TORSDOF 0
ENDMDL
