MODEL 1
REMARK minimizedAffinity -0.865480363
REMARK minimizedRMSD -1
REMARK  0 active torsions:
REMARK  status: ('A' for Active; 'I' for Inactive)
ROOT
ATOM      1  C4' PXY d   1      -3.046   4.476  -5.964  0.00  0.00     0.077 C 
ATOM      2  C1' PXY d   1      -5.458  -0.777  -5.998  0.00  0.00     0.077 C 
ATOM      3  C1  PXY d   1      -4.836   0.605  -5.995  0.00  0.00    -0.082 A 
ATOM      4  C2  PXY d   1      -3.519   0.730  -5.987  0.00  0.00     0.003 A 
ATOM      5  C3  PXY d   1      -2.940   1.973  -5.951  0.00  0.00     0.003 A 
ATOM      6  C4  PXY d   1      -3.717   3.100  -5.978  0.00  0.00    -0.082 A 
ATOM      7  C5  PXY d   1      -5.062   2.981  -5.997  0.00  0.00     0.003 A 
ATOM      8  C6  PXY d   1      -5.630   1.710  -5.991  0.00  0.00     0.003 A 
ENDROOT
TORSDOF 0
ENDMDL
