MODEL 1
REMARK minimizedAffinity -2.54015708
REMARK minimizedRMSD -1
REMARK  0 active torsions:
REMARK  status: ('A' for Active; 'I' for Inactive)
ROOT
ATOM      1  C4' PXY d   1      -3.000  -4.047  -5.992  0.00  0.00     0.077 C 
ATOM      2  C1' PXY d   1      -4.846   1.431  -5.986  0.00  0.00     0.077 C 
ATOM      3  C1  PXY d   1      -4.373  -0.010  -5.982  0.00  0.00    -0.082 A 
ATOM      4  C2  PXY d   1      -3.077  -0.273  -5.971  0.00  0.00     0.003 A 
ATOM      5  C3  PXY d   1      -2.631  -1.569  -6.000  0.00  0.00     0.003 A 
ATOM      6  C4  PXY d   1      -3.523  -2.608  -5.987  0.00  0.00    -0.082 A 
ATOM      7  C5  PXY d   1      -4.848  -2.348  -5.988  0.00  0.00     0.003 A 
ATOM      8  C6  PXY d   1      -5.279  -1.025  -6.000  0.00  0.00     0.003 A 
ENDROOT
TORSDOF 0
ENDMDL
