MODEL 1
REMARK minimizedAffinity -3.41600299
REMARK minimizedRMSD -1
REMARK  0 active torsions:
REMARK  status: ('A' for Active; 'I' for Inactive)
ROOT
ATOM      1  C4' PXY d   1      -2.996   3.739  -5.975  0.00  0.00     0.077 C 
ATOM      2  C1' PXY d   1      -4.171  -1.921  -6.000  0.00  0.00     0.077 C 
ATOM      3  C1  PXY d   1      -3.874  -0.434  -5.999  0.00  0.00    -0.082 A 
ATOM      4  C2  PXY d   1      -2.619  -0.018  -5.996  0.00  0.00     0.003 A 
ATOM      5  C3  PXY d   1      -2.332   1.323  -5.962  0.00  0.00     0.003 A 
ATOM      6  C4  PXY d   1      -3.342   2.247  -5.985  0.00  0.00    -0.082 A 
ATOM      7  C5  PXY d   1      -4.626   1.830  -5.999  0.00  0.00     0.003 A 
ATOM      8  C6  PXY d   1      -4.896   0.465  -5.991  0.00  0.00     0.003 A 
ENDROOT
TORSDOF 0
ENDMDL
