MODEL 1
REMARK minimizedAffinity -3.230762
REMARK minimizedRMSD -1
REMARK  0 active torsions:
REMARK  status: ('A' for Active; 'I' for Inactive)
ROOT
ATOM      1  C4' PXY d   1      -3.526  -0.289  -6.000  0.00  0.00     0.077 C 
ATOM      2  C1' PXY d   1      -5.194   5.245  -5.942  0.00  0.00     0.077 C 
ATOM      3  C1  PXY d   1      -4.745   3.797  -5.962  0.00  0.00    -0.082 A 
ATOM      4  C2  PXY d   1      -5.650   2.832  -5.992  0.00  0.00     0.003 A 
ATOM      5  C3  PXY d   1      -5.262   1.517  -5.979  0.00  0.00     0.003 A 
ATOM      6  C4  PXY d   1      -3.933   1.187  -5.988  0.00  0.00    -0.082 A 
ATOM      7  C5  PXY d   1      -3.004   2.166  -5.968  0.00  0.00     0.003 A 
ATOM      8  C6  PXY d   1      -3.419   3.494  -5.941  0.00  0.00     0.003 A 
ENDROOT
TORSDOF 0
ENDMDL
