MODEL 1
REMARK minimizedAffinity -2.23382545
REMARK minimizedRMSD -1
REMARK  0 active torsions:
REMARK  status: ('A' for Active; 'I' for Inactive)
ROOT
ATOM      1  C4' PXY d   1      -1.127   2.616  -5.766  0.00  0.00     0.077 C 
ATOM      2  C1' PXY d   1      -5.815   5.996  -5.701  0.00  0.00     0.077 C 
ATOM      3  C1  PXY d   1      -4.593   5.099  -5.715  0.00  0.00    -0.082 A 
ATOM      4  C2  PXY d   1      -3.401   5.614  -5.464  0.00  0.00     0.003 A 
ATOM      5  C3  PXY d   1      -2.281   4.824  -5.504  0.00  0.00     0.003 A 
ATOM      6  C4  PXY d   1      -2.389   3.481  -5.753  0.00  0.00    -0.082 A 
ATOM      7  C5  PXY d   1      -3.604   2.946  -6.000  0.00  0.00     0.003 A 
ATOM      8  C6  PXY d   1      -4.723   3.773  -5.995  0.00  0.00     0.003 A 
ENDROOT
TORSDOF 0
ENDMDL
