MODEL 1
REMARK minimizedAffinity 2.89783335
REMARK minimizedRMSD -1
REMARK  0 active torsions:
REMARK  status: ('A' for Active; 'I' for Inactive)
ROOT
ATOM      1  C4' PXY d   1      -3.403   4.013  -5.963  0.00  0.00     0.077 C 
ATOM      2  C1' PXY d   1      -4.284  -1.700  -5.984  0.00  0.00     0.077 C 
ATOM      3  C1  PXY d   1      -4.041  -0.203  -5.973  0.00  0.00    -0.082 A 
ATOM      4  C2  PXY d   1      -5.072   0.627  -5.967  0.00  0.00     0.003 A 
ATOM      5  C3  PXY d   1      -4.870   1.983  -5.989  0.00  0.00     0.003 A 
ATOM      6  C4  PXY d   1      -3.601   2.495  -5.964  0.00  0.00    -0.082 A 
ATOM      7  C5  PXY d   1      -2.544   1.655  -5.960  0.00  0.00     0.003 A 
ATOM      8  C6  PXY d   1      -2.770   0.282  -5.979  0.00  0.00     0.003 A 
ENDROOT
TORSDOF 0
ENDMDL
