MODEL 1
REMARK minimizedAffinity 4.8060689
REMARK minimizedRMSD -1
REMARK  0 active torsions:
REMARK  status: ('A' for Active; 'I' for Inactive)
ROOT
ATOM      1  C4' PXY d   1       1.164  -0.800  -3.731  0.00  0.00     0.077 C 
ATOM      2  C1' PXY d   1       0.474   0.382   1.885  0.00  0.00     0.077 C 
ATOM      3  C1  PXY d   1       0.646   0.062   0.413  0.00  0.00    -0.082 A 
ATOM      4  C2  PXY d   1       1.770   0.394  -0.201  0.00  0.00     0.003 A 
ATOM      5  C3  PXY d   1       1.930   0.141  -1.540  0.00  0.00     0.003 A 
ATOM      6  C4  PXY d   1       0.950  -0.506  -2.244  0.00  0.00    -0.082 A 
ATOM      7  C5  PXY d   1      -0.196  -0.857  -1.622  0.00  0.00     0.003 A 
ATOM      8  C6  PXY d   1      -0.355  -0.554  -0.273  0.00  0.00     0.003 A 
ENDROOT
TORSDOF 0
ENDMDL
