MODEL 1
REMARK minimizedAffinity -1.19405091
REMARK minimizedRMSD -1
REMARK  0 active torsions:
REMARK  status: ('A' for Active; 'I' for Inactive)
ROOT
ATOM      1  C4' PXY d   1      -5.578   1.534  -5.998  0.00  0.00     0.077 C 
ATOM      2  C1' PXY d   1      -0.914   4.904  -5.437  0.00  0.00     0.077 C 
ATOM      3  C1  PXY d   1      -2.145   4.030  -5.581  0.00  0.00    -0.082 A 
ATOM      4  C2  PXY d   1      -2.039   2.720  -5.427  0.00  0.00     0.003 A 
ATOM      5  C3  PXY d   1      -3.136   1.912  -5.586  0.00  0.00     0.003 A 
ATOM      6  C4  PXY d   1      -4.364   2.456  -5.852  0.00  0.00    -0.082 A 
ATOM      7  C5  PXY d   1      -4.482   3.793  -6.000  0.00  0.00     0.003 A 
ATOM      8  C6  PXY d   1      -3.349   4.591  -5.875  0.00  0.00     0.003 A 
ENDROOT
TORSDOF 0
ENDMDL
