MODEL 1
REMARK minimizedAffinity -3.71243405
REMARK minimizedRMSD -1
REMARK  1 active torsions:
REMARK  status: ('A' for Active; 'I' for Inactive)
REMARK    1  A    between atoms: C1_2  and  C2_3 
ROOT
ATOM      1  C2  UNL d   1       0.552  -0.687  -0.758  0.00  0.00    -0.081 A 
ATOM      2  C3  UNL d   1       0.576  -0.744   0.641  0.00  0.00     0.006 A 
ATOM      3  C4  UNL d   1      -0.058   0.241   1.401  0.00  0.00     0.002 A 
ATOM      4  C5  UNL d   1      -0.734   1.295   0.776  0.00  0.00    -0.080 A 
ATOM      5  C6  UNL d   1      -1.444   2.342   1.580  0.00  0.00     0.076 C 
ATOM      6  C7  UNL d   1      -0.743   1.361  -0.621  0.00  0.00     0.002 A 
ATOM      7  C8  UNL d   1      -0.108   0.377  -1.382  0.00  0.00     0.006 A 
ENDROOT
BRANCH   1   8
ATOM      8  C1  UNL d   1       1.180  -1.783  -1.581  0.00  0.00     0.054 C 
ATOM      9  C   UNL d   1       0.225  -2.286  -2.653  0.00  0.00     0.018 C 
ENDBRANCH   1   8
TORSDOF 1
ENDMDL
