MODEL 1
REMARK minimizedAffinity -4.1127944
REMARK minimizedRMSD -1
REMARK  1 active torsions:
REMARK  status: ('A' for Active; 'I' for Inactive)
REMARK    1  A    between atoms: C1_2  and  C2_3 
ROOT
ATOM      1  C2  UNL d   1       0.569  -0.851  -0.647  0.00  0.00    -0.081 A 
ATOM      2  C3  UNL d   1       0.050  -1.263   0.587  0.00  0.00     0.006 A 
ATOM      3  C4  UNL d   1      -0.589  -0.349   1.428  0.00  0.00     0.002 A 
ATOM      4  C5  UNL d   1      -0.727   0.990   1.046  0.00  0.00    -0.080 A 
ATOM      5  C6  UNL d   1      -1.438   1.975   1.925  0.00  0.00     0.076 C 
ATOM      6  C7  UNL d   1      -0.194   1.405  -0.179  0.00  0.00     0.002 A 
ATOM      7  C8  UNL d   1       0.446   0.492  -1.020  0.00  0.00     0.006 A 
ENDROOT
BRANCH   1   8
ATOM      8  C1  UNL d   1       1.201  -1.848  -1.584  0.00  0.00     0.054 C 
ATOM      9  C   UNL d   1       0.147  -2.673  -2.308  0.00  0.00     0.018 C 
ENDBRANCH   1   8
TORSDOF 1
ENDMDL
