MODEL 1
REMARK minimizedAffinity -2.30779505
REMARK minimizedRMSD -1
REMARK  1 active torsions:
REMARK  status: ('A' for Active; 'I' for Inactive)
REMARK    1  A    between atoms: C1_2  and  C2_3 
ROOT
ATOM      1  C2  UNL d   1       0.467  -0.820  -0.292  0.00  0.00    -0.081 A 
ATOM      2  C3  UNL d   1      -0.007  -1.162   0.980  0.00  0.00     0.006 A 
ATOM      3  C4  UNL d   1      -0.591  -0.194   1.802  0.00  0.00     0.002 A 
ATOM      4  C5  UNL d   1      -0.717   1.128   1.362  0.00  0.00    -0.080 A 
ATOM      5  C6  UNL d   1      -1.369   2.169   2.222  0.00  0.00     0.076 C 
ATOM      6  C7  UNL d   1      -0.228   1.473   0.098  0.00  0.00     0.002 A 
ATOM      7  C8  UNL d   1       0.356   0.507  -0.724  0.00  0.00     0.006 A 
ENDROOT
BRANCH   1   8
ATOM      8  C1  UNL d   1       1.038  -1.874  -1.206  0.00  0.00     0.054 C 
ATOM      9  C   UNL d   1      -0.063  -2.710  -1.842  0.00  0.00     0.018 C 
ENDBRANCH   1   8
TORSDOF 1
ENDMDL
