MODEL 1
REMARK minimizedAffinity -5.17388773
REMARK minimizedRMSD -1
REMARK  1 active torsions:
REMARK  status: ('A' for Active; 'I' for Inactive)
REMARK    1  A    between atoms: C1_2  and  C2_3 
ROOT
ATOM      1  C2  UNL d   1       0.778  -0.847  -0.536  0.00  0.00    -0.081 A 
ATOM      2  C3  UNL d   1       0.291  -0.934   0.774  0.00  0.00     0.006 A 
ATOM      3  C4  UNL d   1      -0.500   0.088   1.304  0.00  0.00     0.002 A 
ATOM      4  C5  UNL d   1      -0.823   1.210   0.532  0.00  0.00    -0.080 A 
ATOM      5  C6  UNL d   1      -1.696   2.299   1.079  0.00  0.00     0.076 C 
ATOM      6  C7  UNL d   1      -0.321   1.305  -0.771  0.00  0.00     0.002 A 
ATOM      7  C8  UNL d   1       0.470   0.284  -1.301  0.00  0.00     0.006 A 
ENDROOT
BRANCH   1   8
ATOM      8  C1  UNL d   1       1.578  -1.977  -1.133  0.00  0.00     0.054 C 
ATOM      9  C   UNL d   1       0.955  -2.470  -2.431  0.00  0.00     0.018 C 
ENDBRANCH   1   8
TORSDOF 1
ENDMDL
