MODEL 1
REMARK minimizedAffinity -6.09409094
REMARK minimizedRMSD -1
REMARK  1 active torsions:
REMARK  status: ('A' for Active; 'I' for Inactive)
REMARK    1  A    between atoms: C1_2  and  C2_3 
ROOT
ATOM      1  C2  UNL d   1       0.727  -1.223  -0.235  0.00  0.00    -0.081 A 
ATOM      2  C3  UNL d   1       0.099  -1.514   0.982  0.00  0.00     0.006 A 
ATOM      3  C4  UNL d   1      -0.623  -0.529   1.660  0.00  0.00     0.002 A 
ATOM      4  C5  UNL d   1      -0.736   0.760   1.129  0.00  0.00    -0.080 A 
ATOM      5  C6  UNL d   1      -1.534   1.818   1.832  0.00  0.00     0.076 C 
ATOM      6  C7  UNL d   1      -0.095   1.056  -0.078  0.00  0.00     0.002 A 
ATOM      7  C8  UNL d   1       0.629   0.072  -0.756  0.00  0.00     0.006 A 
ENDROOT
BRANCH   1   8
ATOM      8  C1  UNL d   1       1.453  -2.300  -1.000  0.00  0.00     0.054 C 
ATOM      9  C   UNL d   1       0.584  -2.867  -2.114  0.00  0.00     0.018 C 
ENDBRANCH   1   8
TORSDOF 1
ENDMDL
