MODEL 1
REMARK minimizedAffinity -2.71179414
REMARK minimizedRMSD -1
REMARK  1 active torsions:
REMARK  status: ('A' for Active; 'I' for Inactive)
REMARK    1  A    between atoms: C1_2  and  C2_3 
ROOT
ATOM      1  C2  UNL d   1       0.444  -1.132  -0.432  0.00  0.00    -0.081 A 
ATOM      2  C3  UNL d   1       0.201  -1.295   0.937  0.00  0.00     0.006 A 
ATOM      3  C4  UNL d   1      -0.489  -0.315   1.656  0.00  0.00     0.002 A 
ATOM      4  C5  UNL d   1      -0.955   0.838   1.016  0.00  0.00    -0.080 A 
ATOM      5  C6  UNL d   1      -1.723   1.883   1.769  0.00  0.00     0.076 C 
ATOM      6  C7  UNL d   1      -0.697   1.009  -0.348  0.00  0.00     0.002 A 
ATOM      7  C8  UNL d   1      -0.007   0.031  -1.067  0.00  0.00     0.006 A 
ENDROOT
BRANCH   1   8
ATOM      8  C1  UNL d   1       1.131  -2.216  -1.223  0.00  0.00     0.054 C 
ATOM      9  C   UNL d   1       0.144  -2.968  -2.104  0.00  0.00     0.018 C 
ENDBRANCH   1   8
TORSDOF 1
ENDMDL
