MODEL 1
REMARK minimizedAffinity -5.72048521
REMARK minimizedRMSD -1
REMARK  1 active torsions:
REMARK  status: ('A' for Active; 'I' for Inactive)
REMARK    1  A    between atoms: C1_2  and  C2_3 
ROOT
ATOM      1  C2  UNL d   1       0.850  -0.521  -0.442  0.00  0.00    -0.081 A 
ATOM      2  C3  UNL d   1       0.289  -0.784   0.813  0.00  0.00     0.006 A 
ATOM      3  C4  UNL d   1      -0.600   0.123   1.395  0.00  0.00     0.002 A 
ATOM      4  C5  UNL d   1      -0.949   1.302   0.729  0.00  0.00    -0.080 A 
ATOM      5  C6  UNL d   1      -1.925   2.269   1.329  0.00  0.00     0.076 C 
ATOM      6  C7  UNL d   1      -0.375   1.573  -0.518  0.00  0.00     0.002 A 
ATOM      7  C8  UNL d   1       0.515   0.667  -1.100  0.00  0.00     0.006 A 
ENDROOT
BRANCH   1   8
ATOM      8  C1  UNL d   1       1.759  -1.527  -1.101  0.00  0.00     0.054 C 
ATOM      9  C   UNL d   1       1.028  -2.307  -2.185  0.00  0.00     0.018 C 
ENDBRANCH   1   8
TORSDOF 1
ENDMDL
