MODEL 1
REMARK minimizedAffinity -6.227139
REMARK minimizedRMSD -1
REMARK  1 active torsions:
REMARK  status: ('A' for Active; 'I' for Inactive)
REMARK    1  A    between atoms: C1_2  and  C2_3 
ROOT
ATOM      1  C2  UNL d   1       0.437  -0.633  -0.389  0.00  0.00    -0.081 A 
ATOM      2  C3  UNL d   1      -0.101  -0.850   0.885  0.00  0.00     0.006 A 
ATOM      3  C4  UNL d   1      -0.942   0.099   1.470  0.00  0.00     0.002 A 
ATOM      4  C5  UNL d   1      -1.264   1.278   0.789  0.00  0.00    -0.080 A 
ATOM      5  C6  UNL d   1      -2.190   2.292   1.393  0.00  0.00     0.076 C 
ATOM      6  C7  UNL d   1      -0.713   1.503  -0.477  0.00  0.00     0.002 A 
ATOM      7  C8  UNL d   1       0.128   0.554  -1.062  0.00  0.00     0.006 A 
ENDROOT
BRANCH   1   8
ATOM      8  C1  UNL d   1       1.291  -1.684  -1.050  0.00  0.00     0.054 C 
ATOM      9  C   UNL d   1       0.613  -2.250  -2.289  0.00  0.00     0.018 C 
ENDBRANCH   1   8
TORSDOF 1
ENDMDL
