MODEL 1
REMARK minimizedAffinity 5.75282001
REMARK minimizedRMSD -1
REMARK  0 active torsions:
REMARK  status: ('A' for Active; 'I' for Inactive)
ROOT
ATOM      1  C4' PXY d   1      -1.633   1.811   3.407  0.00  0.00     0.077 C 
ATOM      2  C1' PXY d   1       2.053  -1.900   0.946  0.00  0.00     0.077 C 
ATOM      3  C1  PXY d   1       1.076  -0.934   1.587  0.00  0.00    -0.082 A 
ATOM      4  C2  PXY d   1       1.472   0.292   1.888  0.00  0.00     0.003 A 
ATOM      5  C3  PXY d   1       0.611   1.169   2.497  0.00  0.00     0.003 A 
ATOM      6  C4  PXY d   1      -0.684   0.804   2.751  0.00  0.00    -0.082 A 
ATOM      7  C5  PXY d   1      -1.098  -0.441   2.436  0.00  0.00     0.003 A 
ATOM      8  C6  PXY d   1      -0.197  -1.330   1.857  0.00  0.00     0.003 A 
ENDROOT
TORSDOF 0
ENDMDL
