MODEL 1
REMARK minimizedAffinity 11.9908171
REMARK minimizedRMSD -1
REMARK  0 active torsions:
REMARK  status: ('A' for Active; 'I' for Inactive)
ROOT
ATOM      1  C4' PXY d   1      -1.465   2.038   3.409  0.00  0.00     0.077 C 
ATOM      2  C1' PXY d   1       1.426  -2.665   1.696  0.00  0.00     0.077 C 
ATOM      3  C1  PXY d   1       0.678  -1.428   2.152  0.00  0.00    -0.082 A 
ATOM      4  C2  PXY d   1      -0.644  -1.438   2.186  0.00  0.00     0.003 A 
ATOM      5  C3  PXY d   1      -1.337  -0.318   2.565  0.00  0.00     0.003 A 
ATOM      6  C4  PXY d   1      -0.668   0.808   2.965  0.00  0.00    -0.082 A 
ATOM      7  C5  PXY d   1       0.681   0.823   2.943  0.00  0.00     0.003 A 
ATOM      8  C6  PXY d   1       1.365  -0.311   2.515  0.00  0.00     0.003 A 
ENDROOT
TORSDOF 0
ENDMDL
