MODEL 1
REMARK minimizedAffinity 6.44404078
REMARK minimizedRMSD -1
REMARK  0 active torsions:
REMARK  status: ('A' for Active; 'I' for Inactive)
ROOT
ATOM      1  C4' PXY d   1      -2.913  -1.463  -0.758  0.00  0.00     0.077 C 
ATOM      2  C1' PXY d   1       1.562  -1.429   2.901  0.00  0.00     0.077 C 
ATOM      3  C1  PXY d   1       0.381  -1.441   1.951  0.00  0.00    -0.082 A 
ATOM      4  C2  PXY d   1       0.573  -1.710   0.670  0.00  0.00     0.003 A 
ATOM      5  C3  PXY d   1      -0.479  -1.693  -0.208  0.00  0.00     0.003 A 
ATOM      6  C4  PXY d   1      -1.751  -1.450   0.238  0.00  0.00    -0.082 A 
ATOM      7  C5  PXY d   1      -1.957  -1.186   1.546  0.00  0.00     0.003 A 
ATOM      8  C6  PXY d   1      -0.869  -1.167   2.414  0.00  0.00     0.003 A 
ENDROOT
TORSDOF 0
ENDMDL
