MODEL 1
REMARK minimizedAffinity -2.5861311
REMARK minimizedRMSD -1
REMARK  0 active torsions:
REMARK  status: ('A' for Active; 'I' for Inactive)
ROOT
ATOM      1  C4' PXY d   1      -6.000   4.832   3.302  0.00  0.00     0.077 C 
ATOM      2  C1' PXY d   1      -3.749   5.634  -1.962  0.00  0.00     0.077 C 
ATOM      3  C1  PXY d   1      -4.333   5.413  -0.581  0.00  0.00    -0.082 A 
ATOM      4  C2  PXY d   1      -5.472   6.000  -0.250  0.00  0.00     0.003 A 
ATOM      5  C3  PXY d   1      -5.997   5.836   1.006  0.00  0.00     0.003 A 
ATOM      6  C4  PXY d   1      -5.378   5.020   1.915  0.00  0.00    -0.082 A 
ATOM      7  C5  PXY d   1      -4.222   4.409   1.581  0.00  0.00     0.003 A 
ATOM      8  C6  PXY d   1      -3.684   4.621   0.315  0.00  0.00     0.003 A 
ENDROOT
TORSDOF 0
ENDMDL
