MODEL 1
REMARK minimizedAffinity -1.77825451
REMARK minimizedRMSD -1
REMARK  0 active torsions:
REMARK  status: ('A' for Active; 'I' for Inactive)
ROOT
ATOM      1  C4' PXY d   1       4.359   0.247   5.938  0.00  0.00     0.077 C 
ATOM      2  C1' PXY d   1       4.925   5.999   5.994  0.00  0.00     0.077 C 
ATOM      3  C1  PXY d   1       4.765   4.492   5.985  0.00  0.00    -0.082 A 
ATOM      4  C2  PXY d   1       5.839   3.720   5.999  0.00  0.00     0.003 A 
ATOM      5  C3  PXY d   1       5.713   2.355   5.959  0.00  0.00     0.003 A 
ATOM      6  C4  PXY d   1       4.473   1.774   5.957  0.00  0.00    -0.082 A 
ATOM      7  C5  PXY d   1       3.372   2.555   5.953  0.00  0.00     0.003 A 
ATOM      8  C6  PXY d   1       3.522   3.938   5.953  0.00  0.00     0.003 A 
ENDROOT
TORSDOF 0
ENDMDL
