MODEL 1
REMARK minimizedAffinity 3.98293734
REMARK minimizedRMSD -1
REMARK  0 active torsions:
REMARK  status: ('A' for Active; 'I' for Inactive)
ROOT
ATOM      1  C4' PXY d   1       0.995   6.000   5.984  0.00  0.00     0.077 C 
ATOM      2  C1' PXY d   1       5.999   3.107   5.899  0.00  0.00     0.077 C 
ATOM      3  C1  PXY d   1       4.680   3.855   5.917  0.00  0.00    -0.082 A 
ATOM      4  C2  PXY d   1       4.679   5.178   5.909  0.00  0.00     0.003 A 
ATOM      5  C3  PXY d   1       3.497   5.871   5.957  0.00  0.00     0.003 A 
ATOM      6  C4  PXY d   1       2.302   5.202   5.958  0.00  0.00    -0.082 A 
ATOM      7  C5  PXY d   1       2.294   3.853   5.955  0.00  0.00     0.003 A 
ATOM      8  C6  PXY d   1       3.506   3.168   5.948  0.00  0.00     0.003 A 
ENDROOT
TORSDOF 0
ENDMDL
