MODEL 1
REMARK minimizedAffinity 18.085783
REMARK minimizedRMSD -1
REMARK  0 active torsions:
REMARK  status: ('A' for Active; 'I' for Inactive)
ROOT
ATOM      1  C4' PXY d   1       4.064   4.368   6.000  0.00  0.00     0.077 C 
ATOM      2  C1' PXY d   1       5.175   5.049   0.368  0.00  0.00     0.077 C 
ATOM      3  C1  PXY d   1       4.895   4.877   1.848  0.00  0.00    -0.082 A 
ATOM      4  C2  PXY d   1       4.107   3.894   2.255  0.00  0.00     0.003 A 
ATOM      5  C3  PXY d   1       3.818   3.743   3.586  0.00  0.00     0.003 A 
ATOM      6  C4  PXY d   1       4.382   4.574   4.517  0.00  0.00    -0.082 A 
ATOM      7  C5  PXY d   1       5.195   5.572   4.111  0.00  0.00     0.003 A 
ATOM      8  C6  PXY d   1       5.444   5.734   2.751  0.00  0.00     0.003 A 
ENDROOT
TORSDOF 0
ENDMDL
