MODEL 1
REMARK minimizedAffinity 15.6320896
REMARK minimizedRMSD -1
REMARK  0 active torsions:
REMARK  status: ('A' for Active; 'I' for Inactive)
ROOT
ATOM      1  C4' PXY d   1      -1.971  -1.955  -3.502  0.00  0.00     0.077 C 
ATOM      2  C1' PXY d   1      -2.274  -1.685   2.264  0.00  0.00     0.077 C 
ATOM      3  C1  PXY d   1      -2.207  -1.751   0.751  0.00  0.00    -0.082 A 
ATOM      4  C2  PXY d   1      -1.387  -2.612   0.170  0.00  0.00     0.003 A 
ATOM      5  C3  PXY d   1      -1.290  -2.662  -1.197  0.00  0.00     0.003 A 
ATOM      6  C4  PXY d   1      -2.079  -1.860  -1.978  0.00  0.00    -0.082 A 
ATOM      7  C5  PXY d   1      -2.925  -0.987  -1.392  0.00  0.00     0.003 A 
ATOM      8  C6  PXY d   1      -2.979  -0.922  -0.003  0.00  0.00     0.003 A 
ENDROOT
TORSDOF 0
ENDMDL
