MODEL 1
REMARK minimizedAffinity 13.2382679
REMARK minimizedRMSD -1
REMARK  0 active torsions:
REMARK  status: ('A' for Active; 'I' for Inactive)
ROOT
ATOM      1  C4' PXY d   1       5.999   1.971  -5.248  0.00  0.00     0.077 C 
ATOM      2  C1' PXY d   1       2.595  -0.650  -1.382  0.00  0.00     0.077 C 
ATOM      3  C1  PXY d   1       3.497   0.029  -2.392  0.00  0.00    -0.082 A 
ATOM      4  C2  PXY d   1       3.224   1.262  -2.789  0.00  0.00     0.003 A 
ATOM      5  C3  PXY d   1       4.011   1.879  -3.726  0.00  0.00     0.003 A 
ATOM      6  C4  PXY d   1       5.121   1.249  -4.223  0.00  0.00    -0.082 A 
ATOM      7  C5  PXY d   1       5.413  -0.004  -3.815  0.00  0.00     0.003 A 
ATOM      8  C6  PXY d   1       4.577  -0.629  -2.894  0.00  0.00     0.003 A 
ENDROOT
TORSDOF 0
ENDMDL
