MODEL 1
REMARK minimizedAffinity 14.6495428
REMARK minimizedRMSD -1
REMARK  0 active torsions:
REMARK  status: ('A' for Active; 'I' for Inactive)
ROOT
ATOM      1  C4' PXY d   1      -1.613  -1.683   3.754  0.00  0.00     0.077 C 
ATOM      2  C1' PXY d   1      -1.090  -1.642  -2.003  0.00  0.00     0.077 C 
ATOM      3  C1  PXY d   1      -1.220  -1.664  -0.493  0.00  0.00    -0.082 A 
ATOM      4  C2  PXY d   1      -2.218  -1.017   0.087  0.00  0.00     0.003 A 
ATOM      5  C3  PXY d   1      -2.333  -0.999   1.453  0.00  0.00     0.003 A 
ATOM      6  C4  PXY d   1      -1.447  -1.696   2.231  0.00  0.00    -0.082 A 
ATOM      7  C5  PXY d   1      -0.433  -2.367   1.647  0.00  0.00     0.003 A 
ATOM      8  C6  PXY d   1      -0.310  -2.338   0.261  0.00  0.00     0.003 A 
ENDROOT
TORSDOF 0
ENDMDL
