MODEL 1
REMARK minimizedAffinity 7.66768503
REMARK minimizedRMSD -1
REMARK  0 active torsions:
REMARK  status: ('A' for Active; 'I' for Inactive)
ROOT
ATOM      1  C4' PXY d   1      -6.000   5.999  -4.882  0.00  0.00     0.077 C 
ATOM      2  C1' PXY d   1      -1.570   2.290  -4.683  0.00  0.00     0.077 C 
ATOM      3  C1  PXY d   1      -2.736   3.258  -4.747  0.00  0.00    -0.082 A 
ATOM      4  C2  PXY d   1      -2.677   4.397  -4.076  0.00  0.00     0.003 A 
ATOM      5  C3  PXY d   1      -3.735   5.269  -4.097  0.00  0.00     0.003 A 
ATOM      6  C4  PXY d   1      -4.843   4.997  -4.855  0.00  0.00    -0.082 A 
ATOM      7  C5  PXY d   1      -4.906   3.841  -5.550  0.00  0.00     0.003 A 
ATOM      8  C6  PXY d   1      -3.838   2.951  -5.483  0.00  0.00     0.003 A 
ENDROOT
TORSDOF 0
ENDMDL
