MODEL 1
REMARK minimizedAffinity 10.4510126
REMARK minimizedRMSD -1
REMARK  0 active torsions:
REMARK  status: ('A' for Active; 'I' for Inactive)
ROOT
ATOM      1  C4' PXY d   1      -1.469  -1.857  -0.775  0.00  0.00     0.077 C 
ATOM      2  C1' PXY d   1       0.084  -5.994   2.952  0.00  0.00     0.077 C 
ATOM      3  C1  PXY d   1      -0.325  -4.901   1.985  0.00  0.00    -0.082 A 
ATOM      4  C2  PXY d   1      -0.800  -5.226   0.793  0.00  0.00     0.003 A 
ATOM      5  C3  PXY d   1      -1.145  -4.250  -0.106  0.00  0.00     0.003 A 
ATOM      6  C4  PXY d   1      -1.052  -2.928   0.238  0.00  0.00    -0.082 A 
ATOM      7  C5  PXY d   1      -0.578  -2.588   1.455  0.00  0.00     0.003 A 
ATOM      8  C6  PXY d   1      -0.195  -3.593   2.338  0.00  0.00     0.003 A 
ENDROOT
TORSDOF 0
ENDMDL
