MODEL 1
REMARK minimizedAffinity 15.3906651
REMARK minimizedRMSD -1
REMARK  0 active torsions:
REMARK  status: ('A' for Active; 'I' for Inactive)
ROOT
ATOM      1  C4' PXY d   1      -1.729  -2.126   3.562  0.00  0.00     0.077 C 
ATOM      2  C1' PXY d   1      -0.928  -1.689  -2.146  0.00  0.00     0.077 C 
ATOM      3  C1  PXY d   1      -1.137  -1.817  -0.650  0.00  0.00    -0.082 A 
ATOM      4  C2  PXY d   1      -1.794  -0.871   0.002  0.00  0.00     0.003 A 
ATOM      5  C3  PXY d   1      -1.963  -0.954   1.360  0.00  0.00     0.003 A 
ATOM      6  C4  PXY d   1      -1.503  -2.043   2.050  0.00  0.00    -0.082 A 
ATOM      7  C5  PXY d   1      -0.842  -3.018   1.390  0.00  0.00     0.003 A 
ATOM      8  C6  PXY d   1      -0.644  -2.894   0.018  0.00  0.00     0.003 A 
ENDROOT
TORSDOF 0
ENDMDL
