MODEL 1
REMARK minimizedAffinity 8.64975071
REMARK minimizedRMSD -1
REMARK  0 active torsions:
REMARK  status: ('A' for Active; 'I' for Inactive)
ROOT
ATOM      1  C4' PXY d   1      -5.990  -3.005   1.564  0.00  0.00     0.077 C 
ATOM      2  C1' PXY d   1      -0.861  -0.830   0.022  0.00  0.00     0.077 C 
ATOM      3  C1  PXY d   1      -2.211  -1.388   0.426  0.00  0.00    -0.082 A 
ATOM      4  C2  PXY d   1      -2.277  -2.555   1.047  0.00  0.00     0.003 A 
ATOM      5  C3  PXY d   1      -3.492  -3.090   1.391  0.00  0.00     0.003 A 
ATOM      6  C4  PXY d   1      -4.648  -2.398   1.145  0.00  0.00    -0.082 A 
ATOM      7  C5  PXY d   1      -4.588  -1.202   0.522  0.00  0.00     0.003 A 
ATOM      8  C6  PXY d   1      -3.348  -0.696   0.144  0.00  0.00     0.003 A 
ENDROOT
TORSDOF 0
ENDMDL
