MODEL 1
REMARK minimizedAffinity 14.8254986
REMARK minimizedRMSD -1
REMARK  0 active torsions:
REMARK  status: ('A' for Active; 'I' for Inactive)
ROOT
ATOM      1  C4' PXY d   1      -0.902  -1.825  -2.162  0.00  0.00     0.077 C 
ATOM      2  C1' PXY d   1      -1.549  -2.152   3.573  0.00  0.00     0.077 C 
ATOM      3  C1  PXY d   1      -1.388  -2.057   2.069  0.00  0.00    -0.082 A 
ATOM      4  C2  PXY d   1      -0.983  -3.115   1.386  0.00  0.00     0.003 A 
ATOM      5  C3  PXY d   1      -0.802  -3.037   0.029  0.00  0.00     0.003 A 
ATOM      6  C4  PXY d   1      -1.088  -1.878  -0.643  0.00  0.00    -0.082 A 
ATOM      7  C5  PXY d   1      -1.511  -0.797   0.046  0.00  0.00     0.003 A 
ATOM      8  C6  PXY d   1      -1.650  -0.885   1.428  0.00  0.00     0.003 A 
ENDROOT
TORSDOF 0
ENDMDL
