MODEL 1
REMARK minimizedAffinity 19.0079842
REMARK minimizedRMSD -1
REMARK  0 active torsions:
REMARK  status: ('A' for Active; 'I' for Inactive)
ROOT
ATOM      1  C4' PXY d   1      -0.894  -2.911   2.693  0.00  0.00     0.077 C 
ATOM      2  C1' PXY d   1      -1.327  -0.966  -2.734  0.00  0.00     0.077 C 
ATOM      3  C1  PXY d   1      -1.221  -1.486  -1.314  0.00  0.00    -0.082 A 
ATOM      4  C2  PXY d   1      -0.928  -0.650  -0.331  0.00  0.00     0.003 A 
ATOM      5  C3  PXY d   1      -0.797  -1.109   0.954  0.00  0.00     0.003 A 
ATOM      6  C4  PXY d   1      -1.020  -2.428   1.245  0.00  0.00    -0.082 A 
ATOM      7  C5  PXY d   1      -1.330  -3.286   0.250  0.00  0.00     0.003 A 
ATOM      8  C6  PXY d   1      -1.418  -2.808  -1.055  0.00  0.00     0.003 A 
ENDROOT
TORSDOF 0
ENDMDL
