MODEL 1
REMARK minimizedAffinity 9.68704033
REMARK minimizedRMSD -1
REMARK  0 active torsions:
REMARK  status: ('A' for Active; 'I' for Inactive)
ROOT
ATOM      1  C4' PXY d   1      -3.375   1.468   5.627  0.00  0.00     0.077 C 
ATOM      2  C1' PXY d   1      -1.894  -4.107   6.000  0.00  0.00     0.077 C 
ATOM      3  C1  PXY d   1      -2.271  -2.641   5.906  0.00  0.00    -0.082 A 
ATOM      4  C2  PXY d   1      -3.541  -2.285   6.000  0.00  0.00     0.003 A 
ATOM      5  C3  PXY d   1      -3.902  -0.967   5.885  0.00  0.00     0.003 A 
ATOM      6  C4  PXY d   1      -2.948   0.001   5.726  0.00  0.00    -0.082 A 
ATOM      7  C5  PXY d   1      -1.648  -0.353   5.640  0.00  0.00     0.003 A 
ATOM      8  C6  PXY d   1      -1.306  -1.700   5.717  0.00  0.00     0.003 A 
ENDROOT
TORSDOF 0
ENDMDL
