MODEL 1
REMARK minimizedAffinity 10.6480856
REMARK minimizedRMSD -1
REMARK  0 active torsions:
REMARK  status: ('A' for Active; 'I' for Inactive)
ROOT
ATOM      1  C4' PXY d   1      -2.619   0.425   5.744  0.00  0.00     0.077 C 
ATOM      2  C1' PXY d   1      -1.855  -5.300   5.990  0.00  0.00     0.077 C 
ATOM      3  C1  PXY d   1      -2.044  -3.797   5.932  0.00  0.00    -0.082 A 
ATOM      4  C2  PXY d   1      -3.262  -3.295   5.809  0.00  0.00     0.003 A 
ATOM      5  C3  PXY d   1      -3.448  -1.939   5.723  0.00  0.00     0.003 A 
ATOM      6  C4  PXY d   1      -2.382  -1.086   5.816  0.00  0.00    -0.082 A 
ATOM      7  C5  PXY d   1      -1.137  -1.590   5.953  0.00  0.00     0.003 A 
ATOM      8  C6  PXY d   1      -0.965  -2.970   5.997  0.00  0.00     0.003 A 
ENDROOT
TORSDOF 0
ENDMDL
