MODEL 1
REMARK minimizedAffinity 5.30124474
REMARK minimizedRMSD -1
REMARK  0 active torsions:
REMARK  status: ('A' for Active; 'I' for Inactive)
ROOT
ATOM      1  C4' PXY d   1      -3.512   1.405   5.620  0.00  0.00     0.077 C 
ATOM      2  C1' PXY d   1      -1.525  -4.011   5.999  0.00  0.00     0.077 C 
ATOM      3  C1  PXY d   1      -2.056  -2.595   5.893  0.00  0.00    -0.082 A 
ATOM      4  C2  PXY d   1      -1.222  -1.573   6.000  0.00  0.00     0.003 A 
ATOM      5  C3  PXY d   1      -1.690  -0.286   5.938  0.00  0.00     0.003 A 
ATOM      6  C4  PXY d   1      -3.018  -0.042   5.712  0.00  0.00    -0.082 A 
ATOM      7  C5  PXY d   1      -3.874  -1.079   5.591  0.00  0.00     0.003 A 
ATOM      8  C6  PXY d   1      -3.385  -2.378   5.698  0.00  0.00     0.003 A 
ENDROOT
TORSDOF 0
ENDMDL
