MODEL 1
REMARK minimizedAffinity 9.43530083
REMARK minimizedRMSD -1
REMARK  0 active torsions:
REMARK  status: ('A' for Active; 'I' for Inactive)
ROOT
ATOM      1  C4' PXY d   1      -2.428   1.275   5.983  0.00  0.00     0.077 C 
ATOM      2  C1' PXY d   1      -1.868  -4.478   5.993  0.00  0.00     0.077 C 
ATOM      3  C1  PXY d   1      -2.003  -2.968   5.995  0.00  0.00    -0.082 A 
ATOM      4  C2  PXY d   1      -3.207  -2.419   5.999  0.00  0.00     0.003 A 
ATOM      5  C3  PXY d   1      -3.347  -1.056   5.970  0.00  0.00     0.003 A 
ATOM      6  C4  PXY d   1      -2.244  -0.245   5.990  0.00  0.00    -0.082 A 
ATOM      7  C5  PXY d   1      -1.012  -0.798   5.996  0.00  0.00     0.003 A 
ATOM      8  C6  PXY d   1      -0.891  -2.184   5.985  0.00  0.00     0.003 A 
ENDROOT
TORSDOF 0
ENDMDL
