MODEL 1
REMARK minimizedAffinity 32.3005524
REMARK minimizedRMSD -1
REMARK  0 active torsions:
REMARK  status: ('A' for Active; 'I' for Inactive)
ROOT
ATOM      1  C   UNL d   1       2.416   0.079  -3.362  0.00  0.00     0.124 A 
ATOM      2  C1  UNL d   1       2.372   1.059  -2.379  0.00  0.00     0.062 A 
ATOM      3  C2  UNL d   1       2.940   2.308  -2.611  0.00  0.00     0.162 A 
ATOM      4  C3  UNL d   1       3.557   2.586  -3.831  0.00  0.00    -0.034 A 
ATOM      5  C4  UNL d   1       3.598   1.595  -4.814  0.00  0.00     0.162 A 
ATOM      6  C5  UNL d   1       3.029   0.348  -4.577  0.00  0.00     0.062 A 
ATOM      7  F   UNL d   1       3.072  -0.597  -5.528  0.00  0.00    -0.097 F 
ATOM      8  F1  UNL d   1       4.182   1.829  -5.998  0.00  0.00    -0.096 F 
ATOM      9  I   UNL d   1       4.407   4.453  -4.181  0.00  0.00    -0.060 I 
ATOM     10  F2  UNL d   1       2.883   3.236  -1.644  0.00  0.00    -0.096 F 
ATOM     11  F3  UNL d   1       1.782   0.801  -1.203  0.00  0.00    -0.097 F 
ATOM     12  F4  UNL d   1       1.870  -1.122  -3.136  0.00  0.00    -0.092 F 
ENDROOT
TORSDOF 0
ENDMDL
