MODEL 1
REMARK minimizedAffinity 31.5045815
REMARK minimizedRMSD -1
REMARK  0 active torsions:
REMARK  status: ('A' for Active; 'I' for Inactive)
ROOT
ATOM      1  C   UNL d   1       1.914  -0.017  -3.234  0.00  0.00     0.124 A 
ATOM      2  C1  UNL d   1       1.917   1.053  -2.349  0.00  0.00     0.062 A 
ATOM      3  C2  UNL d   1       2.643   2.203  -2.643  0.00  0.00     0.162 A 
ATOM      4  C3  UNL d   1       3.373   2.291  -3.829  0.00  0.00    -0.034 A 
ATOM      5  C4  UNL d   1       3.367   1.211  -4.713  0.00  0.00     0.162 A 
ATOM      6  C5  UNL d   1       2.639   0.063  -4.415  0.00  0.00     0.062 A 
ATOM      7  F   UNL d   1       2.638  -0.969  -5.271  0.00  0.00    -0.097 F 
ATOM      8  F1  UNL d   1       4.057   1.261  -5.862  0.00  0.00    -0.096 F 
ATOM      9  I   UNL d   1       4.461   4.009  -4.272  0.00  0.00    -0.060 I 
ATOM     10  F2  UNL d   1       2.628   3.221  -1.770  0.00  0.00    -0.096 F 
ATOM     11  F3  UNL d   1       1.218   0.978  -1.207  0.00  0.00    -0.097 F 
ATOM     12  F4  UNL d   1       1.215  -1.123  -2.948  0.00  0.00    -0.092 F 
ENDROOT
TORSDOF 0
ENDMDL
