MODEL 1
REMARK minimizedAffinity 20.7183743
REMARK minimizedRMSD -1
REMARK  0 active torsions:
REMARK  status: ('A' for Active; 'I' for Inactive)
ROOT
ATOM      1  C   UNL d   1      -3.425   0.903   0.803  0.00  0.00     0.124 A 
ATOM      2  C1  UNL d   1      -4.625   0.905   1.500  0.00  0.00     0.062 A 
ATOM      3  C2  UNL d   1      -4.667   0.477   2.824  0.00  0.00     0.162 A 
ATOM      4  C3  UNL d   1      -3.504   0.044   3.460  0.00  0.00    -0.034 A 
ATOM      5  C4  UNL d   1      -2.301   0.044   2.753  0.00  0.00     0.162 A 
ATOM      6  C5  UNL d   1      -2.264   0.473   1.430  0.00  0.00     0.062 A 
ATOM      7  F   UNL d   1      -1.103   0.470   0.759  0.00  0.00    -0.097 F 
ATOM      8  F1  UNL d   1      -1.164  -0.366   3.335  0.00  0.00    -0.096 F 
ATOM      9  I   UNL d   1      -3.563  -0.597   5.440  0.00  0.00    -0.060 I 
ATOM     10  F2  UNL d   1      -5.841   0.489   3.472  0.00  0.00    -0.096 F 
ATOM     11  F3  UNL d   1      -5.749   1.319   0.896  0.00  0.00    -0.097 F 
ATOM     12  F4  UNL d   1      -3.388   1.315  -0.471  0.00  0.00    -0.092 F 
ENDROOT
TORSDOF 0
ENDMDL
