MODEL 1
REMARK minimizedAffinity 31.1597366
REMARK minimizedRMSD -1
REMARK  0 active torsions:
REMARK  status: ('A' for Active; 'I' for Inactive)
ROOT
ATOM      1  C   UNL d   1      -4.430   0.408   1.056  0.00  0.00     0.124 A 
ATOM      2  C1  UNL d   1      -4.742  -0.866   0.601  0.00  0.00     0.062 A 
ATOM      3  C2  UNL d   1      -3.754  -1.843   0.521  0.00  0.00     0.162 A 
ATOM      4  C3  UNL d   1      -2.443  -1.550   0.898  0.00  0.00    -0.034 A 
ATOM      5  C4  UNL d   1      -2.136  -0.266   1.353  0.00  0.00     0.162 A 
ATOM      6  C5  UNL d   1      -3.128   0.706   1.431  0.00  0.00     0.062 A 
ATOM      7  F   UNL d   1      -2.824   1.937   1.870  0.00  0.00    -0.097 F 
ATOM      8  F1  UNL d   1      -0.886   0.050   1.723  0.00  0.00    -0.096 F 
ATOM      9  I   UNL d   1      -0.962  -3.007   0.780  0.00  0.00    -0.060 I 
ATOM     10  F2  UNL d   1      -4.084  -3.065   0.079  0.00  0.00    -0.096 F 
ATOM     11  F3  UNL d   1      -6.000  -1.157   0.237  0.00  0.00    -0.097 F 
ATOM     12  F4  UNL d   1      -5.383   1.346   1.131  0.00  0.00    -0.092 F 
ENDROOT
TORSDOF 0
ENDMDL
