MODEL 1
REMARK minimizedAffinity 6.16988993
REMARK minimizedRMSD -1
REMARK  0 active torsions:
REMARK  status: ('A' for Active; 'I' for Inactive)
ROOT
ATOM      1  C   UNL d   1       2.094   0.659   1.603  0.00  0.00     0.124 A 
ATOM      2  C1  UNL d   1       1.525   0.859   0.353  0.00  0.00     0.062 A 
ATOM      3  C2  UNL d   1       0.143   0.818   0.198  0.00  0.00     0.162 A 
ATOM      4  C3  UNL d   1      -0.681   0.575   1.297  0.00  0.00    -0.034 A 
ATOM      5  C4  UNL d   1      -0.101   0.373   2.551  0.00  0.00     0.162 A 
ATOM      6  C5  UNL d   1       1.281   0.416   2.700  0.00  0.00     0.062 A 
ATOM      7  F   UNL d   1       1.829   0.222   3.909  0.00  0.00    -0.097 F 
ATOM      8  F1  UNL d   1      -0.864   0.137   3.629  0.00  0.00    -0.096 F 
ATOM      9  I   UNL d   1      -2.749   0.511   1.071  0.00  0.00    -0.060 I 
ATOM     10  F2  UNL d   1      -0.380   1.015  -1.021  0.00  0.00    -0.096 F 
ATOM     11  F3  UNL d   1       2.309   1.094  -0.709  0.00  0.00    -0.097 F 
ATOM     12  F4  UNL d   1       3.425   0.699   1.748  0.00  0.00    -0.092 F 
ENDROOT
TORSDOF 0
ENDMDL
