MODEL 1
REMARK minimizedAffinity 19.0574875
REMARK minimizedRMSD -1
REMARK  0 active torsions:
REMARK  status: ('A' for Active; 'I' for Inactive)
ROOT
ATOM      1  C   UNL d   1      -3.783   1.515   1.401  0.00  0.00     0.124 A 
ATOM      2  C1  UNL d   1      -2.651   1.475   2.204  0.00  0.00     0.062 A 
ATOM      3  C2  UNL d   1      -2.641   0.703   3.362  0.00  0.00     0.162 A 
ATOM      4  C3  UNL d   1      -3.766  -0.039   3.723  0.00  0.00    -0.034 A 
ATOM      5  C4  UNL d   1      -4.901   0.007   2.911  0.00  0.00     0.162 A 
ATOM      6  C5  UNL d   1      -4.906   0.780   1.755  0.00  0.00     0.062 A 
ATOM      7  F   UNL d   1      -6.000   0.817   0.980  0.00  0.00    -0.097 F 
ATOM      8  F1  UNL d   1      -6.000  -0.694   3.228  0.00  0.00    -0.096 F 
ATOM      9  I   UNL d   1      -3.755  -1.196   5.453  0.00  0.00    -0.060 I 
ATOM     10  F2  UNL d   1      -1.534   0.683   4.119  0.00  0.00    -0.096 F 
ATOM     11  F3  UNL d   1      -1.565   2.185   1.865  0.00  0.00    -0.097 F 
ATOM     12  F4  UNL d   1      -3.790   2.260   0.288  0.00  0.00    -0.092 F 
ENDROOT
TORSDOF 0
ENDMDL
