MODEL 1
REMARK minimizedAffinity 5.72448444
REMARK minimizedRMSD -1
REMARK  0 active torsions:
REMARK  status: ('A' for Active; 'I' for Inactive)
ROOT
ATOM      1  C   UNL d   1      -3.599  -0.058   0.945  0.00  0.00     0.124 A 
ATOM      2  C1  UNL d   1      -3.991  -1.307   0.484  0.00  0.00     0.062 A 
ATOM      3  C2  UNL d   1      -3.099  -2.376   0.512  0.00  0.00     0.162 A 
ATOM      4  C3  UNL d   1      -1.806  -2.200   1.004  0.00  0.00    -0.034 A 
ATOM      5  C4  UNL d   1      -1.419  -0.940   1.465  0.00  0.00     0.162 A 
ATOM      6  C5  UNL d   1      -2.314   0.124   1.435  0.00  0.00     0.062 A 
ATOM      7  F   UNL d   1      -1.933   1.330   1.881  0.00  0.00    -0.097 F 
ATOM      8  F1  UNL d   1      -0.183  -0.736   1.945  0.00  0.00    -0.096 F 
ATOM      9  I   UNL d   1      -0.469  -3.794   1.048  0.00  0.00    -0.060 I 
ATOM     10  F2  UNL d   1      -3.505  -3.571   0.060  0.00  0.00    -0.096 F 
ATOM     11  F3  UNL d   1      -5.232  -1.486   0.009  0.00  0.00    -0.097 F 
ATOM     12  F4  UNL d   1      -4.459   0.968   0.915  0.00  0.00    -0.092 F 
ENDROOT
TORSDOF 0
ENDMDL
