MODEL 1
REMARK minimizedAffinity 21.245142
REMARK minimizedRMSD -1
REMARK  0 active torsions:
REMARK  status: ('A' for Active; 'I' for Inactive)
ROOT
ATOM      1  C   UNL d   1      -1.966  -0.907   4.041  0.00  0.00     0.124 A 
ATOM      2  C1  UNL d   1      -2.106  -0.008   2.992  0.00  0.00     0.062 A 
ATOM      3  C2  UNL d   1      -3.256   0.769   2.886  0.00  0.00     0.162 A 
ATOM      4  C3  UNL d   1      -4.274   0.653   3.832  0.00  0.00    -0.034 A 
ATOM      5  C4  UNL d   1      -4.126  -0.253   4.884  0.00  0.00     0.162 A 
ATOM      6  C5  UNL d   1      -2.975  -1.028   4.986  0.00  0.00     0.062 A 
ATOM      7  F   UNL d   1      -2.841  -1.895   6.000  0.00  0.00    -0.097 F 
ATOM      8  F1  UNL d   1      -5.086  -0.390   5.811  0.00  0.00    -0.096 F 
ATOM      9  I   UNL d   1      -5.994   1.815   3.677  0.00  0.00    -0.060 I 
ATOM     10  F2  UNL d   1      -3.364   1.629   1.862  0.00  0.00    -0.096 F 
ATOM     11  F3  UNL d   1      -1.133   0.110   2.078  0.00  0.00    -0.097 F 
ATOM     12  F4  UNL d   1      -0.859  -1.654   4.141  0.00  0.00    -0.092 F 
ENDROOT
TORSDOF 0
ENDMDL
