MODEL 1
REMARK minimizedAffinity 5.00559473
REMARK minimizedRMSD -1
REMARK  0 active torsions:
REMARK  status: ('A' for Active; 'I' for Inactive)
ROOT
ATOM      1  C   UNL d   1      -4.720   1.104   1.377  0.00  0.00     0.124 A 
ATOM      2  C1  UNL d   1      -3.616   0.579   0.719  0.00  0.00     0.062 A 
ATOM      3  C2  UNL d   1      -2.345   0.710   1.271  0.00  0.00     0.162 A 
ATOM      4  C3  UNL d   1      -2.170   1.368   2.488  0.00  0.00    -0.034 A 
ATOM      5  C4  UNL d   1      -3.284   1.894   3.143  0.00  0.00     0.162 A 
ATOM      6  C5  UNL d   1      -4.553   1.761   2.588  0.00  0.00     0.062 A 
ATOM      7  F   UNL d   1      -5.618   2.269   3.225  0.00  0.00    -0.097 F 
ATOM      8  F1  UNL d   1      -3.152   2.533   4.315  0.00  0.00    -0.096 F 
ATOM      9  I   UNL d   1      -0.271   1.565   3.316  0.00  0.00    -0.060 I 
ATOM     10  F2  UNL d   1      -1.297   0.192   0.613  0.00  0.00    -0.096 F 
ATOM     11  F3  UNL d   1      -3.775  -0.055  -0.451  0.00  0.00    -0.097 F 
ATOM     12  F4  UNL d   1      -5.942   0.978   0.844  0.00  0.00    -0.092 F 
ENDROOT
TORSDOF 0
ENDMDL
