MODEL 1
REMARK minimizedAffinity 9.53874397
REMARK minimizedRMSD -1
REMARK  0 active torsions:
REMARK  status: ('A' for Active; 'I' for Inactive)
ROOT
ATOM      1  C   UNL d   1      -4.391   0.345   1.199  0.00  0.00     0.124 A 
ATOM      2  C1  UNL d   1      -4.630  -0.870   0.572  0.00  0.00     0.062 A 
ATOM      3  C2  UNL d   1      -3.606  -1.803   0.442  0.00  0.00     0.162 A 
ATOM      4  C3  UNL d   1      -2.333  -1.526   0.942  0.00  0.00    -0.034 A 
ATOM      5  C4  UNL d   1      -2.101  -0.301   1.571  0.00  0.00     0.162 A 
ATOM      6  C5  UNL d   1      -3.128   0.628   1.698  0.00  0.00     0.062 A 
ATOM      7  F   UNL d   1      -2.896   1.802   2.305  0.00  0.00    -0.097 F 
ATOM      8  F1  UNL d   1      -0.889  -0.002   2.063  0.00  0.00    -0.096 F 
ATOM      9  I   UNL d   1      -0.799  -2.919   0.750  0.00  0.00    -0.060 I 
ATOM     10  F2  UNL d   1      -3.864  -2.969  -0.168  0.00  0.00    -0.096 F 
ATOM     11  F3  UNL d   1      -5.850  -1.145   0.089  0.00  0.00    -0.097 F 
ATOM     12  F4  UNL d   1      -5.379   1.242   1.322  0.00  0.00    -0.092 F 
ENDROOT
TORSDOF 0
ENDMDL
