MODEL 1
REMARK minimizedAffinity 18.3281384
REMARK minimizedRMSD -1
REMARK  0 active torsions:
REMARK  status: ('A' for Active; 'I' for Inactive)
ROOT
ATOM      1  C   UNL d   1      -2.000   1.595   2.443  0.00  0.00     0.124 A 
ATOM      2  C1  UNL d   1      -0.797   1.162   2.983  0.00  0.00     0.062 A 
ATOM      3  C2  UNL d   1      -0.337  -0.125   2.723  0.00  0.00     0.162 A 
ATOM      4  C3  UNL d   1      -1.078  -0.989   1.916  0.00  0.00    -0.034 A 
ATOM      5  C4  UNL d   1      -2.287  -0.546   1.377  0.00  0.00     0.162 A 
ATOM      6  C5  UNL d   1      -2.744   0.742   1.640  0.00  0.00     0.062 A 
ATOM      7  F   UNL d   1      -3.906   1.159   1.117  0.00  0.00    -0.097 F 
ATOM      8  F1  UNL d   1      -3.025  -1.350   0.597  0.00  0.00    -0.096 F 
ATOM      9  I   UNL d   1      -0.392  -2.914   1.524  0.00  0.00    -0.060 I 
ATOM     10  F2  UNL d   1       0.829  -0.518   3.258  0.00  0.00    -0.096 F 
ATOM     11  F3  UNL d   1      -0.078   1.984   3.760  0.00  0.00    -0.097 F 
ATOM     12  F4  UNL d   1      -2.442   2.834   2.696  0.00  0.00    -0.092 F 
ENDROOT
TORSDOF 0
ENDMDL
