MODEL 1
REMARK minimizedAffinity 5.47840357
REMARK minimizedRMSD -1
REMARK  0 active torsions:
REMARK  status: ('A' for Active; 'I' for Inactive)
ROOT
ATOM      1  C   UNL d   1      -2.697   0.304   1.568  0.00  0.00     0.124 A 
ATOM      2  C1  UNL d   1      -2.586   0.188   2.946  0.00  0.00     0.062 A 
ATOM      3  C2  UNL d   1      -3.527   0.788   3.778  0.00  0.00     0.162 A 
ATOM      4  C3  UNL d   1      -4.589   1.509   3.233  0.00  0.00    -0.034 A 
ATOM      5  C4  UNL d   1      -4.694   1.623   1.846  0.00  0.00     0.162 A 
ATOM      6  C5  UNL d   1      -3.751   1.021   1.019  0.00  0.00     0.062 A 
ATOM      7  F   UNL d   1      -3.861   1.135  -0.313  0.00  0.00    -0.097 F 
ATOM      8  F1  UNL d   1      -5.703   2.309   1.289  0.00  0.00    -0.096 F 
ATOM      9  I   UNL d   1      -5.998   2.408   4.473  0.00  0.00    -0.060 I 
ATOM     10  F2  UNL d   1      -3.394   0.659   5.106  0.00  0.00    -0.096 F 
ATOM     11  F3  UNL d   1      -1.568  -0.503   3.479  0.00  0.00    -0.097 F 
ATOM     12  F4  UNL d   1      -1.790  -0.273   0.770  0.00  0.00    -0.092 F 
ENDROOT
TORSDOF 0
ENDMDL
