MODEL 1
REMARK minimizedAffinity 14.4931698
REMARK minimizedRMSD -1
REMARK  0 active torsions:
REMARK  status: ('A' for Active; 'I' for Inactive)
ROOT
ATOM      1  C   UNL d   1      -4.726   0.064   1.241  0.00  0.00     0.124 A 
ATOM      2  C1  UNL d   1      -4.313   0.570   2.466  0.00  0.00     0.062 A 
ATOM      3  C2  UNL d   1      -4.467  -0.188   3.623  0.00  0.00     0.162 A 
ATOM      4  C3  UNL d   1      -5.035  -1.460   3.561  0.00  0.00    -0.034 A 
ATOM      5  C4  UNL d   1      -5.449  -1.961   2.326  0.00  0.00     0.162 A 
ATOM      6  C5  UNL d   1      -5.293  -1.200   1.172  0.00  0.00     0.062 A 
ATOM      7  F   UNL d   1      -5.692  -1.690  -0.011  0.00  0.00    -0.097 F 
ATOM      8  F1  UNL d   1      -6.000  -3.180   2.230  0.00  0.00    -0.096 F 
ATOM      9  I   UNL d   1      -5.267  -2.596   5.290  0.00  0.00    -0.060 I 
ATOM     10  F2  UNL d   1      -4.059   0.326   4.793  0.00  0.00    -0.096 F 
ATOM     11  F3  UNL d   1      -3.765   1.792   2.535  0.00  0.00    -0.097 F 
ATOM     12  F4  UNL d   1      -4.577   0.796   0.129  0.00  0.00    -0.092 F 
ENDROOT
TORSDOF 0
ENDMDL
