MODEL 1
REMARK minimizedAffinity 12.0276241
REMARK minimizedRMSD -1
REMARK  0 active torsions:
REMARK  status: ('A' for Active; 'I' for Inactive)
ROOT
ATOM      1  C   UNL d   1      -4.092  -0.698   0.796  0.00  0.00     0.124 A 
ATOM      2  C1  UNL d   1      -2.997  -1.543   0.913  0.00  0.00     0.062 A 
ATOM      3  C2  UNL d   1      -1.802  -1.070   1.446  0.00  0.00     0.162 A 
ATOM      4  C3  UNL d   1      -1.695   0.256   1.867  0.00  0.00    -0.034 A 
ATOM      5  C4  UNL d   1      -2.801   1.100   1.745  0.00  0.00     0.162 A 
ATOM      6  C5  UNL d   1      -3.993   0.622   1.212  0.00  0.00     0.062 A 
ATOM      7  F   UNL d   1      -5.050   1.439   1.100  0.00  0.00    -0.097 F 
ATOM      8  F1  UNL d   1      -2.733   2.380   2.141  0.00  0.00    -0.096 F 
ATOM      9  I   UNL d   1       0.091   0.968   2.665  0.00  0.00    -0.060 I 
ATOM     10  F2  UNL d   1      -0.760  -1.908   1.547  0.00  0.00    -0.096 F 
ATOM     11  F3  UNL d   1      -3.090  -2.819   0.510  0.00  0.00    -0.097 F 
ATOM     12  F4  UNL d   1      -5.241  -1.156   0.282  0.00  0.00    -0.092 F 
ENDROOT
TORSDOF 0
ENDMDL
