MODEL 1
REMARK minimizedAffinity 16.2382412
REMARK minimizedRMSD -1
REMARK  0 active torsions:
REMARK  status: ('A' for Active; 'I' for Inactive)
ROOT
ATOM      1  C   UNL d   1      -4.047  -0.502   0.755  0.00  0.00     0.124 A 
ATOM      2  C1  UNL d   1      -2.819  -0.166   1.308  0.00  0.00     0.062 A 
ATOM      3  C2  UNL d   1      -1.817  -1.125   1.422  0.00  0.00     0.162 A 
ATOM      4  C3  UNL d   1      -2.038  -2.430   0.980  0.00  0.00    -0.034 A 
ATOM      5  C4  UNL d   1      -3.276  -2.760   0.426  0.00  0.00     0.162 A 
ATOM      6  C5  UNL d   1      -4.274  -1.798   0.314  0.00  0.00     0.062 A 
ATOM      7  F   UNL d   1      -5.460  -2.124  -0.220  0.00  0.00    -0.097 F 
ATOM      8  F1  UNL d   1      -3.522  -4.005  -0.009  0.00  0.00    -0.096 F 
ATOM      9  I   UNL d   1      -0.542  -3.867   1.148  0.00  0.00    -0.060 I 
ATOM     10  F2  UNL d   1      -0.640  -0.773   1.960  0.00  0.00    -0.096 F 
ATOM     11  F3  UNL d   1      -2.597   1.085   1.735  0.00  0.00    -0.097 F 
ATOM     12  F4  UNL d   1      -5.010   0.423   0.648  0.00  0.00    -0.092 F 
ENDROOT
TORSDOF 0
ENDMDL
