MODEL 1
REMARK minimizedAffinity 21.5856647
REMARK minimizedRMSD -1
REMARK  0 active torsions:
REMARK  status: ('A' for Active; 'I' for Inactive)
ROOT
ATOM      1  C   UNL d   1       0.803   1.380   3.658  0.00  0.00     0.124 A 
ATOM      2  C1  UNL d   1       0.551   0.128   3.115  0.00  0.00     0.062 A 
ATOM      3  C2  UNL d   1      -0.650  -0.121   2.457  0.00  0.00     0.162 A 
ATOM      4  C3  UNL d   1      -1.608   0.886   2.337  0.00  0.00    -0.034 A 
ATOM      5  C4  UNL d   1      -1.348   2.142   2.887  0.00  0.00     0.162 A 
ATOM      6  C5  UNL d   1      -0.146   2.386   3.544  0.00  0.00     0.062 A 
ATOM      7  F   UNL d   1       0.096   3.596   4.068  0.00  0.00    -0.097 F 
ATOM      8  F1  UNL d   1      -2.247   3.133   2.790  0.00  0.00    -0.096 F 
ATOM      9  I   UNL d   1      -3.405   0.518   1.354  0.00  0.00    -0.060 I 
ATOM     10  F2  UNL d   1      -0.867  -1.340   1.942  0.00  0.00    -0.096 F 
ATOM     11  F3  UNL d   1       1.466  -0.846   3.225  0.00  0.00    -0.097 F 
ATOM     12  F4  UNL d   1       1.959   1.616   4.292  0.00  0.00    -0.092 F 
ENDROOT
TORSDOF 0
ENDMDL
