MODEL 1
REMARK minimizedAffinity 15.206708
REMARK minimizedRMSD -1
REMARK  0 active torsions:
REMARK  status: ('A' for Active; 'I' for Inactive)
ROOT
ATOM      1  C   UNL d   1       0.853   1.035   3.679  0.00  0.00     0.124 A 
ATOM      2  C1  UNL d   1       0.465  -0.187   3.147  0.00  0.00     0.062 A 
ATOM      3  C2  UNL d   1      -0.706  -0.286   2.402  0.00  0.00     0.162 A 
ATOM      4  C3  UNL d   1      -1.498   0.841   2.183  0.00  0.00    -0.034 A 
ATOM      5  C4  UNL d   1      -1.102   2.067   2.722  0.00  0.00     0.162 A 
ATOM      6  C5  UNL d   1       0.069   2.160   3.465  0.00  0.00     0.062 A 
ATOM      7  F   UNL d   1       0.442   3.342   3.978  0.00  0.00    -0.097 F 
ATOM      8  F1  UNL d   1      -1.841   3.170   2.530  0.00  0.00    -0.096 F 
ATOM      9  I   UNL d   1      -3.251   0.697   1.070  0.00  0.00    -0.060 I 
ATOM     10  F2  UNL d   1      -1.056  -1.480   1.900  0.00  0.00    -0.096 F 
ATOM     11  F3  UNL d   1       1.221  -1.276   3.352  0.00  0.00    -0.097 F 
ATOM     12  F4  UNL d   1       1.980   1.128   4.396  0.00  0.00    -0.092 F 
ENDROOT
TORSDOF 0
ENDMDL
