MODEL 1
REMARK minimizedAffinity 2.36432862
REMARK minimizedRMSD -1
REMARK  1 active torsions:
REMARK  status: ('A' for Active; 'I' for Inactive)
REMARK    1  A    between atoms: C3_4  and  O_7 
ROOT
ATOM      1  C   UNL d   1       3.490   5.141  -0.142  0.00  0.00    -0.033 A 
ATOM      2  C1  UNL d   1       4.746   5.705   0.091  0.00  0.00     0.039 A 
ATOM      3  C2  UNL d   1       5.152   5.994   1.396  0.00  0.00    -0.080 A 
ATOM      4  C3  UNL d   1       4.294   5.715   2.456  0.00  0.00     0.150 A 
ATOM      5  C4  UNL d   1       3.043   5.150   2.230  0.00  0.00    -0.007 A 
ATOM      6  C5  UNL d   1       2.639   4.862   0.927  0.00  0.00     0.039 A 
ENDROOT
BRANCH   4   7
ATOM      7  O   UNL d   1       4.644   5.984   3.746  0.00  0.00    -0.526 OA
ATOM      8  H5  UNL d   1       5.523   6.399   3.746  0.00  0.00     0.418 HD
ENDBRANCH   4   7
TORSDOF 1
ENDMDL
