MODEL 1
REMARK minimizedAffinity 0.687328696
REMARK minimizedRMSD -1
REMARK  1 active torsions:
REMARK  status: ('A' for Active; 'I' for Inactive)
REMARK    1  A    between atoms: C3_4  and  O_7 
ROOT
ATOM      1  C   UNL d   1      -0.330  -0.877   1.058  0.00  0.00    -0.033 A 
ATOM      2  C1  UNL d   1      -0.043  -0.594   2.394  0.00  0.00     0.039 A 
ATOM      3  C2  UNL d   1       1.283  -0.514   2.823  0.00  0.00    -0.080 A 
ATOM      4  C3  UNL d   1       2.311  -0.718   1.907  0.00  0.00     0.150 A 
ATOM      5  C4  UNL d   1       2.032  -0.996   0.573  0.00  0.00    -0.007 A 
ATOM      6  C5  UNL d   1       0.707  -1.077   0.147  0.00  0.00     0.039 A 
ENDROOT
BRANCH   4   7
ATOM      7  O   UNL d   1       3.621  -0.655   2.280  0.00  0.00    -0.526 OA
ATOM      8  H5  UNL d   1       3.661  -0.483   3.235  0.00  0.00     0.418 HD
ENDBRANCH   4   7
TORSDOF 1
ENDMDL
