MODEL 1
REMARK minimizedAffinity -2.58482552
REMARK minimizedRMSD -1
REMARK  1 active torsions:
REMARK  status: ('A' for Active; 'I' for Inactive)
REMARK    1  A    between atoms: C3_4  and  O_7 
ROOT
ATOM      1  C   UNL d   1       4.939   5.975   1.819  0.00  0.00    -0.033 A 
ATOM      2  C1  UNL d   1       5.995   6.000   0.906  0.00  0.00     0.039 A 
ATOM      3  C2  UNL d   1       5.874   5.347  -0.322  0.00  0.00    -0.080 A 
ATOM      4  C3  UNL d   1       4.694   4.674  -0.625  0.00  0.00     0.150 A 
ATOM      5  C4  UNL d   1       3.636   4.648   0.278  0.00  0.00    -0.007 A 
ATOM      6  C5  UNL d   1       3.759   5.300   1.504  0.00  0.00     0.039 A 
ENDROOT
BRANCH   4   7
ATOM      7  O   UNL d   1       4.531   4.019  -1.810  0.00  0.00    -0.526 OA
ATOM      8  H5  UNL d   1       5.354   4.098  -2.321  0.00  0.00     0.418 HD
ENDBRANCH   4   7
TORSDOF 1
ENDMDL
