MODEL 1
REMARK minimizedAffinity -1.73217177
REMARK minimizedRMSD -1
REMARK  1 active torsions:
REMARK  status: ('A' for Active; 'I' for Inactive)
REMARK    1  A    between atoms: C3_4  and  O_7 
ROOT
ATOM      1  C   UNL d   1       0.862  -1.688   0.390  0.00  0.00    -0.033 A 
ATOM      2  C1  UNL d   1       2.231  -1.506   0.598  0.00  0.00     0.039 A 
ATOM      3  C2  UNL d   1       3.120  -2.557   0.362  0.00  0.00    -0.080 A 
ATOM      4  C3  UNL d   1       2.629  -3.781  -0.083  0.00  0.00     0.150 A 
ATOM      5  C4  UNL d   1       1.267  -3.968  -0.296  0.00  0.00    -0.007 A 
ATOM      6  C5  UNL d   1       0.380  -2.918  -0.059  0.00  0.00     0.039 A 
ENDROOT
BRANCH   4   7
ATOM      7  O   UNL d   1       3.457  -4.837  -0.322  0.00  0.00    -0.526 OA
ATOM      8  H5  UNL d   1       4.366  -4.570  -0.104  0.00  0.00     0.418 HD
ENDBRANCH   4   7
TORSDOF 1
ENDMDL
