MODEL 1
REMARK minimizedAffinity -2.47955394
REMARK minimizedRMSD -1
REMARK  1 active torsions:
REMARK  status: ('A' for Active; 'I' for Inactive)
REMARK    1  A    between atoms: C3_4  and  O_7 
ROOT
ATOM      1  C   UNL d   1      -0.271  -3.056   0.068  0.00  0.00    -0.033 A 
ATOM      2  C1  UNL d   1      -0.762  -1.836   0.539  0.00  0.00     0.039 A 
ATOM      3  C2  UNL d   1       0.115  -0.781   0.797  0.00  0.00    -0.080 A 
ATOM      4  C3  UNL d   1       1.479  -0.958   0.580  0.00  0.00     0.150 A 
ATOM      5  C4  UNL d   1       1.975  -2.169   0.108  0.00  0.00    -0.007 A 
ATOM      6  C5  UNL d   1       1.097  -3.222  -0.149  0.00  0.00     0.039 A 
ENDROOT
BRANCH   4   7
ATOM      7  O   UNL d   1       2.375   0.040   0.822  0.00  0.00    -0.526 OA
ATOM      8  H5  UNL d   1       1.892   0.808   1.172  0.00  0.00     0.418 HD
ENDBRANCH   4   7
TORSDOF 1
ENDMDL
