MODEL 1
REMARK minimizedAffinity -3.0056839
REMARK minimizedRMSD -1
REMARK  1 active torsions:
REMARK  status: ('A' for Active; 'I' for Inactive)
REMARK    1  A    between atoms: C3_4  and  O_7 
ROOT
ATOM      1  C   UNL d   1       4.311   5.992  -1.125  0.00  0.00    -0.033 A 
ATOM      2  C1  UNL d   1       3.021   6.000  -0.591  0.00  0.00     0.039 A 
ATOM      3  C2  UNL d   1       2.812   5.632   0.740  0.00  0.00    -0.080 A 
ATOM      4  C3  UNL d   1       3.900   5.260   1.525  0.00  0.00     0.150 A 
ATOM      5  C4  UNL d   1       5.188   5.253   1.000  0.00  0.00    -0.007 A 
ATOM      6  C5  UNL d   1       5.395   5.619  -0.329  0.00  0.00     0.039 A 
ENDROOT
BRANCH   4   7
ATOM      7  O   UNL d   1       3.745   4.889   2.827  0.00  0.00    -0.526 OA
ATOM      8  H5  UNL d   1       2.798   4.914   3.044  0.00  0.00     0.418 HD
ENDBRANCH   4   7
TORSDOF 1
ENDMDL
