MODEL 1
REMARK minimizedAffinity -1.25542724
REMARK minimizedRMSD -1
REMARK  1 active torsions:
REMARK  status: ('A' for Active; 'I' for Inactive)
REMARK    1  A    between atoms: C3_4  and  O_7 
ROOT
ATOM      1  C   UNL d   1       0.220  -1.917   0.312  0.00  0.00    -0.033 A 
ATOM      2  C1  UNL d   1       1.550  -1.958  -0.111  0.00  0.00     0.039 A 
ATOM      3  C2  UNL d   1       2.503  -1.139   0.498  0.00  0.00    -0.080 A 
ATOM      4  C3  UNL d   1       2.114  -0.286   1.528  0.00  0.00     0.150 A 
ATOM      5  C4  UNL d   1       0.791  -0.244   1.957  0.00  0.00    -0.007 A 
ATOM      6  C5  UNL d   1      -0.159  -1.062   1.346  0.00  0.00     0.039 A 
ENDROOT
BRANCH   4   7
ATOM      7  O   UNL d   1       3.007   0.535   2.149  0.00  0.00    -0.526 OA
ATOM      8  H5  UNL d   1       3.875   0.419   1.729  0.00  0.00     0.418 HD
ENDBRANCH   4   7
TORSDOF 1
ENDMDL
