MODEL 1
REMARK minimizedAffinity -4.03121233
REMARK minimizedRMSD -1
REMARK  1 active torsions:
REMARK  status: ('A' for Active; 'I' for Inactive)
REMARK    1  A    between atoms: C3_4  and  O_7 
ROOT
ATOM      1  C   UNL d   1       2.083  -3.263  -0.198  0.00  0.00    -0.033 A 
ATOM      2  C1  UNL d   1       2.503  -1.934  -0.122  0.00  0.00     0.039 A 
ATOM      3  C2  UNL d   1       1.631  -0.950   0.347  0.00  0.00    -0.080 A 
ATOM      4  C3  UNL d   1       0.344  -1.307   0.736  0.00  0.00     0.150 A 
ATOM      5  C4  UNL d   1      -0.081  -2.630   0.667  0.00  0.00    -0.007 A 
ATOM      6  C5  UNL d   1       0.791  -3.611   0.197  0.00  0.00     0.039 A 
ENDROOT
BRANCH   4   7
ATOM      7  O   UNL d   1      -0.545  -0.381   1.196  0.00  0.00    -0.526 OA
ATOM      8  H5  UNL d   1      -0.123   0.494   1.162  0.00  0.00     0.418 HD
ENDBRANCH   4   7
TORSDOF 1
ENDMDL
