MODEL 1
REMARK minimizedAffinity -2.60069013
REMARK minimizedRMSD -1
REMARK  1 active torsions:
REMARK  status: ('A' for Active; 'I' for Inactive)
REMARK    1  A    between atoms: C3_4  and  O_7 
ROOT
ATOM      1  C   UNL d   1       3.931   6.000  -0.866  0.00  0.00    -0.033 A 
ATOM      2  C1  UNL d   1       5.259   6.000  -0.436  0.00  0.00     0.039 A 
ATOM      3  C2  UNL d   1       5.553   5.946   0.928  0.00  0.00    -0.080 A 
ATOM      4  C3  UNL d   1       4.511   5.893   1.850  0.00  0.00     0.150 A 
ATOM      5  C4  UNL d   1       3.186   5.889   1.428  0.00  0.00    -0.007 A 
ATOM      6  C5  UNL d   1       2.894   5.943   0.066  0.00  0.00     0.039 A 
ENDROOT
BRANCH   4   7
ATOM      7  O   UNL d   1       4.748   5.844   3.192  0.00  0.00    -0.526 OA
ATOM      8  H5  UNL d   1       5.709   5.883   3.336  0.00  0.00     0.418 HD
ENDBRANCH   4   7
TORSDOF 1
ENDMDL
