MODEL 1
REMARK minimizedAffinity 1.38724053
REMARK minimizedRMSD -1
REMARK  1 active torsions:
REMARK  status: ('A' for Active; 'I' for Inactive)
REMARK    1  A    between atoms: C3_4  and  O_7 
ROOT
ATOM      1  C   UNL d   1       4.045   1.498  -1.944  0.00  0.00    -0.033 A 
ATOM      2  C1  UNL d   1       3.947   2.890  -1.896  0.00  0.00     0.039 A 
ATOM      3  C2  UNL d   1       3.174   3.570  -2.839  0.00  0.00    -0.080 A 
ATOM      4  C3  UNL d   1       2.503   2.848  -3.822  0.00  0.00     0.150 A 
ATOM      5  C4  UNL d   1       2.592   1.460  -3.872  0.00  0.00    -0.007 A 
ATOM      6  C5  UNL d   1       3.366   0.783  -2.931  0.00  0.00     0.039 A 
ENDROOT
BRANCH   4   7
ATOM      7  O   UNL d   1       1.739   3.467  -4.766  0.00  0.00    -0.526 OA
ATOM      8  H5  UNL d   1       1.794   4.427  -4.624  0.00  0.00     0.418 HD
ENDBRANCH   4   7
TORSDOF 1
ENDMDL
