MODEL 1
REMARK minimizedAffinity -4.36181068
REMARK minimizedRMSD -1
REMARK  1 active torsions:
REMARK  status: ('A' for Active; 'I' for Inactive)
REMARK    1  A    between atoms: C3_4  and  O_7 
ROOT
ATOM      1  C   UNL d   1      -0.100  -2.437   0.963  0.00  0.00    -0.033 A 
ATOM      2  C1  UNL d   1       0.560  -1.265   1.336  0.00  0.00     0.039 A 
ATOM      3  C2  UNL d   1       1.841  -0.998   0.849  0.00  0.00    -0.080 A 
ATOM      4  C3  UNL d   1       2.449  -1.910  -0.010  0.00  0.00     0.150 A 
ATOM      5  C4  UNL d   1       1.795  -3.077  -0.390  0.00  0.00    -0.007 A 
ATOM      6  C5  UNL d   1       0.516  -3.342   0.099  0.00  0.00     0.039 A 
ENDROOT
BRANCH   4   7
ATOM      7  O   UNL d   1       3.700  -1.695  -0.508  0.00  0.00    -0.526 OA
ATOM      8  H5  UNL d   1       4.040  -0.863  -0.137  0.00  0.00     0.418 HD
ENDBRANCH   4   7
TORSDOF 1
ENDMDL
