MODEL 1
REMARK minimizedAffinity -1.45434058
REMARK minimizedRMSD -1
REMARK  1 active torsions:
REMARK  status: ('A' for Active; 'I' for Inactive)
REMARK    1  A    between atoms: C3_4  and  O_7 
ROOT
ATOM      1  C   UNL d   1       4.428   6.000   1.965  0.00  0.00    -0.033 A 
ATOM      2  C1  UNL d   1       3.413   5.050   1.842  0.00  0.00     0.039 A 
ATOM      3  C2  UNL d   1       3.464   4.099   0.821  0.00  0.00    -0.080 A 
ATOM      4  C3  UNL d   1       4.535   4.108  -0.068  0.00  0.00     0.150 A 
ATOM      5  C4  UNL d   1       5.552   5.049   0.050  0.00  0.00    -0.007 A 
ATOM      6  C5  UNL d   1       5.499   5.999   1.070  0.00  0.00     0.039 A 
ENDROOT
BRANCH   4   7
ATOM      7  O   UNL d   1       4.625   3.203  -1.084  0.00  0.00    -0.526 OA
ATOM      8  H5  UNL d   1       3.838   2.633  -1.060  0.00  0.00     0.418 HD
ENDBRANCH   4   7
TORSDOF 1
ENDMDL
