MODEL 1
REMARK minimizedAffinity -0.758293211
REMARK minimizedRMSD -1
REMARK  1 active torsions:
REMARK  status: ('A' for Active; 'I' for Inactive)
REMARK    1  A    between atoms: C3_4  and  O_7 
ROOT
ATOM      1  C   UNL d   1      -0.110  -0.386   1.142  0.00  0.00    -0.033 A 
ATOM      2  C1  UNL d   1       1.261  -0.428   0.884  0.00  0.00     0.039 A 
ATOM      3  C2  UNL d   1       1.837  -1.581   0.345  0.00  0.00    -0.080 A 
ATOM      4  C3  UNL d   1       1.031  -2.682   0.068  0.00  0.00     0.150 A 
ATOM      5  C4  UNL d   1      -0.337  -2.645   0.319  0.00  0.00    -0.007 A 
ATOM      6  C5  UNL d   1      -0.910  -1.494   0.858  0.00  0.00     0.039 A 
ENDROOT
BRANCH   4   7
ATOM      7  O   UNL d   1       1.548  -3.830  -0.454  0.00  0.00    -0.526 OA
ATOM      8  H5  UNL d   1       2.509  -3.720  -0.548  0.00  0.00     0.418 HD
ENDBRANCH   4   7
TORSDOF 1
ENDMDL
