MODEL 1
REMARK minimizedAffinity 2.31769085
REMARK minimizedRMSD -1
REMARK  1 active torsions:
REMARK  status: ('A' for Active; 'I' for Inactive)
REMARK    1  A    between atoms: C3_4  and  O_7 
ROOT
ATOM      1  C   UNL d   1       0.143  -0.408   1.184  0.00  0.00    -0.033 A 
ATOM      2  C1  UNL d   1       1.431  -0.622   0.691  0.00  0.00     0.039 A 
ATOM      3  C2  UNL d   1       1.879  -1.922   0.445  0.00  0.00    -0.080 A 
ATOM      4  C3  UNL d   1       1.030  -2.996   0.696  0.00  0.00     0.150 A 
ATOM      5  C4  UNL d   1      -0.256  -2.789   1.184  0.00  0.00    -0.007 A 
ATOM      6  C5  UNL d   1      -0.701  -1.491   1.430  0.00  0.00     0.039 A 
ENDROOT
BRANCH   4   7
ATOM      7  O   UNL d   1       1.424  -4.283   0.476  0.00  0.00    -0.526 OA
ATOM      8  H5  UNL d   1       2.345  -4.274   0.167  0.00  0.00     0.418 HD
ENDBRANCH   4   7
TORSDOF 1
ENDMDL
