MODEL 1
REMARK minimizedAffinity 0.65727073
REMARK minimizedRMSD -1
REMARK  1 active torsions:
REMARK  status: ('A' for Active; 'I' for Inactive)
REMARK    1  A    between atoms: C3_4  and  O_7 
ROOT
ATOM      1  C   UNL d   1       2.200  -1.346   0.488  0.00  0.00    -0.033 A 
ATOM      2  C1  UNL d   1       2.135  -0.325   1.437  0.00  0.00     0.039 A 
ATOM      3  C2  UNL d   1       0.900   0.221   1.795  0.00  0.00    -0.080 A 
ATOM      4  C3  UNL d   1      -0.260  -0.264   1.198  0.00  0.00     0.150 A 
ATOM      5  C4  UNL d   1      -0.203  -1.284   0.254  0.00  0.00    -0.007 A 
ATOM      6  C5  UNL d   1       1.031  -1.827  -0.103  0.00  0.00     0.039 A 
ENDROOT
BRANCH   4   7
ATOM      7  O   UNL d   1      -1.487   0.240   1.511  0.00  0.00    -0.526 OA
ATOM      8  H5  UNL d   1      -1.370   0.958   2.155  0.00  0.00     0.418 HD
ENDBRANCH   4   7
TORSDOF 1
ENDMDL
