MODEL 1
REMARK minimizedAffinity 0.320007563
REMARK minimizedRMSD -1
REMARK  0 active torsions:
REMARK  status: ('A' for Active; 'I' for Inactive)
ROOT
ATOM      1  C   UNL d   1      -2.592  -0.010  -5.983  0.00  0.00    -0.002 A 
ATOM      2  C1  UNL d   1      -3.936  -0.355  -5.988  0.00  0.00     0.010 A 
ATOM      3  C2  UNL d   1      -4.923   0.633  -5.993  0.00  0.00     0.041 A 
ATOM      4  C3  UNL d   1      -4.532   1.986  -5.993  0.00  0.00    -0.075 A 
ATOM      5  S   UNL d   1      -5.565   3.367  -5.999  0.00  0.00     0.015 SA
ATOM      6  C4  UNL d   1      -4.246   4.446  -5.996  0.00  0.00     0.022 A 
ATOM      7  C5  UNL d   1      -3.040   3.787  -5.990  0.00  0.00     0.026 A 
ATOM      8  C6  UNL d   1      -3.185   2.358  -5.989  0.00  0.00    -0.082 A 
ATOM      9  C7  UNL d   1      -2.208   1.333  -5.984  0.00  0.00     0.045 A 
ENDROOT
TORSDOF 0
ENDMDL
