MODEL 1
REMARK minimizedAffinity -0.976008892
REMARK minimizedRMSD -1
REMARK  0 active torsions:
REMARK  status: ('A' for Active; 'I' for Inactive)
ROOT
ATOM      1  C   UNL d   1      -3.537  -0.465  -5.999  0.00  0.00    -0.002 A 
ATOM      2  C1  UNL d   1      -2.229  -0.002  -5.998  0.00  0.00     0.010 A 
ATOM      3  C2  UNL d   1      -1.961   1.368  -5.999  0.00  0.00     0.041 A 
ATOM      4  C3  UNL d   1      -3.039   2.274  -5.999  0.00  0.00    -0.075 A 
ATOM      5  S   UNL d   1      -2.951   3.996  -6.000  0.00  0.00     0.015 SA
ATOM      6  C4  UNL d   1      -4.647   4.158  -6.000  0.00  0.00     0.022 A 
ATOM      7  C5  UNL d   1      -5.282   2.938  -6.000  0.00  0.00     0.026 A 
ATOM      8  C6  UNL d   1      -4.365   1.833  -5.999  0.00  0.00    -0.082 A 
ATOM      9  C7  UNL d   1      -4.605   0.437  -5.999  0.00  0.00     0.045 A 
ENDROOT
TORSDOF 0
ENDMDL
