MODEL 1
REMARK minimizedAffinity 12.9308567
REMARK minimizedRMSD -1
REMARK  0 active torsions:
REMARK  status: ('A' for Active; 'I' for Inactive)
ROOT
ATOM      1  C   UNL d   1      -2.172  -2.537  -3.014  0.00  0.00    -0.002 A 
ATOM      2  C1  UNL d   1      -3.386  -1.969  -3.373  0.00  0.00     0.010 A 
ATOM      3  C2  UNL d   1      -4.228  -2.610  -4.285  0.00  0.00     0.041 A 
ATOM      4  C3  UNL d   1      -3.827  -3.844  -4.833  0.00  0.00    -0.075 A 
ATOM      5  S   UNL d   1      -4.695  -4.810  -5.966  0.00  0.00     0.015 SA
ATOM      6  C4  UNL d   1      -3.476  -6.000  -6.000  0.00  0.00     0.022 A 
ATOM      7  C5  UNL d   1      -2.424  -5.684  -5.173  0.00  0.00     0.026 A 
ATOM      8  C6  UNL d   1      -2.609  -4.436  -4.486  0.00  0.00    -0.082 A 
ATOM      9  C7  UNL d   1      -1.777  -3.762  -3.560  0.00  0.00     0.045 A 
ENDROOT
TORSDOF 0
ENDMDL
