MODEL 1
REMARK minimizedAffinity 5.61169481
REMARK minimizedRMSD -1
REMARK  0 active torsions:
REMARK  status: ('A' for Active; 'I' for Inactive)
ROOT
ATOM      1  C   UNL d   1       3.379  -2.335  -1.565  0.00  0.00    -0.002 A 
ATOM      2  C1  UNL d   1       4.463  -1.480  -1.427  0.00  0.00     0.010 A 
ATOM      3  C2  UNL d   1       4.278  -0.161  -1.007  0.00  0.00     0.041 A 
ATOM      4  C3  UNL d   1       2.972   0.287  -0.723  0.00  0.00    -0.075 A 
ATOM      5  S   UNL d   1       2.505   1.859  -0.193  0.00  0.00     0.015 SA
ATOM      6  C4  UNL d   1       0.856   1.432  -0.137  0.00  0.00     0.022 A 
ATOM      7  C5  UNL d   1       0.649   0.125  -0.510  0.00  0.00     0.026 A 
ATOM      8  C6  UNL d   1       1.865  -0.557  -0.854  0.00  0.00    -0.082 A 
ATOM      9  C7  UNL d   1       2.086  -1.888  -1.283  0.00  0.00     0.045 A 
ENDROOT
TORSDOF 0
ENDMDL
