MODEL 1
REMARK minimizedAffinity -2.94759727
REMARK minimizedRMSD -1
REMARK  0 active torsions:
REMARK  status: ('A' for Active; 'I' for Inactive)
ROOT
ATOM      1  C   UNL d   1      -3.718  -0.621  -5.995  0.00  0.00    -0.002 A 
ATOM      2  C1  UNL d   1      -5.088  -0.399  -5.999  0.00  0.00     0.010 A 
ATOM      3  C2  UNL d   1      -5.596   0.902  -6.000  0.00  0.00     0.041 A 
ATOM      4  C3  UNL d   1      -4.695   1.985  -5.998  0.00  0.00    -0.075 A 
ATOM      5  S   UNL d   1      -5.089   3.664  -6.000  0.00  0.00     0.015 SA
ATOM      6  C4  UNL d   1      -3.448   4.125  -5.997  0.00  0.00     0.022 A 
ATOM      7  C5  UNL d   1      -2.607   3.038  -5.994  0.00  0.00     0.026 A 
ATOM      8  C6  UNL d   1      -3.312   1.787  -5.996  0.00  0.00    -0.082 A 
ATOM      9  C7  UNL d   1      -2.828   0.456  -5.994  0.00  0.00     0.045 A 
ENDROOT
TORSDOF 0
ENDMDL
