MODEL 1
REMARK minimizedAffinity 0.149483711
REMARK minimizedRMSD -1
REMARK  0 active torsions:
REMARK  status: ('A' for Active; 'I' for Inactive)
ROOT
ATOM      1  C   UNL d   1      -3.504   3.413  -5.969  0.00  0.00    -0.002 A 
ATOM      2  C1  UNL d   1      -2.270   2.779  -5.974  0.00  0.00     0.010 A 
ATOM      3  C2  UNL d   1      -2.187   1.385  -5.982  0.00  0.00     0.041 A 
ATOM      4  C3  UNL d   1      -3.378   0.632  -5.988  0.00  0.00    -0.075 A 
ATOM      5  S   UNL d   1      -3.520  -1.086  -6.000  0.00  0.00     0.015 SA
ATOM      6  C4  UNL d   1      -5.223  -1.019  -5.999  0.00  0.00     0.022 A 
ATOM      7  C5  UNL d   1      -5.689   0.275  -5.990  0.00  0.00     0.026 A 
ATOM      8  C6  UNL d   1      -4.633   1.248  -5.984  0.00  0.00    -0.082 A 
ATOM      9  C7  UNL d   1      -4.683   2.662  -5.975  0.00  0.00     0.045 A 
ENDROOT
TORSDOF 0
ENDMDL
