MODEL 1
REMARK minimizedAffinity -3.06039333
REMARK minimizedRMSD -1
REMARK  0 active torsions:
REMARK  status: ('A' for Active; 'I' for Inactive)
ROOT
ATOM      1  C   UNL d   1      -3.954   3.417  -5.717  0.00  0.00    -0.002 A 
ATOM      2  C1  UNL d   1      -5.287   3.430  -5.333  0.00  0.00     0.010 A 
ATOM      3  C2  UNL d   1      -5.996   2.236  -5.182  0.00  0.00     0.041 A 
ATOM      4  C3  UNL d   1      -5.334   1.016  -5.425  0.00  0.00    -0.075 A 
ATOM      5  S   UNL d   1      -6.000  -0.569  -5.303  0.00  0.00     0.015 SA
ATOM      6  C4  UNL d   1      -4.530  -1.302  -5.757  0.00  0.00     0.022 A 
ATOM      7  C5  UNL d   1      -3.545  -0.375  -6.000  0.00  0.00     0.026 A 
ATOM      8  C6  UNL d   1      -3.992   0.977  -5.812  0.00  0.00    -0.082 A 
ATOM      9  C7  UNL d   1      -3.301   2.204  -5.957  0.00  0.00     0.045 A 
ENDROOT
TORSDOF 0
ENDMDL
