MODEL 1
REMARK minimizedAffinity -0.943271279
REMARK minimizedRMSD -1
REMARK  0 active torsions:
REMARK  status: ('A' for Active; 'I' for Inactive)
ROOT
ATOM      1  C   UNL d   1      -2.730  -4.500  -5.976  0.00  0.00    -0.002 A 
ATOM      2  C1  UNL d   1      -4.114  -4.402  -5.984  0.00  0.00     0.010 A 
ATOM      3  C2  UNL d   1      -4.738  -3.153  -5.990  0.00  0.00     0.041 A 
ATOM      4  C3  UNL d   1      -3.940  -1.993  -5.991  0.00  0.00    -0.075 A 
ATOM      5  S   UNL d   1      -4.484  -0.357  -5.999  0.00  0.00     0.015 SA
ATOM      6  C4  UNL d   1      -2.891   0.251  -5.993  0.00  0.00     0.022 A 
ATOM      7  C5  UNL d   1      -1.955  -0.756  -5.985  0.00  0.00     0.026 A 
ATOM      8  C6  UNL d   1      -2.544  -2.065  -5.984  0.00  0.00    -0.082 A 
ATOM      9  C7  UNL d   1      -1.941  -3.346  -5.976  0.00  0.00     0.045 A 
ENDROOT
TORSDOF 0
ENDMDL
