MODEL 1
REMARK minimizedAffinity -3.12804484
REMARK minimizedRMSD -1
REMARK  0 active torsions:
REMARK  status: ('A' for Active; 'I' for Inactive)
ROOT
ATOM      1  C   UNL d   1      -4.774  -1.435  -5.996  0.00  0.00    -0.002 A 
ATOM      2  C1  UNL d   1      -5.978  -0.746  -5.994  0.00  0.00     0.010 A 
ATOM      3  C2  UNL d   1      -5.999   0.650  -5.993  0.00  0.00     0.041 A 
ATOM      4  C3  UNL d   1      -4.776   1.349  -5.995  0.00  0.00    -0.075 A 
ATOM      5  S   UNL d   1      -4.556   3.059  -5.995  0.00  0.00     0.015 SA
ATOM      6  C4  UNL d   1      -2.858   2.916  -5.998  0.00  0.00     0.022 A 
ATOM      7  C5  UNL d   1      -2.451   1.603  -5.999  0.00  0.00     0.026 A 
ATOM      8  C6  UNL d   1      -3.549   0.678  -5.998  0.00  0.00    -0.082 A 
ATOM      9  C7  UNL d   1      -3.562  -0.737  -5.999  0.00  0.00     0.045 A 
ENDROOT
TORSDOF 0
ENDMDL
