MODEL 1
REMARK minimizedAffinity -2.95991945
REMARK minimizedRMSD -1
REMARK  0 active torsions:
REMARK  status: ('A' for Active; 'I' for Inactive)
ROOT
ATOM      1  C   UNL d   1      -4.532  -1.455  -5.991  0.00  0.00    -0.002 A 
ATOM      2  C1  UNL d   1      -5.803  -0.896  -5.998  0.00  0.00     0.010 A 
ATOM      3  C2  UNL d   1      -5.969   0.490  -6.000  0.00  0.00     0.041 A 
ATOM      4  C3  UNL d   1      -4.827   1.314  -5.996  0.00  0.00    -0.075 A 
ATOM      5  S   UNL d   1      -4.788   3.037  -5.997  0.00  0.00     0.015 SA
ATOM      6  C4  UNL d   1      -3.084   3.073  -5.989  0.00  0.00     0.022 A 
ATOM      7  C5  UNL d   1      -2.541   1.810  -5.985  0.00  0.00     0.026 A 
ATOM      8  C6  UNL d   1      -3.537   0.775  -5.989  0.00  0.00    -0.082 A 
ATOM      9  C7  UNL d   1      -3.401  -0.634  -5.987  0.00  0.00     0.045 A 
ENDROOT
TORSDOF 0
ENDMDL
