MODEL 1
REMARK minimizedAffinity 1.68458605
REMARK minimizedRMSD -1
REMARK  0 active torsions:
REMARK  status: ('A' for Active; 'I' for Inactive)
ROOT
ATOM      1  C   UNL d   1      -3.195   3.585  -5.821  0.00  0.00    -0.002 A 
ATOM      2  C1  UNL d   1      -2.125   2.704  -5.880  0.00  0.00     0.010 A 
ATOM      3  C2  UNL d   1      -2.342   1.325  -5.934  0.00  0.00     0.041 A 
ATOM      4  C3  UNL d   1      -3.665   0.843  -5.930  0.00  0.00    -0.075 A 
ATOM      5  S   UNL d   1      -4.172  -0.804  -5.990  0.00  0.00     0.015 SA
ATOM      6  C4  UNL d   1      -5.821  -0.377  -5.940  0.00  0.00     0.022 A 
ATOM      7  C5  UNL d   1      -5.999   0.985  -5.878  0.00  0.00     0.026 A 
ATOM      8  C6  UNL d   1      -4.760   1.710  -5.872  0.00  0.00    -0.082 A 
ATOM      9  C7  UNL d   1      -4.507   3.102  -5.817  0.00  0.00     0.045 A 
ENDROOT
TORSDOF 0
ENDMDL
