MODEL 1
REMARK minimizedAffinity -1.4725163
REMARK minimizedRMSD -1
REMARK  0 active torsions:
REMARK  status: ('A' for Active; 'I' for Inactive)
ROOT
ATOM      1  C   UNL d   1      -4.439  -1.493  -5.791  0.00  0.00    -0.002 A 
ATOM      2  C1  UNL d   1      -5.729  -1.026  -6.000  0.00  0.00     0.010 A 
ATOM      3  C2  UNL d   1      -6.000   0.344  -5.977  0.00  0.00     0.041 A 
ATOM      4  C3  UNL d   1      -4.943   1.244  -5.741  0.00  0.00    -0.075 A 
ATOM      5  S   UNL d   1      -5.038   2.964  -5.669  0.00  0.00     0.015 SA
ATOM      6  C4  UNL d   1      -3.369   3.119  -5.360  0.00  0.00     0.022 A 
ATOM      7  C5  UNL d   1      -2.739   1.898  -5.309  0.00  0.00     0.026 A 
ATOM      8  C6  UNL d   1      -3.635   0.797  -5.528  0.00  0.00    -0.082 A 
ATOM      9  C7  UNL d   1      -3.393  -0.597  -5.556  0.00  0.00     0.045 A 
ENDROOT
TORSDOF 0
ENDMDL
