MODEL 1
REMARK minimizedAffinity -2.54126596
REMARK minimizedRMSD -1
REMARK  0 active torsions:
REMARK  status: ('A' for Active; 'I' for Inactive)
ROOT
ATOM      1  C   UNL d   1      -3.767   3.182  -5.927  0.00  0.00    -0.002 A 
ATOM      2  C1  UNL d   1      -5.154   3.234  -5.886  0.00  0.00     0.010 A 
ATOM      3  C2  UNL d   1      -5.908   2.059  -5.884  0.00  0.00     0.041 A 
ATOM      4  C3  UNL d   1      -5.240   0.819  -5.923  0.00  0.00    -0.075 A 
ATOM      5  S   UNL d   1      -5.958  -0.748  -5.928  0.00  0.00     0.015 SA
ATOM      6  C4  UNL d   1      -4.441  -1.524  -5.984  0.00  0.00     0.022 A 
ATOM      7  C5  UNL d   1      -3.402  -0.624  -5.999  0.00  0.00     0.026 A 
ATOM      8  C6  UNL d   1      -3.845   0.742  -5.964  0.00  0.00    -0.082 A 
ATOM      9  C7  UNL d   1      -3.108   1.950  -5.966  0.00  0.00     0.045 A 
ENDROOT
TORSDOF 0
ENDMDL
