MODEL 1
REMARK minimizedAffinity -2.75195217
REMARK minimizedRMSD -1
REMARK  0 active torsions:
REMARK  status: ('A' for Active; 'I' for Inactive)
ROOT
ATOM      1  C   UNL d   1      -3.850   3.910  -5.987  0.00  0.00    -0.002 A 
ATOM      2  C1  UNL d   1      -5.237   3.944  -5.984  0.00  0.00     0.010 A 
ATOM      3  C2  UNL d   1      -5.977   2.760  -5.986  0.00  0.00     0.041 A 
ATOM      4  C3  UNL d   1      -5.292   1.529  -5.990  0.00  0.00    -0.075 A 
ATOM      5  S   UNL d   1      -5.988  -0.049  -5.993  0.00  0.00     0.015 SA
ATOM      6  C4  UNL d   1      -4.461  -0.804  -5.997  0.00  0.00     0.022 A 
ATOM      7  C5  UNL d   1      -3.433   0.109  -5.997  0.00  0.00     0.026 A 
ATOM      8  C6  UNL d   1      -3.895   1.469  -5.992  0.00  0.00    -0.082 A 
ATOM      9  C7  UNL d   1      -3.174   2.687  -5.991  0.00  0.00     0.045 A 
ENDROOT
TORSDOF 0
ENDMDL
