MODEL 1
REMARK minimizedAffinity 4.29262352
REMARK minimizedRMSD -1
REMARK  0 active torsions:
REMARK  status: ('A' for Active; 'I' for Inactive)
ROOT
ATOM      1  C4' PXY d   1       0.551   4.159  -0.325  0.00  0.00     0.077 C 
ATOM      2  C1' PXY d   1       0.195   0.836   4.392  0.00  0.00     0.077 C 
ATOM      3  C1  PXY d   1       0.299   1.712   3.159  0.00  0.00    -0.082 A 
ATOM      4  C2  PXY d   1      -0.796   2.032   2.489  0.00  0.00     0.003 A 
ATOM      5  C3  PXY d   1      -0.716   2.797   1.354  0.00  0.00     0.003 A 
ATOM      6  C4  PXY d   1       0.492   3.284   0.931  0.00  0.00    -0.082 A 
ATOM      7  C5  PXY d   1       1.612   2.972   1.616  0.00  0.00     0.003 A 
ATOM      8  C6  PXY d   1       1.514   2.160   2.742  0.00  0.00     0.003 A 
ENDROOT
TORSDOF 0
ENDMDL
