MODEL 1
REMARK minimizedAffinity 5.44512033
REMARK minimizedRMSD -1
REMARK  0 active torsions:
REMARK  status: ('A' for Active; 'I' for Inactive)
ROOT
ATOM      1  C4' PXY d   1       0.178   0.487  -0.798  0.00  0.00     0.077 C 
ATOM      2  C1' PXY d   1      -1.221   5.998   0.242  0.00  0.00     0.077 C 
ATOM      3  C1  PXY d   1      -0.848   4.552  -0.020  0.00  0.00    -0.082 A 
ATOM      4  C2  PXY d   1      -0.799   4.104  -1.264  0.00  0.00     0.003 A 
ATOM      5  C3  PXY d   1      -0.494   2.791  -1.516  0.00  0.00     0.003 A 
ATOM      6  C4  PXY d   1      -0.185   1.942  -0.488  0.00  0.00    -0.082 A 
ATOM      7  C5  PXY d   1      -0.223   2.394   0.783  0.00  0.00     0.003 A 
ATOM      8  C6  PXY d   1      -0.574   3.720   1.021  0.00  0.00     0.003 A 
ENDROOT
TORSDOF 0
ENDMDL
