MODEL 1
REMARK minimizedAffinity 5.23036051
REMARK minimizedRMSD -1
REMARK  0 active torsions:
REMARK  status: ('A' for Active; 'I' for Inactive)
ROOT
ATOM      1  C4' PXY d   1       5.254  -1.830  -2.149  0.00  0.00     0.077 C 
ATOM      2  C1' PXY d   1       1.666  -6.000  -0.375  0.00  0.00     0.077 C 
ATOM      3  C1  PXY d   1       2.616  -4.915  -0.844  0.00  0.00    -0.082 A 
ATOM      4  C2  PXY d   1       2.543  -3.707  -0.311  0.00  0.00     0.003 A 
ATOM      5  C3  PXY d   1       3.373  -2.705  -0.746  0.00  0.00     0.003 A 
ATOM      6  C4  PXY d   1       4.322  -2.958  -1.700  0.00  0.00    -0.082 A 
ATOM      7  C5  PXY d   1       4.409  -4.191  -2.241  0.00  0.00     0.003 A 
ATOM      8  C6  PXY d   1       3.531  -5.183  -1.815  0.00  0.00     0.003 A 
ENDROOT
TORSDOF 0
ENDMDL
