MODEL 1
REMARK minimizedAffinity 7.00381184
REMARK minimizedRMSD -1
REMARK  0 active torsions:
REMARK  status: ('A' for Active; 'I' for Inactive)
ROOT
ATOM      1  C4' PXY d   1      -0.568   3.166  -1.347  0.00  0.00     0.077 C 
ATOM      2  C1' PXY d   1       1.371   3.393   4.094  0.00  0.00     0.077 C 
ATOM      3  C1  PXY d   1       0.864   3.346   2.666  0.00  0.00    -0.082 A 
ATOM      4  C2  PXY d   1       0.123   2.325   2.269  0.00  0.00     0.003 A 
ATOM      5  C3  PXY d   1      -0.318   2.251   0.972  0.00  0.00     0.003 A 
ATOM      6  C4  PXY d   1      -0.042   3.259   0.088  0.00  0.00    -0.082 A 
ATOM      7  C5  PXY d   1       0.705   4.310   0.489  0.00  0.00     0.003 A 
ATOM      8  C6  PXY d   1       1.177   4.346   1.798  0.00  0.00     0.003 A 
ENDROOT
TORSDOF 0
ENDMDL
