MODEL 1
REMARK minimizedAffinity 9.72458839
REMARK minimizedRMSD -1
REMARK  0 active torsions:
REMARK  status: ('A' for Active; 'I' for Inactive)
ROOT
ATOM      1  C4' PXY d   1      -1.077   2.916   1.742  0.00  0.00     0.077 C 
ATOM      2  C1' PXY d   1      -1.600  -1.104  -2.379  0.00  0.00     0.077 C 
ATOM      3  C1  PXY d   1      -1.472  -0.056  -1.291  0.00  0.00    -0.082 A 
ATOM      4  C2  PXY d   1      -1.028   1.153  -1.596  0.00  0.00     0.003 A 
ATOM      5  C3  PXY d   1      -0.876   2.103  -0.619  0.00  0.00     0.003 A 
ATOM      6  C4  PXY d   1      -1.231   1.829   0.674  0.00  0.00    -0.082 A 
ATOM      7  C5  PXY d   1      -1.694   0.602   0.992  0.00  0.00     0.003 A 
ATOM      8  C6  PXY d   1      -1.803  -0.362  -0.007  0.00  0.00     0.003 A 
ENDROOT
TORSDOF 0
ENDMDL
