MODEL 1
REMARK minimizedAffinity 7.2728076
REMARK minimizedRMSD -1
REMARK  0 active torsions:
REMARK  status: ('A' for Active; 'I' for Inactive)
ROOT
ATOM      1  C4' PXY d   1      -0.745   4.532  -1.903  0.00  0.00     0.077 C 
ATOM      2  C1' PXY d   1       0.182   1.611   2.999  0.00  0.00     0.077 C 
ATOM      3  C1  PXY d   1      -0.062   2.388   1.720  0.00  0.00    -0.082 A 
ATOM      4  C2  PXY d   1      -0.579   1.773   0.669  0.00  0.00     0.003 A 
ATOM      5  C3  PXY d   1      -0.777   2.453  -0.505  0.00  0.00     0.003 A 
ATOM      6  C4  PXY d   1      -0.491   3.789  -0.588  0.00  0.00    -0.082 A 
ATOM      7  C5  PXY d   1       0.028   4.427   0.483  0.00  0.00     0.003 A 
ATOM      8  C6  PXY d   1       0.259   3.709   1.653  0.00  0.00     0.003 A 
ENDROOT
TORSDOF 0
ENDMDL
