MODEL 1
REMARK minimizedAffinity 13.0215683
REMARK minimizedRMSD -1
REMARK  0 active torsions:
REMARK  status: ('A' for Active; 'I' for Inactive)
ROOT
ATOM      1  C4' PXY d   1       0.079   3.797  -0.700  0.00  0.00     0.077 C 
ATOM      2  C1' PXY d   1      -3.292  -0.808  -1.620  0.00  0.00     0.077 C 
ATOM      3  C1  PXY d   1      -2.401   0.393  -1.371  0.00  0.00    -0.082 A 
ATOM      4  C2  PXY d   1      -2.866   1.611  -1.598  0.00  0.00     0.003 A 
ATOM      5  C3  PXY d   1      -2.063   2.706  -1.408  0.00  0.00     0.003 A 
ATOM      6  C4  PXY d   1      -0.789   2.556  -0.929  0.00  0.00    -0.082 A 
ATOM      7  C5  PXY d   1      -0.311   1.318  -0.685  0.00  0.00     0.003 A 
ATOM      8  C6  PXY d   1      -1.128   0.216  -0.924  0.00  0.00     0.003 A 
ENDROOT
TORSDOF 0
ENDMDL
