MODEL 1
REMARK minimizedAffinity 2.42170191
REMARK minimizedRMSD -1
REMARK  0 active torsions:
REMARK  status: ('A' for Active; 'I' for Inactive)
ROOT
ATOM      1  C4' PXY d   1       0.324   0.081   4.102  0.00  0.00     0.077 C 
ATOM      2  C1' PXY d   1       0.084   3.823  -0.298  0.00  0.00     0.077 C 
ATOM      3  C1  PXY d   1       0.142   2.851   0.864  0.00  0.00    -0.082 A 
ATOM      4  C2  PXY d   1       1.001   1.845   0.833  0.00  0.00     0.003 A 
ATOM      5  C3  PXY d   1       1.045   0.938   1.861  0.00  0.00     0.003 A 
ATOM      6  C4  PXY d   1       0.237   1.092   2.956  0.00  0.00    -0.082 A 
ATOM      7  C5  PXY d   1      -0.635   2.122   3.000  0.00  0.00     0.003 A 
ATOM      8  C6  PXY d   1      -0.693   3.008   1.928  0.00  0.00     0.003 A 
ENDROOT
TORSDOF 0
ENDMDL
