MODEL 1
REMARK minimizedAffinity 1.21982455
REMARK minimizedRMSD -1
REMARK  0 active torsions:
REMARK  status: ('A' for Active; 'I' for Inactive)
ROOT
ATOM      1  C4' PXY d   1      -2.250   1.845  -0.394  0.00  0.00     0.077 C 
ATOM      2  C1' PXY d   1       1.806   3.421   3.411  0.00  0.00     0.077 C 
ATOM      3  C1  PXY d   1       0.742   3.020   2.408  0.00  0.00    -0.082 A 
ATOM      4  C2  PXY d   1      -0.003   1.951   2.638  0.00  0.00     0.003 A 
ATOM      5  C3  PXY d   1      -0.949   1.556   1.727  0.00  0.00     0.003 A 
ATOM      6  C4  PXY d   1      -1.170   2.293   0.594  0.00  0.00    -0.082 A 
ATOM      7  C5  PXY d   1      -0.421   3.390   0.358  0.00  0.00     0.003 A 
ATOM      8  C6  PXY d   1       0.562   3.751   1.275  0.00  0.00     0.003 A 
ENDROOT
TORSDOF 0
ENDMDL
