MODEL 1
REMARK minimizedAffinity -0.28343907
REMARK minimizedRMSD -1
REMARK  0 active torsions:
REMARK  status: ('A' for Active; 'I' for Inactive)
ROOT
ATOM      1  C4' PXY d   1       0.372   3.029   2.240  0.00  0.00     0.077 C 
ATOM      2  C1' PXY d   1      -0.402   5.956  -2.684  0.00  0.00     0.077 C 
ATOM      3  C1  PXY d   1      -0.204   5.178  -1.399  0.00  0.00    -0.082 A 
ATOM      4  C2  PXY d   1      -0.172   5.821  -0.243  0.00  0.00     0.003 A 
ATOM      5  C3  PXY d   1       0.039   5.136   0.926  0.00  0.00     0.003 A 
ATOM      6  C4  PXY d   1       0.164   3.773   0.918  0.00  0.00    -0.082 A 
ATOM      7  C5  PXY d   1       0.122   3.108  -0.256  0.00  0.00     0.003 A 
ATOM      8  C6  PXY d   1      -0.052   3.826  -1.436  0.00  0.00     0.003 A 
ENDROOT
TORSDOF 0
ENDMDL
