MODEL 1
REMARK minimizedAffinity 3.14041424
REMARK minimizedRMSD -1
REMARK  0 active torsions:
REMARK  status: ('A' for Active; 'I' for Inactive)
ROOT
ATOM      1  C4' PXY d   1      -0.003   1.742   3.329  0.00  0.00     0.077 C 
ATOM      2  C1' PXY d   1       0.090   4.270  -1.868  0.00  0.00     0.077 C 
ATOM      3  C1  PXY d   1       0.077   3.612  -0.503  0.00  0.00    -0.082 A 
ATOM      4  C2  PXY d   1      -0.628   2.508  -0.315  0.00  0.00     0.003 A 
ATOM      5  C3  PXY d   1      -0.676   1.919   0.922  0.00  0.00     0.003 A 
ATOM      6  C4  PXY d   1       0.046   2.434   1.965  0.00  0.00    -0.082 A 
ATOM      7  C5  PXY d   1       0.776   3.555   1.778  0.00  0.00     0.003 A 
ATOM      8  C6  PXY d   1       0.779   4.161   0.525  0.00  0.00     0.003 A 
ENDROOT
TORSDOF 0
ENDMDL
