MODEL 1
REMARK minimizedAffinity 4.24980783
REMARK minimizedRMSD -1
REMARK  0 active torsions:
REMARK  status: ('A' for Active; 'I' for Inactive)
ROOT
ATOM      1  C4' PXY d   1      -3.004  -1.129  -1.101  0.00  0.00     0.077 C 
ATOM      2  C1' PXY d   1      -0.368   3.998  -0.684  0.00  0.00     0.077 C 
ATOM      3  C1  PXY d   1      -1.071   2.660  -0.794  0.00  0.00    -0.082 A 
ATOM      4  C2  PXY d   1      -0.486   1.573  -0.318  0.00  0.00     0.003 A 
ATOM      5  C3  PXY d   1      -1.093   0.349  -0.438  0.00  0.00     0.003 A 
ATOM      6  C4  PXY d   1      -2.336   0.245  -1.003  0.00  0.00    -0.082 A 
ATOM      7  C5  PXY d   1      -2.944   1.351  -1.482  0.00  0.00     0.003 A 
ATOM      8  C6  PXY d   1      -2.293   2.577  -1.388  0.00  0.00     0.003 A 
ENDROOT
TORSDOF 0
ENDMDL
