MODEL 1
REMARK minimizedAffinity 7.54380512
REMARK minimizedRMSD -1
REMARK  3 active torsions:
REMARK  status: ('A' for Active; 'I' for Inactive)
REMARK    1  A    between atoms: C3'_2  and  C2'_3 
REMARK    2  A    between atoms: C2'_3  and  C1'_4 
REMARK    3  A    between atoms: C1'_4  and  C1_5 
ROOT
ATOM      1  C1  N4B d   1       1.424  -3.084   0.743  0.00  0.00    -0.075 A 
ATOM      2  C2  N4B d   1       1.081  -1.746   1.037  0.00  0.00     0.002 A 
ATOM      3  C3  N4B d   1      -0.112  -1.464   1.656  0.00  0.00     0.002 A 
ATOM      4  C4  N4B d   1      -0.982  -2.496   1.972  0.00  0.00    -0.004 A 
ATOM      5  C5  N4B d   1      -0.632  -3.788   1.707  0.00  0.00     0.002 A 
ATOM      6  C6  N4B d   1       0.566  -4.087   1.089  0.00  0.00     0.002 A 
ENDROOT
BRANCH   1   7
ATOM      7  C1' N4B d   1       2.678  -3.434  -0.010  0.00  0.00     0.057 C 
BRANCH   7   8
ATOM      8  C2' N4B d   1       3.452  -4.493   0.770  0.00  0.00     0.009 C 
BRANCH   8   9
ATOM      9  C3' N4B d   1       4.950  -4.380   0.550  0.00  0.00     0.004 C 
ATOM     10  C4' N4B d   1       5.516  -5.545  -0.205  0.00  0.00     0.003 C 
ENDBRANCH   8   9
ENDBRANCH   7   8
ENDBRANCH   1   7
TORSDOF 3
ENDMDL
