MODEL 1
REMARK minimizedAffinity 2.71312404
REMARK minimizedRMSD -1
REMARK  3 active torsions:
REMARK  status: ('A' for Active; 'I' for Inactive)
REMARK    1  A    between atoms: C3'_2  and  C2'_3 
REMARK    2  A    between atoms: C2'_3  and  C1'_4 
REMARK    3  A    between atoms: C1'_4  and  C1_5 
ROOT
ATOM      1  C1  N4B d   1       3.321  -4.160   0.410  0.00  0.00    -0.075 A 
ATOM      2  C2  N4B d   1       4.461  -3.730  -0.304  0.00  0.00     0.002 A 
ATOM      3  C3  N4B d   1       5.717  -4.045   0.155  0.00  0.00     0.002 A 
ATOM      4  C4  N4B d   1       5.857  -4.769   1.329  0.00  0.00    -0.004 A 
ATOM      5  C5  N4B d   1       4.750  -5.203   1.998  0.00  0.00     0.002 A 
ATOM      6  C6  N4B d   1       3.482  -4.897   1.547  0.00  0.00     0.002 A 
ENDROOT
BRANCH   1   7
ATOM      7  C1' N4B d   1       1.930  -3.767  -0.006  0.00  0.00     0.057 C 
BRANCH   7   8
ATOM      8  C2' N4B d   1       1.738  -2.272   0.235  0.00  0.00     0.009 C 
BRANCH   8   9
ATOM      9  C3' N4B d   1       0.540  -1.989   1.125  0.00  0.00     0.004 C 
ATOM     10  C4' N4B d   1       0.695  -0.730   1.925  0.00  0.00     0.003 C 
ENDBRANCH   8   9
ENDBRANCH   7   8
ENDBRANCH   1   7
TORSDOF 3
ENDMDL
