MODEL 1
REMARK minimizedAffinity -5.75504112
REMARK minimizedRMSD -1
REMARK  3 active torsions:
REMARK  status: ('A' for Active; 'I' for Inactive)
REMARK    1  A    between atoms: C3'_2  and  C2'_3 
REMARK    2  A    between atoms: C2'_3  and  C1'_4 
REMARK    3  A    between atoms: C1'_4  and  C1_5 
ROOT
ATOM      1  C1  N4B d   1      -4.227   0.332  -4.293  0.00  0.00    -0.075 A 
ATOM      2  C2  N4B d   1      -3.291  -0.047  -3.305  0.00  0.00     0.002 A 
ATOM      3  C3  N4B d   1      -2.841  -1.343  -3.247  0.00  0.00     0.002 A 
ATOM      4  C4  N4B d   1      -3.325  -2.278  -4.151  0.00  0.00    -0.004 A 
ATOM      5  C5  N4B d   1      -4.209  -1.898  -5.117  0.00  0.00     0.002 A 
ATOM      6  C6  N4B d   1      -4.667  -0.597  -5.190  0.00  0.00     0.002 A 
ENDROOT
BRANCH   1   7
ATOM      7  C1' N4B d   1      -4.813   1.717  -4.342  0.00  0.00     0.057 C 
BRANCH   7   8
ATOM      8  C2' N4B d   1      -4.596   2.401  -2.995  0.00  0.00     0.009 C 
BRANCH   8   9
ATOM      9  C3' N4B d   1      -3.606   3.549  -3.094  0.00  0.00     0.004 C 
ATOM     10  C4' N4B d   1      -2.196   3.127  -2.806  0.00  0.00     0.003 C 
ENDBRANCH   8   9
ENDBRANCH   7   8
ENDBRANCH   1   7
TORSDOF 3
ENDMDL
