MODEL 1
REMARK minimizedAffinity 4.18327522
REMARK minimizedRMSD -1
REMARK  3 active torsions:
REMARK  status: ('A' for Active; 'I' for Inactive)
REMARK    1  A    between atoms: C3'_2  and  C2'_3 
REMARK    2  A    between atoms: C2'_3  and  C1'_4 
REMARK    3  A    between atoms: C1'_4  and  C1_5 
ROOT
ATOM      1  C1  N4B d   1       2.108  -0.259   0.341  0.00  0.00    -0.075 A 
ATOM      2  C2  N4B d   1       3.123  -0.278  -0.641  0.00  0.00     0.002 A 
ATOM      3  C3  N4B d   1       3.975   0.792  -0.769  0.00  0.00     0.002 A 
ATOM      4  C4  N4B d   1       3.820   1.895   0.057  0.00  0.00    -0.004 A 
ATOM      5  C5  N4B d   1       2.853   1.894   1.020  0.00  0.00     0.002 A 
ATOM      6  C6  N4B d   1       1.993   0.825   1.163  0.00  0.00     0.002 A 
ENDROOT
BRANCH   1   7
ATOM      7  C1' N4B d   1       1.099  -1.368   0.462  0.00  0.00     0.057 C 
BRANCH   7   8
ATOM      8  C2' N4B d   1       1.550  -2.339   1.550  0.00  0.00     0.009 C 
BRANCH   8   9
ATOM      9  C3' N4B d   1       2.262  -3.549   0.971  0.00  0.00     0.004 C 
ATOM     10  C4' N4B d   1       3.666  -3.694   1.478  0.00  0.00     0.003 C 
ENDBRANCH   8   9
ENDBRANCH   7   8
ENDBRANCH   1   7
TORSDOF 3
ENDMDL
