MODEL 1
REMARK minimizedAffinity -3.41948032
REMARK minimizedRMSD -1
REMARK  3 active torsions:
REMARK  status: ('A' for Active; 'I' for Inactive)
REMARK    1  A    between atoms: C3'_2  and  C2'_3 
REMARK    2  A    between atoms: C2'_3  and  C1'_4 
REMARK    3  A    between atoms: C1'_4  and  C1_5 
ROOT
ATOM      1  C1  N4B d   1      -3.204  -0.179  -4.148  0.00  0.00    -0.075 A 
ATOM      2  C2  N4B d   1      -3.788  -1.213  -3.384  0.00  0.00     0.002 A 
ATOM      3  C3  N4B d   1      -5.043  -1.673  -3.699  0.00  0.00     0.002 A 
ATOM      4  C4  N4B d   1      -5.737  -1.105  -4.757  0.00  0.00    -0.004 A 
ATOM      5  C5  N4B d   1      -5.155  -0.124  -5.505  0.00  0.00     0.002 A 
ATOM      6  C6  N4B d   1      -3.893   0.346  -5.202  0.00  0.00     0.002 A 
ENDROOT
BRANCH   1   7
ATOM      7  C1' N4B d   1      -1.870   0.417  -3.789  0.00  0.00     0.057 C 
BRANCH   7   8
ATOM      8  C2' N4B d   1      -2.078   1.538  -2.775  0.00  0.00     0.009 C 
BRANCH   8   9
ATOM      9  C3' N4B d   1      -2.019   2.910  -3.426  0.00  0.00     0.004 C 
ATOM     10  C4' N4B d   1      -0.773   3.116  -4.234  0.00  0.00     0.003 C 
ENDBRANCH   8   9
ENDBRANCH   7   8
ENDBRANCH   1   7
TORSDOF 3
ENDMDL
