MODEL 1
REMARK minimizedAffinity -1.18853676
REMARK minimizedRMSD -1
REMARK  3 active torsions:
REMARK  status: ('A' for Active; 'I' for Inactive)
REMARK    1  A    between atoms: C3'_2  and  C2'_3 
REMARK    2  A    between atoms: C2'_3  and  C1'_4 
REMARK    3  A    between atoms: C1'_4  and  C1_5 
ROOT
ATOM      1  C1  N4B d   1      -1.363  -0.720  -0.941  0.00  0.00    -0.075 A 
ATOM      2  C2  N4B d   1      -0.135  -0.882  -0.264  0.00  0.00     0.002 A 
ATOM      3  C3  N4B d   1      -0.067  -0.678   1.093  0.00  0.00     0.002 A 
ATOM      4  C4  N4B d   1      -1.205  -0.295   1.786  0.00  0.00    -0.004 A 
ATOM      5  C5  N4B d   1      -2.393  -0.165   1.129  0.00  0.00     0.002 A 
ATOM      6  C6  N4B d   1      -2.477  -0.371  -0.234  0.00  0.00     0.002 A 
ENDROOT
BRANCH   1   7
ATOM      7  C1' N4B d   1      -1.468  -0.848  -2.437  0.00  0.00     0.057 C 
BRANCH   7   8
ATOM      8  C2' N4B d   1      -2.480   0.169  -2.956  0.00  0.00     0.009 C 
BRANCH   8   9
ATOM      9  C3' N4B d   1      -2.305   0.437  -4.441  0.00  0.00     0.004 C 
ATOM     10  C4' N4B d   1      -3.434  -0.103  -5.267  0.00  0.00     0.003 C 
ENDBRANCH   8   9
ENDBRANCH   7   8
ENDBRANCH   1   7
TORSDOF 3
ENDMDL
