MODEL 1
REMARK minimizedAffinity 6.14242315
REMARK minimizedRMSD -1
REMARK  0 active torsions:
REMARK  status: ('A' for Active; 'I' for Inactive)
ROOT
ATOM      1  C   UNL d   1       1.175   2.638   0.744  0.00  0.00    -0.002 A 
ATOM      2  C1  UNL d   1       1.569   1.591   1.565  0.00  0.00     0.010 A 
ATOM      3  C2  UNL d   1       2.886   1.500   2.017  0.00  0.00     0.041 A 
ATOM      4  C3  UNL d   1       3.810   2.490   1.628  0.00  0.00    -0.075 A 
ATOM      5  S   UNL d   1       5.477   2.584   2.061  0.00  0.00     0.015 SA
ATOM      6  C4  UNL d   1       5.705   4.017   1.167  0.00  0.00     0.022 A 
ATOM      7  C5  UNL d   1       4.549   4.427   0.547  0.00  0.00     0.026 A 
ATOM      8  C6  UNL d   1       3.437   3.554   0.803  0.00  0.00    -0.082 A 
ATOM      9  C7  UNL d   1       2.094   3.618   0.360  0.00  0.00     0.045 A 
ENDROOT
TORSDOF 0
ENDMDL
