MODEL 1
REMARK minimizedAffinity 5.43385649
REMARK minimizedRMSD -1
REMARK  0 active torsions:
REMARK  status: ('A' for Active; 'I' for Inactive)
ROOT
ATOM      1  C   UNL d   1       3.206  -5.734  -5.999  0.00  0.00    -0.002 A 
ATOM      2  C1  UNL d   1       2.410  -5.795  -4.864  0.00  0.00     0.010 A 
ATOM      3  C2  UNL d   1       2.785  -5.124  -3.697  0.00  0.00     0.041 A 
ATOM      4  C3  UNL d   1       3.983  -4.383  -3.692  0.00  0.00    -0.075 A 
ATOM      5  S   UNL d   1       4.642  -3.482  -2.379  0.00  0.00     0.015 SA
ATOM      6  C4  UNL d   1       5.994  -2.994  -3.295  0.00  0.00     0.022 A 
ATOM      7  C5  UNL d   1       5.960  -3.498  -4.573  0.00  0.00     0.026 A 
ATOM      8  C6  UNL d   1       4.800  -4.307  -4.824  0.00  0.00    -0.082 A 
ATOM      9  C7  UNL d   1       4.393  -4.998  -5.990  0.00  0.00     0.045 A 
ENDROOT
TORSDOF 0
ENDMDL
