MODEL 1
REMARK minimizedAffinity 22.7604847
REMARK minimizedRMSD -1
REMARK  0 active torsions:
REMARK  status: ('A' for Active; 'I' for Inactive)
ROOT
ATOM      1  C   UNL d   1      -1.698  -4.057  -2.021  0.00  0.00    -0.002 A 
ATOM      2  C1  UNL d   1      -1.425  -5.086  -1.130  0.00  0.00     0.010 A 
ATOM      3  C2  UNL d   1      -1.285  -4.826   0.234  0.00  0.00     0.041 A 
ATOM      4  C3  UNL d   1      -1.427  -3.501   0.694  0.00  0.00    -0.075 A 
ATOM      5  S   UNL d   1      -1.299  -2.946   2.321  0.00  0.00     0.015 SA
ATOM      6  C4  UNL d   1      -1.604  -1.330   1.872  0.00  0.00     0.022 A 
ATOM      7  C5  UNL d   1      -1.801  -1.200   0.518  0.00  0.00     0.026 A 
ATOM      8  C6  UNL d   1      -1.703  -2.449  -0.184  0.00  0.00    -0.082 A 
ATOM      9  C7  UNL d   1      -1.838  -2.745  -1.562  0.00  0.00     0.045 A 
ENDROOT
TORSDOF 0
ENDMDL
