MODEL 1
REMARK minimizedAffinity 20.0824203
REMARK minimizedRMSD -1
REMARK  0 active torsions:
REMARK  status: ('A' for Active; 'I' for Inactive)
ROOT
ATOM      1  C   UNL d   1       5.243  -2.582  -3.569  0.00  0.00    -0.002 A 
ATOM      2  C1  UNL d   1       4.677  -3.058  -2.395  0.00  0.00     0.010 A 
ATOM      3  C2  UNL d   1       3.722  -4.075  -2.428  0.00  0.00     0.041 A 
ATOM      4  C3  UNL d   1       3.343  -4.614  -3.674  0.00  0.00    -0.075 A 
ATOM      5  S   UNL d   1       2.193  -5.866  -3.958  0.00  0.00     0.015 SA
ATOM      6  C4  UNL d   1       2.427  -5.801  -5.645  0.00  0.00     0.022 A 
ATOM      7  C5  UNL d   1       3.356  -4.851  -6.000  0.00  0.00     0.026 A 
ATOM      8  C6  UNL d   1       3.899  -4.152  -4.870  0.00  0.00    -0.082 A 
ATOM      9  C7  UNL d   1       4.865  -3.119  -4.803  0.00  0.00     0.045 A 
ENDROOT
TORSDOF 0
ENDMDL
