MODEL 1
REMARK minimizedAffinity 15.8463488
REMARK minimizedRMSD -1
REMARK  0 active torsions:
REMARK  status: ('A' for Active; 'I' for Inactive)
ROOT
ATOM      1  C   UNL d   1       4.653   5.594   2.559  0.00  0.00    -0.002 A 
ATOM      2  C1  UNL d   1       4.131   6.000   1.340  0.00  0.00     0.010 A 
ATOM      3  C2  UNL d   1       3.376   5.119   0.562  0.00  0.00     0.041 A 
ATOM      4  C3  UNL d   1       3.152   3.812   1.036  0.00  0.00    -0.075 A 
ATOM      5  S   UNL d   1       2.258   2.562   0.255  0.00  0.00     0.015 SA
ATOM      6  C4  UNL d   1       2.547   1.460   1.522  0.00  0.00     0.022 A 
ATOM      7  C5  UNL d   1       3.307   2.015   2.524  0.00  0.00     0.026 A 
ATOM      8  C6  UNL d   1       3.667   3.380   2.261  0.00  0.00    -0.082 A 
ATOM      9  C7  UNL d   1       4.429   4.296   3.026  0.00  0.00     0.045 A 
ENDROOT
TORSDOF 0
ENDMDL
