MODEL 1
REMARK minimizedAffinity 14.261939
REMARK minimizedRMSD -1
REMARK  0 active torsions:
REMARK  status: ('A' for Active; 'I' for Inactive)
ROOT
ATOM      1  C   UNL d   1      -1.129  -2.226   2.186  0.00  0.00    -0.002 A 
ATOM      2  C1  UNL d   1      -1.495  -3.252   3.045  0.00  0.00     0.010 A 
ATOM      3  C2  UNL d   1      -1.992  -4.456   2.542  0.00  0.00     0.041 A 
ATOM      4  C3  UNL d   1      -2.115  -4.613   1.147  0.00  0.00    -0.075 A 
ATOM      5  S   UNL d   1      -2.698  -5.999   0.304  0.00  0.00     0.015 SA
ATOM      6  C4  UNL d   1      -2.473  -5.262  -1.216  0.00  0.00     0.022 A 
ATOM      7  C5  UNL d   1      -1.967  -3.989  -1.102  0.00  0.00     0.026 A 
ATOM      8  C6  UNL d   1      -1.751  -3.594   0.262  0.00  0.00    -0.082 A 
ATOM      9  C7  UNL d   1      -1.251  -2.385   0.803  0.00  0.00     0.045 A 
ENDROOT
TORSDOF 0
ENDMDL
