MODEL 1
REMARK minimizedAffinity 12.5364656
REMARK minimizedRMSD -1
REMARK  0 active torsions:
REMARK  status: ('A' for Active; 'I' for Inactive)
ROOT
ATOM      1  C   UNL d   1       2.299  -5.607  -5.999  0.00  0.00    -0.002 A 
ATOM      2  C1  UNL d   1       3.472  -4.864  -6.000  0.00  0.00     0.010 A 
ATOM      3  C2  UNL d   1       4.080  -4.497  -4.798  0.00  0.00     0.041 A 
ATOM      4  C3  UNL d   1       3.486  -4.895  -3.584  0.00  0.00    -0.075 A 
ATOM      5  S   UNL d   1       4.054  -4.561  -1.991  0.00  0.00     0.015 SA
ATOM      6  C4  UNL d   1       2.755  -5.397  -1.272  0.00  0.00     0.022 A 
ATOM      7  C5  UNL d   1       1.899  -5.924  -2.210  0.00  0.00     0.026 A 
ATOM      8  C6  UNL d   1       2.306  -5.644  -3.558  0.00  0.00    -0.082 A 
ATOM      9  C7  UNL d   1       1.713  -5.999  -4.793  0.00  0.00     0.045 A 
ENDROOT
TORSDOF 0
ENDMDL
