MODEL 1
REMARK minimizedAffinity 12.9949493
REMARK minimizedRMSD -1
REMARK  0 active torsions:
REMARK  status: ('A' for Active; 'I' for Inactive)
ROOT
ATOM      1  C   UNL d   1      -5.979   5.897  -4.967  0.00  0.00    -0.002 A 
ATOM      2  C1  UNL d   1      -5.919   4.973  -6.000  0.00  0.00     0.010 A 
ATOM      3  C2  UNL d   1      -5.875   3.604  -5.726  0.00  0.00     0.041 A 
ATOM      4  C3  UNL d   1      -5.896   3.176  -4.384  0.00  0.00    -0.075 A 
ATOM      5  S   UNL d   1      -5.853   1.551  -3.810  0.00  0.00     0.015 SA
ATOM      6  C4  UNL d   1      -5.914   2.047  -2.180  0.00  0.00     0.022 A 
ATOM      7  C5  UNL d   1      -5.967   3.415  -2.059  0.00  0.00     0.026 A 
ATOM      8  C6  UNL d   1      -5.958   4.089  -3.327  0.00  0.00    -0.082 A 
ATOM      9  C7  UNL d   1      -6.000   5.469  -3.637  0.00  0.00     0.045 A 
ENDROOT
TORSDOF 0
ENDMDL
