MODEL 1
REMARK minimizedAffinity 17.757206
REMARK minimizedRMSD -1
REMARK  0 active torsions:
REMARK  status: ('A' for Active; 'I' for Inactive)
ROOT
ATOM      1  C   UNL d   1      -2.157  -5.228   1.556  0.00  0.00    -0.002 A 
ATOM      2  C1  UNL d   1      -3.509  -5.399   1.297  0.00  0.00     0.010 A 
ATOM      3  C2  UNL d   1      -4.061  -4.974   0.087  0.00  0.00     0.041 A 
ATOM      4  C3  UNL d   1      -3.221  -4.370  -0.869  0.00  0.00    -0.075 A 
ATOM      5  S   UNL d   1      -3.674  -3.773  -2.422  0.00  0.00     0.015 SA
ATOM      6  C4  UNL d   1      -2.083  -3.277  -2.779  0.00  0.00     0.022 A 
ATOM      7  C5  UNL d   1      -1.214  -3.553  -1.750  0.00  0.00     0.026 A 
ATOM      8  C6  UNL d   1      -1.855  -4.188  -0.633  0.00  0.00    -0.082 A 
ATOM      9  C7  UNL d   1      -1.327  -4.628   0.605  0.00  0.00     0.045 A 
ENDROOT
TORSDOF 0
ENDMDL
