MODEL 1
REMARK minimizedAffinity 15.1940775
REMARK minimizedRMSD -1
REMARK  0 active torsions:
REMARK  status: ('A' for Active; 'I' for Inactive)
ROOT
ATOM      1  C   UNL d   1      -2.227  -3.748   0.901  0.00  0.00    -0.002 A 
ATOM      2  C1  UNL d   1      -1.929  -3.751  -0.455  0.00  0.00     0.010 A 
ATOM      3  C2  UNL d   1      -0.610  -3.890  -0.891  0.00  0.00     0.041 A 
ATOM      4  C3  UNL d   1       0.414  -4.029   0.067  0.00  0.00    -0.075 A 
ATOM      5  S   UNL d   1       2.101  -4.213  -0.235  0.00  0.00     0.015 SA
ATOM      6  C4  UNL d   1       2.466  -4.293   1.428  0.00  0.00     0.022 A 
ATOM      7  C5  UNL d   1       1.339  -4.183   2.209  0.00  0.00     0.026 A 
ATOM      8  C6  UNL d   1       0.138  -4.029   1.437  0.00  0.00    -0.082 A 
ATOM      9  C7  UNL d   1      -1.209  -3.886   1.848  0.00  0.00     0.045 A 
ENDROOT
TORSDOF 0
ENDMDL
