MODEL 1
REMARK minimizedAffinity 7.18113804
REMARK minimizedRMSD -1
REMARK  0 active torsions:
REMARK  status: ('A' for Active; 'I' for Inactive)
ROOT
ATOM      1  C   UNL d   1       1.792  -1.806  -2.752  0.00  0.00    -0.002 A 
ATOM      2  C1  UNL d   1       1.251  -0.708  -3.406  0.00  0.00     0.010 A 
ATOM      3  C2  UNL d   1       1.197   0.537  -2.777  0.00  0.00     0.041 A 
ATOM      4  C3  UNL d   1       1.702   0.662  -1.468  0.00  0.00    -0.075 A 
ATOM      5  S   UNL d   1       1.743   2.089  -0.502  0.00  0.00     0.015 SA
ATOM      6  C4  UNL d   1       2.480   1.276   0.802  0.00  0.00     0.022 A 
ATOM      7  C5  UNL d   1       2.697  -0.053   0.523  0.00  0.00     0.026 A 
ATOM      8  C6  UNL d   1       2.253  -0.428  -0.790  0.00  0.00    -0.082 A 
ATOM      9  C7  UNL d   1       2.292  -1.678  -1.454  0.00  0.00     0.045 A 
ENDROOT
TORSDOF 0
ENDMDL
