MODEL 1
REMARK minimizedAffinity 6.54320335
REMARK minimizedRMSD -1
REMARK  0 active torsions:
REMARK  status: ('A' for Active; 'I' for Inactive)
ROOT
ATOM      1  C   UNL d   1       1.935  -1.189  -2.735  0.00  0.00    -0.002 A 
ATOM      2  C1  UNL d   1       1.583  -0.017  -3.389  0.00  0.00     0.010 A 
ATOM      3  C2  UNL d   1       1.659   1.213  -2.732  0.00  0.00     0.041 A 
ATOM      4  C3  UNL d   1       2.100   1.245  -1.394  0.00  0.00    -0.075 A 
ATOM      5  S   UNL d   1       2.274   2.635  -0.390  0.00  0.00     0.015 SA
ATOM      6  C4  UNL d   1       2.819   1.706   0.930  0.00  0.00     0.022 A 
ATOM      7  C5  UNL d   1       2.874   0.366   0.630  0.00  0.00     0.026 A 
ATOM      8  C6  UNL d   1       2.461   0.078  -0.715  0.00  0.00    -0.082 A 
ATOM      9  C7  UNL d   1       2.372  -1.153  -1.408  0.00  0.00     0.045 A 
ENDROOT
TORSDOF 0
ENDMDL
