MODEL 1
REMARK minimizedAffinity 12.1992359
REMARK minimizedRMSD -1
REMARK  2 active torsions:
REMARK  status: ('A' for Active; 'I' for Inactive)
REMARK    1  A    between atoms: C2'_3  and  C1'_4 
REMARK    2  A    between atoms: C1'_4  and  C1_5 
ROOT
ATOM      1  C1  I4B d   1       1.856   0.421   0.652  0.00  0.00    -0.075 A 
ATOM      2  C2  I4B d   1       2.429   1.664   0.550  0.00  0.00     0.003 A 
ATOM      3  C3  I4B d   1       3.536   1.871  -0.307  0.00  0.00     0.002 A 
ATOM      4  C4  I4B d   1       4.067   0.802  -1.001  0.00  0.00    -0.004 A 
ATOM      5  C5  I4B d   1       3.471  -0.453  -0.913  0.00  0.00     0.002 A 
ATOM      6  C6  I4B d   1       2.351  -0.642  -0.091  0.00  0.00     0.003 A 
ENDROOT
BRANCH   1   7
ATOM      7  C1' I4B d   1       0.708   0.231   1.592  0.00  0.00     0.060 C 
BRANCH   7   8
ATOM      8  C2' I4B d   1       1.266   0.142   2.998  0.00  0.00    -0.013 C 
ATOM      9  C4' I4B d   1       0.849   1.328   3.827  0.00  0.00     0.013 C 
ATOM     10  C3' I4B d   1       0.784  -1.141   3.607  0.00  0.00     0.013 C 
ENDBRANCH   7   8
ENDBRANCH   1   7
TORSDOF 2
ENDMDL
