MODEL 1
REMARK minimizedAffinity 18.6813812
REMARK minimizedRMSD -1
REMARK  2 active torsions:
REMARK  status: ('A' for Active; 'I' for Inactive)
REMARK    1  A    between atoms: C2'_3  and  C1'_4 
REMARK    2  A    between atoms: C1'_4  and  C1_5 
ROOT
ATOM      1  C1  I4B d   1      -5.892   4.301   3.290  0.00  0.00    -0.075 A 
ATOM      2  C2  I4B d   1      -5.767   5.612   3.678  0.00  0.00     0.003 A 
ATOM      3  C3  I4B d   1      -5.718   5.946   5.053  0.00  0.00     0.002 A 
ATOM      4  C4  I4B d   1      -5.848   4.950   6.000  0.00  0.00    -0.004 A 
ATOM      5  C5  I4B d   1      -5.952   3.620   5.604  0.00  0.00     0.002 A 
ATOM      6  C6  I4B d   1      -5.962   3.291   4.241  0.00  0.00     0.003 A 
ENDROOT
BRANCH   1   7
ATOM      7  C1' I4B d   1      -5.974   3.987   1.829  0.00  0.00     0.060 C 
BRANCH   7   8
ATOM      8  C2' I4B d   1      -4.760   3.158   1.462  0.00  0.00    -0.013 C 
ATOM      9  C4' I4B d   1      -5.150   1.948   0.654  0.00  0.00     0.013 C 
ATOM     10  C3' I4B d   1      -3.813   4.036   0.699  0.00  0.00     0.013 C 
ENDBRANCH   7   8
ENDBRANCH   1   7
TORSDOF 2
ENDMDL
