MODEL 1
REMARK minimizedAffinity 2.69632745
REMARK minimizedRMSD -1
REMARK  2 active torsions:
REMARK  status: ('A' for Active; 'I' for Inactive)
REMARK    1  A    between atoms: C2'_3  and  C1'_4 
REMARK    2  A    between atoms: C1'_4  and  C1_5 
ROOT
ATOM      1  C1  I4B d   1      -0.476  -2.999   5.712  0.00  0.00    -0.075 A 
ATOM      2  C2  I4B d   1      -1.589  -3.579   5.156  0.00  0.00     0.003 A 
ATOM      3  C3  I4B d   1      -1.594  -4.961   4.848  0.00  0.00     0.002 A 
ATOM      4  C4  I4B d   1      -0.456  -5.710   5.065  0.00  0.00    -0.004 A 
ATOM      5  C5  I4B d   1       0.664  -5.126   5.651  0.00  0.00     0.002 A 
ATOM      6  C6  I4B d   1       0.650  -3.765   5.988  0.00  0.00     0.003 A 
ENDROOT
BRANCH   1   7
ATOM      7  C1' I4B d   1      -0.493  -1.530   5.994  0.00  0.00     0.060 C 
BRANCH   7   8
ATOM      8  C2' I4B d   1       0.240  -0.830   4.868  0.00  0.00    -0.013 C 
ATOM      9  C4' I4B d   1       0.812   0.486   5.324  0.00  0.00     0.013 C 
ATOM     10  C3' I4B d   1       1.319  -1.748   4.376  0.00  0.00     0.013 C 
ENDBRANCH   7   8
ENDBRANCH   1   7
TORSDOF 2
ENDMDL
