MODEL 1
REMARK minimizedAffinity 0.814408183
REMARK minimizedRMSD -1
REMARK  2 active torsions:
REMARK  status: ('A' for Active; 'I' for Inactive)
REMARK    1  A    between atoms: C2'_3  and  C1'_4 
REMARK    2  A    between atoms: C1'_4  and  C1_5 
ROOT
ATOM      1  C1  I4B d   1       0.435  -3.310   5.214  0.00  0.00    -0.075 A 
ATOM      2  C2  I4B d   1       0.802  -4.379   5.994  0.00  0.00     0.003 A 
ATOM      3  C3  I4B d   1       0.050  -5.578   5.958  0.00  0.00     0.002 A 
ATOM      4  C4  I4B d   1      -1.082  -5.648   5.171  0.00  0.00    -0.004 A 
ATOM      5  C5  I4B d   1      -1.438  -4.571   4.364  0.00  0.00     0.002 A 
ATOM      6  C6  I4B d   1      -0.668  -3.399   4.376  0.00  0.00     0.003 A 
ENDROOT
BRANCH   1   7
ATOM      7  C1' I4B d   1       1.232  -2.047   5.301  0.00  0.00     0.060 C 
BRANCH   7   8
ATOM      8  C2' I4B d   1       0.599  -1.031   4.374  0.00  0.00    -0.013 C 
ATOM      9  C4' I4B d   1       0.776   0.370   4.898  0.00  0.00     0.013 C 
ATOM     10  C3' I4B d   1       1.226  -1.185   3.020  0.00  0.00     0.013 C 
ENDBRANCH   7   8
ENDBRANCH   1   7
TORSDOF 2
ENDMDL
