MODEL 1
REMARK minimizedAffinity -0.952450037
REMARK minimizedRMSD -1
REMARK  2 active torsions:
REMARK  status: ('A' for Active; 'I' for Inactive)
REMARK    1  A    between atoms: C2'_3  and  C1'_4 
REMARK    2  A    between atoms: C1'_4  and  C1_5 
ROOT
ATOM      1  C1  I4B d   1      -5.072   5.734   3.153  0.00  0.00    -0.075 A 
ATOM      2  C2  I4B d   1      -3.777   5.981   3.538  0.00  0.00     0.003 A 
ATOM      3  C3  I4B d   1      -3.380   5.769   4.880  0.00  0.00     0.002 A 
ATOM      4  C4  I4B d   1      -4.315   5.362   5.810  0.00  0.00    -0.004 A 
ATOM      5  C5  I4B d   1      -5.621   5.090   5.413  0.00  0.00     0.002 A 
ATOM      6  C6  I4B d   1      -6.000   5.265   4.074  0.00  0.00     0.003 A 
ENDROOT
BRANCH   1   7
ATOM      7  C1' I4B d   1      -5.465   5.999   1.735  0.00  0.00     0.060 C 
BRANCH   7   8
ATOM      8  C2' I4B d   1      -4.401   5.403   0.836  0.00  0.00    -0.013 C 
ATOM      9  C4' I4B d   1      -4.504   3.901   0.790  0.00  0.00     0.013 C 
ATOM     10  C3' I4B d   1      -4.563   5.999  -0.531  0.00  0.00     0.013 C 
ENDBRANCH   7   8
ENDBRANCH   1   7
TORSDOF 2
ENDMDL
