MODEL 1
REMARK minimizedAffinity 1.49746621
REMARK minimizedRMSD -1
REMARK  2 active torsions:
REMARK  status: ('A' for Active; 'I' for Inactive)
REMARK    1  A    between atoms: C2'_3  and  C1'_4 
REMARK    2  A    between atoms: C1'_4  and  C1_5 
ROOT
ATOM      1  C1  I4B d   1      -0.067  -3.260   5.071  0.00  0.00    -0.075 A 
ATOM      2  C2  I4B d   1      -1.150  -4.103   5.090  0.00  0.00     0.003 A 
ATOM      3  C3  I4B d   1      -1.018  -5.423   5.584  0.00  0.00     0.002 A 
ATOM      4  C4  I4B d   1       0.219  -5.873   5.999  0.00  0.00    -0.004 A 
ATOM      5  C5  I4B d   1       1.311  -5.010   6.000  0.00  0.00     0.002 A 
ATOM      6  C6  I4B d   1       1.165  -3.692   5.545  0.00  0.00     0.003 A 
ENDROOT
BRANCH   1   7
ATOM      7  C1' I4B d   1      -0.235  -1.883   4.512  0.00  0.00     0.060 C 
BRANCH   7   8
ATOM      8  C2' I4B d   1       1.144  -1.327   4.219  0.00  0.00    -0.013 C 
ATOM      9  C4' I4B d   1       1.537  -1.570   2.786  0.00  0.00     0.013 C 
ATOM     10  C3' I4B d   1       1.129   0.139   4.536  0.00  0.00     0.013 C 
ENDBRANCH   7   8
ENDBRANCH   1   7
TORSDOF 2
ENDMDL
