MODEL 1
REMARK minimizedAffinity 9.11251545
REMARK minimizedRMSD -1
REMARK  2 active torsions:
REMARK  status: ('A' for Active; 'I' for Inactive)
REMARK    1  A    between atoms: C2'_3  and  C1'_4 
REMARK    2  A    between atoms: C1'_4  and  C1_5 
ROOT
ATOM      1  C1  I4B d   1       0.470  -3.020   5.438  0.00  0.00    -0.075 A 
ATOM      2  C2  I4B d   1      -0.767  -2.988   4.845  0.00  0.00     0.003 A 
ATOM      3  C3  I4B d   1      -1.562  -4.159   4.792  0.00  0.00     0.002 A 
ATOM      4  C4  I4B d   1      -1.063  -5.343   5.294  0.00  0.00    -0.004 A 
ATOM      5  C5  I4B d   1       0.182  -5.368   5.916  0.00  0.00     0.002 A 
ATOM      6  C6  I4B d   1       0.949  -4.197   5.999  0.00  0.00     0.003 A 
ENDROOT
BRANCH   1   7
ATOM      7  C1' I4B d   1       1.297  -1.773   5.448  0.00  0.00     0.060 C 
BRANCH   7   8
ATOM      8  C2' I4B d   1       0.508  -0.685   4.749  0.00  0.00    -0.013 C 
ATOM      9  C4' I4B d   1       0.400   0.548   5.608  0.00  0.00     0.013 C 
ATOM     10  C3' I4B d   1       1.191  -0.381   3.449  0.00  0.00     0.013 C 
ENDBRANCH   7   8
ENDBRANCH   1   7
TORSDOF 2
ENDMDL
