MODEL 1
REMARK minimizedAffinity 7.09480572
REMARK minimizedRMSD -1
REMARK  2 active torsions:
REMARK  status: ('A' for Active; 'I' for Inactive)
REMARK    1  A    between atoms: C2'_3  and  C1'_4 
REMARK    2  A    between atoms: C1'_4  and  C1_5 
ROOT
ATOM      1  C1  I4B d   1      -4.588   5.732   2.656  0.00  0.00    -0.075 A 
ATOM      2  C2  I4B d   1      -3.477   5.976   3.424  0.00  0.00     0.003 A 
ATOM      3  C3  I4B d   1      -2.183   5.724   2.906  0.00  0.00     0.002 A 
ATOM      4  C4  I4B d   1      -2.050   5.185   1.643  0.00  0.00    -0.004 A 
ATOM      5  C5  I4B d   1      -3.177   4.960   0.857  0.00  0.00     0.002 A 
ATOM      6  C6  I4B d   1      -4.454   5.247   1.362  0.00  0.00     0.003 A 
ENDROOT
BRANCH   1   7
ATOM      7  C1' I4B d   1      -5.940   5.979   3.246  0.00  0.00     0.060 C 
BRANCH   7   8
ATOM      8  C2' I4B d   1      -6.000   5.276   4.587  0.00  0.00    -0.013 C 
ATOM      9  C4' I4B d   1      -5.690   3.809   4.448  0.00  0.00     0.013 C 
ATOM     10  C3' I4B d   1      -5.025   5.950   5.507  0.00  0.00     0.013 C 
ENDBRANCH   7   8
ENDBRANCH   1   7
TORSDOF 2
ENDMDL
