MODEL 1
REMARK minimizedAffinity 5.00535631
REMARK minimizedRMSD -1
REMARK  2 active torsions:
REMARK  status: ('A' for Active; 'I' for Inactive)
REMARK    1  A    between atoms: C2'_3  and  C1'_4 
REMARK    2  A    between atoms: C1'_4  and  C1_5 
ROOT
ATOM      1  C1  I4B d   1      -4.806   0.766  -3.006  0.00  0.00    -0.075 A 
ATOM      2  C2  I4B d   1      -4.483  -0.334  -2.252  0.00  0.00     0.003 A 
ATOM      3  C3  I4B d   1      -4.931  -0.438  -0.913  0.00  0.00     0.002 A 
ATOM      4  C4  I4B d   1      -5.653   0.598  -0.356  0.00  0.00    -0.004 A 
ATOM      5  C5  I4B d   1      -5.999   1.703  -1.129  0.00  0.00     0.002 A 
ATOM      6  C6  I4B d   1      -5.584   1.782  -2.466  0.00  0.00     0.003 A 
ENDROOT
BRANCH   1   7
ATOM      7  C1' I4B d   1      -4.288   0.859  -4.406  0.00  0.00     0.060 C 
BRANCH   7   8
ATOM      8  C2' I4B d   1      -2.940   1.549  -4.361  0.00  0.00    -0.013 C 
ATOM      9  C4' I4B d   1      -3.031   2.876  -3.655  0.00  0.00     0.013 C 
ATOM     10  C3' I4B d   1      -1.974   0.634  -3.670  0.00  0.00     0.013 C 
ENDBRANCH   7   8
ENDBRANCH   1   7
TORSDOF 2
ENDMDL
