MODEL 1
REMARK minimizedAffinity -3.67548633
REMARK minimizedRMSD -1
REMARK  1 active torsions:
REMARK  status: ('A' for Active; 'I' for Inactive)
REMARK    1  A    between atoms: N_2  and  C1_3 
ROOT
ATOM      1  C1  UNL d   1      -0.222  -1.378   0.218  0.00  0.00     0.143 A 
ATOM      2  C2  UNL d   1      -0.637  -2.595   0.770  0.00  0.00    -0.057 A 
ATOM      3  C3  UNL d   1      -0.736  -3.751  -0.014  0.00  0.00     0.033 A 
ATOM      4  C4  UNL d   1      -0.450  -3.703  -1.374  0.00  0.00    -0.042 A 
ATOM      5  C5  UNL d   1      -0.059  -2.499  -1.949  0.00  0.00     0.033 A 
ATOM      6  C6  UNL d   1       0.045  -1.349  -1.160  0.00  0.00    -0.057 A 
ENDROOT
BRANCH   1   7
ATOM      7  N   UNL d   1      -0.198  -0.173   0.924  0.00  0.00    -0.732 N 
ATOM      8  C   UNL d   1       0.052   1.077   0.239  0.00  0.00     0.284 C 
ATOM      9  H3  UNL d   1      -0.928  -0.121   1.630  0.00  0.00     0.395 HD
ENDBRANCH   1   7
TORSDOF 1
ENDMDL
