MODEL 1
REMARK minimizedAffinity -2.90518975
REMARK minimizedRMSD -1
REMARK  1 active torsions:
REMARK  status: ('A' for Active; 'I' for Inactive)
REMARK    1  A    between atoms: N_2  and  C1_3 
ROOT
ATOM      1  C1  UNL d   1       0.073  -1.463   0.249  0.00  0.00     0.143 A 
ATOM      2  C2  UNL d   1       0.654  -0.852  -0.868  0.00  0.00    -0.057 A 
ATOM      3  C3  UNL d   1       0.561   0.530  -1.070  0.00  0.00     0.033 A 
ATOM      4  C4  UNL d   1      -0.142   1.325  -0.170  0.00  0.00    -0.042 A 
ATOM      5  C5  UNL d   1      -0.749   0.736   0.934  0.00  0.00     0.033 A 
ATOM      6  C6  UNL d   1      -0.647  -0.644   1.133  0.00  0.00    -0.057 A 
ENDROOT
BRANCH   1   7
ATOM      7  N   UNL d   1       0.046  -2.845   0.454  0.00  0.00    -0.732 N 
ATOM      8  C   UNL d   1      -1.200  -3.577   0.379  0.00  0.00     0.284 C 
ATOM      9  H3  UNL d   1       0.833  -3.317   0.016  0.00  0.00     0.395 HD
ENDBRANCH   1   7
TORSDOF 1
ENDMDL
