MODEL 1
REMARK minimizedAffinity -5.41546965
REMARK minimizedRMSD -1
REMARK  1 active torsions:
REMARK  status: ('A' for Active; 'I' for Inactive)
REMARK    1  A    between atoms: N_2  and  C1_3 
ROOT
ATOM      1  C1  UNL d   1       0.025  -0.674  -0.126  0.00  0.00     0.143 A 
ATOM      2  C2  UNL d   1      -0.247  -1.344   1.071  0.00  0.00    -0.057 A 
ATOM      3  C3  UNL d   1      -0.199  -2.741   1.148  0.00  0.00     0.033 A 
ATOM      4  C4  UNL d   1       0.095  -3.496   0.018  0.00  0.00    -0.042 A 
ATOM      5  C5  UNL d   1       0.344  -2.852  -1.189  0.00  0.00     0.033 A 
ATOM      6  C6  UNL d   1       0.301  -1.457  -1.258  0.00  0.00    -0.057 A 
ENDROOT
BRANCH   1   7
ATOM      7  N   UNL d   1      -0.103   0.708  -0.290  0.00  0.00    -0.732 N 
ATOM      8  C   UNL d   1       1.043   1.578  -0.138  0.00  0.00     0.284 C 
ATOM      9  H3  UNL d   1      -0.709   0.952  -1.071  0.00  0.00     0.395 HD
ENDBRANCH   1   7
TORSDOF 1
ENDMDL
