MODEL 1
REMARK minimizedAffinity -5.52019787
REMARK minimizedRMSD -1
REMARK  1 active torsions:
REMARK  status: ('A' for Active; 'I' for Inactive)
REMARK    1  A    between atoms: N_2  and  C1_3 
ROOT
ATOM      1  C1  UNL d   1       0.168  -0.863  -0.619  0.00  0.00     0.143 A 
ATOM      2  C2  UNL d   1      -0.151  -1.489   0.591  0.00  0.00    -0.057 A 
ATOM      3  C3  UNL d   1      -0.382  -2.869   0.655  0.00  0.00     0.033 A 
ATOM      4  C4  UNL d   1      -0.327  -3.644  -0.499  0.00  0.00    -0.042 A 
ATOM      5  C5  UNL d   1      -0.037  -3.038  -1.716  0.00  0.00     0.033 A 
ATOM      6  C6  UNL d   1       0.200  -1.661  -1.773  0.00  0.00    -0.057 A 
ENDROOT
BRANCH   1   7
ATOM      7  N   UNL d   1       0.311   0.519  -0.764  0.00  0.00    -0.732 N 
ATOM      8  C   UNL d   1       0.081   1.407   0.355  0.00  0.00     0.284 C 
ATOM      9  H3  UNL d   1       1.118   0.768  -1.333  0.00  0.00     0.395 HD
ENDBRANCH   1   7
TORSDOF 1
ENDMDL
