MODEL 1
REMARK minimizedAffinity -4.04995441
REMARK minimizedRMSD -1
REMARK  1 active torsions:
REMARK  status: ('A' for Active; 'I' for Inactive)
REMARK    1  A    between atoms: N_2  and  C1_3 
ROOT
ATOM      1  C1  UNL d   1       0.336  -0.396  -0.754  0.00  0.00     0.143 A 
ATOM      2  C2  UNL d   1      -0.130  -1.257   0.245  0.00  0.00    -0.057 A 
ATOM      3  C3  UNL d   1      -0.334  -2.619  -0.008  0.00  0.00     0.033 A 
ATOM      4  C4  UNL d   1      -0.102  -3.139  -1.277  0.00  0.00    -0.042 A 
ATOM      5  C5  UNL d   1       0.337  -2.297  -2.292  0.00  0.00     0.033 A 
ATOM      6  C6  UNL d   1       0.545  -0.939  -2.032  0.00  0.00    -0.057 A 
ENDROOT
BRANCH   1   7
ATOM      7  N   UNL d   1       0.465   0.986  -0.592  0.00  0.00    -0.732 N 
ATOM      8  C   UNL d   1       1.609   1.544   0.095  0.00  0.00     0.284 C 
ATOM      9  H3  UNL d   1       0.187   1.502  -1.424  0.00  0.00     0.395 HD
ENDBRANCH   1   7
TORSDOF 1
ENDMDL
