MODEL 1
REMARK minimizedAffinity -4.19550562
REMARK minimizedRMSD -1
REMARK  1 active torsions:
REMARK  status: ('A' for Active; 'I' for Inactive)
REMARK    1  A    between atoms: N_2  and  C1_3 
ROOT
ATOM      1  C1  UNL d   1      -0.132  -0.802  -0.726  0.00  0.00     0.143 A 
ATOM      2  C2  UNL d   1      -0.530  -1.289   0.523  0.00  0.00    -0.057 A 
ATOM      3  C3  UNL d   1      -0.678  -2.663   0.753  0.00  0.00     0.033 A 
ATOM      4  C4  UNL d   1      -0.458  -3.573  -0.275  0.00  0.00    -0.042 A 
ATOM      5  C5  UNL d   1      -0.086  -3.110  -1.532  0.00  0.00     0.033 A 
ATOM      6  C6  UNL d   1       0.067  -1.738  -1.753  0.00  0.00    -0.057 A 
ENDROOT
BRANCH   1   7
ATOM      7  N   UNL d   1      -0.062   0.557  -1.045  0.00  0.00    -0.732 N 
ATOM      8  C   UNL d   1       0.247   1.538  -0.027  0.00  0.00     0.284 C 
ATOM      9  H3  UNL d   1       0.399   0.724  -1.937  0.00  0.00     0.395 HD
ENDBRANCH   1   7
TORSDOF 1
ENDMDL
