MODEL 1
REMARK minimizedAffinity -1.88519907
REMARK minimizedRMSD -1
REMARK  1 active torsions:
REMARK  status: ('A' for Active; 'I' for Inactive)
REMARK    1  A    between atoms: N_2  and  C1_3 
ROOT
ATOM      1  C1  UNL d   1       0.211   0.641   0.107  0.00  0.00     0.143 A 
ATOM      2  C2  UNL d   1      -0.629   0.507   1.218  0.00  0.00    -0.057 A 
ATOM      3  C3  UNL d   1      -1.062  -0.751   1.653  0.00  0.00     0.033 A 
ATOM      4  C4  UNL d   1      -0.685  -1.900   0.965  0.00  0.00    -0.042 A 
ATOM      5  C5  UNL d   1       0.129  -1.789  -0.157  0.00  0.00     0.033 A 
ATOM      6  C6  UNL d   1       0.564  -0.530  -0.582  0.00  0.00    -0.057 A 
ENDROOT
BRANCH   1   7
ATOM      7  N   UNL d   1       0.597   1.870  -0.434  0.00  0.00    -0.732 N 
ATOM      8  C   UNL d   1       1.141   2.910   0.413  0.00  0.00     0.284 C 
ATOM      9  H3  UNL d   1       1.073   1.769  -1.327  0.00  0.00     0.395 HD
ENDBRANCH   1   7
TORSDOF 1
ENDMDL
