MODEL 1
REMARK minimizedAffinity -3.74145889
REMARK minimizedRMSD -1
REMARK  1 active torsions:
REMARK  status: ('A' for Active; 'I' for Inactive)
REMARK    1  A    between atoms: N_2  and  C1_3 
ROOT
ATOM      1  C1  UNL d   1       0.156   0.436   0.408  0.00  0.00     0.143 A 
ATOM      2  C2  UNL d   1       1.402   0.583   1.027  0.00  0.00    -0.057 A 
ATOM      3  C3  UNL d   1       2.068   1.815   1.034  0.00  0.00     0.033 A 
ATOM      4  C4  UNL d   1       1.511   2.918   0.395  0.00  0.00    -0.042 A 
ATOM      5  C5  UNL d   1       0.285   2.788  -0.248  0.00  0.00     0.033 A 
ATOM      6  C6  UNL d   1      -0.379   1.557  -0.246  0.00  0.00    -0.057 A 
ENDROOT
BRANCH   1   7
ATOM      7  N   UNL d   1      -0.511  -0.785   0.282  0.00  0.00    -0.732 N 
ATOM      8  C   UNL d   1      -0.576  -1.708   1.395  0.00  0.00     0.284 C 
ATOM      9  H3  UNL d   1      -1.380  -0.701  -0.240  0.00  0.00     0.395 HD
ENDBRANCH   1   7
TORSDOF 1
ENDMDL
