MODEL 1
REMARK minimizedAffinity -5.45279264
REMARK minimizedRMSD -1
REMARK  1 active torsions:
REMARK  status: ('A' for Active; 'I' for Inactive)
REMARK    1  A    between atoms: N_2  and  C1_3 
ROOT
ATOM      1  C1  UNL d   1       0.305  -1.078  -0.125  0.00  0.00     0.143 A 
ATOM      2  C2  UNL d   1       0.294  -1.708  -1.374  0.00  0.00    -0.057 A 
ATOM      3  C3  UNL d   1      -0.073  -3.052  -1.506  0.00  0.00     0.033 A 
ATOM      4  C4  UNL d   1      -0.408  -3.801  -0.383  0.00  0.00    -0.042 A 
ATOM      5  C5  UNL d   1      -0.379  -3.203   0.872  0.00  0.00     0.033 A 
ATOM      6  C6  UNL d   1      -0.019  -1.858   0.996  0.00  0.00    -0.057 A 
ENDROOT
BRANCH   1   7
ATOM      7  N   UNL d   1       0.755   0.229   0.083  0.00  0.00    -0.732 N 
ATOM      8  C   UNL d   1      -0.010   1.358  -0.402  0.00  0.00     0.284 C 
ATOM      9  H3  UNL d   1       1.147   0.361   1.012  0.00  0.00     0.395 HD
ENDBRANCH   1   7
TORSDOF 1
ENDMDL
