MODEL 1
REMARK minimizedAffinity -4.05764198
REMARK minimizedRMSD -1
REMARK  1 active torsions:
REMARK  status: ('A' for Active; 'I' for Inactive)
REMARK    1  A    between atoms: N_2  and  C1_3 
ROOT
ATOM      1  C1  UNL d   1       0.039   0.329   0.494  0.00  0.00     0.143 A 
ATOM      2  C2  UNL d   1      -0.702  -0.065   1.614  0.00  0.00    -0.057 A 
ATOM      3  C3  UNL d   1      -0.978  -1.415   1.864  0.00  0.00     0.033 A 
ATOM      4  C4  UNL d   1      -0.541  -2.395   0.979  0.00  0.00    -0.042 A 
ATOM      5  C5  UNL d   1       0.176  -2.025  -0.153  0.00  0.00     0.033 A 
ATOM      6  C6  UNL d   1       0.454  -0.676  -0.393  0.00  0.00    -0.057 A 
ENDROOT
BRANCH   1   7
ATOM      7  N   UNL d   1       0.262   1.661   0.139  0.00  0.00    -0.732 N 
ATOM      8  C   UNL d   1       1.474   2.340   0.544  0.00  0.00     0.284 C 
ATOM      9  H3  UNL d   1      -0.028   1.862  -0.816  0.00  0.00     0.395 HD
ENDBRANCH   1   7
TORSDOF 1
ENDMDL
