MODEL 1
REMARK minimizedAffinity -5.67146921
REMARK minimizedRMSD -1
REMARK  1 active torsions:
REMARK  status: ('A' for Active; 'I' for Inactive)
REMARK    1  A    between atoms: N_2  and  C1_3 
ROOT
ATOM      1  C1  UNL d   1       0.156  -0.600  -0.801  0.00  0.00     0.143 A 
ATOM      2  C2  UNL d   1      -0.510  -1.080   0.332  0.00  0.00    -0.057 A 
ATOM      3  C3  UNL d   1      -0.667  -2.454   0.555  0.00  0.00     0.033 A 
ATOM      4  C4  UNL d   1      -0.184  -3.374  -0.370  0.00  0.00    -0.042 A 
ATOM      5  C5  UNL d   1       0.459  -2.919  -1.515  0.00  0.00     0.033 A 
ATOM      6  C6  UNL d   1       0.619  -1.547  -1.728  0.00  0.00    -0.057 A 
ENDROOT
BRANCH   1   7
ATOM      7  N   UNL d   1       0.259   0.754  -1.128  0.00  0.00    -0.732 N 
ATOM      8  C   UNL d   1       0.856   1.693  -0.202  0.00  0.00     0.284 C 
ATOM      9  H3  UNL d   1       0.526   0.900  -2.098  0.00  0.00     0.395 HD
ENDBRANCH   1   7
TORSDOF 1
ENDMDL
