MODEL 1
REMARK minimizedAffinity -4.68227768
REMARK minimizedRMSD -1
REMARK  1 active torsions:
REMARK  status: ('A' for Active; 'I' for Inactive)
REMARK    1  A    between atoms: N_2  and  C1_3 
ROOT
ATOM      1  C1  UNL d   1      -0.030  -2.066  -0.597  0.00  0.00     0.143 A 
ATOM      2  C2  UNL d   1       0.073  -0.671  -0.606  0.00  0.00    -0.057 A 
ATOM      3  C3  UNL d   1      -0.485   0.105   0.417  0.00  0.00     0.033 A 
ATOM      4  C4  UNL d   1      -1.185  -0.502   1.455  0.00  0.00    -0.042 A 
ATOM      5  C5  UNL d   1      -1.322  -1.885   1.471  0.00  0.00     0.033 A 
ATOM      6  C6  UNL d   1      -0.756  -2.655   0.450  0.00  0.00    -0.057 A 
ENDROOT
BRANCH   1   7
ATOM      7  N   UNL d   1       0.419  -2.885  -1.636  0.00  0.00    -0.732 N 
ATOM      8  C   UNL d   1       0.372  -2.428  -3.008  0.00  0.00     0.284 C 
ATOM      9  H3  UNL d   1       1.269  -3.388  -1.394  0.00  0.00     0.395 HD
ENDBRANCH   1   7
TORSDOF 1
ENDMDL
