MODEL 1
REMARK minimizedAffinity 11.2849407
REMARK minimizedRMSD -1
REMARK  0 active torsions:
REMARK  status: ('A' for Active; 'I' for Inactive)
ROOT
ATOM      1  C   UNL d   1       1.543  -0.042   1.234  0.00  0.00    -0.002 A 
ATOM      2  C1  UNL d   1       1.405  -0.865   0.125  0.00  0.00     0.010 A 
ATOM      3  C2  UNL d   1       1.217  -0.319  -1.146  0.00  0.00     0.041 A 
ATOM      4  C3  UNL d   1       1.171   1.082  -1.285  0.00  0.00    -0.075 A 
ATOM      5  S   UNL d   1       0.950   1.974  -2.744  0.00  0.00     0.015 SA
ATOM      6  C4  UNL d   1       1.035   3.469  -1.930  0.00  0.00     0.022 A 
ATOM      7  C5  UNL d   1       1.226   3.310  -0.578  0.00  0.00     0.026 A 
ATOM      8  C6  UNL d   1       1.308   1.931  -0.184  0.00  0.00    -0.082 A 
ATOM      9  C7  UNL d   1       1.497   1.347   1.091  0.00  0.00     0.045 A 
ENDROOT
TORSDOF 0
ENDMDL
