MODEL 1
REMARK minimizedAffinity 9.84686375
REMARK minimizedRMSD -1
REMARK  0 active torsions:
REMARK  status: ('A' for Active; 'I' for Inactive)
ROOT
ATOM      1  C   UNL d   1       0.598   3.976  -0.866  0.00  0.00    -0.002 A 
ATOM      2  C1  UNL d   1       0.884   3.738   0.471  0.00  0.00     0.010 A 
ATOM      3  C2  UNL d   1       1.360   2.492   0.885  0.00  0.00     0.041 A 
ATOM      4  C3  UNL d   1       1.549   1.481  -0.077  0.00  0.00    -0.075 A 
ATOM      5  S   UNL d   1       2.123  -0.121   0.198  0.00  0.00     0.015 SA
ATOM      6  C4  UNL d   1       2.004  -0.528  -1.453  0.00  0.00     0.022 A 
ATOM      7  C5  UNL d   1       1.539   0.522  -2.210  0.00  0.00     0.026 A 
ATOM      8  C6  UNL d   1       1.269   1.696  -1.430  0.00  0.00    -0.082 A 
ATOM      9  C7  UNL d   1       0.786   2.970  -1.818  0.00  0.00     0.045 A 
ENDROOT
TORSDOF 0
ENDMDL
