MODEL 1
REMARK minimizedAffinity 1.42979634
REMARK minimizedRMSD -1
REMARK  0 active torsions:
REMARK  status: ('A' for Active; 'I' for Inactive)
ROOT
ATOM      1  C   UNL d   1       0.871   3.778  -0.602  0.00  0.00    -0.002 A 
ATOM      2  C1  UNL d   1       1.243   3.468  -1.903  0.00  0.00     0.010 A 
ATOM      3  C2  UNL d   1       1.520   2.149  -2.267  0.00  0.00     0.041 A 
ATOM      4  C3  UNL d   1       1.414   1.136  -1.293  0.00  0.00    -0.075 A 
ATOM      5  S   UNL d   1       1.704  -0.549  -1.511  0.00  0.00     0.015 SA
ATOM      6  C4  UNL d   1       1.339  -0.898   0.117  0.00  0.00     0.022 A 
ATOM      7  C5  UNL d   1       1.003   0.232   0.824  0.00  0.00     0.026 A 
ATOM      8  C6  UNL d   1       1.040   1.423   0.022  0.00  0.00    -0.082 A 
ATOM      9  C7  UNL d   1       0.766   2.771   0.361  0.00  0.00     0.045 A 
ENDROOT
TORSDOF 0
ENDMDL
