MODEL 1
REMARK minimizedAffinity 3.48157692
REMARK minimizedRMSD -1
REMARK  0 active torsions:
REMARK  status: ('A' for Active; 'I' for Inactive)
ROOT
ATOM      1  C   UNL d   1       1.167  -0.977  -1.378  0.00  0.00    -0.002 A 
ATOM      2  C1  UNL d   1       1.250  -0.875   0.003  0.00  0.00     0.010 A 
ATOM      3  C2  UNL d   1       1.256   0.376   0.623  0.00  0.00     0.041 A 
ATOM      4  C3  UNL d   1       1.175   1.533  -0.176  0.00  0.00    -0.075 A 
ATOM      5  S   UNL d   1       1.165   3.171   0.364  0.00  0.00     0.015 SA
ATOM      6  C4  UNL d   1       1.049   3.773  -1.226  0.00  0.00     0.022 A 
ATOM      7  C5  UNL d   1       1.018   2.763  -2.159  0.00  0.00     0.026 A 
ATOM      8  C6  UNL d   1       1.089   1.456  -1.569  0.00  0.00    -0.082 A 
ATOM      9  C7  UNL d   1       1.087   0.173  -2.168  0.00  0.00     0.045 A 
ENDROOT
TORSDOF 0
ENDMDL
