MODEL 1
REMARK minimizedAffinity -0.710934401
REMARK minimizedRMSD -1
REMARK  0 active torsions:
REMARK  status: ('A' for Active; 'I' for Inactive)
ROOT
ATOM      1  C   UNL d   1       0.705   3.157   0.065  0.00  0.00    -0.002 A 
ATOM      2  C1  UNL d   1       0.850   3.295  -1.308  0.00  0.00     0.010 A 
ATOM      3  C2  UNL d   1       1.107   2.182  -2.110  0.00  0.00     0.041 A 
ATOM      4  C3  UNL d   1       1.217   0.915  -1.504  0.00  0.00    -0.075 A 
ATOM      5  S   UNL d   1       1.528  -0.589  -2.287  0.00  0.00     0.015 SA
ATOM      6  C4  UNL d   1       1.475  -1.451  -0.817  0.00  0.00     0.022 A 
ATOM      7  C5  UNL d   1       1.228  -0.626   0.255  0.00  0.00     0.026 A 
ATOM      8  C6  UNL d   1       1.074   0.750  -0.123  0.00  0.00    -0.082 A 
ATOM      9  C7  UNL d   1       0.814   1.898   0.663  0.00  0.00     0.045 A 
ENDROOT
TORSDOF 0
ENDMDL
