MODEL 1
REMARK minimizedAffinity 9.22819614
REMARK minimizedRMSD -1
REMARK  0 active torsions:
REMARK  status: ('A' for Active; 'I' for Inactive)
ROOT
ATOM      1  C   UNL d   1      -0.132   3.425  -2.679  0.00  0.00    -0.002 A 
ATOM      2  C1  UNL d   1       0.464   3.970  -1.551  0.00  0.00     0.010 A 
ATOM      3  C2  UNL d   1       1.169   3.160  -0.659  0.00  0.00     0.041 A 
ATOM      4  C3  UNL d   1       1.269   1.780  -0.924  0.00  0.00    -0.075 A 
ATOM      5  S   UNL d   1       2.084   0.595   0.026  0.00  0.00     0.015 SA
ATOM      6  C4  UNL d   1       1.661  -0.662  -1.044  0.00  0.00     0.022 A 
ATOM      7  C5  UNL d   1       0.916  -0.207  -2.106  0.00  0.00     0.026 A 
ATOM      8  C6  UNL d   1       0.678   1.208  -2.055  0.00  0.00    -0.082 A 
ATOM      9  C7  UNL d   1      -0.032   2.056  -2.939  0.00  0.00     0.045 A 
ENDROOT
TORSDOF 0
ENDMDL
