MODEL 1
REMARK minimizedAffinity 1.84556246
REMARK minimizedRMSD -1
REMARK  0 active torsions:
REMARK  status: ('A' for Active; 'I' for Inactive)
ROOT
ATOM      1  C   UNL d   1      -1.171   1.896   5.505  0.00  0.00    -0.002 A 
ATOM      2  C1  UNL d   1      -2.090   2.811   6.000  0.00  0.00     0.010 A 
ATOM      3  C2  UNL d   1      -3.347   2.946   5.408  0.00  0.00     0.041 A 
ATOM      4  C3  UNL d   1      -3.670   2.137   4.301  0.00  0.00    -0.075 A 
ATOM      5  S   UNL d   1      -5.149   2.128   3.416  0.00  0.00     0.015 SA
ATOM      6  C4  UNL d   1      -4.597   0.908   2.361  0.00  0.00     0.022 A 
ATOM      7  C5  UNL d   1      -3.318   0.506   2.662  0.00  0.00     0.026 A 
ATOM      8  C6  UNL d   1      -2.762   1.207   3.786  0.00  0.00    -0.082 A 
ATOM      9  C7  UNL d   1      -1.495   1.095   4.407  0.00  0.00     0.045 A 
ENDROOT
TORSDOF 0
ENDMDL
