MODEL 1
REMARK minimizedAffinity -1.70192432
REMARK minimizedRMSD -1
REMARK  0 active torsions:
REMARK  status: ('A' for Active; 'I' for Inactive)
ROOT
ATOM      1  C   UNL d   1       0.995   2.062   1.288  0.00  0.00    -0.002 A 
ATOM      2  C1  UNL d   1       1.216   0.694   1.348  0.00  0.00     0.010 A 
ATOM      3  C2  UNL d   1       1.321  -0.060   0.177  0.00  0.00     0.041 A 
ATOM      4  C3  UNL d   1       1.200   0.591  -1.066  0.00  0.00    -0.075 A 
ATOM      5  S   UNL d   1       1.295  -0.128  -2.630  0.00  0.00     0.015 SA
ATOM      6  C4  UNL d   1       1.045   1.364  -3.414  0.00  0.00     0.022 A 
ATOM      7  C5  UNL d   1       0.891   2.397  -2.519  0.00  0.00     0.026 A 
ATOM      8  C6  UNL d   1       0.978   1.968  -1.151  0.00  0.00    -0.082 A 
ATOM      9  C7  UNL d   1       0.876   2.705   0.053  0.00  0.00     0.045 A 
ENDROOT
TORSDOF 0
ENDMDL
