MODEL 1
REMARK minimizedAffinity -1.16826034
REMARK minimizedRMSD -1
REMARK  0 active torsions:
REMARK  status: ('A' for Active; 'I' for Inactive)
ROOT
ATOM      1  C   UNL d   1       0.898  -0.187  -1.503  0.00  0.00    -0.002 A 
ATOM      2  C1  UNL d   1       0.821  -0.398  -0.133  0.00  0.00     0.010 A 
ATOM      3  C2  UNL d   1       0.929   0.672   0.757  0.00  0.00     0.041 A 
ATOM      4  C3  UNL d   1       1.115   1.970   0.243  0.00  0.00    -0.075 A 
ATOM      5  S   UNL d   1       1.273   3.432   1.144  0.00  0.00     0.015 SA
ATOM      6  C4  UNL d   1       1.444   4.371  -0.268  0.00  0.00     0.022 A 
ATOM      7  C5  UNL d   1       1.386   3.604  -1.407  0.00  0.00     0.026 A 
ATOM      8  C6  UNL d   1       1.195   2.208  -1.132  0.00  0.00    -0.082 A 
ATOM      9  C7  UNL d   1       1.083   1.102  -2.009  0.00  0.00     0.045 A 
ENDROOT
TORSDOF 0
ENDMDL
