MODEL 1
REMARK minimizedAffinity -1.49865496
REMARK minimizedRMSD -1
REMARK  0 active torsions:
REMARK  status: ('A' for Active; 'I' for Inactive)
ROOT
ATOM      1  C   UNL d   1       0.542   3.386  -0.013  0.00  0.00    -0.002 A 
ATOM      2  C1  UNL d   1       0.590   3.369  -1.400  0.00  0.00     0.010 A 
ATOM      3  C2  UNL d   1       0.836   2.179  -2.088  0.00  0.00     0.041 A 
ATOM      4  C3  UNL d   1       1.032   0.994  -1.352  0.00  0.00    -0.075 A 
ATOM      5  S   UNL d   1       1.346  -0.581  -1.980  0.00  0.00     0.015 SA
ATOM      6  C4  UNL d   1       1.422  -1.268  -0.422  0.00  0.00     0.022 A 
ATOM      7  C5  UNL d   1       1.216  -0.334   0.565  0.00  0.00     0.026 A 
ATOM      8  C6  UNL d   1       0.987   0.985   0.045  0.00  0.00    -0.082 A 
ATOM      9  C7  UNL d   1       0.737   2.208   0.714  0.00  0.00     0.045 A 
ENDROOT
TORSDOF 0
ENDMDL
