MODEL 1
REMARK minimizedAffinity 10.5166254
REMARK minimizedRMSD -1
REMARK  0 active torsions:
REMARK  status: ('A' for Active; 'I' for Inactive)
ROOT
ATOM      1  C   UNL d   1       1.310   0.407   0.913  0.00  0.00    -0.002 A 
ATOM      2  C1  UNL d   1       0.789  -0.463  -0.033  0.00  0.00     0.010 A 
ATOM      3  C2  UNL d   1       0.533  -0.026  -1.335  0.00  0.00     0.041 A 
ATOM      4  C3  UNL d   1       0.816   1.312  -1.672  0.00  0.00    -0.075 A 
ATOM      5  S   UNL d   1       0.585   2.068  -3.204  0.00  0.00     0.015 SA
ATOM      6  C4  UNL d   1       1.174   3.564  -2.638  0.00  0.00     0.022 A 
ATOM      7  C5  UNL d   1       1.542   3.506  -1.315  0.00  0.00     0.026 A 
ATOM      8  C6  UNL d   1       1.342   2.207  -0.737  0.00  0.00    -0.082 A 
ATOM      9  C7  UNL d   1       1.589   1.734   0.575  0.00  0.00     0.045 A 
ENDROOT
TORSDOF 0
ENDMDL
