MODEL 1
REMARK minimizedAffinity -4.87215376
REMARK minimizedRMSD -1
REMARK  1 active torsions:
REMARK  status: ('A' for Active; 'I' for Inactive)
REMARK    1  A    between atoms: C1_2  and  C2_3 
ROOT
ATOM      1  C2  UNL d   1       0.478  -0.214   0.970  0.00  0.00    -0.077 A 
ATOM      2  C3  UNL d   1       0.151  -0.055   2.324  0.00  0.00     0.002 A 
ATOM      3  C4  UNL d   1      -1.124   0.375   2.697  0.00  0.00     0.002 A 
ATOM      4  C5  UNL d   1      -2.083   0.645   1.723  0.00  0.00    -0.004 A 
ATOM      5  C6  UNL d   1      -1.767   0.491   0.374  0.00  0.00     0.002 A 
ATOM      6  C7  UNL d   1      -0.493   0.063  -0.001  0.00  0.00     0.002 A 
ENDROOT
BRANCH   1   7
ATOM      7  C1  UNL d   1       1.837  -0.725   0.568  0.00  0.00     0.055 C 
ATOM      8  C   UNL d   1       2.535   0.244  -0.376  0.00  0.00     0.019 C 
ENDBRANCH   1   7
TORSDOF 1
ENDMDL
