MODEL 1
REMARK minimizedAffinity -0.670138836
REMARK minimizedRMSD -1
REMARK  1 active torsions:
REMARK  status: ('A' for Active; 'I' for Inactive)
REMARK    1  A    between atoms: C1_2  and  C2_3 
ROOT
ATOM      1  C2  UNL d   1       1.194   0.889   0.571  0.00  0.00    -0.077 A 
ATOM      2  C3  UNL d   1       1.174  -0.229  -0.275  0.00  0.00     0.002 A 
ATOM      3  C4  UNL d   1       0.002  -0.971  -0.436  0.00  0.00     0.002 A 
ATOM      4  C5  UNL d   1      -1.158  -0.601   0.241  0.00  0.00    -0.004 A 
ATOM      5  C6  UNL d   1      -1.147   0.508   1.086  0.00  0.00     0.002 A 
ATOM      6  C7  UNL d   1       0.023   1.250   1.250  0.00  0.00     0.002 A 
ENDROOT
BRANCH   1   7
ATOM      7  C1  UNL d   1       2.444   1.719   0.709  0.00  0.00     0.055 C 
ATOM      8  C   UNL d   1       3.385   1.502  -0.467  0.00  0.00     0.019 C 
ENDBRANCH   1   7
TORSDOF 1
ENDMDL
