MODEL 1
REMARK minimizedAffinity -1.92686427
REMARK minimizedRMSD -1
REMARK  1 active torsions:
REMARK  status: ('A' for Active; 'I' for Inactive)
REMARK    1  A    between atoms: C1_2  and  C2_3 
ROOT
ATOM      1  C2  UNL d   1      -0.196  -1.052  -0.960  0.00  0.00    -0.077 A 
ATOM      2  C3  UNL d   1      -1.523  -0.672  -0.715  0.00  0.00     0.002 A 
ATOM      3  C4  UNL d   1      -1.887  -0.134   0.521  0.00  0.00     0.002 A 
ATOM      4  C5  UNL d   1      -0.929   0.034   1.519  0.00  0.00    -0.004 A 
ATOM      5  C6  UNL d   1       0.393  -0.342   1.286  0.00  0.00     0.002 A 
ATOM      6  C7  UNL d   1       0.759  -0.882   0.052  0.00  0.00     0.002 A 
ENDROOT
BRANCH   1   7
ATOM      7  C1  UNL d   1       0.209  -1.587  -2.309  0.00  0.00     0.055 C 
ATOM      8  C   UNL d   1       0.481  -0.459  -3.293  0.00  0.00     0.019 C 
ENDBRANCH   1   7
TORSDOF 1
ENDMDL
