MODEL 1
REMARK minimizedAffinity 6.18672705
REMARK minimizedRMSD -1
REMARK  1 active torsions:
REMARK  status: ('A' for Active; 'I' for Inactive)
REMARK    1  A    between atoms: C1_2  and  C2_3 
ROOT
ATOM      1  C2  UNL d   1      -3.354  -1.443  -0.399  0.00  0.00    -0.077 A 
ATOM      2  C3  UNL d   1      -1.963  -1.489  -0.231  0.00  0.00     0.002 A 
ATOM      3  C4  UNL d   1      -1.267  -0.363   0.213  0.00  0.00     0.002 A 
ATOM      4  C5  UNL d   1      -1.954   0.815   0.497  0.00  0.00    -0.004 A 
ATOM      5  C6  UNL d   1      -3.337   0.872   0.331  0.00  0.00     0.002 A 
ATOM      6  C7  UNL d   1      -4.034  -0.252  -0.113  0.00  0.00     0.002 A 
ENDROOT
BRANCH   1   7
ATOM      7  C1  UNL d   1      -4.112  -2.671  -0.830  0.00  0.00     0.055 C 
ATOM      8  C   UNL d   1      -5.493  -2.311  -1.360  0.00  0.00     0.019 C 
ENDBRANCH   1   7
TORSDOF 1
ENDMDL
