MODEL 1
REMARK minimizedAffinity -3.84309936
REMARK minimizedRMSD -1
REMARK  1 active torsions:
REMARK  status: ('A' for Active; 'I' for Inactive)
REMARK    1  A    between atoms: C1_2  and  C2_3 
ROOT
ATOM      1  C2  UNL d   1      -0.125  -0.154   2.880  0.00  0.00    -0.077 A 
ATOM      2  C3  UNL d   1      -1.504   0.064   3.005  0.00  0.00     0.002 A 
ATOM      3  C4  UNL d   1      -2.307   0.176   1.868  0.00  0.00     0.002 A 
ATOM      4  C5  UNL d   1      -1.740   0.069   0.600  0.00  0.00    -0.004 A 
ATOM      5  C6  UNL d   1      -0.369  -0.145   0.465  0.00  0.00     0.002 A 
ATOM      6  C7  UNL d   1       0.435  -0.257   1.601  0.00  0.00     0.002 A 
ENDROOT
BRANCH   1   7
ATOM      7  C1  UNL d   1       0.735  -0.325   4.106  0.00  0.00     0.055 C 
ATOM      8  C   UNL d   1       0.875  -1.793   4.483  0.00  0.00     0.019 C 
ENDBRANCH   1   7
TORSDOF 1
ENDMDL
