MODEL 1
REMARK minimizedAffinity -0.132011756
REMARK minimizedRMSD -1
REMARK  1 active torsions:
REMARK  status: ('A' for Active; 'I' for Inactive)
REMARK    1  A    between atoms: C1_2  and  C2_3 
ROOT
ATOM      1  C2  UNL d   1      -0.462  -0.227   1.197  0.00  0.00    -0.077 A 
ATOM      2  C3  UNL d   1      -0.048  -0.814   2.401  0.00  0.00     0.002 A 
ATOM      3  C4  UNL d   1      -0.850  -0.726   3.541  0.00  0.00     0.002 A 
ATOM      4  C5  UNL d   1      -2.070  -0.056   3.487  0.00  0.00    -0.004 A 
ATOM      5  C6  UNL d   1      -2.489   0.532   2.294  0.00  0.00     0.002 A 
ATOM      6  C7  UNL d   1      -1.689   0.446   1.154  0.00  0.00     0.002 A 
ENDROOT
BRANCH   1   7
ATOM      7  C1  UNL d   1       0.378  -0.364  -0.046  0.00  0.00     0.055 C 
ATOM      8  C   UNL d   1      -0.062  -1.555  -0.884  0.00  0.00     0.019 C 
ENDBRANCH   1   7
TORSDOF 1
ENDMDL
