MODEL 1
REMARK minimizedAffinity -3.24286842
REMARK minimizedRMSD -1
REMARK  1 active torsions:
REMARK  status: ('A' for Active; 'I' for Inactive)
REMARK    1  A    between atoms: C1_2  and  C2_3 
ROOT
ATOM      1  C2  UNL d   1       0.901  -0.927   0.303  0.00  0.00    -0.077 A 
ATOM      2  C3  UNL d   1       0.084  -1.426  -0.722  0.00  0.00     0.002 A 
ATOM      3  C4  UNL d   1      -1.288  -1.167  -0.721  0.00  0.00     0.002 A 
ATOM      4  C5  UNL d   1      -1.854  -0.406   0.299  0.00  0.00    -0.004 A 
ATOM      5  C6  UNL d   1      -1.051   0.093   1.324  0.00  0.00     0.002 A 
ATOM      6  C7  UNL d   1       0.320  -0.165   1.325  0.00  0.00     0.002 A 
ENDROOT
BRANCH   1   7
ATOM      7  C1  UNL d   1       2.388  -1.163   0.277  0.00  0.00     0.055 C 
ATOM      8  C   UNL d   1       3.141   0.092  -0.138  0.00  0.00     0.019 C 
ENDBRANCH   1   7
TORSDOF 1
ENDMDL
