MODEL 1
REMARK minimizedAffinity 0.196207553
REMARK minimizedRMSD -1
REMARK  0 active torsions:
REMARK  status: ('A' for Active; 'I' for Inactive)
ROOT
ATOM      1  C   UNL d   1      -1.137  -0.570   3.501  0.00  0.00    -0.002 A 
ATOM      2  C1  UNL d   1       0.176  -0.963   3.719  0.00  0.00     0.010 A 
ATOM      3  C2  UNL d   1       1.133  -0.832   2.711  0.00  0.00     0.041 A 
ATOM      4  C3  UNL d   1       0.744  -0.292   1.469  0.00  0.00    -0.075 A 
ATOM      5  S   UNL d   1       1.745  -0.036   0.088  0.00  0.00     0.015 SA
ATOM      6  C4  UNL d   1       0.453   0.601  -0.823  0.00  0.00     0.022 A 
ATOM      7  C5  UNL d   1      -0.720   0.625  -0.107  0.00  0.00     0.026 A 
ATOM      8  C6  UNL d   1      -0.572   0.112   1.226  0.00  0.00    -0.082 A 
ATOM      9  C7  UNL d   1      -1.519  -0.035   2.268  0.00  0.00     0.045 A 
ENDROOT
TORSDOF 0
ENDMDL
