MODEL 1
REMARK minimizedAffinity 1.52500844
REMARK minimizedRMSD -1
REMARK  0 active torsions:
REMARK  status: ('A' for Active; 'I' for Inactive)
ROOT
ATOM      1  C   UNL d   1      -2.606   0.398   2.636  0.00  0.00    -0.002 A 
ATOM      2  C1  UNL d   1      -3.144   0.814   1.426  0.00  0.00     0.010 A 
ATOM      3  C2  UNL d   1      -2.417   0.679   0.242  0.00  0.00     0.041 A 
ATOM      4  C3  UNL d   1      -1.129   0.111   0.293  0.00  0.00    -0.075 A 
ATOM      5  S   UNL d   1      -0.056  -0.155  -1.030  0.00  0.00     0.015 SA
ATOM      6  C4  UNL d   1       1.141  -0.828  -0.021  0.00  0.00     0.022 A 
ATOM      7  C5  UNL d   1       0.749  -0.857   1.297  0.00  0.00     0.026 A 
ATOM      8  C6  UNL d   1      -0.566  -0.316   1.499  0.00  0.00    -0.082 A 
ATOM      9  C7  UNL d   1      -1.328  -0.165   2.683  0.00  0.00     0.045 A 
ENDROOT
TORSDOF 0
ENDMDL
