MODEL 1
REMARK minimizedAffinity -3.07321835
REMARK minimizedRMSD -1
REMARK  0 active torsions:
REMARK  status: ('A' for Active; 'I' for Inactive)
ROOT
ATOM      1  C   UNL d   1      -2.421  -0.387   1.159  0.00  0.00    -0.002 A 
ATOM      2  C1  UNL d   1      -2.399  -0.274   2.542  0.00  0.00     0.010 A 
ATOM      3  C2  UNL d   1      -1.186  -0.230   3.232  0.00  0.00     0.041 A 
ATOM      4  C3  UNL d   1       0.016  -0.300   2.501  0.00  0.00    -0.075 A 
ATOM      5  S   UNL d   1       1.620  -0.263   3.133  0.00  0.00     0.015 SA
ATOM      6  C4  UNL d   1       2.314  -0.396   1.582  0.00  0.00     0.022 A 
ATOM      7  C5  UNL d   1       1.360  -0.468   0.594  0.00  0.00     0.026 A 
ATOM      8  C6  UNL d   1       0.020  -0.413   1.108  0.00  0.00    -0.082 A 
ATOM      9  C7  UNL d   1      -1.226  -0.457   0.438  0.00  0.00     0.045 A 
ENDROOT
TORSDOF 0
ENDMDL
