MODEL 1
REMARK minimizedAffinity 3.67462802
REMARK minimizedRMSD -1
REMARK  0 active torsions:
REMARK  status: ('A' for Active; 'I' for Inactive)
ROOT
ATOM      1  C   UNL d   1      -3.237   0.059   0.419  0.00  0.00    -0.002 A 
ATOM      2  C1  UNL d   1      -2.921   0.480   1.703  0.00  0.00     0.010 A 
ATOM      3  C2  UNL d   1      -1.622   0.341   2.196  0.00  0.00     0.041 A 
ATOM      4  C3  UNL d   1      -0.636  -0.231   1.368  0.00  0.00    -0.075 A 
ATOM      5  S   UNL d   1       1.021  -0.500   1.758  0.00  0.00     0.015 SA
ATOM      6  C4  UNL d   1       1.349  -1.179   0.230  0.00  0.00     0.022 A 
ATOM      7  C5  UNL d   1       0.232  -1.209  -0.571  0.00  0.00     0.026 A 
ATOM      8  C6  UNL d   1      -0.931  -0.662   0.071  0.00  0.00    -0.082 A 
ATOM      9  C7  UNL d   1      -2.257  -0.509  -0.399  0.00  0.00     0.045 A 
ENDROOT
TORSDOF 0
ENDMDL
