MODEL 1
REMARK minimizedAffinity 4.54833269
REMARK minimizedRMSD -1
REMARK  0 active torsions:
REMARK  status: ('A' for Active; 'I' for Inactive)
ROOT
ATOM      1  C   UNL d   1      -2.285   0.030   0.105  0.00  0.00    -0.002 A 
ATOM      2  C1  UNL d   1      -2.445  -0.174   1.468  0.00  0.00     0.010 A 
ATOM      3  C2  UNL d   1      -1.341  -0.439   2.281  0.00  0.00     0.041 A 
ATOM      4  C3  UNL d   1      -0.061  -0.493   1.696  0.00  0.00    -0.075 A 
ATOM      5  S   UNL d   1       1.435  -0.800   2.495  0.00  0.00     0.015 SA
ATOM      6  C4  UNL d   1       2.322  -0.667   1.046  0.00  0.00     0.022 A 
ATOM      7  C5  UNL d   1       1.513  -0.395  -0.031  0.00  0.00     0.026 A 
ATOM      8  C6  UNL d   1       0.126  -0.290   0.326  0.00  0.00    -0.082 A 
ATOM      9  C7  UNL d   1      -1.013  -0.025  -0.472  0.00  0.00     0.045 A 
ENDROOT
TORSDOF 0
ENDMDL
