MODEL 1
REMARK minimizedAffinity 5.01814127
REMARK minimizedRMSD -1
REMARK  0 active torsions:
REMARK  status: ('A' for Active; 'I' for Inactive)
ROOT
ATOM      1  C   UNL d   1       4.265   0.518   0.200  0.00  0.00    -0.002 A 
ATOM      2  C1  UNL d   1       5.199  -0.291  -0.433  0.00  0.00     0.010 A 
ATOM      3  C2  UNL d   1       5.144  -0.493  -1.813  0.00  0.00     0.041 A 
ATOM      4  C3  UNL d   1       4.126   0.139  -2.554  0.00  0.00    -0.075 A 
ATOM      5  S   UNL d   1       3.863   0.038  -4.255  0.00  0.00     0.015 SA
ATOM      6  C4  UNL d   1       2.506   1.066  -4.182  0.00  0.00     0.022 A 
ATOM      7  C5  UNL d   1       2.246   1.486  -2.899  0.00  0.00     0.026 A 
ATOM      8  C6  UNL d   1       3.175   0.959  -1.940  0.00  0.00    -0.082 A 
ATOM      9  C7  UNL d   1       3.257   1.143  -0.539  0.00  0.00     0.045 A 
ENDROOT
TORSDOF 0
ENDMDL
