MODEL 1
REMARK minimizedAffinity -0.943695605
REMARK minimizedRMSD -1
REMARK  0 active torsions:
REMARK  status: ('A' for Active; 'I' for Inactive)
ROOT
ATOM      1  C1  DEN d   1       1.338  -0.153  -1.455  0.00  0.00     0.130 A 
ATOM      2  C2  DEN d   1       2.003   0.421  -0.289  0.00  0.00    -0.031 A 
ATOM      3  C3  DEN d   1       1.029   0.456   0.821  0.00  0.00     0.027 A 
ATOM      4  C4  DEN d   1      -1.429  -0.323   0.847  0.00  0.00     0.027 A 
ATOM      5  C5  DEN d   1      -2.442  -0.869   0.090  0.00  0.00    -0.003 A 
ATOM      6  C6  DEN d   1      -2.277  -1.180  -1.234  0.00  0.00     0.001 A 
ATOM      7  C7  DEN d   1      -1.058  -0.990  -1.830  0.00  0.00     0.017 A 
ATOM      8  C8  DEN d   1      -0.035  -0.433  -1.074  0.00  0.00    -0.094 A 
ATOM      9  C9  DEN d   1      -0.217  -0.137   0.266  0.00  0.00    -0.072 A 
ENDROOT
TORSDOF 0
ENDMDL
