MODEL 1
REMARK minimizedAffinity -2.78909636
REMARK minimizedRMSD -1
REMARK  0 active torsions:
REMARK  status: ('A' for Active; 'I' for Inactive)
ROOT
ATOM      1  C1  DEN d   1       1.415   0.078   1.876  0.00  0.00     0.130 A 
ATOM      2  C2  DEN d   1       1.095  -0.781   0.739  0.00  0.00    -0.031 A 
ATOM      3  C3  DEN d   1       1.523  -0.087  -0.492  0.00  0.00     0.027 A 
ATOM      4  C4  DEN d   1       2.650   2.220  -0.746  0.00  0.00     0.027 A 
ATOM      5  C5  DEN d   1       3.111   3.325  -0.066  0.00  0.00    -0.003 A 
ATOM      6  C6  DEN d   1       3.010   3.439   1.295  0.00  0.00     0.001 A 
ATOM      7  C7  DEN d   1       2.474   2.410   2.025  0.00  0.00     0.017 A 
ATOM      8  C8  DEN d   1       2.000   1.296   1.345  0.00  0.00    -0.094 A 
ATOM      9  C9  DEN d   1       2.122   1.194  -0.030  0.00  0.00    -0.072 A 
ENDROOT
TORSDOF 0
ENDMDL
