MODEL 1
REMARK minimizedAffinity -1.39985847
REMARK minimizedRMSD -1
REMARK  0 active torsions:
REMARK  status: ('A' for Active; 'I' for Inactive)
ROOT
ATOM      1  C1  DEN d   1      -0.218  -0.473   1.843  0.00  0.00     0.130 A 
ATOM      2  C2  DEN d   1       1.069  -0.025   1.319  0.00  0.00    -0.031 A 
ATOM      3  C3  DEN d   1       0.933   0.141  -0.142  0.00  0.00     0.027 A 
ATOM      4  C4  DEN d   1      -1.135  -0.245  -1.635  0.00  0.00     0.027 A 
ATOM      5  C5  DEN d   1      -2.454  -0.639  -1.644  0.00  0.00    -0.003 A 
ATOM      6  C6  DEN d   1      -3.106  -1.035  -0.506  0.00  0.00     0.001 A 
ATOM      7  C7  DEN d   1      -2.452  -1.002   0.697  0.00  0.00     0.017 A 
ATOM      8  C8  DEN d   1      -1.119  -0.613   0.713  0.00  0.00    -0.094 A 
ATOM      9  C9  DEN d   1      -0.481  -0.205  -0.446  0.00  0.00    -0.072 A 
ENDROOT
TORSDOF 0
ENDMDL
