MODEL 1
REMARK minimizedAffinity -1.08262455
REMARK minimizedRMSD -1
REMARK  0 active torsions:
REMARK  status: ('A' for Active; 'I' for Inactive)
ROOT
ATOM      1  C1  DEN d   1       4.274   4.718  -0.328  0.00  0.00     0.130 A 
ATOM      2  C2  DEN d   1       4.719   3.805  -1.377  0.00  0.00    -0.031 A 
ATOM      3  C3  DEN d   1       4.328   2.436  -0.987  0.00  0.00     0.027 A 
ATOM      4  C4  DEN d   1       3.079   1.645   1.127  0.00  0.00     0.027 A 
ATOM      5  C5  DEN d   1       2.507   2.053   2.311  0.00  0.00    -0.003 A 
ATOM      6  C6  DEN d   1       2.513   3.363   2.712  0.00  0.00     0.001 A 
ATOM      7  C7  DEN d   1       3.064   4.319   1.900  0.00  0.00     0.017 A 
ATOM      8  C8  DEN d   1       3.650   3.914   0.707  0.00  0.00    -0.094 A 
ATOM      9  C9  DEN d   1       3.622   2.586   0.314  0.00  0.00    -0.072 A 
ENDROOT
TORSDOF 0
ENDMDL
