MODEL 1
REMARK minimizedAffinity -3.70161414
REMARK minimizedRMSD -1
REMARK  0 active torsions:
REMARK  status: ('A' for Active; 'I' for Inactive)
ROOT
ATOM      1  C1  DEN d   1       1.601   0.625   1.634  0.00  0.00     0.130 A 
ATOM      2  C2  DEN d   1       1.657  -0.375   0.571  0.00  0.00    -0.031 A 
ATOM      3  C3  DEN d   1       2.450   0.185  -0.541  0.00  0.00     0.027 A 
ATOM      4  C4  DEN d   1       3.596   2.490  -0.717  0.00  0.00     0.027 A 
ATOM      5  C5  DEN d   1       3.818   3.685  -0.070  0.00  0.00    -0.003 A 
ATOM      6  C6  DEN d   1       3.292   3.956   1.165  0.00  0.00     0.001 A 
ATOM      7  C7  DEN d   1       2.555   3.000   1.813  0.00  0.00     0.017 A 
ATOM      8  C8  DEN d   1       2.321   1.795   1.164  0.00  0.00    -0.094 A 
ATOM      9  C9  DEN d   1       2.871   1.536  -0.079  0.00  0.00    -0.072 A 
ENDROOT
TORSDOF 0
ENDMDL
