MODEL 1
REMARK minimizedAffinity -2.89469385
REMARK minimizedRMSD -1
REMARK  0 active torsions:
REMARK  status: ('A' for Active; 'I' for Inactive)
ROOT
ATOM      1  C1  DEN d   1       2.061   0.295  -0.849  0.00  0.00     0.130 A 
ATOM      2  C2  DEN d   1       1.349  -0.494   0.153  0.00  0.00    -0.031 A 
ATOM      3  C3  DEN d   1       1.412   0.233   1.436  0.00  0.00     0.027 A 
ATOM      4  C4  DEN d   1       2.531   2.496   1.966  0.00  0.00     0.027 A 
ATOM      5  C5  DEN d   1       3.267   3.535   1.440  0.00  0.00    -0.003 A 
ATOM      6  C6  DEN d   1       3.679   3.550   0.133  0.00  0.00     0.001 A 
ATOM      7  C7  DEN d   1       3.318   2.527  -0.704  0.00  0.00     0.017 A 
ATOM      8  C8  DEN d   1       2.582   1.473  -0.179  0.00  0.00    -0.094 A 
ATOM      9  C9  DEN d   1       2.165   1.482   1.141  0.00  0.00    -0.072 A 
ENDROOT
TORSDOF 0
ENDMDL
