MODEL 1
REMARK minimizedAffinity -3.89523125
REMARK minimizedRMSD -1
REMARK  0 active torsions:
REMARK  status: ('A' for Active; 'I' for Inactive)
ROOT
ATOM      1  C1  DEN d   1       1.728  -0.910   1.865  0.00  0.00     0.130 A 
ATOM      2  C2  DEN d   1       0.775  -0.744   0.771  0.00  0.00    -0.031 A 
ATOM      3  C3  DEN d   1       0.805   0.672   0.352  0.00  0.00     0.027 A 
ATOM      4  C4  DEN d   1       2.230   2.610   1.282  0.00  0.00     0.027 A 
ATOM      5  C5  DEN d   1       3.176   2.958   2.220  0.00  0.00    -0.003 A 
ATOM      6  C6  DEN d   1       3.677   2.056   3.121  0.00  0.00     0.001 A 
ATOM      7  C7  DEN d   1       3.267   0.750   3.073  0.00  0.00     0.017 A 
ATOM      8  C8  DEN d   1       2.308   0.393   2.134  0.00  0.00    -0.094 A 
ATOM      9  C9  DEN d   1       1.823   1.317   1.224  0.00  0.00    -0.072 A 
ENDROOT
TORSDOF 0
ENDMDL
