MODEL 1
REMARK minimizedAffinity 1.41513014
REMARK minimizedRMSD -1
REMARK  0 active torsions:
REMARK  status: ('A' for Active; 'I' for Inactive)
ROOT
ATOM      1  C1  DEN d   1      -0.375  -0.061  -1.434  0.00  0.00     0.130 A 
ATOM      2  C2  DEN d   1      -0.297   0.151   0.009  0.00  0.00    -0.031 A 
ATOM      3  C3  DEN d   1       1.120   0.047   0.410  0.00  0.00     0.027 A 
ATOM      4  C4  DEN d   1       3.191  -0.415  -1.056  0.00  0.00     0.027 A 
ATOM      5  C5  DEN d   1       3.624  -0.674  -2.338  0.00  0.00    -0.003 A 
ATOM      6  C6  DEN d   1       2.758  -0.779  -3.394  0.00  0.00     0.001 A 
ATOM      7  C7  DEN d   1       1.417  -0.580  -3.195  0.00  0.00     0.017 A 
ATOM      8  C8  DEN d   1       0.973  -0.326  -1.904  0.00  0.00    -0.094 A 
ATOM      9  C9  DEN d   1       1.865  -0.212  -0.852  0.00  0.00    -0.072 A 
ENDROOT
TORSDOF 0
ENDMDL
