MODEL 1
REMARK minimizedAffinity 1.17907083
REMARK minimizedRMSD -1
REMARK  0 active torsions:
REMARK  status: ('A' for Active; 'I' for Inactive)
ROOT
ATOM      1  C1  DEN d   1       0.389   0.095   2.162  0.00  0.00     0.130 A 
ATOM      2  C2  DEN d   1      -0.094  -0.654   1.006  0.00  0.00    -0.031 A 
ATOM      3  C3  DEN d   1       0.698  -0.241  -0.170  0.00  0.00     0.027 A 
ATOM      4  C4  DEN d   1       2.620   1.474  -0.309  0.00  0.00     0.027 A 
ATOM      5  C5  DEN d   1       3.377   2.372   0.409  0.00  0.00    -0.003 A 
ATOM      6  C6  DEN d   1       3.170   2.598   1.744  0.00  0.00     0.001 A 
ATOM      7  C7  DEN d   1       2.212   1.883   2.413  0.00  0.00     0.017 A 
ATOM      8  C8  DEN d   1       1.440   0.981   1.694  0.00  0.00    -0.094 A 
ATOM      9  C9  DEN d   1       1.672   0.758   0.347  0.00  0.00    -0.072 A 
ENDROOT
TORSDOF 0
ENDMDL
