MODEL 1
REMARK minimizedAffinity -0.814784706
REMARK minimizedRMSD -1
REMARK  0 active torsions:
REMARK  status: ('A' for Active; 'I' for Inactive)
ROOT
ATOM      1  C1  DEN d   1      -0.539   0.151  -1.232  0.00  0.00     0.130 A 
ATOM      2  C2  DEN d   1      -0.149   0.335   0.163  0.00  0.00    -0.031 A 
ATOM      3  C3  DEN d   1       1.314   0.150   0.257  0.00  0.00     0.027 A 
ATOM      4  C4  DEN d   1       3.003  -0.396  -1.614  0.00  0.00     0.027 A 
ATOM      5  C5  DEN d   1       3.142  -0.656  -2.960  0.00  0.00    -0.003 A 
ATOM      6  C6  DEN d   1       2.070  -0.698  -3.811  0.00  0.00     0.001 A 
ATOM      7  C7  DEN d   1       0.814  -0.432  -3.333  0.00  0.00     0.017 A 
ATOM      8  C8  DEN d   1       0.664  -0.177  -1.976  0.00  0.00    -0.094 A 
ATOM      9  C9  DEN d   1       1.762  -0.127  -1.134  0.00  0.00    -0.072 A 
ENDROOT
TORSDOF 0
ENDMDL
