MODEL 1
REMARK minimizedAffinity -5.19499731
REMARK minimizedRMSD -1
REMARK  0 active torsions:
REMARK  status: ('A' for Active; 'I' for Inactive)
ROOT
ATOM      1  C1  DEN d   1       0.797  -0.294  -2.134  0.00  0.00     0.130 A 
ATOM      2  C2  DEN d   1       1.845   0.137  -1.212  0.00  0.00    -0.031 A 
ATOM      3  C3  DEN d   1       1.249   0.256   0.133  0.00  0.00     0.027 A 
ATOM      4  C4  DEN d   1      -1.180  -0.189   0.877  0.00  0.00     0.027 A 
ATOM      5  C5  DEN d   1      -2.435  -0.562   0.449  0.00  0.00    -0.003 A 
ATOM      6  C6  DEN d   1      -2.706  -0.837  -0.865  0.00  0.00     0.001 A 
ATOM      7  C7  DEN d   1      -1.697  -0.787  -1.791  0.00  0.00     0.017 A 
ATOM      8  C8  DEN d   1      -0.431  -0.404  -1.368  0.00  0.00    -0.094 A 
ATOM      9  C9  DEN d   1      -0.175  -0.142  -0.033  0.00  0.00    -0.072 A 
ENDROOT
TORSDOF 0
ENDMDL
