MODEL 1
REMARK minimizedAffinity -1.95705342
REMARK minimizedRMSD -1
REMARK  0 active torsions:
REMARK  status: ('A' for Active; 'I' for Inactive)
ROOT
ATOM      1  C1  DEN d   1       2.710   4.255   1.808  0.00  0.00     0.130 A 
ATOM      2  C2  DEN d   1       2.283   3.009   2.440  0.00  0.00    -0.031 A 
ATOM      3  C3  DEN d   1       2.706   1.890   1.574  0.00  0.00     0.027 A 
ATOM      4  C4  DEN d   1       3.977   1.965  -0.669  0.00  0.00     0.027 A 
ATOM      5  C5  DEN d   1       4.543   2.795  -1.612  0.00  0.00    -0.003 A 
ATOM      6  C6  DEN d   1       4.507   4.160  -1.499  0.00  0.00     0.001 A 
ATOM      7  C7  DEN d   1       3.933   4.735  -0.395  0.00  0.00     0.017 A 
ATOM      8  C8  DEN d   1       3.354   3.904   0.556  0.00  0.00    -0.094 A 
ATOM      9  C9  DEN d   1       3.411   2.527   0.429  0.00  0.00    -0.072 A 
ENDROOT
TORSDOF 0
ENDMDL
