MODEL 1
REMARK minimizedAffinity -0.983498037
REMARK minimizedRMSD -1
REMARK  0 active torsions:
REMARK  status: ('A' for Active; 'I' for Inactive)
ROOT
ATOM      1  C4' PXY d   1      -0.135   2.780  -1.076  0.00  0.00     0.077 C 
ATOM      2  C1' PXY d   1      -1.078  -2.687  -2.699  0.00  0.00     0.077 C 
ATOM      3  C1  PXY d   1      -0.821  -1.252  -2.283  0.00  0.00    -0.082 A 
ATOM      4  C2  PXY d   1      -1.115  -0.866  -1.052  0.00  0.00     0.003 A 
ATOM      5  C3  PXY d   1      -0.920   0.436  -0.668  0.00  0.00     0.003 A 
ATOM      6  C4  PXY d   1      -0.368   1.339  -1.537  0.00  0.00    -0.082 A 
ATOM      7  C5  PXY d   1      -0.056   0.950  -2.792  0.00  0.00     0.003 A 
ATOM      8  C6  PXY d   1      -0.300  -0.366  -3.174  0.00  0.00     0.003 A 
ENDROOT
TORSDOF 0
ENDMDL
