MODEL 1
REMARK minimizedAffinity 3.78475213
REMARK minimizedRMSD -1
REMARK  0 active torsions:
REMARK  status: ('A' for Active; 'I' for Inactive)
ROOT
ATOM      1  C4' PXY d   1       1.023   2.685   2.874  0.00  0.00     0.077 C 
ATOM      2  C1' PXY d   1       1.086   5.605  -2.114  0.00  0.00     0.077 C 
ATOM      3  C1  PXY d   1       1.082   4.843  -0.804  0.00  0.00    -0.082 A 
ATOM      4  C2  PXY d   1       0.227   3.848  -0.629  0.00  0.00     0.003 A 
ATOM      5  C3  PXY d   1       0.188   3.169   0.562  0.00  0.00     0.003 A 
ATOM      6  C4  PXY d   1       1.069   3.476   1.564  0.00  0.00    -0.082 A 
ATOM      7  C5  PXY d   1       1.951   4.483   1.389  0.00  0.00     0.003 A 
ATOM      8  C6  PXY d   1       1.947   5.187   0.188  0.00  0.00     0.003 A 
ENDROOT
TORSDOF 0
ENDMDL
