MODEL 1
REMARK minimizedAffinity -1.15674198
REMARK minimizedRMSD -1
REMARK  0 active torsions:
REMARK  status: ('A' for Active; 'I' for Inactive)
ROOT
ATOM      1  C4' PXY d   1      -3.072   3.634  -2.367  0.00  0.00     0.077 C 
ATOM      2  C1' PXY d   1      -6.000   0.221  -6.000  0.00  0.00     0.077 C 
ATOM      3  C1  PXY d   1      -5.243   1.120  -5.042  0.00  0.00    -0.082 A 
ATOM      4  C2  PXY d   1      -4.034   1.550  -5.364  0.00  0.00     0.003 A 
ATOM      5  C3  PXY d   1      -3.323   2.337  -4.496  0.00  0.00     0.003 A 
ATOM      6  C4  PXY d   1      -3.876   2.733  -3.308  0.00  0.00    -0.082 A 
ATOM      7  C5  PXY d   1      -5.114   2.308  -2.976  0.00  0.00     0.003 A 
ATOM      8  C6  PXY d   1      -5.803   1.475  -3.853  0.00  0.00     0.003 A 
ENDROOT
TORSDOF 0
ENDMDL
