MODEL 1
REMARK minimizedAffinity 3.11577058
REMARK minimizedRMSD -1
REMARK  0 active torsions:
REMARK  status: ('A' for Active; 'I' for Inactive)
ROOT
ATOM      1  C4' PXY d   1      -1.903  -2.581  -5.259  0.00  0.00     0.077 C 
ATOM      2  C1' PXY d   1       0.891  -3.629  -0.309  0.00  0.00     0.077 C 
ATOM      3  C1  PXY d   1       0.167  -3.345  -1.610  0.00  0.00    -0.082 A 
ATOM      4  C2  PXY d   1      -1.119  -3.637  -1.720  0.00  0.00     0.003 A 
ATOM      5  C3  PXY d   1      -1.781  -3.416  -2.900  0.00  0.00     0.003 A 
ATOM      6  C4  PXY d   1      -1.134  -2.842  -3.961  0.00  0.00    -0.082 A 
ATOM      7  C5  PXY d   1       0.175  -2.531  -3.853  0.00  0.00     0.003 A 
ATOM      8  C6  PXY d   1       0.840  -2.801  -2.660  0.00  0.00     0.003 A 
ENDROOT
TORSDOF 0
ENDMDL
