MODEL 1
REMARK minimizedAffinity 5.08389378
REMARK minimizedRMSD -1
REMARK  0 active torsions:
REMARK  status: ('A' for Active; 'I' for Inactive)
ROOT
ATOM      1  C4' PXY d   1      -2.097   3.819  -2.022  0.00  0.00     0.077 C 
ATOM      2  C1' PXY d   1       1.623   1.849   1.940  0.00  0.00     0.077 C 
ATOM      3  C1  PXY d   1       0.656   2.363   0.892  0.00  0.00    -0.082 A 
ATOM      4  C2  PXY d   1      -0.256   3.262   1.227  0.00  0.00     0.003 A 
ATOM      5  C3  PXY d   1      -1.159   3.713   0.298  0.00  0.00     0.003 A 
ATOM      6  C4  PXY d   1      -1.094   3.279  -0.999  0.00  0.00    -0.082 A 
ATOM      7  C5  PXY d   1      -0.160   2.370  -1.351  0.00  0.00     0.003 A 
ATOM      8  C6  PXY d   1       0.721   1.894  -0.384  0.00  0.00     0.003 A 
ENDROOT
TORSDOF 0
ENDMDL
