MODEL 1
REMARK minimizedAffinity 5.97784424
REMARK minimizedRMSD -1
REMARK  0 active torsions:
REMARK  status: ('A' for Active; 'I' for Inactive)
ROOT
ATOM      1  C4' PXY d   1       2.968  -2.512  -0.186  0.00  0.00     0.077 C 
ATOM      2  C1' PXY d   1      -2.183  -4.111  -2.265  0.00  0.00     0.077 C 
ATOM      3  C1  PXY d   1      -0.833  -3.702  -1.712  0.00  0.00    -0.082 A 
ATOM      4  C2  PXY d   1      -0.441  -2.441  -1.807  0.00  0.00     0.003 A 
ATOM      5  C3  PXY d   1       0.791  -2.061  -1.341  0.00  0.00     0.003 A 
ATOM      6  C4  PXY d   1       1.608  -2.968  -0.722  0.00  0.00    -0.082 A 
ATOM      7  C5  PXY d   1       1.211  -4.254  -0.611  0.00  0.00     0.003 A 
ATOM      8  C6  PXY d   1      -0.025  -4.628  -1.128  0.00  0.00     0.003 A 
ENDROOT
TORSDOF 0
ENDMDL
