MODEL 1
REMARK minimizedAffinity -1.62842727
REMARK minimizedRMSD -1
REMARK  0 active torsions:
REMARK  status: ('A' for Active; 'I' for Inactive)
ROOT
ATOM      1  C4' PXY d   1      -5.971  -0.772  -6.000  0.00  0.00     0.077 C 
ATOM      2  C1' PXY d   1      -3.630   3.840  -3.418  0.00  0.00     0.077 C 
ATOM      3  C1  PXY d   1      -4.236   2.632  -4.105  0.00  0.00    -0.082 A 
ATOM      4  C2  PXY d   1      -5.449   2.227  -3.766  0.00  0.00     0.003 A 
ATOM      5  C3  PXY d   1      -5.999   1.117  -4.355  0.00  0.00     0.003 A 
ATOM      6  C4  PXY d   1      -5.323   0.448  -5.339  0.00  0.00    -0.082 A 
ATOM      7  C5  PXY d   1      -4.089   0.862  -5.698  0.00  0.00     0.003 A 
ATOM      8  C6  PXY d   1      -3.531   1.965  -5.059  0.00  0.00     0.003 A 
ENDROOT
TORSDOF 0
ENDMDL
