MODEL 1
REMARK minimizedAffinity 1.67795992
REMARK minimizedRMSD -1
REMARK  0 active torsions:
REMARK  status: ('A' for Active; 'I' for Inactive)
ROOT
ATOM      1  C4' PXY d   1       0.451  -5.999  -1.101  0.00  0.00     0.077 C 
ATOM      2  C1' PXY d   1       0.940  -0.281  -1.796  0.00  0.00     0.077 C 
ATOM      3  C1  PXY d   1       0.799  -1.780  -1.617  0.00  0.00    -0.082 A 
ATOM      4  C2  PXY d   1       1.657  -2.430  -0.848  0.00  0.00     0.003 A 
ATOM      5  C3  PXY d   1       1.564  -3.790  -0.700  0.00  0.00     0.003 A 
ATOM      6  C4  PXY d   1       0.549  -4.484  -1.303  0.00  0.00    -0.082 A 
ATOM      7  C5  PXY d   1      -0.337  -3.826  -2.080  0.00  0.00     0.003 A 
ATOM      8  C6  PXY d   1      -0.200  -2.452  -2.251  0.00  0.00     0.003 A 
ENDROOT
TORSDOF 0
ENDMDL
