MODEL 1
REMARK minimizedAffinity 8.83057213
REMARK minimizedRMSD -1
REMARK  0 active torsions:
REMARK  status: ('A' for Active; 'I' for Inactive)
ROOT
ATOM      1  C4' PXY d   1       2.832  -3.369   0.422  0.00  0.00     0.077 C 
ATOM      2  C1' PXY d   1      -2.187  -4.434  -2.241  0.00  0.00     0.077 C 
ATOM      3  C1  PXY d   1      -0.872  -4.166  -1.536  0.00  0.00    -0.082 A 
ATOM      4  C2  PXY d   1      -0.447  -2.921  -1.395  0.00  0.00     0.003 A 
ATOM      5  C3  PXY d   1       0.756  -2.663  -0.789  0.00  0.00     0.003 A 
ATOM      6  C4  PXY d   1       1.506  -3.686  -0.274  0.00  0.00    -0.082 A 
ATOM      7  C5  PXY d   1       1.074  -4.958  -0.404  0.00  0.00     0.003 A 
ATOM      8  C6  PXY d   1      -0.129  -5.202  -1.059  0.00  0.00     0.003 A 
ENDROOT
TORSDOF 0
ENDMDL
