MODEL 1
REMARK minimizedAffinity -4.47670317
REMARK minimizedRMSD -1
REMARK  0 active torsions:
REMARK  status: ('A' for Active; 'I' for Inactive)
ROOT
ATOM      1  C4' PXY d   1      -5.800   4.542  -2.698  0.00  0.00     0.077 C 
ATOM      2  C1' PXY d   1      -4.427   0.000  -6.000  0.00  0.00     0.077 C 
ATOM      3  C1  PXY d   1      -4.776   1.197  -5.137  0.00  0.00    -0.082 A 
ATOM      4  C2  PXY d   1      -5.649   1.061  -4.152  0.00  0.00     0.003 A 
ATOM      5  C3  PXY d   1      -6.000   2.141  -3.383  0.00  0.00     0.003 A 
ATOM      6  C4  PXY d   1      -5.411   3.359  -3.589  0.00  0.00    -0.082 A 
ATOM      7  C5  PXY d   1      -4.511   3.503  -4.584  0.00  0.00     0.003 A 
ATOM      8  C6  PXY d   1      -4.199   2.405  -5.381  0.00  0.00     0.003 A 
ENDROOT
TORSDOF 0
ENDMDL
