MODEL 1
REMARK minimizedAffinity 5.80399132
REMARK minimizedRMSD -1
REMARK  0 active torsions:
REMARK  status: ('A' for Active; 'I' for Inactive)
ROOT
ATOM      1  C4' PXY d   1       1.428   5.558  -2.264  0.00  0.00     0.077 C 
ATOM      2  C1' PXY d   1      -0.958   2.411   1.958  0.00  0.00     0.077 C 
ATOM      3  C1  PXY d   1      -0.321   3.238   0.858  0.00  0.00    -0.082 A 
ATOM      4  C2  PXY d   1      -1.090   3.862  -0.020  0.00  0.00     0.003 A 
ATOM      5  C3  PXY d   1      -0.531   4.588  -1.040  0.00  0.00     0.003 A 
ATOM      6  C4  PXY d   1       0.829   4.720  -1.131  0.00  0.00    -0.082 A 
ATOM      7  C5  PXY d   1       1.620   4.095  -0.234  0.00  0.00     0.003 A 
ATOM      8  C6  PXY d   1       1.033   3.329   0.770  0.00  0.00     0.003 A 
ENDROOT
TORSDOF 0
ENDMDL
