MODEL 1
REMARK minimizedAffinity 11.2705908
REMARK minimizedRMSD -1
REMARK  0 active torsions:
REMARK  status: ('A' for Active; 'I' for Inactive)
ROOT
ATOM      1  C4' PXY d   1       1.549   5.998  -2.504  0.00  0.00     0.077 C 
ATOM      2  C1' PXY d   1      -0.373   2.779   1.895  0.00  0.00     0.077 C 
ATOM      3  C1  PXY d   1       0.119   3.625   0.738  0.00  0.00    -0.082 A 
ATOM      4  C2  PXY d   1       1.340   3.440   0.264  0.00  0.00     0.003 A 
ATOM      5  C3  PXY d   1       1.812   4.218  -0.761  0.00  0.00     0.003 A 
ATOM      6  C4  PXY d   1       1.007   5.160  -1.343  0.00  0.00    -0.082 A 
ATOM      7  C5  PXY d   1      -0.244   5.349  -0.872  0.00  0.00     0.003 A 
ATOM      8  C6  PXY d   1      -0.690   4.576   0.196  0.00  0.00     0.003 A 
ENDROOT
TORSDOF 0
ENDMDL
