MODEL 1
REMARK minimizedAffinity 3.88047719
REMARK minimizedRMSD -1
REMARK  0 active torsions:
REMARK  status: ('A' for Active; 'I' for Inactive)
ROOT
ATOM      1  C   UNL d   1      -1.692   5.993   5.903  0.00  0.00     0.077 C 
ATOM      2  C1  UNL d   1      -3.030   5.971   5.225  0.00  0.00    -0.074 A 
ATOM      3  C2  UNL d   1      -4.213   5.949   5.970  0.00  0.00    -0.005 A 
ATOM      4  C3  UNL d   1      -5.450   5.939   5.325  0.00  0.00     0.006 A 
ATOM      5  C4  UNL d   1      -5.516   5.950   3.932  0.00  0.00    -0.005 A 
ATOM      6  C5  UNL d   1      -4.343   5.973   3.170  0.00  0.00    -0.074 A 
ATOM      7  C6  UNL d   1      -4.397   5.996   1.671  0.00  0.00     0.077 C 
ATOM      8  C7  UNL d   1      -3.104   5.991   3.825  0.00  0.00    -0.001 A 
ENDROOT
TORSDOF 0
ENDMDL
