MODEL 1
REMARK minimizedAffinity -0.641577721
REMARK minimizedRMSD -1
REMARK  0 active torsions:
REMARK  status: ('A' for Active; 'I' for Inactive)
ROOT
ATOM      1  C   UNL d   1      -3.812   6.000   1.808  0.00  0.00     0.077 C 
ATOM      2  C1  UNL d   1      -3.483   5.983   3.272  0.00  0.00    -0.074 A 
ATOM      3  C2  UNL d   1      -4.495   5.934   4.235  0.00  0.00    -0.005 A 
ATOM      4  C3  UNL d   1      -4.174   5.909   5.592  0.00  0.00     0.006 A 
ATOM      5  C4  UNL d   1      -2.839   5.934   5.999  0.00  0.00    -0.005 A 
ATOM      6  C5  UNL d   1      -1.813   5.983   5.050  0.00  0.00    -0.074 A 
ATOM      7  C6  UNL d   1      -0.373   6.000   5.469  0.00  0.00     0.077 C 
ATOM      8  C7  UNL d   1      -2.144   6.000   3.688  0.00  0.00    -0.001 A 
ENDROOT
TORSDOF 0
ENDMDL
