MODEL 1
REMARK minimizedAffinity -2.99940038
REMARK minimizedRMSD -1
REMARK  0 active torsions:
REMARK  status: ('A' for Active; 'I' for Inactive)
ROOT
ATOM      1  C   UNL d   1       1.278   1.635  -2.794  0.00  0.00     0.077 C 
ATOM      2  C1  UNL d   1       1.320   0.151  -3.002  0.00  0.00    -0.074 A 
ATOM      3  C2  UNL d   1       1.096  -0.404  -4.266  0.00  0.00    -0.005 A 
ATOM      4  C3  UNL d   1       1.147  -1.787  -4.446  0.00  0.00     0.006 A 
ATOM      5  C4  UNL d   1       1.422  -2.626  -3.366  0.00  0.00    -0.005 A 
ATOM      6  C5  UNL d   1       1.648  -2.089  -2.095  0.00  0.00    -0.074 A 
ATOM      7  C6  UNL d   1       1.954  -2.977  -0.925  0.00  0.00     0.077 C 
ATOM      8  C7  UNL d   1       1.602  -0.699  -1.923  0.00  0.00    -0.001 A 
ENDROOT
TORSDOF 0
ENDMDL
