MODEL 1
REMARK minimizedAffinity -1.29593635
REMARK minimizedRMSD -1
REMARK  0 active torsions:
REMARK  status: ('A' for Active; 'I' for Inactive)
ROOT
ATOM      1  C   UNL d   1       5.953  -0.915   5.532  0.00  0.00     0.077 C 
ATOM      2  C1  UNL d   1       5.206  -2.215   5.568  0.00  0.00    -0.074 A 
ATOM      3  C2  UNL d   1       3.818  -2.252   5.395  0.00  0.00    -0.005 A 
ATOM      4  C3  UNL d   1       3.138  -3.469   5.422  0.00  0.00     0.006 A 
ATOM      5  C4  UNL d   1       3.837  -4.661   5.620  0.00  0.00    -0.005 A 
ATOM      6  C5  UNL d   1       5.225  -4.644   5.793  0.00  0.00    -0.074 A 
ATOM      7  C6  UNL d   1       5.993  -5.916   5.998  0.00  0.00     0.077 C 
ATOM      8  C7  UNL d   1       5.902  -3.417   5.758  0.00  0.00    -0.001 A 
ENDROOT
TORSDOF 0
ENDMDL
