MODEL 1
REMARK minimizedAffinity 7.23922682
REMARK minimizedRMSD -1
REMARK  0 active torsions:
REMARK  status: ('A' for Active; 'I' for Inactive)
ROOT
ATOM      1  C   UNL d   1      -1.043   5.987   3.064  0.00  0.00     0.077 C 
ATOM      2  C1  UNL d   1      -2.452   5.948   3.578  0.00  0.00    -0.074 A 
ATOM      3  C2  UNL d   1      -2.718   5.993   4.951  0.00  0.00    -0.005 A 
ATOM      4  C3  UNL d   1      -4.033   5.965   5.413  0.00  0.00     0.006 A 
ATOM      5  C4  UNL d   1      -5.094   5.892   4.510  0.00  0.00    -0.005 A 
ATOM      6  C5  UNL d   1      -4.848   5.846   3.134  0.00  0.00    -0.074 A 
ATOM      7  C6  UNL d   1      -5.977   5.777   2.150  0.00  0.00     0.077 C 
ATOM      8  C7  UNL d   1      -3.523   5.882   2.677  0.00  0.00    -0.001 A 
ENDROOT
TORSDOF 0
ENDMDL
