MODEL 1
REMARK minimizedAffinity 1.99504375
REMARK minimizedRMSD -1
REMARK  0 active torsions:
REMARK  status: ('A' for Active; 'I' for Inactive)
ROOT
ATOM      1  C   UNL d   1      -1.033   5.880   6.000  0.00  0.00     0.077 C 
ATOM      2  C1  UNL d   1      -2.352   5.871   5.286  0.00  0.00    -0.074 A 
ATOM      3  C2  UNL d   1      -3.554   5.819   5.998  0.00  0.00    -0.005 A 
ATOM      4  C3  UNL d   1      -4.774   5.821   5.321  0.00  0.00     0.006 A 
ATOM      5  C4  UNL d   1      -4.803   5.874   3.927  0.00  0.00    -0.005 A 
ATOM      6  C5  UNL d   1      -3.611   5.927   3.198  0.00  0.00    -0.074 A 
ATOM      7  C6  UNL d   1      -3.624   5.994   1.699  0.00  0.00     0.077 C 
ATOM      8  C7  UNL d   1      -2.390   5.932   3.886  0.00  0.00    -0.001 A 
ENDROOT
TORSDOF 0
ENDMDL
