MODEL 1
REMARK minimizedAffinity 5.17174149
REMARK minimizedRMSD -1
REMARK  0 active torsions:
REMARK  status: ('A' for Active; 'I' for Inactive)
ROOT
ATOM      1  C   UNL d   1       4.278   1.949  -5.950  0.00  0.00     0.077 C 
ATOM      2  C1  UNL d   1       3.162   2.214  -4.983  0.00  0.00    -0.074 A 
ATOM      3  C2  UNL d   1       2.219   3.216  -5.230  0.00  0.00    -0.005 A 
ATOM      4  C3  UNL d   1       1.181   3.444  -4.326  0.00  0.00     0.006 A 
ATOM      5  C4  UNL d   1       1.077   2.674  -3.167  0.00  0.00    -0.005 A 
ATOM      6  C5  UNL d   1       2.011   1.666  -2.903  0.00  0.00    -0.074 A 
ATOM      7  C6  UNL d   1       1.907   0.823  -1.668  0.00  0.00     0.077 C 
ATOM      8  C7  UNL d   1       3.046   1.439  -3.820  0.00  0.00    -0.001 A 
ENDROOT
TORSDOF 0
ENDMDL
