MODEL 1
REMARK minimizedAffinity -0.588357389
REMARK minimizedRMSD -1
REMARK  0 active torsions:
REMARK  status: ('A' for Active; 'I' for Inactive)
ROOT
ATOM      1  C   UNL d   1       4.138   1.975  -5.644  0.00  0.00     0.077 C 
ATOM      2  C1  UNL d   1       3.138   1.873  -4.530  0.00  0.00    -0.074 A 
ATOM      3  C2  UNL d   1       2.198   2.886  -4.313  0.00  0.00    -0.005 A 
ATOM      4  C3  UNL d   1       1.269   2.773  -3.279  0.00  0.00     0.006 A 
ATOM      5  C4  UNL d   1       1.269   1.647  -2.454  0.00  0.00    -0.005 A 
ATOM      6  C5  UNL d   1       2.201   0.624  -2.657  0.00  0.00    -0.074 A 
ATOM      7  C6  UNL d   1       2.209  -0.596  -1.785  0.00  0.00     0.077 C 
ATOM      8  C7  UNL d   1       3.127   0.742  -3.702  0.00  0.00    -0.001 A 
ENDROOT
TORSDOF 0
ENDMDL
