MODEL 1
REMARK minimizedAffinity 4.25920248
REMARK minimizedRMSD -1
REMARK  0 active torsions:
REMARK  status: ('A' for Active; 'I' for Inactive)
ROOT
ATOM      1  C   UNL d   1       1.201   0.012  -1.819  0.00  0.00     0.077 C 
ATOM      2  C1  UNL d   1       1.859   1.041  -2.689  0.00  0.00    -0.074 A 
ATOM      3  C2  UNL d   1       3.089   0.783  -3.303  0.00  0.00    -0.005 A 
ATOM      4  C3  UNL d   1       3.684   1.747  -4.118  0.00  0.00     0.006 A 
ATOM      5  C4  UNL d   1       3.057   2.976  -4.325  0.00  0.00    -0.005 A 
ATOM      6  C5  UNL d   1       1.826   3.251  -3.720  0.00  0.00    -0.074 A 
ATOM      7  C6  UNL d   1       1.134   4.563  -3.941  0.00  0.00     0.077 C 
ATOM      8  C7  UNL d   1       1.231   2.275  -2.909  0.00  0.00    -0.001 A 
ENDROOT
TORSDOF 0
ENDMDL
