MODEL 1
REMARK minimizedAffinity 1.18994343
REMARK minimizedRMSD -1
REMARK  0 active torsions:
REMARK  status: ('A' for Active; 'I' for Inactive)
ROOT
ATOM      1  C   UNL d   1      -1.031   5.988   3.652  0.00  0.00     0.077 C 
ATOM      2  C1  UNL d   1      -2.440   5.982   4.165  0.00  0.00    -0.074 A 
ATOM      3  C2  UNL d   1      -2.705   5.995   5.538  0.00  0.00    -0.005 A 
ATOM      4  C3  UNL d   1      -4.021   5.998   6.000  0.00  0.00     0.006 A 
ATOM      5  C4  UNL d   1      -5.084   5.989   5.095  0.00  0.00    -0.005 A 
ATOM      6  C5  UNL d   1      -4.838   5.976   3.719  0.00  0.00    -0.074 A 
ATOM      7  C6  UNL d   1      -5.968   5.975   2.733  0.00  0.00     0.077 C 
ATOM      8  C7  UNL d   1      -3.513   5.980   3.262  0.00  0.00    -0.001 A 
ENDROOT
TORSDOF 0
ENDMDL
