MODEL 1
REMARK minimizedAffinity 3.76260591
REMARK minimizedRMSD -1
REMARK  0 active torsions:
REMARK  status: ('A' for Active; 'I' for Inactive)
ROOT
ATOM      1  C   UNL d   1      -3.108   5.987   5.999  0.00  0.00     0.077 C 
ATOM      2  C1  UNL d   1      -3.495   5.596   4.604  0.00  0.00    -0.074 A 
ATOM      3  C2  UNL d   1      -4.676   4.888   4.358  0.00  0.00    -0.005 A 
ATOM      4  C3  UNL d   1      -5.027   4.539   3.054  0.00  0.00     0.006 A 
ATOM      5  C4  UNL d   1      -4.203   4.893   1.985  0.00  0.00    -0.005 A 
ATOM      6  C5  UNL d   1      -3.019   5.602   2.212  0.00  0.00    -0.074 A 
ATOM      7  C6  UNL d   1      -2.128   6.000   1.073  0.00  0.00     0.077 C 
ATOM      8  C7  UNL d   1      -2.676   5.955   3.524  0.00  0.00    -0.001 A 
ENDROOT
TORSDOF 0
ENDMDL
