MODEL 1
REMARK minimizedAffinity 0.797074556
REMARK minimizedRMSD -1
REMARK  0 active torsions:
REMARK  status: ('A' for Active; 'I' for Inactive)
ROOT
ATOM      1  C   UNL d   1       5.351  -1.194   5.343  0.00  0.00     0.077 C 
ATOM      2  C1  UNL d   1       5.014  -2.646   5.506  0.00  0.00    -0.074 A 
ATOM      3  C2  UNL d   1       6.000  -3.580   5.841  0.00  0.00    -0.005 A 
ATOM      4  C3  UNL d   1       5.669  -4.926   5.999  0.00  0.00     0.006 A 
ATOM      5  C4  UNL d   1       4.352  -5.351   5.824  0.00  0.00    -0.005 A 
ATOM      6  C5  UNL d   1       3.352  -4.432   5.490  0.00  0.00    -0.074 A 
ATOM      7  C6  UNL d   1       1.930  -4.871   5.308  0.00  0.00     0.077 C 
ATOM      8  C7  UNL d   1       3.691  -3.080   5.340  0.00  0.00    -0.001 A 
ENDROOT
TORSDOF 0
ENDMDL
