MODEL 1
REMARK minimizedAffinity 1.80350745
REMARK minimizedRMSD -1
REMARK  0 active torsions:
REMARK  status: ('A' for Active; 'I' for Inactive)
ROOT
ATOM      1  C   UNL d   1       5.891  -0.675   4.655  0.00  0.00     0.077 C 
ATOM      2  C1  UNL d   1       5.157  -1.942   4.981  0.00  0.00    -0.074 A 
ATOM      3  C2  UNL d   1       3.761  -1.998   4.928  0.00  0.00    -0.005 A 
ATOM      4  C3  UNL d   1       3.093  -3.186   5.224  0.00  0.00     0.006 A 
ATOM      5  C4  UNL d   1       3.813  -4.328   5.576  0.00  0.00    -0.005 A 
ATOM      6  C5  UNL d   1       5.210  -4.291   5.633  0.00  0.00    -0.074 A 
ATOM      7  C6  UNL d   1       6.000  -5.512   6.000  0.00  0.00     0.077 C 
ATOM      8  C7  UNL d   1       5.874  -3.096   5.327  0.00  0.00    -0.001 A 
ENDROOT
TORSDOF 0
ENDMDL
