MODEL 1
REMARK minimizedAffinity 1.87870955
REMARK minimizedRMSD -1
REMARK  0 active torsions:
REMARK  status: ('A' for Active; 'I' for Inactive)
ROOT
ATOM      1  C   UNL d   1       2.047   4.086  -1.871  0.00  0.00     0.077 C 
ATOM      2  C1  UNL d   1       1.859   2.810  -2.637  0.00  0.00    -0.074 A 
ATOM      3  C2  UNL d   1       1.664   2.825  -4.022  0.00  0.00    -0.005 A 
ATOM      4  C3  UNL d   1       1.500   1.630  -4.722  0.00  0.00     0.006 A 
ATOM      5  C4  UNL d   1       1.529   0.410  -4.045  0.00  0.00    -0.005 A 
ATOM      6  C5  UNL d   1       1.724   0.375  -2.661  0.00  0.00    -0.074 A 
ATOM      7  C6  UNL d   1       1.767  -0.928  -1.919  0.00  0.00     0.077 C 
ATOM      8  C7  UNL d   1       1.895   1.580  -1.965  0.00  0.00    -0.001 A 
ENDROOT
TORSDOF 0
ENDMDL
