MODEL 1
REMARK minimizedAffinity 6.03706932
REMARK minimizedRMSD -1
REMARK  0 active torsions:
REMARK  status: ('A' for Active; 'I' for Inactive)
ROOT
ATOM      1  C   UNL d   1       4.963  -0.212   4.968  0.00  0.00     0.077 C 
ATOM      2  C1  UNL d   1       4.939   1.067   4.185  0.00  0.00    -0.074 A 
ATOM      3  C2  UNL d   1       5.997   1.978   4.265  0.00  0.00    -0.005 A 
ATOM      4  C3  UNL d   1       5.966   3.159   3.524  0.00  0.00     0.006 A 
ATOM      5  C4  UNL d   1       4.878   3.441   2.697  0.00  0.00    -0.005 A 
ATOM      6  C5  UNL d   1       3.811   2.541   2.603  0.00  0.00    -0.074 A 
ATOM      7  C6  UNL d   1       2.639   2.823   1.711  0.00  0.00     0.077 C 
ATOM      8  C7  UNL d   1       3.854   1.353   3.346  0.00  0.00    -0.001 A 
ENDROOT
TORSDOF 0
ENDMDL
