MODEL 1
REMARK minimizedAffinity 1.02755332
REMARK minimizedRMSD -1
REMARK  0 active torsions:
REMARK  status: ('A' for Active; 'I' for Inactive)
ROOT
ATOM      1  C   UNL d   1       3.429   3.329   1.148  0.00  0.00     0.077 C 
ATOM      2  C1  UNL d   1       2.754   3.178  -0.182  0.00  0.00    -0.074 A 
ATOM      3  C2  UNL d   1       2.507   4.291  -0.994  0.00  0.00    -0.005 A 
ATOM      4  C3  UNL d   1       1.887   4.134  -2.233  0.00  0.00     0.006 A 
ATOM      5  C4  UNL d   1       1.507   2.865  -2.673  0.00  0.00    -0.005 A 
ATOM      6  C5  UNL d   1       1.746   1.741  -1.875  0.00  0.00    -0.074 A 
ATOM      7  C6  UNL d   1       1.353   0.369  -2.337  0.00  0.00     0.077 C 
ATOM      8  C7  UNL d   1       2.376   1.906  -0.635  0.00  0.00    -0.001 A 
ENDROOT
TORSDOF 0
ENDMDL
