MODEL 1
REMARK minimizedAffinity 5.78500414
REMARK minimizedRMSD -1
REMARK  0 active torsions:
REMARK  status: ('A' for Active; 'I' for Inactive)
ROOT
ATOM      1  C   UNL d   1       4.102   0.144   3.185  0.00  0.00     0.077 C 
ATOM      2  C1  UNL d   1       4.492  -0.946   4.139  0.00  0.00    -0.074 A 
ATOM      3  C2  UNL d   1       5.652  -0.842   4.914  0.00  0.00    -0.005 A 
ATOM      4  C3  UNL d   1       5.996  -1.858   5.804  0.00  0.00     0.006 A 
ATOM      5  C4  UNL d   1       5.186  -2.988   5.929  0.00  0.00    -0.005 A 
ATOM      6  C5  UNL d   1       4.022  -3.109   5.164  0.00  0.00    -0.074 A 
ATOM      7  C6  UNL d   1       3.135  -4.311   5.293  0.00  0.00     0.077 C 
ATOM      8  C7  UNL d   1       3.679  -2.080   4.276  0.00  0.00    -0.001 A 
ENDROOT
TORSDOF 0
ENDMDL
