MODEL 1
REMARK minimizedAffinity 0.863788605
REMARK minimizedRMSD -1
REMARK  0 active torsions:
REMARK  status: ('A' for Active; 'I' for Inactive)
ROOT
ATOM      1  C   UNL d   1       1.263   0.201  -2.338  0.00  0.00     0.077 C 
ATOM      2  C1  UNL d   1       1.435   1.355  -3.281  0.00  0.00    -0.074 A 
ATOM      3  C2  UNL d   1       0.982   1.278  -4.602  0.00  0.00    -0.005 A 
ATOM      4  C3  UNL d   1       1.140   2.363  -5.464  0.00  0.00     0.006 A 
ATOM      5  C4  UNL d   1       1.752   3.533  -5.016  0.00  0.00    -0.005 A 
ATOM      6  C5  UNL d   1       2.211   3.629  -3.698  0.00  0.00    -0.074 A 
ATOM      7  C6  UNL d   1       2.862   4.884  -3.197  0.00  0.00     0.077 C 
ATOM      8  C7  UNL d   1       2.042   2.538  -2.835  0.00  0.00    -0.001 A 
ENDROOT
TORSDOF 0
ENDMDL
