MODEL 1
REMARK minimizedAffinity 4.50033569
REMARK minimizedRMSD -1
REMARK  0 active torsions:
REMARK  status: ('A' for Active; 'I' for Inactive)
ROOT
ATOM      1  C4' PXY d   1      -1.231   3.266   1.682  0.00  0.00     0.077 C 
ATOM      2  C1' PXY d   1       2.817  -0.129  -0.665  0.00  0.00     0.077 C 
ATOM      3  C1  PXY d   1       1.759   0.757  -0.038  0.00  0.00    -0.082 A 
ATOM      4  C2  PXY d   1       0.735   1.170  -0.767  0.00  0.00     0.003 A 
ATOM      5  C3  PXY d   1      -0.215   1.997  -0.225  0.00  0.00     0.003 A 
ATOM      6  C4  PXY d   1      -0.144   2.363   1.093  0.00  0.00    -0.082 A 
ATOM      7  C5  PXY d   1       0.892   1.938   1.847  0.00  0.00     0.003 A 
ATOM      8  C6  PXY d   1       1.867   1.132   1.266  0.00  0.00     0.003 A 
ENDROOT
TORSDOF 0
ENDMDL
