MODEL 1
REMARK minimizedAffinity 9.62976265
REMARK minimizedRMSD -1
REMARK  0 active torsions:
REMARK  status: ('A' for Active; 'I' for Inactive)
ROOT
ATOM      1  C4' PXY d   1      -2.725   2.196  -5.998  0.00  0.00     0.077 C 
ATOM      2  C1' PXY d   1      -3.560  -1.768  -1.874  0.00  0.00     0.077 C 
ATOM      3  C1  PXY d   1      -3.353  -0.731  -2.960  0.00  0.00    -0.082 A 
ATOM      4  C2  PXY d   1      -2.125  -0.401  -3.324  0.00  0.00     0.003 A 
ATOM      5  C3  PXY d   1      -1.919   0.558  -4.282  0.00  0.00     0.003 A 
ATOM      6  C4  PXY d   1      -2.982   1.147  -4.912  0.00  0.00    -0.082 A 
ATOM      7  C5  PXY d   1      -4.239   0.808  -4.554  0.00  0.00     0.003 A 
ATOM      8  C6  PXY d   1      -4.426  -0.138  -3.550  0.00  0.00     0.003 A 
ENDROOT
TORSDOF 0
ENDMDL
