MODEL 1
REMARK minimizedAffinity 12.0522966
REMARK minimizedRMSD -1
REMARK  0 active torsions:
REMARK  status: ('A' for Active; 'I' for Inactive)
ROOT
ATOM      1  C4' PXY d   1       5.993   2.948   3.086  0.00  0.00     0.077 C 
ATOM      2  C1' PXY d   1       5.981   1.153  -2.409  0.00  0.00     0.077 C 
ATOM      3  C1  PXY d   1       5.979   1.613  -0.964  0.00  0.00    -0.082 A 
ATOM      4  C2  PXY d   1       5.967   2.907  -0.689  0.00  0.00     0.003 A 
ATOM      5  C3  PXY d   1       5.997   3.340   0.612  0.00  0.00     0.003 A 
ATOM      6  C4  PXY d   1       5.986   2.439   1.642  0.00  0.00    -0.082 A 
ATOM      7  C5  PXY d   1       5.987   1.117   1.370  0.00  0.00     0.003 A 
ATOM      8  C6  PXY d   1       5.998   0.698   0.043  0.00  0.00     0.003 A 
ENDROOT
TORSDOF 0
ENDMDL
