MODEL 1
REMARK minimizedAffinity 3.18104434
REMARK minimizedRMSD -1
REMARK  0 active torsions:
REMARK  status: ('A' for Active; 'I' for Inactive)
ROOT
ATOM      1  C4' PXY d   1       3.636  -0.838  -0.413  0.00  0.00     0.077 C 
ATOM      2  C1' PXY d   1      -0.626  -4.705  -0.965  0.00  0.00     0.077 C 
ATOM      3  C1  PXY d   1       0.491  -3.692  -0.807  0.00  0.00    -0.082 A 
ATOM      4  C2  PXY d   1       0.739  -2.834  -1.784  0.00  0.00     0.003 A 
ATOM      5  C3  PXY d   1       1.766  -1.933  -1.671  0.00  0.00     0.003 A 
ATOM      6  C4  PXY d   1       2.512  -1.873  -0.525  0.00  0.00    -0.082 A 
ATOM      7  C5  PXY d   1       2.258  -2.737   0.480  0.00  0.00     0.003 A 
ATOM      8  C6  PXY d   1       1.238  -3.672   0.329  0.00  0.00     0.003 A 
ENDROOT
TORSDOF 0
ENDMDL
