MODEL 1
REMARK minimizedAffinity 1.56118369
REMARK minimizedRMSD -1
REMARK  0 active torsions:
REMARK  status: ('A' for Active; 'I' for Inactive)
ROOT
ATOM      1  C4' PXY d   1       4.853   1.409  -0.862  0.00  0.00     0.077 C 
ATOM      2  C1' PXY d   1       0.895  -2.802  -0.743  0.00  0.00     0.077 C 
ATOM      3  C1  PXY d   1       1.924  -1.689  -0.775  0.00  0.00    -0.082 A 
ATOM      4  C2  PXY d   1       3.157  -1.949  -1.178  0.00  0.00     0.003 A 
ATOM      5  C3  PXY d   1       4.108  -0.962  -1.183  0.00  0.00     0.003 A 
ATOM      6  C4  PXY d   1       3.780   0.318  -0.823  0.00  0.00    -0.082 A 
ATOM      7  C5  PXY d   1       2.521   0.594  -0.421  0.00  0.00     0.003 A 
ATOM      8  C6  PXY d   1       1.581  -0.432  -0.383  0.00  0.00     0.003 A 
ENDROOT
TORSDOF 0
ENDMDL
