MODEL 1
REMARK minimizedAffinity 5.80330038
REMARK minimizedRMSD -1
REMARK  0 active torsions:
REMARK  status: ('A' for Active; 'I' for Inactive)
ROOT
ATOM      1  C4' PXY d   1       6.000   2.875  -0.353  0.00  0.00     0.077 C 
ATOM      2  C1' PXY d   1       2.768  -1.820  -1.319  0.00  0.00     0.077 C 
ATOM      3  C1  PXY d   1       3.622  -0.591  -1.076  0.00  0.00    -0.082 A 
ATOM      4  C2  PXY d   1       3.736  -0.105   0.149  0.00  0.00     0.003 A 
ATOM      5  C3  PXY d   1       4.479   1.024   0.381  0.00  0.00     0.003 A 
ATOM      6  C4  PXY d   1       5.155   1.631  -0.643  0.00  0.00    -0.082 A 
ATOM      7  C5  PXY d   1       5.053   1.134  -1.894  0.00  0.00     0.003 A 
ATOM      8  C6  PXY d   1       4.261   0.012  -2.116  0.00  0.00     0.003 A 
ENDROOT
TORSDOF 0
ENDMDL
