MODEL 1
REMARK minimizedAffinity 9.35852718
REMARK minimizedRMSD -1
REMARK  0 active torsions:
REMARK  status: ('A' for Active; 'I' for Inactive)
ROOT
ATOM      1  C4' PXY d   1       1.829   5.509   3.509  0.00  0.00     0.077 C 
ATOM      2  C1' PXY d   1      -0.744   1.232   0.594  0.00  0.00     0.077 C 
ATOM      3  C1  PXY d   1      -0.063   2.345   1.366  0.00  0.00    -0.082 A 
ATOM      4  C2  PXY d   1      -0.600   3.554   1.380  0.00  0.00     0.003 A 
ATOM      5  C3  PXY d   1       0.019   4.580   2.047  0.00  0.00     0.003 A 
ATOM      6  C4  PXY d   1       1.172   4.353   2.751  0.00  0.00    -0.082 A 
ATOM      7  C5  PXY d   1       1.719   3.119   2.750  0.00  0.00     0.003 A 
ATOM      8  C6  PXY d   1       1.097   2.101   2.034  0.00  0.00     0.003 A 
ENDROOT
TORSDOF 0
ENDMDL
