MODEL 1
REMARK minimizedAffinity 11.9685612
REMARK minimizedRMSD -1
REMARK  0 active torsions:
REMARK  status: ('A' for Active; 'I' for Inactive)
ROOT
ATOM      1  C4' PXY d   1       2.680  -2.249   0.934  0.00  0.00     0.077 C 
ATOM      2  C1' PXY d   1       4.984   2.039  -2.183  0.00  0.00     0.077 C 
ATOM      3  C1  PXY d   1       4.369   0.916  -1.373  0.00  0.00    -0.082 A 
ATOM      4  C2  PXY d   1       4.821   0.664  -0.155  0.00  0.00     0.003 A 
ATOM      5  C3  PXY d   1       4.298  -0.369   0.580  0.00  0.00     0.003 A 
ATOM      6  C4  PXY d   1       3.265  -1.118   0.083  0.00  0.00    -0.082 A 
ATOM      7  C5  PXY d   1       2.791  -0.861  -1.154  0.00  0.00     0.003 A 
ATOM      8  C6  PXY d   1       3.363   0.166  -1.900  0.00  0.00     0.003 A 
ENDROOT
TORSDOF 0
ENDMDL
