MODEL 1
REMARK minimizedAffinity 0.426937044
REMARK minimizedRMSD -1
REMARK  0 active torsions:
REMARK  status: ('A' for Active; 'I' for Inactive)
ROOT
ATOM      1  C   UNL d   1      -1.500  -2.513   4.248  0.00  0.00    -0.002 A 
ATOM      2  C1  UNL d   1      -0.157  -2.831   4.392  0.00  0.00     0.010 A 
ATOM      3  C2  UNL d   1       0.821  -2.115   3.700  0.00  0.00     0.041 A 
ATOM      4  C3  UNL d   1       0.424  -1.062   2.853  0.00  0.00    -0.075 A 
ATOM      5  S   UNL d   1       1.446  -0.046   1.906  0.00  0.00     0.015 SA
ATOM      6  C4  UNL d   1       0.124   0.835   1.288  0.00  0.00     0.022 A 
ATOM      7  C5  UNL d   1      -1.075   0.379   1.781  0.00  0.00     0.026 A 
ATOM      8  C6  UNL d   1      -0.923  -0.721   2.691  0.00  0.00    -0.082 A 
ATOM      9  C7  UNL d   1      -1.891  -1.467   3.406  0.00  0.00     0.045 A 
ENDROOT
TORSDOF 0
ENDMDL
