MODEL 1
REMARK minimizedAffinity 3.1239419
REMARK minimizedRMSD -1
REMARK  0 active torsions:
REMARK  status: ('A' for Active; 'I' for Inactive)
ROOT
ATOM      1  C   UNL d   1       1.847  -1.042   3.594  0.00  0.00    -0.002 A 
ATOM      2  C1  UNL d   1       1.468  -2.156   4.329  0.00  0.00     0.010 A 
ATOM      3  C2  UNL d   1       0.152  -2.619   4.290  0.00  0.00     0.041 A 
ATOM      4  C3  UNL d   1      -0.787  -1.938   3.490  0.00  0.00    -0.075 A 
ATOM      5  S   UNL d   1      -2.455  -2.325   3.287  0.00  0.00     0.015 SA
ATOM      6  C4  UNL d   1      -2.704  -1.020   2.218  0.00  0.00     0.022 A 
ATOM      7  C5  UNL d   1      -1.553  -0.297   2.011  0.00  0.00     0.026 A 
ATOM      8  C6  UNL d   1      -0.429  -0.814   2.740  0.00  0.00    -0.082 A 
ATOM      9  C7  UNL d   1       0.913  -0.368   2.802  0.00  0.00     0.045 A 
ENDROOT
TORSDOF 0
ENDMDL
