MODEL 1
REMARK minimizedAffinity 8.10243702
REMARK minimizedRMSD -1
REMARK  0 active torsions:
REMARK  status: ('A' for Active; 'I' for Inactive)
ROOT
ATOM      1  C   UNL d   1       2.251  -2.104   3.716  0.00  0.00    -0.002 A 
ATOM      2  C1  UNL d   1       1.371  -3.014   4.284  0.00  0.00     0.010 A 
ATOM      3  C2  UNL d   1      -0.008  -2.870   4.115  0.00  0.00     0.041 A 
ATOM      4  C3  UNL d   1      -0.492  -1.786   3.356  0.00  0.00    -0.075 A 
ATOM      5  S   UNL d   1      -2.139  -1.409   3.015  0.00  0.00     0.015 SA
ATOM      6  C4  UNL d   1      -1.713  -0.032   2.106  0.00  0.00     0.022 A 
ATOM      7  C5  UNL d   1      -0.352   0.151   2.054  0.00  0.00     0.026 A 
ATOM      8  C6  UNL d   1       0.375  -0.857   2.773  0.00  0.00    -0.082 A 
ATOM      9  C7  UNL d   1       1.767  -1.030   2.964  0.00  0.00     0.045 A 
ENDROOT
TORSDOF 0
ENDMDL
