MODEL 1
REMARK minimizedAffinity 1.40248299
REMARK minimizedRMSD -1
REMARK  0 active torsions:
REMARK  status: ('A' for Active; 'I' for Inactive)
ROOT
ATOM      1  C   UNL d   1       2.362  -1.526   3.569  0.00  0.00    -0.002 A 
ATOM      2  C1  UNL d   1       1.400  -2.030   4.432  0.00  0.00     0.010 A 
ATOM      3  C2  UNL d   1       0.045  -1.771   4.215  0.00  0.00     0.041 A 
ATOM      4  C3  UNL d   1      -0.330  -0.992   3.103  0.00  0.00    -0.075 A 
ATOM      5  S   UNL d   1      -1.929  -0.547   2.637  0.00  0.00     0.015 SA
ATOM      6  C4  UNL d   1      -1.373   0.321   1.280  0.00  0.00     0.022 A 
ATOM      7  C5  UNL d   1      -0.003   0.284   1.170  0.00  0.00     0.026 A 
ATOM      8  C6  UNL d   1       0.621  -0.474   2.219  0.00  0.00    -0.082 A 
ATOM      9  C7  UNL d   1       1.986  -0.753   2.467  0.00  0.00     0.045 A 
ENDROOT
TORSDOF 0
ENDMDL
