MODEL 1
REMARK minimizedAffinity 6.07242203
REMARK minimizedRMSD -1
REMARK  0 active torsions:
REMARK  status: ('A' for Active; 'I' for Inactive)
ROOT
ATOM      1  C   UNL d   1      -0.045  -6.000  -5.979  0.00  0.00    -0.002 A 
ATOM      2  C1  UNL d   1       1.342  -5.996  -5.951  0.00  0.00     0.010 A 
ATOM      3  C2  UNL d   1       2.029  -5.499  -4.841  0.00  0.00     0.041 A 
ATOM      4  C3  UNL d   1       1.291  -5.002  -3.749  0.00  0.00    -0.075 A 
ATOM      5  S   UNL d   1       1.918  -4.344  -2.284  0.00  0.00     0.015 SA
ATOM      6  C4  UNL d   1       0.359  -4.053  -1.661  0.00  0.00     0.022 A 
ATOM      7  C5  UNL d   1      -0.628  -4.442  -2.536  0.00  0.00     0.026 A 
ATOM      8  C6  UNL d   1      -0.107  -4.995  -3.754  0.00  0.00    -0.082 A 
ATOM      9  C7  UNL d   1      -0.774  -5.506  -4.893  0.00  0.00     0.045 A 
ENDROOT
TORSDOF 0
ENDMDL
