MODEL 1
REMARK minimizedAffinity 9.84173775
REMARK minimizedRMSD -1
REMARK  0 active torsions:
REMARK  status: ('A' for Active; 'I' for Inactive)
ROOT
ATOM      1  C   UNL d   1      -3.030   1.181  -1.246  0.00  0.00    -0.002 A 
ATOM      2  C1  UNL d   1      -3.041  -0.157  -1.612  0.00  0.00     0.010 A 
ATOM      3  C2  UNL d   1      -2.377  -1.110  -0.837  0.00  0.00     0.041 A 
ATOM      4  C3  UNL d   1      -1.698  -0.692   0.325  0.00  0.00    -0.075 A 
ATOM      5  S   UNL d   1      -0.817  -1.682   1.428  0.00  0.00     0.015 SA
ATOM      6  C4  UNL d   1      -0.408  -0.351   2.411  0.00  0.00     0.022 A 
ATOM      7  C5  UNL d   1      -0.922   0.827   1.924  0.00  0.00     0.026 A 
ATOM      8  C6  UNL d   1      -1.674   0.650   0.714  0.00  0.00    -0.082 A 
ATOM      9  C7  UNL d   1      -2.356   1.593  -0.093  0.00  0.00     0.045 A 
ENDROOT
TORSDOF 0
ENDMDL
