MODEL 1
REMARK minimizedAffinity 4.56304884
REMARK minimizedRMSD -1
REMARK  0 active torsions:
REMARK  status: ('A' for Active; 'I' for Inactive)
ROOT
ATOM      1  C   UNL d   1       3.978   2.665   2.245  0.00  0.00    -0.002 A 
ATOM      2  C1  UNL d   1       4.542   2.443   3.494  0.00  0.00     0.010 A 
ATOM      3  C2  UNL d   1       4.214   1.303   4.229  0.00  0.00     0.041 A 
ATOM      4  C3  UNL d   1       3.303   0.378   3.681  0.00  0.00    -0.075 A 
ATOM      5  S   UNL d   1       2.754  -1.090   4.400  0.00  0.00     0.015 SA
ATOM      6  C4  UNL d   1       1.759  -1.458   3.066  0.00  0.00     0.022 A 
ATOM      7  C5  UNL d   1       1.832  -0.496   2.087  0.00  0.00     0.026 A 
ATOM      8  C6  UNL d   1       2.723   0.578   2.425  0.00  0.00    -0.082 A 
ATOM      9  C7  UNL d   1       3.075   1.745   1.705  0.00  0.00     0.045 A 
ENDROOT
TORSDOF 0
ENDMDL
