MODEL 1
REMARK minimizedAffinity -0.310004175
REMARK minimizedRMSD -1
REMARK  1 active torsions:
REMARK  status: ('A' for Active; 'I' for Inactive)
REMARK    1  A    between atoms: C1_2  and  C2_3 
ROOT
ATOM      1  C2  UNL d   1       0.205  -0.050  -0.785  0.00  0.00    -0.076 A 
ATOM      2  C3  UNL d   1      -1.124   0.259  -1.124  0.00  0.00     0.004 A 
ATOM      3  C4  UNL d   1      -2.115   0.335  -0.147  0.00  0.00    -0.003 A 
ATOM      4  C5  UNL d   1      -1.793   0.104   1.186  0.00  0.00     0.000 A 
ATOM      5  C6  UNL d   1      -0.477  -0.187   1.543  0.00  0.00     0.000 A 
ATOM      6  C7  UNL d   1       0.537  -0.251   0.572  0.00  0.00    -0.073 A 
ATOM      7  C8  UNL d   1       1.939  -0.574   1.012  0.00  0.00     0.078 C 
ENDROOT
BRANCH   1   8
ATOM      8  C1  UNL d   1       1.231  -0.145  -1.891  0.00  0.00     0.053 C 
ATOM      9  C   UNL d   1       0.607  -0.055  -3.275  0.00  0.00     0.018 C 
ENDBRANCH   1   8
TORSDOF 1
ENDMDL
