MODEL 1
REMARK minimizedAffinity -1.92516947
REMARK minimizedRMSD -1
REMARK  1 active torsions:
REMARK  status: ('A' for Active; 'I' for Inactive)
REMARK    1  A    between atoms: C1_2  and  C2_3 
ROOT
ATOM      1  C2  UNL d   1       0.561  -0.483  -0.937  0.00  0.00    -0.076 A 
ATOM      2  C3  UNL d   1       1.825  -1.045  -0.686  0.00  0.00     0.004 A 
ATOM      3  C4  UNL d   1       2.361  -1.060   0.600  0.00  0.00    -0.003 A 
ATOM      4  C5  UNL d   1       1.642  -0.514   1.657  0.00  0.00     0.000 A 
ATOM      5  C6  UNL d   1       0.379   0.032   1.430  0.00  0.00     0.000 A 
ATOM      6  C7  UNL d   1      -0.183   0.040   0.142  0.00  0.00    -0.073 A 
ATOM      7  C8  UNL d   1      -1.546   0.647  -0.047  0.00  0.00     0.078 C 
ENDROOT
BRANCH   1   8
ATOM      8  C1  UNL d   1       0.043  -0.471  -2.357  0.00  0.00     0.053 C 
ATOM      9  C   UNL d   1       0.813   0.489  -3.251  0.00  0.00     0.018 C 
ENDBRANCH   1   8
TORSDOF 1
ENDMDL
