MODEL 1
REMARK minimizedAffinity -1.564291
REMARK minimizedRMSD -1
REMARK  1 active torsions:
REMARK  status: ('A' for Active; 'I' for Inactive)
REMARK    1  A    between atoms: C1_2  and  C2_3 
ROOT
ATOM      1  C2  UNL d   1       0.151   0.850  -1.423  0.00  0.00    -0.076 A 
ATOM      2  C3  UNL d   1       0.374   1.901  -2.329  0.00  0.00     0.004 A 
ATOM      3  C4  UNL d   1       0.930   1.660  -3.584  0.00  0.00    -0.003 A 
ATOM      4  C5  UNL d   1       1.272   0.364  -3.954  0.00  0.00     0.000 A 
ATOM      5  C6  UNL d   1       1.041  -0.693  -3.074  0.00  0.00     0.000 A 
ATOM      6  C7  UNL d   1       0.466  -0.470  -1.811  0.00  0.00    -0.073 A 
ATOM      7  C8  UNL d   1       0.245  -1.646  -0.900  0.00  0.00     0.078 C 
ENDROOT
BRANCH   1   8
ATOM      8  C1  UNL d   1      -0.430   1.175  -0.065  0.00  0.00     0.053 C 
ATOM      9  C   UNL d   1      -1.868   0.700   0.082  0.00  0.00     0.018 C 
ENDBRANCH   1   8
TORSDOF 1
ENDMDL
