MODEL 1
REMARK minimizedAffinity -3.86949754
REMARK minimizedRMSD -1
REMARK  1 active torsions:
REMARK  status: ('A' for Active; 'I' for Inactive)
REMARK    1  A    between atoms: C1_2  and  C2_3 
ROOT
ATOM      1  C2  UNL d   1      -0.240  -0.110   1.560  0.00  0.00    -0.076 A 
ATOM      2  C3  UNL d   1       1.111  -0.500   1.551  0.00  0.00     0.004 A 
ATOM      3  C4  UNL d   1       1.712  -0.976   0.387  0.00  0.00    -0.003 A 
ATOM      4  C5  UNL d   1       0.972  -1.070  -0.787  0.00  0.00     0.000 A 
ATOM      5  C6  UNL d   1      -0.364  -0.671  -0.800  0.00  0.00     0.000 A 
ATOM      6  C7  UNL d   1      -0.981  -0.173   0.361  0.00  0.00    -0.073 A 
ATOM      7  C8  UNL d   1      -2.426   0.237   0.291  0.00  0.00     0.078 C 
ENDROOT
BRANCH   1   8
ATOM      8  C1  UNL d   1      -0.845   0.373   2.859  0.00  0.00     0.053 C 
ATOM      9  C   UNL d   1      -0.057  -0.087   4.076  0.00  0.00     0.018 C 
ENDBRANCH   1   8
TORSDOF 1
ENDMDL
