MODEL 1
REMARK minimizedAffinity -4.272645
REMARK minimizedRMSD -1
REMARK  1 active torsions:
REMARK  status: ('A' for Active; 'I' for Inactive)
REMARK    1  A    between atoms: C1_2  and  C2_3 
ROOT
ATOM      1  C2  UNL d   1       0.189   0.016   1.692  0.00  0.00    -0.076 A 
ATOM      2  C3  UNL d   1      -0.891   0.524   2.435  0.00  0.00     0.004 A 
ATOM      3  C4  UNL d   1      -2.132   0.742   1.839  0.00  0.00    -0.003 A 
ATOM      4  C5  UNL d   1      -2.314   0.456   0.491  0.00  0.00     0.000 A 
ATOM      5  C6  UNL d   1      -1.259  -0.066  -0.257  0.00  0.00     0.000 A 
ATOM      6  C7  UNL d   1      -0.006  -0.307   0.332  0.00  0.00    -0.073 A 
ATOM      7  C8  UNL d   1       1.099  -0.865  -0.524  0.00  0.00     0.078 C 
ENDROOT
BRANCH   1   8
ATOM      8  C1  UNL d   1       1.519  -0.175   2.385  0.00  0.00     0.053 C 
ATOM      9  C   UNL d   1       1.373  -0.348   3.889  0.00  0.00     0.018 C 
ENDBRANCH   1   8
TORSDOF 1
ENDMDL
