MODEL 1
REMARK minimizedAffinity -0.882621169
REMARK minimizedRMSD -1
REMARK  0 active torsions:
REMARK  status: ('A' for Active; 'I' for Inactive)
ROOT
ATOM      1  C   UNL d   1      -0.237   1.373  -1.263  0.00  0.00     0.124 A 
ATOM      2  C1  UNL d   1      -0.651   1.115   0.036  0.00  0.00     0.062 A 
ATOM      3  C2  UNL d   1      -0.616  -0.184   0.536  0.00  0.00     0.162 A 
ATOM      4  C3  UNL d   1      -0.165  -1.234  -0.263  0.00  0.00    -0.034 A 
ATOM      5  C4  UNL d   1       0.249  -0.966  -1.569  0.00  0.00     0.162 A 
ATOM      6  C5  UNL d   1       0.212   0.333  -2.064  0.00  0.00     0.062 A 
ATOM      7  F   UNL d   1       0.612   0.581  -3.320  0.00  0.00    -0.097 F 
ATOM      8  F1  UNL d   1       0.688  -1.953  -2.365  0.00  0.00    -0.096 F 
ATOM      9  I   UNL d   1      -0.112  -3.177   0.481  0.00  0.00    -0.060 I 
ATOM     10  F2  UNL d   1      -1.022  -0.404   1.796  0.00  0.00    -0.096 F 
ATOM     11  F3  UNL d   1      -1.086   2.118   0.812  0.00  0.00    -0.097 F 
ATOM     12  F4  UNL d   1      -0.272   2.624  -1.742  0.00  0.00    -0.092 F 
ENDROOT
TORSDOF 0
ENDMDL
