MODEL 1
REMARK minimizedAffinity 0.107057676
REMARK minimizedRMSD -1
REMARK  0 active torsions:
REMARK  status: ('A' for Active; 'I' for Inactive)
ROOT
ATOM      1  C   UNL d   1       0.196  -3.033   0.151  0.00  0.00     0.124 A 
ATOM      2  C1  UNL d   1       0.941  -2.525  -0.904  0.00  0.00     0.062 A 
ATOM      3  C2  UNL d   1       0.906  -1.164  -1.193  0.00  0.00     0.162 A 
ATOM      4  C3  UNL d   1       0.125  -0.300  -0.426  0.00  0.00    -0.034 A 
ATOM      5  C4  UNL d   1      -0.622  -0.819   0.634  0.00  0.00     0.162 A 
ATOM      6  C5  UNL d   1      -0.585  -2.180   0.919  0.00  0.00     0.062 A 
ATOM      7  F   UNL d   1      -1.305  -2.669   1.939  0.00  0.00    -0.097 F 
ATOM      8  F1  UNL d   1      -1.384  -0.017   1.392  0.00  0.00    -0.096 F 
ATOM      9  I   UNL d   1       0.071   1.735  -0.855  0.00  0.00    -0.060 I 
ATOM     10  F2  UNL d   1       1.636  -0.700  -2.219  0.00  0.00    -0.096 F 
ATOM     11  F3  UNL d   1       1.695  -3.347  -1.648  0.00  0.00    -0.097 F 
ATOM     12  F4  UNL d   1       0.230  -4.343   0.427  0.00  0.00    -0.092 F 
ENDROOT
TORSDOF 0
ENDMDL
