MODEL 1
REMARK minimizedAffinity 1.3402878
REMARK minimizedRMSD -1
REMARK  0 active torsions:
REMARK  status: ('A' for Active; 'I' for Inactive)
ROOT
ATOM      1  C   UNL d   1      -0.517  -1.732  -0.168  0.00  0.00     0.124 A 
ATOM      2  C1  UNL d   1       0.186  -0.927  -1.054  0.00  0.00     0.062 A 
ATOM      3  C2  UNL d   1       0.315   0.437  -0.808  0.00  0.00     0.162 A 
ATOM      4  C3  UNL d   1      -0.260   1.005   0.329  0.00  0.00    -0.034 A 
ATOM      5  C4  UNL d   1      -0.966   0.189   1.215  0.00  0.00     0.162 A 
ATOM      6  C5  UNL d   1      -1.092  -1.174   0.965  0.00  0.00     0.062 A 
ATOM      7  F   UNL d   1      -1.772  -1.950   1.821  0.00  0.00    -0.097 F 
ATOM      8  F1  UNL d   1      -1.531   0.702   2.318  0.00  0.00    -0.096 F 
ATOM      9  I   UNL d   1      -0.069   3.044   0.700  0.00  0.00    -0.060 I 
ATOM     10  F2  UNL d   1       1.000   1.192  -1.680  0.00  0.00    -0.096 F 
ATOM     11  F3  UNL d   1       0.742  -1.463  -2.149  0.00  0.00    -0.097 F 
ATOM     12  F4  UNL d   1      -0.640  -3.044  -0.408  0.00  0.00    -0.092 F 
ENDROOT
TORSDOF 0
ENDMDL
