MODEL 1
REMARK minimizedAffinity -1.00196028
REMARK minimizedRMSD -1
REMARK  0 active torsions:
REMARK  status: ('A' for Active; 'I' for Inactive)
ROOT
ATOM      1  C   UNL d   1       0.475  -1.781  -0.515  0.00  0.00     0.124 A 
ATOM      2  C1  UNL d   1       0.384  -0.812  -1.504  0.00  0.00     0.062 A 
ATOM      3  C2  UNL d   1       0.393   0.538  -1.165  0.00  0.00     0.162 A 
ATOM      4  C3  UNL d   1       0.496   0.927   0.171  0.00  0.00    -0.034 A 
ATOM      5  C4  UNL d   1       0.586  -0.054   1.160  0.00  0.00     0.162 A 
ATOM      6  C5  UNL d   1       0.576  -1.402   0.816  0.00  0.00     0.062 A 
ATOM      7  F   UNL d   1       0.664  -2.337   1.773  0.00  0.00    -0.097 F 
ATOM      8  F1  UNL d   1       0.686   0.285   2.454  0.00  0.00    -0.096 F 
ATOM      9  I   UNL d   1       0.511   2.944   0.683  0.00  0.00    -0.060 I 
ATOM     10  F2  UNL d   1       0.304   1.453  -2.142  0.00  0.00    -0.096 F 
ATOM     11  F3  UNL d   1       0.285  -1.176  -2.791  0.00  0.00    -0.097 F 
ATOM     12  F4  UNL d   1       0.464  -3.079  -0.845  0.00  0.00    -0.092 F 
ENDROOT
TORSDOF 0
ENDMDL
