MODEL 1
REMARK minimizedAffinity -1.47803736
REMARK minimizedRMSD -1
REMARK  0 active torsions:
REMARK  status: ('A' for Active; 'I' for Inactive)
ROOT
ATOM      1  C   UNL d   1       0.194  -1.917  -0.453  0.00  0.00     0.124 A 
ATOM      2  C1  UNL d   1       0.331  -1.437   0.842  0.00  0.00     0.062 A 
ATOM      3  C2  UNL d   1       0.422  -0.068   1.075  0.00  0.00     0.162 A 
ATOM      4  C3  UNL d   1       0.376   0.832   0.010  0.00  0.00    -0.034 A 
ATOM      5  C4  UNL d   1       0.239   0.342  -1.290  0.00  0.00     0.162 A 
ATOM      6  C5  UNL d   1       0.148  -1.028  -1.518  0.00  0.00     0.062 A 
ATOM      7  F   UNL d   1       0.016  -1.490  -2.770  0.00  0.00    -0.097 F 
ATOM      8  F1  UNL d   1       0.190   1.179  -2.337  0.00  0.00    -0.096 F 
ATOM      9  I   UNL d   1       0.511   2.880   0.354  0.00  0.00    -0.060 I 
ATOM     10  F2  UNL d   1       0.554   0.368   2.337  0.00  0.00    -0.096 F 
ATOM     11  F3  UNL d   1       0.377  -2.294   1.872  0.00  0.00    -0.097 F 
ATOM     12  F4  UNL d   1       0.108  -3.235  -0.675  0.00  0.00    -0.092 F 
ENDROOT
TORSDOF 0
ENDMDL
