MODEL 1
REMARK minimizedAffinity 1.11657488
REMARK minimizedRMSD -1
REMARK  0 active torsions:
REMARK  status: ('A' for Active; 'I' for Inactive)
ROOT
ATOM      1  C   UNL d   1      -1.282  -1.840   0.912  0.00  0.00     0.124 A 
ATOM      2  C1  UNL d   1      -0.176  -1.942   0.080  0.00  0.00     0.062 A 
ATOM      3  C2  UNL d   1       0.516  -0.799  -0.308  0.00  0.00     0.162 A 
ATOM      4  C3  UNL d   1       0.104   0.458   0.136  0.00  0.00    -0.034 A 
ATOM      5  C4  UNL d   1      -1.010   0.553   0.972  0.00  0.00     0.162 A 
ATOM      6  C5  UNL d   1      -1.698  -0.593   1.357  0.00  0.00     0.062 A 
ATOM      7  F   UNL d   1      -2.767  -0.492   2.160  0.00  0.00    -0.097 F 
ATOM      8  F1  UNL d   1      -1.433   1.745   1.417  0.00  0.00    -0.096 F 
ATOM      9  I   UNL d   1       1.137   2.170  -0.441  0.00  0.00    -0.060 I 
ATOM     10  F2  UNL d   1       1.582  -0.927  -1.112  0.00  0.00    -0.096 F 
ATOM     11  F3  UNL d   1       0.227  -3.146  -0.352  0.00  0.00    -0.097 F 
ATOM     12  F4  UNL d   1      -1.947  -2.942   1.282  0.00  0.00    -0.092 F 
ENDROOT
TORSDOF 0
ENDMDL
