MODEL 1
REMARK minimizedAffinity 0.168505803
REMARK minimizedRMSD -1
REMARK  0 active torsions:
REMARK  status: ('A' for Active; 'I' for Inactive)
ROOT
ATOM      1  C   UNL d   1      -0.715  -2.788   0.070  0.00  0.00     0.124 A 
ATOM      2  C1  UNL d   1      -1.490  -1.992   0.902  0.00  0.00     0.062 A 
ATOM      3  C2  UNL d   1      -1.202  -0.637   1.041  0.00  0.00     0.162 A 
ATOM      4  C3  UNL d   1      -0.135  -0.069   0.346  0.00  0.00    -0.034 A 
ATOM      5  C4  UNL d   1       0.641  -0.876  -0.488  0.00  0.00     0.162 A 
ATOM      6  C5  UNL d   1       0.349  -2.230  -0.624  0.00  0.00     0.062 A 
ATOM      7  F   UNL d   1       1.099  -2.998  -1.428  0.00  0.00    -0.097 F 
ATOM      8  F1  UNL d   1       1.674  -0.363  -1.171  0.00  0.00    -0.096 F 
ATOM      9  I   UNL d   1       0.298   1.956   0.551  0.00  0.00    -0.060 I 
ATOM     10  F2  UNL d   1      -1.968   0.108   1.852  0.00  0.00    -0.096 F 
ATOM     11  F3  UNL d   1      -2.518  -2.529   1.575  0.00  0.00    -0.097 F 
ATOM     12  F4  UNL d   1      -0.993  -4.091  -0.061  0.00  0.00    -0.092 F 
ENDROOT
TORSDOF 0
ENDMDL
