MODEL 1
REMARK minimizedAffinity 0.386408031
REMARK minimizedRMSD -1
REMARK  0 active torsions:
REMARK  status: ('A' for Active; 'I' for Inactive)
ROOT
ATOM      1  C   UNL d   1      -0.288   0.793  -1.172  0.00  0.00     0.124 A 
ATOM      2  C1  UNL d   1      -0.756   0.427   0.082  0.00  0.00     0.062 A 
ATOM      3  C2  UNL d   1      -0.458  -0.830   0.601  0.00  0.00     0.162 A 
ATOM      4  C3  UNL d   1       0.314  -1.730  -0.134  0.00  0.00    -0.034 A 
ATOM      5  C4  UNL d   1       0.780  -1.355  -1.395  0.00  0.00     0.162 A 
ATOM      6  C5  UNL d   1       0.479  -0.098  -1.909  0.00  0.00     0.062 A 
ATOM      7  F   UNL d   1       0.932   0.254  -3.122  0.00  0.00    -0.097 F 
ATOM      8  F1  UNL d   1       1.524  -2.196  -2.129  0.00  0.00    -0.096 F 
ATOM      9  I   UNL d   1       0.762  -3.610   0.639  0.00  0.00    -0.060 I 
ATOM     10  F2  UNL d   1      -0.923  -1.156   1.816  0.00  0.00    -0.096 F 
ATOM     11  F3  UNL d   1      -1.498   1.286   0.796  0.00  0.00    -0.097 F 
ATOM     12  F4  UNL d   1      -0.577   2.002  -1.669  0.00  0.00    -0.092 F 
ENDROOT
TORSDOF 0
ENDMDL
