MODEL 1
REMARK minimizedAffinity -3.67115664
REMARK minimizedRMSD -1
REMARK  0 active torsions:
REMARK  status: ('A' for Active; 'I' for Inactive)
ROOT
ATOM      1  C   UNL d   1       0.009  -2.582  -0.422  0.00  0.00     0.124 A 
ATOM      2  C1  UNL d   1       0.376  -1.734  -1.457  0.00  0.00     0.062 A 
ATOM      3  C2  UNL d   1       0.391  -0.356  -1.262  0.00  0.00     0.162 A 
ATOM      4  C3  UNL d   1       0.038   0.183  -0.025  0.00  0.00    -0.034 A 
ATOM      5  C4  UNL d   1      -0.332  -0.676   1.011  0.00  0.00     0.162 A 
ATOM      6  C5  UNL d   1      -0.345  -2.052   0.811  0.00  0.00     0.062 A 
ATOM      7  F   UNL d   1      -0.700  -2.870   1.813  0.00  0.00    -0.097 F 
ATOM      8  F1  UNL d   1      -0.677  -0.191   2.213  0.00  0.00    -0.096 F 
ATOM      9  I   UNL d   1       0.059   2.243   0.271  0.00  0.00    -0.060 I 
ATOM     10  F2  UNL d   1       0.751   0.440  -2.280  0.00  0.00    -0.096 F 
ATOM     11  F3  UNL d   1       0.718  -2.243  -2.650  0.00  0.00    -0.097 F 
ATOM     12  F4  UNL d   1      -0.005  -3.907  -0.613  0.00  0.00    -0.092 F 
ENDROOT
TORSDOF 0
ENDMDL
