MODEL 1
REMARK minimizedAffinity -1.87453794
REMARK minimizedRMSD -1
REMARK  0 active torsions:
REMARK  status: ('A' for Active; 'I' for Inactive)
ROOT
ATOM      1  C   UNL d   1      -0.315  -2.268   0.196  0.00  0.00     0.124 A 
ATOM      2  C1  UNL d   1      -1.052  -1.538   1.117  0.00  0.00     0.062 A 
ATOM      3  C2  UNL d   1      -0.749  -0.200   1.353  0.00  0.00     0.162 A 
ATOM      4  C3  UNL d   1       0.296   0.417   0.665  0.00  0.00    -0.034 A 
ATOM      5  C4  UNL d   1       1.033  -0.325  -0.259  0.00  0.00     0.162 A 
ATOM      6  C5  UNL d   1       0.726  -1.662  -0.491  0.00  0.00     0.062 A 
ATOM      7  F   UNL d   1       1.440  -2.366  -1.382  0.00  0.00    -0.097 F 
ATOM      8  F1  UNL d   1       2.045   0.237  -0.938  0.00  0.00    -0.096 F 
ATOM      9  I   UNL d   1       0.752   2.417   1.015  0.00  0.00    -0.060 I 
ATOM     10  F2  UNL d   1      -1.478   0.482   2.249  0.00  0.00    -0.096 F 
ATOM     11  F3  UNL d   1      -2.059  -2.122   1.783  0.00  0.00    -0.097 F 
ATOM     12  F4  UNL d   1      -0.608  -3.556  -0.028  0.00  0.00    -0.092 F 
ENDROOT
TORSDOF 0
ENDMDL
