MODEL 1
REMARK minimizedAffinity -0.718437433
REMARK minimizedRMSD -1
REMARK  0 active torsions:
REMARK  status: ('A' for Active; 'I' for Inactive)
ROOT
ATOM      1  C   UNL d   1      -0.945  -1.525   1.163  0.00  0.00     0.124 A 
ATOM      2  C1  UNL d   1       0.078  -1.961   0.333  0.00  0.00     0.062 A 
ATOM      3  C2  UNL d   1       0.870  -1.039  -0.346  0.00  0.00     0.162 A 
ATOM      4  C3  UNL d   1       0.642   0.329  -0.196  0.00  0.00    -0.034 A 
ATOM      5  C4  UNL d   1      -0.389   0.760   0.640  0.00  0.00     0.162 A 
ATOM      6  C5  UNL d   1      -1.178  -0.165   1.316  0.00  0.00     0.062 A 
ATOM      7  F   UNL d   1      -2.166   0.258   2.118  0.00  0.00    -0.097 F 
ATOM      8  F1  UNL d   1      -0.635   2.068   0.807  0.00  0.00    -0.096 F 
ATOM      9  I   UNL d   1       1.824   1.711  -1.209  0.00  0.00    -0.060 I 
ATOM     10  F2  UNL d   1       1.852  -1.488  -1.141  0.00  0.00    -0.096 F 
ATOM     11  F3  UNL d   1       0.305  -3.274   0.183  0.00  0.00    -0.097 F 
ATOM     12  F4  UNL d   1      -1.706  -2.414   1.814  0.00  0.00    -0.092 F 
ENDROOT
TORSDOF 0
ENDMDL
