MODEL 1
REMARK minimizedAffinity -0.903101683
REMARK minimizedRMSD -1
REMARK  0 active torsions:
REMARK  status: ('A' for Active; 'I' for Inactive)
ROOT
ATOM      1  C   UNL d   1      -0.334  -2.000  -0.254  0.00  0.00     0.124 A 
ATOM      2  C1  UNL d   1       0.477  -1.199  -1.045  0.00  0.00     0.062 A 
ATOM      3  C2  UNL d   1       0.552   0.171  -0.808  0.00  0.00     0.162 A 
ATOM      4  C3  UNL d   1      -0.185   0.748   0.226  0.00  0.00    -0.034 A 
ATOM      5  C4  UNL d   1      -1.000  -0.065   1.017  0.00  0.00     0.162 A 
ATOM      6  C5  UNL d   1      -1.071  -1.433   0.776  0.00  0.00     0.062 A 
ATOM      7  F   UNL d   1      -1.856  -2.206   1.541  0.00  0.00    -0.097 F 
ATOM      8  F1  UNL d   1      -1.722   0.457   2.019  0.00  0.00    -0.096 F 
ATOM      9  I   UNL d   1      -0.076   2.795   0.583  0.00  0.00    -0.060 I 
ATOM     10  F2  UNL d   1       1.345   0.921  -1.588  0.00  0.00    -0.096 F 
ATOM     11  F3  UNL d   1       1.190  -1.744  -2.041  0.00  0.00    -0.097 F 
ATOM     12  F4  UNL d   1      -0.405  -3.318  -0.484  0.00  0.00    -0.092 F 
ENDROOT
TORSDOF 0
ENDMDL
