MODEL 1
REMARK minimizedAffinity 0.571080506
REMARK minimizedRMSD -1
REMARK  0 active torsions:
REMARK  status: ('A' for Active; 'I' for Inactive)
ROOT
ATOM      1  C   UNL d   1      -0.570   0.744   0.249  0.00  0.00     0.124 A 
ATOM      2  C1  UNL d   1      -1.319  -0.188   0.952  0.00  0.00     0.062 A 
ATOM      3  C2  UNL d   1      -1.112  -1.550   0.750  0.00  0.00     0.162 A 
ATOM      4  C3  UNL d   1      -0.148  -1.987  -0.159  0.00  0.00    -0.034 A 
ATOM      5  C4  UNL d   1       0.601  -1.044  -0.863  0.00  0.00     0.162 A 
ATOM      6  C5  UNL d   1       0.390   0.316  -0.658  0.00  0.00     0.062 A 
ATOM      7  F   UNL d   1       1.115   1.215  -1.339  0.00  0.00    -0.097 F 
ATOM      8  F1  UNL d   1       1.535  -1.430  -1.745  0.00  0.00    -0.096 F 
ATOM      9  I   UNL d   1       0.166  -4.022  -0.463  0.00  0.00    -0.060 I 
ATOM     10  F2  UNL d   1      -1.851  -2.428   1.444  0.00  0.00    -0.096 F 
ATOM     11  F3  UNL d   1      -2.248   0.223   1.828  0.00  0.00    -0.097 F 
ATOM     12  F4  UNL d   1      -0.773   2.053   0.444  0.00  0.00    -0.092 F 
ENDROOT
TORSDOF 0
ENDMDL
