MODEL 1
REMARK minimizedAffinity -0.0376094282
REMARK minimizedRMSD -1
REMARK  0 active torsions:
REMARK  status: ('A' for Active; 'I' for Inactive)
ROOT
ATOM      1  C   UNL d   1      -0.025  -2.093   0.253  0.00  0.00     0.124 A 
ATOM      2  C1  UNL d   1      -0.621  -1.493   1.354  0.00  0.00     0.062 A 
ATOM      3  C2  UNL d   1      -0.580  -0.109   1.504  0.00  0.00     0.162 A 
ATOM      4  C3  UNL d   1       0.059   0.683   0.550  0.00  0.00    -0.034 A 
ATOM      5  C4  UNL d   1       0.656   0.072  -0.553  0.00  0.00     0.162 A 
ATOM      6  C5  UNL d   1       0.612  -1.311  -0.699  0.00  0.00     0.062 A 
ATOM      7  F   UNL d   1       1.188  -1.889  -1.763  0.00  0.00    -0.097 F 
ATOM      8  F1  UNL d   1       1.278   0.804  -1.489  0.00  0.00    -0.096 F 
ATOM      9  I   UNL d   1       0.122   2.752   0.771  0.00  0.00    -0.060 I 
ATOM     10  F2  UNL d   1      -1.163   0.444   2.578  0.00  0.00    -0.096 F 
ATOM     11  F3  UNL d   1      -1.236  -2.247   2.276  0.00  0.00    -0.097 F 
ATOM     12  F4  UNL d   1      -0.065  -3.424   0.112  0.00  0.00    -0.092 F 
ENDROOT
TORSDOF 0
ENDMDL
