MODEL 1
REMARK minimizedAffinity -1.64142239
REMARK minimizedRMSD -1
REMARK  0 active torsions:
REMARK  status: ('A' for Active; 'I' for Inactive)
ROOT
ATOM      1  C   UNL d   1       0.795  -1.805  -1.399  0.00  0.00     0.124 A 
ATOM      2  C1  UNL d   1       0.575  -2.733  -0.390  0.00  0.00     0.062 A 
ATOM      3  C2  UNL d   1      -0.150  -2.376   0.743  0.00  0.00     0.162 A 
ATOM      4  C3  UNL d   1      -0.663  -1.085   0.873  0.00  0.00    -0.034 A 
ATOM      5  C4  UNL d   1      -0.437  -0.157  -0.145  0.00  0.00     0.162 A 
ATOM      6  C5  UNL d   1       0.289  -0.519  -1.276  0.00  0.00     0.062 A 
ATOM      7  F   UNL d   1       0.500   0.379  -2.249  0.00  0.00    -0.097 F 
ATOM      8  F1  UNL d   1      -0.916   1.092  -0.052  0.00  0.00    -0.096 F 
ATOM      9  I   UNL d   1      -1.748  -0.548   2.566  0.00  0.00    -0.060 I 
ATOM     10  F2  UNL d   1      -0.347  -3.293   1.702  0.00  0.00    -0.096 F 
ATOM     11  F3  UNL d   1       1.064  -3.976  -0.507  0.00  0.00    -0.097 F 
ATOM     12  F4  UNL d   1       1.494  -2.150  -2.488  0.00  0.00    -0.092 F 
ENDROOT
TORSDOF 0
ENDMDL
