MODEL 1
REMARK minimizedAffinity 5.223526
REMARK minimizedRMSD -1
REMARK  0 active torsions:
REMARK  status: ('A' for Active; 'I' for Inactive)
ROOT
ATOM      1  C   UNL d   1      -0.269  -3.272   0.457  0.00  0.00     0.124 A 
ATOM      2  C1  UNL d   1       0.899  -2.758  -0.091  0.00  0.00     0.062 A 
ATOM      3  C2  UNL d   1       1.062  -1.382  -0.225  0.00  0.00     0.162 A 
ATOM      4  C3  UNL d   1       0.056  -0.510   0.190  0.00  0.00    -0.034 A 
ATOM      5  C4  UNL d   1      -1.116  -1.034   0.738  0.00  0.00     0.162 A 
ATOM      6  C5  UNL d   1      -1.275  -2.410   0.870  0.00  0.00     0.062 A 
ATOM      7  F   UNL d   1      -2.403  -2.905   1.399  0.00  0.00    -0.097 F 
ATOM      8  F1  UNL d   1      -2.104  -0.224   1.147  0.00  0.00    -0.096 F 
ATOM      9  I   UNL d   1       0.296   1.548  -0.010  0.00  0.00    -0.060 I 
ATOM     10  F2  UNL d   1       2.201  -0.913  -0.757  0.00  0.00    -0.096 F 
ATOM     11  F3  UNL d   1       1.872  -3.588  -0.492  0.00  0.00    -0.097 F 
ATOM     12  F4  UNL d   1      -0.424  -4.596   0.584  0.00  0.00    -0.092 F 
ENDROOT
TORSDOF 0
ENDMDL
