MODEL 1
REMARK minimizedAffinity 3.64875388
REMARK minimizedRMSD -1
REMARK  0 active torsions:
REMARK  status: ('A' for Active; 'I' for Inactive)
ROOT
ATOM      1  C   UNL d   1       0.520   1.186  -0.934  0.00  0.00     0.124 A 
ATOM      2  C1  UNL d   1       0.291   0.912   0.407  0.00  0.00     0.062 A 
ATOM      3  C2  UNL d   1      -0.165  -0.344   0.796  0.00  0.00     0.162 A 
ATOM      4  C3  UNL d   1      -0.394  -1.336  -0.157  0.00  0.00    -0.034 A 
ATOM      5  C4  UNL d   1      -0.163  -1.053  -1.504  0.00  0.00     0.162 A 
ATOM      6  C5  UNL d   1       0.293   0.204  -1.888  0.00  0.00     0.062 A 
ATOM      7  F   UNL d   1       0.513   0.468  -3.185  0.00  0.00    -0.097 F 
ATOM      8  F1  UNL d   1      -0.373  -1.983  -2.447  0.00  0.00    -0.096 F 
ATOM      9  I   UNL d   1      -1.076  -3.216   0.421  0.00  0.00    -0.060 I 
ATOM     10  F2  UNL d   1      -0.377  -0.582   2.099  0.00  0.00    -0.096 F 
ATOM     11  F3  UNL d   1       0.509   1.859   1.330  0.00  0.00    -0.097 F 
ATOM     12  F4  UNL d   1       0.958   2.396  -1.306  0.00  0.00    -0.092 F 
ENDROOT
TORSDOF 0
ENDMDL
