MODEL 1
REMARK minimizedAffinity -1.74830735
REMARK minimizedRMSD -1
REMARK  0 active torsions:
REMARK  status: ('A' for Active; 'I' for Inactive)
ROOT
ATOM      1  C   UNL d   1      -0.144  -2.283   0.024  0.00  0.00     0.124 A 
ATOM      2  C1  UNL d   1      -0.799  -1.694   1.097  0.00  0.00     0.062 A 
ATOM      3  C2  UNL d   1      -0.880  -0.308   1.191  0.00  0.00     0.162 A 
ATOM      4  C3  UNL d   1      -0.305   0.500   0.210  0.00  0.00    -0.034 A 
ATOM      5  C4  UNL d   1       0.354  -0.100  -0.865  0.00  0.00     0.162 A 
ATOM      6  C5  UNL d   1       0.432  -1.486  -0.955  0.00  0.00     0.062 A 
ATOM      7  F   UNL d   1       1.065  -2.054  -1.992  0.00  0.00    -0.097 F 
ATOM      8  F1  UNL d   1       0.918   0.646  -1.826  0.00  0.00    -0.096 F 
ATOM      9  I   UNL d   1      -0.424   2.573   0.348  0.00  0.00    -0.060 I 
ATOM     10  F2  UNL d   1      -1.519   0.235   2.238  0.00  0.00    -0.096 F 
ATOM     11  F3  UNL d   1      -1.355  -2.462   2.045  0.00  0.00    -0.097 F 
ATOM     12  F4  UNL d   1      -0.067  -3.617  -0.064  0.00  0.00    -0.092 F 
ENDROOT
TORSDOF 0
ENDMDL
