MODEL 1
REMARK minimizedAffinity 0.222937271
REMARK minimizedRMSD -1
REMARK  0 active torsions:
REMARK  status: ('A' for Active; 'I' for Inactive)
ROOT
ATOM      1  C   UNL d   1      -0.266  -2.766   0.105  0.00  0.00     0.124 A 
ATOM      2  C1  UNL d   1      -1.061  -1.953   0.901  0.00  0.00     0.062 A 
ATOM      3  C2  UNL d   1      -0.881  -0.572   0.891  0.00  0.00     0.162 A 
ATOM      4  C3  UNL d   1       0.098   0.004   0.082  0.00  0.00    -0.034 A 
ATOM      5  C4  UNL d   1       0.894  -0.820  -0.715  0.00  0.00     0.162 A 
ATOM      6  C5  UNL d   1       0.711  -2.199  -0.702  0.00  0.00     0.062 A 
ATOM      7  F   UNL d   1       1.480  -2.983  -1.472  0.00  0.00    -0.097 F 
ATOM      8  F1  UNL d   1       1.845  -0.299  -1.505  0.00  0.00    -0.096 F 
ATOM      9  I   UNL d   1       0.370   2.067   0.065  0.00  0.00    -0.060 I 
ATOM     10  F2  UNL d   1      -1.663   0.189   1.671  0.00  0.00    -0.096 F 
ATOM     11  F3  UNL d   1      -2.004  -2.498   1.682  0.00  0.00    -0.097 F 
ATOM     12  F4  UNL d   1      -0.441  -4.093   0.117  0.00  0.00    -0.092 F 
ENDROOT
TORSDOF 0
ENDMDL
