MODEL 1
REMARK minimizedAffinity 3.03500199
REMARK minimizedRMSD -1
REMARK  0 active torsions:
REMARK  status: ('A' for Active; 'I' for Inactive)
ROOT
ATOM      1  C   UNL d   1       1.825  -0.687  -1.539  0.00  0.00     0.078 C 
ATOM      2  C1  UNL d   1       3.043   0.071  -1.101  0.00  0.00    -0.077 A 
ATOM      3  C2  UNL d   1       3.356   0.210   0.257  0.00  0.00    -0.001 A 
ATOM      4  C3  UNL d   1       4.487   0.926   0.651  0.00  0.00     0.003 A 
ATOM      5  C4  UNL d   1       5.315   1.509  -0.307  0.00  0.00    -0.005 A 
ATOM      6  C5  UNL d   1       5.011   1.377  -1.660  0.00  0.00     0.003 A 
ATOM      7  C6  UNL d   1       3.880   0.662  -2.056  0.00  0.00    -0.001 A 
ENDROOT
TORSDOF 0
ENDMDL
