MODEL 1
REMARK minimizedAffinity 3.30635476
REMARK minimizedRMSD -1
REMARK  0 active torsions:
REMARK  status: ('A' for Active; 'I' for Inactive)
ROOT
ATOM      1  C   UNL d   1       5.999   2.715  -2.714  0.00  0.00     0.078 C 
ATOM      2  C1  UNL d   1       5.100   1.908  -1.826  0.00  0.00    -0.077 A 
ATOM      3  C2  UNL d   1       4.021   1.188  -2.354  0.00  0.00    -0.001 A 
ATOM      4  C3  UNL d   1       3.187   0.450  -1.513  0.00  0.00     0.003 A 
ATOM      5  C4  UNL d   1       3.421   0.425  -0.140  0.00  0.00    -0.005 A 
ATOM      6  C5  UNL d   1       4.490   1.141   0.395  0.00  0.00     0.003 A 
ATOM      7  C6  UNL d   1       5.326   1.880  -0.444  0.00  0.00    -0.001 A 
ENDROOT
TORSDOF 0
ENDMDL
