MODEL 1
REMARK minimizedAffinity -0.555788517
REMARK minimizedRMSD -1
REMARK  0 active torsions:
REMARK  status: ('A' for Active; 'I' for Inactive)
ROOT
ATOM      1  C   UNL d   1       5.743   2.717  -2.808  0.00  0.00     0.078 C 
ATOM      2  C1  UNL d   1       4.864   1.908  -1.902  0.00  0.00    -0.077 A 
ATOM      3  C2  UNL d   1       3.803   1.151  -2.414  0.00  0.00    -0.001 A 
ATOM      4  C3  UNL d   1       2.987   0.410  -1.557  0.00  0.00     0.003 A 
ATOM      5  C4  UNL d   1       3.222   0.420  -0.184  0.00  0.00    -0.005 A 
ATOM      6  C5  UNL d   1       4.274   1.172   0.335  0.00  0.00     0.003 A 
ATOM      7  C6  UNL d   1       5.091   1.913  -0.520  0.00  0.00    -0.001 A 
ENDROOT
TORSDOF 0
ENDMDL
