MODEL 1
REMARK minimizedAffinity 4.98317432
REMARK minimizedRMSD -1
REMARK  0 active torsions:
REMARK  status: ('A' for Active; 'I' for Inactive)
ROOT
ATOM      1  C   UNL d   1      -0.120   3.536   0.363  0.00  0.00     0.078 C 
ATOM      2  C1  UNL d   1       0.824   2.378   0.231  0.00  0.00    -0.077 A 
ATOM      3  C2  UNL d   1       0.634   1.402  -0.755  0.00  0.00    -0.001 A 
ATOM      4  C3  UNL d   1       1.515   0.325  -0.861  0.00  0.00     0.003 A 
ATOM      5  C4  UNL d   1       2.592   0.213   0.016  0.00  0.00    -0.005 A 
ATOM      6  C5  UNL d   1       2.788   1.178   1.002  0.00  0.00     0.003 A 
ATOM      7  C6  UNL d   1       1.908   2.256   1.109  0.00  0.00    -0.001 A 
ENDROOT
TORSDOF 0
ENDMDL
