MODEL 1
REMARK minimizedAffinity -0.378603548
REMARK minimizedRMSD -1
REMARK  0 active torsions:
REMARK  status: ('A' for Active; 'I' for Inactive)
ROOT
ATOM      1  C   UNL d   1       5.580   2.736  -2.882  0.00  0.00     0.078 C 
ATOM      2  C1  UNL d   1       4.775   1.925  -1.912  0.00  0.00    -0.077 A 
ATOM      3  C2  UNL d   1       3.716   1.120  -2.349  0.00  0.00    -0.001 A 
ATOM      4  C3  UNL d   1       2.968   0.378  -1.433  0.00  0.00     0.003 A 
ATOM      5  C4  UNL d   1       3.270   0.435  -0.074  0.00  0.00    -0.005 A 
ATOM      6  C5  UNL d   1       4.320   1.235   0.371  0.00  0.00     0.003 A 
ATOM      7  C6  UNL d   1       5.069   1.978  -0.544  0.00  0.00    -0.001 A 
ENDROOT
TORSDOF 0
ENDMDL
