MODEL 1
REMARK minimizedAffinity 4.22457361
REMARK minimizedRMSD -1
REMARK  0 active torsions:
REMARK  status: ('A' for Active; 'I' for Inactive)
ROOT
ATOM      1  C   UNL d   1       5.464   2.393  -2.775  0.00  0.00     0.078 C 
ATOM      2  C1  UNL d   1       4.424   1.638  -2.002  0.00  0.00    -0.077 A 
ATOM      3  C2  UNL d   1       4.369   1.713  -0.605  0.00  0.00    -0.001 A 
ATOM      4  C3  UNL d   1       3.402   0.997   0.103  0.00  0.00     0.003 A 
ATOM      5  C4  UNL d   1       2.484   0.200  -0.578  0.00  0.00    -0.005 A 
ATOM      6  C5  UNL d   1       2.532   0.117  -1.968  0.00  0.00     0.003 A 
ATOM      7  C6  UNL d   1       3.498   0.833  -2.677  0.00  0.00    -0.001 A 
ENDROOT
TORSDOF 0
ENDMDL
