MODEL 1
REMARK minimizedAffinity 2.63156223
REMARK minimizedRMSD -1
REMARK  0 active torsions:
REMARK  status: ('A' for Active; 'I' for Inactive)
ROOT
ATOM      1  C   UNL d   1       4.447   1.912  -3.120  0.00  0.00     0.078 C 
ATOM      2  C1  UNL d   1       3.530   0.753  -2.866  0.00  0.00    -0.077 A 
ATOM      3  C2  UNL d   1       2.857   0.619  -1.646  0.00  0.00    -0.001 A 
ATOM      4  C3  UNL d   1       2.015  -0.471  -1.419  0.00  0.00     0.003 A 
ATOM      5  C4  UNL d   1       1.839  -1.436  -2.409  0.00  0.00    -0.005 A 
ATOM      6  C5  UNL d   1       2.506  -1.313  -3.626  0.00  0.00     0.003 A 
ATOM      7  C6  UNL d   1       3.348  -0.224  -3.854  0.00  0.00    -0.001 A 
ENDROOT
TORSDOF 0
ENDMDL
