MODEL 1
REMARK minimizedAffinity 13.4276056
REMARK minimizedRMSD -1
REMARK  0 active torsions:
REMARK  status: ('A' for Active; 'I' for Inactive)
ROOT
ATOM      1  C   UNL d   1      -4.510  -2.608  -5.989  0.00  0.00     0.078 C 
ATOM      2  C1  UNL d   1      -4.730  -1.213  -5.484  0.00  0.00    -0.077 A 
ATOM      3  C2  UNL d   1      -3.909  -0.668  -4.490  0.00  0.00    -0.001 A 
ATOM      4  C3  UNL d   1      -4.131   0.628  -4.022  0.00  0.00     0.003 A 
ATOM      5  C4  UNL d   1      -5.176   1.390  -4.542  0.00  0.00    -0.005 A 
ATOM      6  C5  UNL d   1      -6.000   0.855  -5.530  0.00  0.00     0.003 A 
ATOM      7  C6  UNL d   1      -5.779  -0.440  -5.999  0.00  0.00    -0.001 A 
ENDROOT
TORSDOF 0
ENDMDL
