MODEL 1
REMARK minimizedAffinity -1.32213855
REMARK minimizedRMSD -1
REMARK  0 active torsions:
REMARK  status: ('A' for Active; 'I' for Inactive)
ROOT
ATOM      1  N1  IND d   1      -1.105  -0.983   2.368  0.00  0.00    -0.196 N 
ATOM      2  C2  IND d   1      -1.770  -0.675   1.215  0.00  0.00     0.054 A 
ATOM      3  C3  IND d   1      -0.897  -0.295   0.255  0.00  0.00    -0.031 A 
ATOM      4  C4  IND d   1       1.675  -0.203   0.328  0.00  0.00     0.051 A 
ATOM      5  C5  IND d   1       2.735  -0.357   1.177  0.00  0.00    -0.031 A 
ATOM      6  C6  IND d   1       2.565  -0.739   2.492  0.00  0.00     0.015 A 
ATOM      7  C7  IND d   1       1.325  -0.992   3.007  0.00  0.00    -0.016 A 
ATOM      8  C8  IND d   1       0.246  -0.829   2.150  0.00  0.00    -0.047 A 
ATOM      9  C9  IND d   1       0.409  -0.401   0.826  0.00  0.00    -0.096 A 
ATOM     10  HN1 IND d   1      -1.469  -1.232   3.106  0.00  0.00     0.298 HD
ENDROOT
TORSDOF 0
ENDMDL
