MODEL 1
REMARK minimizedAffinity -4.31891966
REMARK minimizedRMSD -1
REMARK  0 active torsions:
REMARK  status: ('A' for Active; 'I' for Inactive)
ROOT
ATOM      1  N1  IND d   1       0.249   0.004  -0.806  0.00  0.00    -0.196 N 
ATOM      2  C2  IND d   1      -0.757   0.629  -0.123  0.00  0.00     0.054 A 
ATOM      3  C3  IND d   1      -0.677   0.344   1.196  0.00  0.00    -0.031 A 
ATOM      4  C4  IND d   1       1.082  -1.041   2.466  0.00  0.00     0.051 A 
ATOM      5  C5  IND d   1       2.173  -1.840   2.268  0.00  0.00    -0.031 A 
ATOM      6  C6  IND d   1       2.691  -2.067   1.009  0.00  0.00     0.015 A 
ATOM      7  C7  IND d   1       2.141  -1.492  -0.102  0.00  0.00    -0.016 A 
ATOM      8  C8  IND d   1       1.029  -0.687   0.095  0.00  0.00    -0.047 A 
ATOM      9  C9  IND d   1       0.473  -0.487   1.366  0.00  0.00    -0.096 A 
ATOM     10  HN1 IND d   1       0.374   0.037  -1.657  0.00  0.00     0.298 HD
ENDROOT
TORSDOF 0
ENDMDL
