MODEL 1
REMARK minimizedAffinity -3.12906361
REMARK minimizedRMSD -1
REMARK  0 active torsions:
REMARK  status: ('A' for Active; 'I' for Inactive)
ROOT
ATOM      1  N1  IND d   1      -1.570   0.008   0.109  0.00  0.00    -0.196 N 
ATOM      2  C2  IND d   1      -1.087   0.500  -1.072  0.00  0.00     0.054 A 
ATOM      3  C3  IND d   1       0.263   0.427  -1.094  0.00  0.00    -0.031 A 
ATOM      4  C4  IND d   1       1.877  -0.556   0.654  0.00  0.00     0.051 A 
ATOM      5  C5  IND d   1       1.908  -1.089   1.912  0.00  0.00    -0.031 A 
ATOM      6  C6  IND d   1       0.758  -1.291   2.647  0.00  0.00     0.015 A 
ATOM      7  C7  IND d   1      -0.473  -0.975   2.144  0.00  0.00    -0.016 A 
ATOM      8  C8  IND d   1      -0.508  -0.427   0.870  0.00  0.00    -0.047 A 
ATOM      9  C9  IND d   1       0.660  -0.181   0.136  0.00  0.00    -0.096 A 
ATOM     10  HN1 IND d   1      -2.398  -0.024   0.337  0.00  0.00     0.298 HD
ENDROOT
TORSDOF 0
ENDMDL
