MODEL 1
REMARK minimizedAffinity -2.99777436
REMARK minimizedRMSD -1
REMARK  0 active torsions:
REMARK  status: ('A' for Active; 'I' for Inactive)
ROOT
ATOM      1  N1  IND d   1       0.038  -1.033   2.554  0.00  0.00    -0.196 N 
ATOM      2  C2  IND d   1       1.345  -0.780   2.864  0.00  0.00     0.054 A 
ATOM      3  C3  IND d   1       1.946  -0.107   1.857  0.00  0.00    -0.031 A 
ATOM      4  C4  IND d   1       0.947   0.771  -0.348  0.00  0.00     0.051 A 
ATOM      5  C5  IND d   1      -0.198   0.754  -1.094  0.00  0.00    -0.031 A 
ATOM      6  C6  IND d   1      -1.346   0.130  -0.652  0.00  0.00     0.015 A 
ATOM      7  C7  IND d   1      -1.397  -0.493   0.563  0.00  0.00    -0.016 A 
ATOM      8  C8  IND d   1      -0.234  -0.484   1.320  0.00  0.00    -0.047 A 
ATOM      9  C9  IND d   1       0.948   0.111   0.858  0.00  0.00    -0.096 A 
ATOM     10  HN1 IND d   1      -0.520  -1.463   3.046  0.00  0.00     0.298 HD
ENDROOT
TORSDOF 0
ENDMDL
