MODEL 1
REMARK minimizedAffinity -5.51246119
REMARK minimizedRMSD -1
REMARK  0 active torsions:
REMARK  status: ('A' for Active; 'I' for Inactive)
ROOT
ATOM      1  N1  IND d   1      -0.820   0.145   0.382  0.00  0.00    -0.196 N 
ATOM      2  C2  IND d   1      -0.449   0.051  -0.930  0.00  0.00     0.054 A 
ATOM      3  C3  IND d   1       0.795  -0.469  -1.031  0.00  0.00    -0.031 A 
ATOM      4  C4  IND d   1       2.362  -1.333   0.820  0.00  0.00     0.051 A 
ATOM      5  C5  IND d   1       2.477  -1.424   2.178  0.00  0.00    -0.031 A 
ATOM      6  C6  IND d   1       1.477  -0.990   3.025  0.00  0.00     0.015 A 
ATOM      7  C7  IND d   1       0.316  -0.457   2.542  0.00  0.00    -0.016 A 
ATOM      8  C8  IND d   1       0.199  -0.357   1.163  0.00  0.00    -0.047 A 
ATOM      9  C9  IND d   1       1.227  -0.757   0.300  0.00  0.00    -0.096 A 
ATOM     10  HN1 IND d   1      -1.564   0.463   0.672  0.00  0.00     0.298 HD
ENDROOT
TORSDOF 0
ENDMDL
