MODEL 1
REMARK minimizedAffinity -0.545769811
REMARK minimizedRMSD -1
REMARK  2 active torsions:
REMARK  status: ('A' for Active; 'I' for Inactive)
REMARK    1  A    between atoms: C2'_3  and  C1'_4 
REMARK    2  A    between atoms: C1'_4  and  C1_5 
ROOT
ATOM      1  C1  I4B d   1       0.872  -2.138  -0.838  0.00  0.00    -0.075 A 
ATOM      2  C2  I4B d   1      -0.361  -2.627  -0.484  0.00  0.00     0.003 A 
ATOM      3  C3  I4B d   1      -0.465  -3.815   0.279  0.00  0.00     0.002 A 
ATOM      4  C4  I4B d   1       0.680  -4.505   0.621  0.00  0.00    -0.004 A 
ATOM      5  C5  I4B d   1       1.930  -3.996   0.281  0.00  0.00     0.002 A 
ATOM      6  C6  I4B d   1       2.028  -2.799  -0.442  0.00  0.00     0.003 A 
ENDROOT
BRANCH   1   7
ATOM      7  C1' I4B d   1       0.944  -0.899  -1.672  0.00  0.00     0.060 C 
BRANCH   7   8
ATOM      8  C2' I4B d   1       2.046  -0.023  -1.112  0.00  0.00    -0.013 C 
ATOM      9  C4' I4B d   1       3.149   0.175  -2.119  0.00  0.00     0.013 C 
ATOM     10  C3' I4B d   1       1.438   1.287  -0.711  0.00  0.00     0.013 C 
ENDBRANCH   7   8
ENDBRANCH   1   7
TORSDOF 2
ENDMDL
