MODEL 1
REMARK minimizedAffinity 4.23715115
REMARK minimizedRMSD -1
REMARK  2 active torsions:
REMARK  status: ('A' for Active; 'I' for Inactive)
REMARK    1  A    between atoms: C2'_3  and  C1'_4 
REMARK    2  A    between atoms: C1'_4  and  C1_5 
ROOT
ATOM      1  C1  I4B d   1       0.874   0.692  -1.343  0.00  0.00    -0.075 A 
ATOM      2  C2  I4B d   1       1.851   1.147  -0.492  0.00  0.00     0.003 A 
ATOM      3  C3  I4B d   1       1.870   2.504  -0.090  0.00  0.00     0.002 A 
ATOM      4  C4  I4B d   1       0.930   3.377  -0.599  0.00  0.00    -0.004 A 
ATOM      5  C5  I4B d   1      -0.073   2.909  -1.443  0.00  0.00     0.002 A 
ATOM      6  C6  I4B d   1      -0.109   1.555  -1.808  0.00  0.00     0.003 A 
ENDROOT
BRANCH   1   7
ATOM      7  C1' I4B d   1       0.904  -0.741  -1.773  0.00  0.00     0.060 C 
BRANCH   7   8
ATOM      8  C2' I4B d   1       1.174  -1.591  -0.548  0.00  0.00    -0.013 C 
ATOM      9  C4' I4B d   1       0.015  -2.507  -0.254  0.00  0.00     0.013 C 
ATOM     10  C3' I4B d   1       2.431  -2.370  -0.793  0.00  0.00     0.013 C 
ENDBRANCH   7   8
ENDBRANCH   1   7
TORSDOF 2
ENDMDL
