MODEL 1
REMARK minimizedAffinity 3.19663835
REMARK minimizedRMSD -1
REMARK  2 active torsions:
REMARK  status: ('A' for Active; 'I' for Inactive)
REMARK    1  A    between atoms: C2'_3  and  C1'_4 
REMARK    2  A    between atoms: C1'_4  and  C1_5 
ROOT
ATOM      1  C1  I4B d   1       0.050  -0.856  -2.126  0.00  0.00    -0.075 A 
ATOM      2  C2  I4B d   1       0.223   0.462  -2.468  0.00  0.00     0.003 A 
ATOM      3  C3  I4B d   1       0.152   0.861  -3.824  0.00  0.00     0.002 A 
ATOM      4  C4  I4B d   1      -0.044  -0.090  -4.804  0.00  0.00    -0.004 A 
ATOM      5  C5  I4B d   1      -0.242  -1.423  -4.454  0.00  0.00     0.002 A 
ATOM      6  C6  I4B d   1      -0.208  -1.807  -3.105  0.00  0.00     0.003 A 
ENDROOT
BRANCH   1   7
ATOM      7  C1' I4B d   1       0.164  -1.249  -0.687  0.00  0.00     0.060 C 
BRANCH   7   8
ATOM      8  C2' I4B d   1       1.600  -1.658  -0.428  0.00  0.00    -0.013 C 
ATOM      9  C4' I4B d   1       1.879  -3.038  -0.962  0.00  0.00     0.013 C 
ATOM     10  C3' I4B d   1       2.495  -0.638  -1.068  0.00  0.00     0.013 C 
ENDBRANCH   7   8
ENDBRANCH   1   7
TORSDOF 2
ENDMDL
