MODEL 1
REMARK minimizedAffinity -1.38607383
REMARK minimizedRMSD -1
REMARK  2 active torsions:
REMARK  status: ('A' for Active; 'I' for Inactive)
REMARK    1  A    between atoms: C2'_3  and  C1'_4 
REMARK    2  A    between atoms: C1'_4  and  C1_5 
ROOT
ATOM      1  C1  I4B d   1       1.234  -2.638   0.206  0.00  0.00    -0.075 A 
ATOM      2  C2  I4B d   1       2.020  -2.293  -0.865  0.00  0.00     0.003 A 
ATOM      3  C3  I4B d   1       1.573  -1.322  -1.794  0.00  0.00     0.002 A 
ATOM      4  C4  I4B d   1       0.321  -0.762  -1.642  0.00  0.00    -0.004 A 
ATOM      5  C5  I4B d   1      -0.465  -1.097  -0.543  0.00  0.00     0.002 A 
ATOM      6  C6  I4B d   1      -0.000  -2.031   0.394  0.00  0.00     0.003 A 
ENDROOT
BRANCH   1   7
ATOM      7  C1' I4B d   1       1.723  -3.692   1.149  0.00  0.00     0.060 C 
BRANCH   7   8
ATOM      8  C2' I4B d   1       0.929  -4.955   0.890  0.00  0.00    -0.013 C 
ATOM      9  C4' I4B d   1       1.205  -5.998   1.941  0.00  0.00     0.013 C 
ATOM     10  C3' I4B d   1      -0.526  -4.590   0.860  0.00  0.00     0.013 C 
ENDBRANCH   7   8
ENDBRANCH   1   7
TORSDOF 2
ENDMDL
