MODEL 1
REMARK minimizedAffinity -4.42143774
REMARK minimizedRMSD -1
REMARK  2 active torsions:
REMARK  status: ('A' for Active; 'I' for Inactive)
REMARK    1  A    between atoms: C2'_3  and  C1'_4 
REMARK    2  A    between atoms: C1'_4  and  C1_5 
ROOT
ATOM      1  C1  I4B d   1       1.230  -2.499  -0.236  0.00  0.00    -0.075 A 
ATOM      2  C2  I4B d   1       2.064  -1.481  -0.626  0.00  0.00     0.003 A 
ATOM      3  C3  I4B d   1       1.541  -0.191  -0.888  0.00  0.00     0.002 A 
ATOM      4  C4  I4B d   1       0.180   0.022  -0.797  0.00  0.00    -0.004 A 
ATOM      5  C5  I4B d   1      -0.661  -1.005  -0.379  0.00  0.00     0.002 A 
ATOM      6  C6  I4B d   1      -0.132  -2.270  -0.085  0.00  0.00     0.003 A 
ENDROOT
BRANCH   1   7
ATOM      7  C1' I4B d   1       1.811  -3.856   0.001  0.00  0.00     0.060 C 
BRANCH   7   8
ATOM      8  C2' I4B d   1       0.854  -4.626   0.888  0.00  0.00    -0.013 C 
ATOM      9  C4' I4B d   1      -0.522  -4.690   0.279  0.00  0.00     0.013 C 
ATOM     10  C3' I4B d   1       1.418  -6.000   1.096  0.00  0.00     0.013 C 
ENDBRANCH   7   8
ENDBRANCH   1   7
TORSDOF 2
ENDMDL
