MODEL 1
REMARK minimizedAffinity 7.39861298
REMARK minimizedRMSD -1
REMARK  2 active torsions:
REMARK  status: ('A' for Active; 'I' for Inactive)
REMARK    1  A    between atoms: C2'_3  and  C1'_4 
REMARK    2  A    between atoms: C1'_4  and  C1_5 
ROOT
ATOM      1  C1  I4B d   1      -4.792  -0.252   2.629  0.00  0.00    -0.075 A 
ATOM      2  C2  I4B d   1      -4.280  -1.512   2.810  0.00  0.00     0.003 A 
ATOM      3  C3  I4B d   1      -3.303  -1.749   3.807  0.00  0.00     0.002 A 
ATOM      4  C4  I4B d   1      -2.832  -0.693   4.561  0.00  0.00    -0.004 A 
ATOM      5  C5  I4B d   1      -3.369   0.580   4.392  0.00  0.00     0.002 A 
ATOM      6  C6  I4B d   1      -4.364   0.800   3.428  0.00  0.00     0.003 A 
ENDROOT
BRANCH   1   7
ATOM      7  C1' I4B d   1      -5.798  -0.031   1.545  0.00  0.00     0.060 C 
BRANCH   7   8
ATOM      8  C2' I4B d   1      -5.049   0.137   0.239  0.00  0.00    -0.013 C 
ATOM      9  C4' I4B d   1      -5.999   0.286  -0.920  0.00  0.00     0.013 C 
ATOM     10  C3' I4B d   1      -4.158   1.337   0.367  0.00  0.00     0.013 C 
ENDBRANCH   7   8
ENDBRANCH   1   7
TORSDOF 2
ENDMDL
