MODEL 1
REMARK minimizedAffinity 0.299993068
REMARK minimizedRMSD -1
REMARK  2 active torsions:
REMARK  status: ('A' for Active; 'I' for Inactive)
REMARK    1  A    between atoms: C2'_3  and  C1'_4 
REMARK    2  A    between atoms: C1'_4  and  C1_5 
ROOT
ATOM      1  C1  I4B d   1       1.367   1.457  -1.607  0.00  0.00    -0.075 A 
ATOM      2  C2  I4B d   1       0.101   1.679  -2.088  0.00  0.00     0.003 A 
ATOM      3  C3  I4B d   1      -0.525   2.934  -1.892  0.00  0.00     0.002 A 
ATOM      4  C4  I4B d   1       0.126   3.914  -1.171  0.00  0.00    -0.004 A 
ATOM      5  C5  I4B d   1       1.419   3.695  -0.705  0.00  0.00     0.002 A 
ATOM      6  C6  I4B d   1       2.049   2.463  -0.934  0.00  0.00     0.003 A 
ENDROOT
BRANCH   1   7
ATOM      7  C1' I4B d   1       1.986   0.109  -1.803  0.00  0.00     0.060 C 
BRANCH   7   8
ATOM      8  C2' I4B d   1       1.077  -0.919  -1.162  0.00  0.00    -0.013 C 
ATOM      9  C4' I4B d   1       0.253  -1.639  -2.196  0.00  0.00     0.013 C 
ATOM     10  C3' I4B d   1       1.935  -1.878  -0.391  0.00  0.00     0.013 C 
ENDBRANCH   7   8
ENDBRANCH   1   7
TORSDOF 2
ENDMDL
