MODEL 1
REMARK minimizedAffinity -0.381267309
REMARK minimizedRMSD -1
REMARK  2 active torsions:
REMARK  status: ('A' for Active; 'I' for Inactive)
REMARK    1  A    between atoms: C2'_3  and  C1'_4 
REMARK    2  A    between atoms: C1'_4  and  C1_5 
ROOT
ATOM      1  C1  I4B d   1       0.992  -2.368   0.054  0.00  0.00    -0.075 A 
ATOM      2  C2  I4B d   1      -0.283  -2.426  -0.449  0.00  0.00     0.003 A 
ATOM      3  C3  I4B d   1      -0.824  -1.320  -1.150  0.00  0.00     0.002 A 
ATOM      4  C4  I4B d   1      -0.078  -0.167  -1.279  0.00  0.00    -0.004 A 
ATOM      5  C5  I4B d   1       1.224  -0.118  -0.787  0.00  0.00     0.002 A 
ATOM      6  C6  I4B d   1       1.767  -1.230  -0.127  0.00  0.00     0.003 A 
ENDROOT
BRANCH   1   7
ATOM      7  C1' I4B d   1       1.519  -3.542   0.818  0.00  0.00     0.060 C 
BRANCH   7   8
ATOM      8  C2' I4B d   1       0.723  -4.763   0.405  0.00  0.00    -0.013 C 
ATOM      9  C4' I4B d   1       1.218  -5.999   1.108  0.00  0.00     0.013 C 
ATOM     10  C3' I4B d   1      -0.720  -4.502   0.720  0.00  0.00     0.013 C 
ENDBRANCH   7   8
ENDBRANCH   1   7
TORSDOF 2
ENDMDL
