MODEL 1
REMARK minimizedAffinity 8.1942482
REMARK minimizedRMSD -1
REMARK  2 active torsions:
REMARK  status: ('A' for Active; 'I' for Inactive)
REMARK    1  A    between atoms: C2'_3  and  C1'_4 
REMARK    2  A    between atoms: C1'_4  and  C1_5 
ROOT
ATOM      1  C1  I4B d   1       1.394  -1.971  -1.059  0.00  0.00    -0.075 A 
ATOM      2  C2  I4B d   1       0.030  -2.057  -0.928  0.00  0.00     0.003 A 
ATOM      3  C3  I4B d   1      -0.767  -0.889  -0.994  0.00  0.00     0.002 A 
ATOM      4  C4  I4B d   1      -0.160   0.341  -1.141  0.00  0.00    -0.004 A 
ATOM      5  C5  I4B d   1       1.221   0.424  -1.296  0.00  0.00     0.002 A 
ATOM      6  C6  I4B d   1       2.002  -0.740  -1.268  0.00  0.00     0.003 A 
ENDROOT
BRANCH   1   7
ATOM      7  C1' I4B d   1       2.209  -3.221  -0.952  0.00  0.00     0.060 C 
BRANCH   7   8
ATOM      8  C2' I4B d   1       2.231  -3.640   0.504  0.00  0.00    -0.013 C 
ATOM      9  C4' I4B d   1       2.306  -5.138   0.639  0.00  0.00     0.013 C 
ATOM     10  C3' I4B d   1       3.405  -2.977   1.159  0.00  0.00     0.013 C 
ENDBRANCH   7   8
ENDBRANCH   1   7
TORSDOF 2
ENDMDL
