MODEL 1
REMARK minimizedAffinity -0.071104452
REMARK minimizedRMSD -1
REMARK  2 active torsions:
REMARK  status: ('A' for Active; 'I' for Inactive)
REMARK    1  A    between atoms: C2'_3  and  C1'_4 
REMARK    2  A    between atoms: C1'_4  and  C1_5 
ROOT
ATOM      1  C1  I4B d   1       1.721  -2.776   0.316  0.00  0.00    -0.075 A 
ATOM      2  C2  I4B d   1       0.518  -2.129   0.453  0.00  0.00     0.003 A 
ATOM      3  C3  I4B d   1       0.123  -1.152  -0.492  0.00  0.00     0.002 A 
ATOM      4  C4  I4B d   1       0.978  -0.819  -1.523  0.00  0.00    -0.004 A 
ATOM      5  C5  I4B d   1       2.187  -1.492  -1.673  0.00  0.00     0.002 A 
ATOM      6  C6  I4B d   1       2.556  -2.486  -0.755  0.00  0.00     0.003 A 
ENDROOT
BRANCH   1   7
ATOM      7  C1' I4B d   1       2.122  -3.779   1.351  0.00  0.00     0.060 C 
BRANCH   7   8
ATOM      8  C2' I4B d   1       1.122  -4.917   1.310  0.00  0.00    -0.013 C 
ATOM      9  C4' I4B d   1      -0.214  -4.450   0.796  0.00  0.00     0.013 C 
ATOM     10  C3' I4B d   1       1.688  -6.000   0.440  0.00  0.00     0.013 C 
ENDBRANCH   7   8
ENDBRANCH   1   7
TORSDOF 2
ENDMDL
