MODEL 1
REMARK minimizedAffinity -1.46237612
REMARK minimizedRMSD -1
REMARK  2 active torsions:
REMARK  status: ('A' for Active; 'I' for Inactive)
REMARK    1  A    between atoms: C2'_3  and  C1'_4 
REMARK    2  A    between atoms: C1'_4  and  C1_5 
ROOT
ATOM      1  C1  I4B d   1      -4.147   1.223   0.904  0.00  0.00    -0.075 A 
ATOM      2  C2  I4B d   1      -4.857   0.050   0.859  0.00  0.00     0.003 A 
ATOM      3  C3  I4B d   1      -4.906  -0.798   1.992  0.00  0.00     0.002 A 
ATOM      4  C4  I4B d   1      -4.193  -0.461   3.124  0.00  0.00    -0.004 A 
ATOM      5  C5  I4B d   1      -3.493   0.741   3.176  0.00  0.00     0.002 A 
ATOM      6  C6  I4B d   1      -3.479   1.595   2.064  0.00  0.00     0.003 A 
ENDROOT
BRANCH   1   7
ATOM      7  C1' I4B d   1      -4.090   2.079  -0.322  0.00  0.00     0.060 C 
BRANCH   7   8
ATOM      8  C2' I4B d   1      -3.068   3.171  -0.081  0.00  0.00    -0.013 C 
ATOM      9  C4' I4B d   1      -1.910   3.054  -1.037  0.00  0.00     0.013 C 
ATOM     10  C3' I4B d   1      -3.760   4.494  -0.229  0.00  0.00     0.013 C 
ENDBRANCH   7   8
ENDBRANCH   1   7
TORSDOF 2
ENDMDL
