MODEL 1
REMARK minimizedAffinity -3.32886314
REMARK minimizedRMSD -1
REMARK  2 active torsions:
REMARK  status: ('A' for Active; 'I' for Inactive)
REMARK    1  A    between atoms: C2'_3  and  C1'_4 
REMARK    2  A    between atoms: C1'_4  and  C1_5 
ROOT
ATOM      1  C1  I4B d   1       1.376  -2.978  -0.064  0.00  0.00    -0.075 A 
ATOM      2  C2  I4B d   1       0.103  -3.490  -0.070  0.00  0.00     0.003 A 
ATOM      3  C3  I4B d   1      -0.173  -4.722   0.570  0.00  0.00     0.002 A 
ATOM      4  C4  I4B d   1       0.857  -5.429   1.156  0.00  0.00    -0.004 A 
ATOM      5  C5  I4B d   1       2.143  -4.898   1.182  0.00  0.00     0.002 A 
ATOM      6  C6  I4B d   1       2.403  -3.658   0.579  0.00  0.00     0.003 A 
ENDROOT
BRANCH   1   7
ATOM      7  C1' I4B d   1       1.639  -1.690  -0.778  0.00  0.00     0.060 C 
BRANCH   7   8
ATOM      8  C2' I4B d   1       0.712  -0.639  -0.202  0.00  0.00    -0.013 C 
ATOM      9  C4' I4B d   1      -0.651  -0.706  -0.840  0.00  0.00     0.013 C 
ATOM     10  C3' I4B d   1       0.627  -0.858   1.279  0.00  0.00     0.013 C 
ENDBRANCH   7   8
ENDBRANCH   1   7
TORSDOF 2
ENDMDL
