MODEL 1
REMARK minimizedAffinity 4.84232092
REMARK minimizedRMSD -1
REMARK  2 active torsions:
REMARK  status: ('A' for Active; 'I' for Inactive)
REMARK    1  A    between atoms: C2'_3  and  C1'_4 
REMARK    2  A    between atoms: C1'_4  and  C1_5 
ROOT
ATOM      1  C1  I4B d   1       2.956  -3.102   1.052  0.00  0.00    -0.075 A 
ATOM      2  C2  I4B d   1       2.348  -4.303   1.320  0.00  0.00     0.003 A 
ATOM      3  C3  I4B d   1       1.321  -4.786   0.473  0.00  0.00     0.002 A 
ATOM      4  C4  I4B d   1       0.901  -4.018  -0.593  0.00  0.00    -0.004 A 
ATOM      5  C5  I4B d   1       1.535  -2.811  -0.877  0.00  0.00     0.002 A 
ATOM      6  C6  I4B d   1       2.577  -2.356  -0.057  0.00  0.00     0.003 A 
ENDROOT
BRANCH   1   7
ATOM      7  C1' I4B d   1       4.015  -2.606   1.985  0.00  0.00     0.060 C 
BRANCH   7   8
ATOM      8  C2' I4B d   1       3.495  -2.752   3.401  0.00  0.00    -0.013 C 
ATOM      9  C4' I4B d   1       4.387  -3.647   4.220  0.00  0.00     0.013 C 
ATOM     10  C3' I4B d   1       3.402  -1.382   4.003  0.00  0.00     0.013 C 
ENDBRANCH   7   8
ENDBRANCH   1   7
TORSDOF 2
ENDMDL
