MODEL 1
REMARK minimizedAffinity 5.6079936
REMARK minimizedRMSD -1
REMARK  0 active torsions:
REMARK  status: ('A' for Active; 'I' for Inactive)
ROOT
ATOM      1  C   UNL d   1       0.954  -0.124  -0.630  0.00  0.00     0.023 A 
ATOM      2  C1  UNL d   1      -0.334   0.395  -0.501  0.00  0.00     0.003 A 
ATOM      3  C2  UNL d   1      -1.087   0.122   0.643  0.00  0.00     0.048 A 
ATOM      4  C3  UNL d   1      -0.545  -0.671   1.654  0.00  0.00     0.023 A 
ATOM      5  C4  UNL d   1       0.744  -1.191   1.530  0.00  0.00     0.048 A 
ATOM      6  C5  UNL d   1       1.493  -0.916   0.384  0.00  0.00     0.003 A 
ATOM      7  I   UNL d   1      -1.663  -1.079   3.358  0.00  0.00    -0.146 I 
ENDROOT
TORSDOF 0
ENDMDL
