MODEL 1
REMARK minimizedAffinity 5.75899982
REMARK minimizedRMSD -1
REMARK  0 active torsions:
REMARK  status: ('A' for Active; 'I' for Inactive)
ROOT
ATOM      1  C   UNL d   1       5.964  -5.996  -4.068  0.00  0.00     0.023 A 
ATOM      2  C1  UNL d   1       4.984  -5.430  -3.253  0.00  0.00     0.003 A 
ATOM      3  C2  UNL d   1       4.017  -4.586  -3.804  0.00  0.00     0.048 A 
ATOM      4  C3  UNL d   1       4.035  -4.315  -5.171  0.00  0.00     0.023 A 
ATOM      5  C4  UNL d   1       5.012  -4.880  -5.991  0.00  0.00     0.048 A 
ATOM      6  C5  UNL d   1       5.978  -5.722  -5.436  0.00  0.00     0.003 A 
ATOM      7  I   UNL d   1       2.596  -3.060  -5.994  0.00  0.00    -0.146 I 
ENDROOT
TORSDOF 0
ENDMDL
