MODEL 1
REMARK minimizedAffinity 4.69694757
REMARK minimizedRMSD -1
REMARK  0 active torsions:
REMARK  status: ('A' for Active; 'I' for Inactive)
ROOT
ATOM      1  C   UNL d   1       4.484  -5.495  -5.995  0.00  0.00     0.023 A 
ATOM      2  C1  UNL d   1       3.856  -4.313  -5.605  0.00  0.00     0.003 A 
ATOM      3  C2  UNL d   1       4.289  -3.633  -4.465  0.00  0.00     0.048 A 
ATOM      4  C3  UNL d   1       5.353  -4.141  -3.719  0.00  0.00     0.023 A 
ATOM      5  C4  UNL d   1       5.986  -5.323  -4.106  0.00  0.00     0.048 A 
ATOM      6  C5  UNL d   1       5.548  -6.000  -5.246  0.00  0.00     0.003 A 
ATOM      7  I   UNL d   1       6.000  -3.131  -2.022  0.00  0.00    -0.146 I 
ENDROOT
TORSDOF 0
ENDMDL
