MODEL 1
REMARK minimizedAffinity 5.96928072
REMARK minimizedRMSD -1
REMARK  0 active torsions:
REMARK  status: ('A' for Active; 'I' for Inactive)
ROOT
ATOM      1  C   UNL d   1       5.961  -5.995  -4.062  0.00  0.00     0.023 A 
ATOM      2  C1  UNL d   1       4.972  -5.436  -3.252  0.00  0.00     0.003 A 
ATOM      3  C2  UNL d   1       4.015  -4.582  -3.805  0.00  0.00     0.048 A 
ATOM      4  C3  UNL d   1       4.053  -4.292  -5.168  0.00  0.00     0.023 A 
ATOM      5  C4  UNL d   1       5.040  -4.850  -5.983  0.00  0.00     0.048 A 
ATOM      6  C5  UNL d   1       5.994  -5.703  -5.425  0.00  0.00     0.003 A 
ATOM      7  I   UNL d   1       2.630  -3.022  -5.993  0.00  0.00    -0.146 I 
ENDROOT
TORSDOF 0
ENDMDL
