MODEL 1
REMARK minimizedAffinity 8.57647705
REMARK minimizedRMSD -1
REMARK  0 active torsions:
REMARK  status: ('A' for Active; 'I' for Inactive)
ROOT
ATOM      1  C   UNL d   1       5.977  -1.089  -0.947  0.00  0.00     0.023 A 
ATOM      2  C1  UNL d   1       5.984   0.051  -0.144  0.00  0.00     0.003 A 
ATOM      3  C2  UNL d   1       5.986  -0.073   1.247  0.00  0.00     0.048 A 
ATOM      4  C3  UNL d   1       5.981  -1.341   1.828  0.00  0.00     0.023 A 
ATOM      5  C4  UNL d   1       5.974  -2.485   1.028  0.00  0.00     0.048 A 
ATOM      6  C5  UNL d   1       5.972  -2.356  -0.362  0.00  0.00     0.003 A 
ATOM      7  I   UNL d   1       5.984  -1.528   3.898  0.00  0.00    -0.146 I 
ENDROOT
TORSDOF 0
ENDMDL
