MODEL 1
REMARK minimizedAffinity 4.18896103
REMARK minimizedRMSD -1
REMARK  0 active torsions:
REMARK  status: ('A' for Active; 'I' for Inactive)
ROOT
ATOM      1  C   UNL d   1       5.740  -4.811  -5.704  0.00  0.00     0.023 A 
ATOM      2  C1  UNL d   1       5.965  -5.341  -4.434  0.00  0.00     0.003 A 
ATOM      3  C2  UNL d   1       4.977  -5.249  -3.452  0.00  0.00     0.048 A 
ATOM      4  C3  UNL d   1       3.764  -4.627  -3.748  0.00  0.00     0.023 A 
ATOM      5  C4  UNL d   1       3.534  -4.096  -5.018  0.00  0.00     0.048 A 
ATOM      6  C5  UNL d   1       4.526  -4.189  -5.996  0.00  0.00     0.003 A 
ATOM      7  I   UNL d   1       2.291  -4.490  -2.288  0.00  0.00    -0.146 I 
ENDROOT
TORSDOF 0
ENDMDL
