MODEL 1
REMARK minimizedAffinity 6.58273935
REMARK minimizedRMSD -1
REMARK  0 active torsions:
REMARK  status: ('A' for Active; 'I' for Inactive)
ROOT
ATOM      1  C   UNL d   1       5.998  -5.408  -3.745  0.00  0.00     0.023 A 
ATOM      2  C1  UNL d   1       5.990  -5.067  -5.098  0.00  0.00     0.003 A 
ATOM      3  C2  UNL d   1       4.781  -4.805  -5.746  0.00  0.00     0.048 A 
ATOM      4  C3  UNL d   1       3.584  -4.886  -5.036  0.00  0.00     0.023 A 
ATOM      5  C4  UNL d   1       3.588  -5.225  -3.682  0.00  0.00     0.048 A 
ATOM      6  C5  UNL d   1       4.798  -5.487  -3.038  0.00  0.00     0.003 A 
ATOM      7  I   UNL d   1       1.784  -4.496  -5.998  0.00  0.00    -0.146 I 
ENDROOT
TORSDOF 0
ENDMDL
