MODEL 1
REMARK minimizedAffinity 4.80932808
REMARK minimizedRMSD -1
REMARK  0 active torsions:
REMARK  status: ('A' for Active; 'I' for Inactive)
ROOT
ATOM      1  C   UNL d   1       3.266  -2.423  -6.000  0.00  0.00     0.023 A 
ATOM      2  C1  UNL d   1       4.549  -2.140  -5.530  0.00  0.00     0.003 A 
ATOM      3  C2  UNL d   1       5.331  -3.157  -4.978  0.00  0.00     0.048 A 
ATOM      4  C3  UNL d   1       4.825  -4.454  -4.900  0.00  0.00     0.023 A 
ATOM      5  C4  UNL d   1       3.543  -4.742  -5.370  0.00  0.00     0.048 A 
ATOM      6  C5  UNL d   1       2.764  -3.722  -5.920  0.00  0.00     0.003 A 
ATOM      7  I   UNL d   1       5.988  -5.968  -4.079  0.00  0.00    -0.146 I 
ENDROOT
TORSDOF 0
ENDMDL
