MODEL 1
REMARK minimizedAffinity 6.990592
REMARK minimizedRMSD -1
REMARK  0 active torsions:
REMARK  status: ('A' for Active; 'I' for Inactive)
ROOT
ATOM      1  C   UNL d   1       5.022  -5.995  -5.328  0.00  0.00     0.023 A 
ATOM      2  C1  UNL d   1       3.879  -5.462  -5.923  0.00  0.00     0.003 A 
ATOM      3  C2  UNL d   1       3.711  -4.078  -5.999  0.00  0.00     0.048 A 
ATOM      4  C3  UNL d   1       4.691  -3.233  -5.479  0.00  0.00     0.023 A 
ATOM      5  C4  UNL d   1       5.837  -3.762  -4.883  0.00  0.00     0.048 A 
ATOM      6  C5  UNL d   1       6.000  -5.146  -4.809  0.00  0.00     0.003 A 
ATOM      7  I   UNL d   1       4.443  -1.172  -5.591  0.00  0.00    -0.146 I 
ENDROOT
TORSDOF 0
ENDMDL
