MODEL 1
REMARK minimizedAffinity 2.04439116
REMARK minimizedRMSD -1
REMARK  0 active torsions:
REMARK  status: ('A' for Active; 'I' for Inactive)
ROOT
ATOM      1  C   UNL d   1       5.579  -5.999  -4.154  0.00  0.00     0.023 A 
ATOM      2  C1  UNL d   1       5.824  -4.869  -3.374  0.00  0.00     0.003 A 
ATOM      3  C2  UNL d   1       5.607  -3.594  -3.903  0.00  0.00     0.048 A 
ATOM      4  C3  UNL d   1       5.144  -3.458  -5.211  0.00  0.00     0.023 A 
ATOM      5  C4  UNL d   1       4.897  -4.586  -5.995  0.00  0.00     0.048 A 
ATOM      6  C5  UNL d   1       5.116  -5.858  -5.462  0.00  0.00     0.003 A 
ATOM      7  I   UNL d   1       4.821  -1.562  -6.000  0.00  0.00    -0.146 I 
ENDROOT
TORSDOF 0
ENDMDL
