MODEL 1
REMARK minimizedAffinity 2.56364059
REMARK minimizedRMSD -1
REMARK  0 active torsions:
REMARK  status: ('A' for Active; 'I' for Inactive)
ROOT
ATOM      1  C   UNL d   1       5.964  -5.936  -4.362  0.00  0.00     0.023 A 
ATOM      2  C1  UNL d   1       6.000  -4.759  -3.614  0.00  0.00     0.003 A 
ATOM      3  C2  UNL d   1       5.279  -3.640  -4.036  0.00  0.00     0.048 A 
ATOM      4  C3  UNL d   1       4.525  -3.705  -5.207  0.00  0.00     0.023 A 
ATOM      5  C4  UNL d   1       4.486  -4.880  -5.959  0.00  0.00     0.048 A 
ATOM      6  C5  UNL d   1       5.209  -5.996  -5.533  0.00  0.00     0.003 A 
ATOM      7  I   UNL d   1       3.452  -2.040  -5.838  0.00  0.00    -0.146 I 
ENDROOT
TORSDOF 0
ENDMDL
