MODEL 1
REMARK minimizedAffinity 3.08711815
REMARK minimizedRMSD -1
REMARK  0 active torsions:
REMARK  status: ('A' for Active; 'I' for Inactive)
ROOT
ATOM      1  C   UNL d   1       4.983  -5.454  -5.979  0.00  0.00     0.023 A 
ATOM      2  C1  UNL d   1       4.579  -4.119  -5.946  0.00  0.00     0.003 A 
ATOM      3  C2  UNL d   1       4.869  -3.328  -4.833  0.00  0.00     0.048 A 
ATOM      4  C3  UNL d   1       5.564  -3.877  -3.756  0.00  0.00     0.023 A 
ATOM      5  C4  UNL d   1       5.972  -5.212  -3.785  0.00  0.00     0.048 A 
ATOM      6  C5  UNL d   1       5.679  -5.999  -4.900  0.00  0.00     0.003 A 
ATOM      7  I   UNL d   1       5.997  -2.701  -2.098  0.00  0.00    -0.146 I 
ENDROOT
TORSDOF 0
ENDMDL
