MODEL 1
REMARK minimizedAffinity 7.89090538
REMARK minimizedRMSD -1
REMARK  0 active torsions:
REMARK  status: ('A' for Active; 'I' for Inactive)
ROOT
ATOM      1  C   UNL d   1       5.412  -5.986  -5.021  0.00  0.00     0.023 A 
ATOM      2  C1  UNL d   1       4.569  -5.438  -5.987  0.00  0.00     0.003 A 
ATOM      3  C2  UNL d   1       4.309  -4.066  -5.992  0.00  0.00     0.048 A 
ATOM      4  C3  UNL d   1       4.898  -3.248  -5.028  0.00  0.00     0.023 A 
ATOM      5  C4  UNL d   1       5.744  -3.792  -4.060  0.00  0.00     0.048 A 
ATOM      6  C5  UNL d   1       5.999  -5.164  -4.059  0.00  0.00     0.003 A 
ATOM      7  I   UNL d   1       4.514  -1.205  -5.034  0.00  0.00    -0.146 I 
ENDROOT
TORSDOF 0
ENDMDL
