MODEL 1
REMARK minimizedAffinity 1.57798004
REMARK minimizedRMSD -1
REMARK  0 active torsions:
REMARK  status: ('A' for Active; 'I' for Inactive)
ROOT
ATOM      1  C   UNL d   1       4.153  -4.903  -6.000  0.00  0.00     0.023 A 
ATOM      2  C1  UNL d   1       4.638  -3.596  -5.996  0.00  0.00     0.003 A 
ATOM      3  C2  UNL d   1       5.168  -3.050  -4.825  0.00  0.00     0.048 A 
ATOM      4  C3  UNL d   1       5.211  -3.818  -3.662  0.00  0.00     0.023 A 
ATOM      5  C4  UNL d   1       4.727  -5.128  -3.661  0.00  0.00     0.048 A 
ATOM      6  C5  UNL d   1       4.197  -5.669  -4.834  0.00  0.00     0.003 A 
ATOM      7  I   UNL d   1       6.000  -3.009  -1.917  0.00  0.00    -0.146 I 
ENDROOT
TORSDOF 0
ENDMDL
