MODEL 1
REMARK minimizedAffinity 5.98762798
REMARK minimizedRMSD -1
REMARK  0 active torsions:
REMARK  status: ('A' for Active; 'I' for Inactive)
ROOT
ATOM      1  C   UNL d   1      -1.078  -0.563   3.375  0.00  0.00     0.023 A 
ATOM      2  C1  UNL d   1      -2.099  -0.375   2.444  0.00  0.00     0.003 A 
ATOM      3  C2  UNL d   1      -1.791   0.002   1.135  0.00  0.00     0.048 A 
ATOM      4  C3  UNL d   1      -0.460   0.189   0.764  0.00  0.00     0.023 A 
ATOM      5  C4  UNL d   1       0.565   0.001   1.692  0.00  0.00     0.048 A 
ATOM      6  C5  UNL d   1       0.252  -0.376   3.000  0.00  0.00     0.003 A 
ATOM      7  I   UNL d   1       0.000   0.750  -1.184  0.00  0.00    -0.146 I 
ENDROOT
TORSDOF 0
ENDMDL
