MODEL 1
REMARK minimizedAffinity -3.53116679
REMARK minimizedRMSD -1
REMARK  0 active torsions:
REMARK  status: ('A' for Active; 'I' for Inactive)
ROOT
ATOM      1  C4' PXY d   1       3.635  -0.951  -0.098  0.00  0.00     0.077 C 
ATOM      2  C1' PXY d   1      -1.878   0.787  -0.152  0.00  0.00     0.077 C 
ATOM      3  C1  PXY d   1      -0.428   0.343  -0.142  0.00  0.00    -0.082 A 
ATOM      4  C2  PXY d   1      -0.138  -0.945  -0.233  0.00  0.00     0.003 A 
ATOM      5  C3  PXY d   1       1.167  -1.366  -0.193  0.00  0.00     0.003 A 
ATOM      6  C4  PXY d   1       2.186  -0.456  -0.113  0.00  0.00    -0.082 A 
ATOM      7  C5  PXY d   1       1.899   0.860  -0.030  0.00  0.00     0.003 A 
ATOM      8  C6  PXY d   1       0.567   1.264  -0.031  0.00  0.00     0.003 A 
ENDROOT
TORSDOF 0
ENDMDL
