MODEL 1
REMARK minimizedAffinity -1.71326602
REMARK minimizedRMSD -1
REMARK  0 active torsions:
REMARK  status: ('A' for Active; 'I' for Inactive)
ROOT
ATOM      1  C4' PXY d   1      -2.842   1.054   0.746  0.00  0.00     0.077 C 
ATOM      2  C1' PXY d   1       1.882  -1.903  -0.790  0.00  0.00     0.077 C 
ATOM      3  C1  PXY d   1       0.650  -1.116  -0.387  0.00  0.00    -0.082 A 
ATOM      4  C2  PXY d   1      -0.326  -1.720   0.271  0.00  0.00     0.003 A 
ATOM      5  C3  PXY d   1      -1.461  -1.032   0.615  0.00  0.00     0.003 A 
ATOM      6  C4  PXY d   1      -1.576   0.302   0.328  0.00  0.00    -0.082 A 
ATOM      7  C5  PXY d   1      -0.580   0.928  -0.335  0.00  0.00     0.003 A 
ATOM      8  C6  PXY d   1       0.546   0.201  -0.711  0.00  0.00     0.003 A 
ENDROOT
TORSDOF 0
ENDMDL
