MODEL 1
REMARK minimizedAffinity -0.396353334
REMARK minimizedRMSD -1
REMARK  0 active torsions:
REMARK  status: ('A' for Active; 'I' for Inactive)
ROOT
ATOM      1  C4' PXY d   1      -2.826   1.203  -0.176  0.00  0.00     0.077 C 
ATOM      2  C1' PXY d   1       2.109  -1.753  -0.741  0.00  0.00     0.077 C 
ATOM      3  C1  PXY d   1       0.820  -0.970  -0.584  0.00  0.00    -0.082 A 
ATOM      4  C2  PXY d   1      -0.332  -1.536  -0.906  0.00  0.00     0.003 A 
ATOM      5  C3  PXY d   1      -1.504  -0.831  -0.800  0.00  0.00     0.003 A 
ATOM      6  C4  PXY d   1      -1.501   0.447  -0.310  0.00  0.00    -0.082 A 
ATOM      7  C5  PXY d   1      -0.331   1.027   0.030  0.00  0.00     0.003 A 
ATOM      8  C6  PXY d   1       0.852   0.310  -0.123  0.00  0.00     0.003 A 
ENDROOT
TORSDOF 0
ENDMDL
