MODEL 1
REMARK minimizedAffinity -2.87669158
REMARK minimizedRMSD -1
REMARK  0 active torsions:
REMARK  status: ('A' for Active; 'I' for Inactive)
ROOT
ATOM      1  C4' PXY d   1      -2.286   0.531   0.022  0.00  0.00     0.077 C 
ATOM      2  C1' PXY d   1       3.228  -1.150  -0.411  0.00  0.00     0.077 C 
ATOM      3  C1  PXY d   1       1.786  -0.698  -0.292  0.00  0.00    -0.082 A 
ATOM      4  C2  PXY d   1       0.818  -1.600  -0.266  0.00  0.00     0.003 A 
ATOM      5  C3  PXY d   1      -0.494  -1.207  -0.191  0.00  0.00     0.003 A 
ATOM      6  C4  PXY d   1      -0.815   0.120  -0.088  0.00  0.00    -0.082 A 
ATOM      7  C5  PXY d   1       0.168   1.045  -0.103  0.00  0.00     0.003 A 
ATOM      8  C6  PXY d   1       1.490   0.628  -0.221  0.00  0.00     0.003 A 
ENDROOT
TORSDOF 0
ENDMDL
