MODEL 1
REMARK minimizedAffinity -1.69909334
REMARK minimizedRMSD -1
REMARK  0 active torsions:
REMARK  status: ('A' for Active; 'I' for Inactive)
ROOT
ATOM      1  C4' PXY d   1       2.907   1.732   0.181  0.00  0.00     0.077 C 
ATOM      2  C1' PXY d   1      -0.524  -2.821  -0.774  0.00  0.00     0.077 C 
ATOM      3  C1  PXY d   1       0.366  -1.619  -0.528  0.00  0.00    -0.082 A 
ATOM      4  C2  PXY d   1       1.678  -1.780  -0.458  0.00  0.00     0.003 A 
ATOM      5  C3  PXY d   1       2.496  -0.709  -0.205  0.00  0.00     0.003 A 
ATOM      6  C4  PXY d   1       1.970   0.548  -0.075  0.00  0.00    -0.082 A 
ATOM      7  C5  PXY d   1       0.634   0.722  -0.155  0.00  0.00     0.003 A 
ATOM      8  C6  PXY d   1      -0.182  -0.384  -0.372  0.00  0.00     0.003 A 
ENDROOT
TORSDOF 0
ENDMDL
