MODEL 1
REMARK minimizedAffinity -5.10709858
REMARK minimizedRMSD -1
REMARK  0 active torsions:
REMARK  status: ('A' for Active; 'I' for Inactive)
ROOT
ATOM      1  C4' PXY d   1      -0.245  -3.438  -0.828  0.00  0.00     0.077 C 
ATOM      2  C1' PXY d   1       2.689   1.466   0.041  0.00  0.00     0.077 C 
ATOM      3  C1  PXY d   1       1.909   0.185  -0.182  0.00  0.00    -0.082 A 
ATOM      4  C2  PXY d   1       2.548  -0.972  -0.218  0.00  0.00     0.003 A 
ATOM      5  C3  PXY d   1       1.862  -2.137  -0.450  0.00  0.00     0.003 A 
ATOM      6  C4  PXY d   1       0.501  -2.121  -0.596  0.00  0.00    -0.082 A 
ATOM      7  C5  PXY d   1      -0.160  -0.945  -0.551  0.00  0.00     0.003 A 
ATOM      8  C6  PXY d   1       0.560   0.230  -0.354  0.00  0.00     0.003 A 
ENDROOT
TORSDOF 0
ENDMDL
