MODEL 1
REMARK minimizedAffinity -2.7242353
REMARK minimizedRMSD -1
REMARK  0 active torsions:
REMARK  status: ('A' for Active; 'I' for Inactive)
ROOT
ATOM      1  C4' PXY d   1      -2.961   0.736   0.318  0.00  0.00     0.077 C 
ATOM      2  C1' PXY d   1       2.317  -1.516  -0.381  0.00  0.00     0.077 C 
ATOM      3  C1  PXY d   1       0.938  -0.914  -0.196  0.00  0.00    -0.082 A 
ATOM      4  C2  PXY d   1      -0.061  -1.680   0.209  0.00  0.00     0.003 A 
ATOM      5  C3  PXY d   1      -1.322  -1.159   0.351  0.00  0.00     0.003 A 
ATOM      6  C4  PXY d   1      -1.550   0.172   0.127  0.00  0.00    -0.082 A 
ATOM      7  C5  PXY d   1      -0.533   0.963  -0.276  0.00  0.00     0.003 A 
ATOM      8  C6  PXY d   1       0.730   0.406  -0.454  0.00  0.00     0.003 A 
ENDROOT
TORSDOF 0
ENDMDL
