MODEL 1
REMARK minimizedAffinity -2.17799282
REMARK minimizedRMSD -1
REMARK  0 active torsions:
REMARK  status: ('A' for Active; 'I' for Inactive)
ROOT
ATOM      1  C4' PXY d   1      -2.360   1.245  -0.238  0.00  0.00     0.077 C 
ATOM      2  C1' PXY d   1       2.876  -1.183   0.080  0.00  0.00     0.077 C 
ATOM      3  C1  PXY d   1       1.508  -0.535   0.002  0.00  0.00    -0.082 A 
ATOM      4  C2  PXY d   1       0.425  -1.295  -0.026  0.00  0.00     0.003 A 
ATOM      5  C3  PXY d   1      -0.819  -0.727  -0.129  0.00  0.00     0.003 A 
ATOM      6  C4  PXY d   1      -0.959   0.635  -0.150  0.00  0.00    -0.082 A 
ATOM      7  C5  PXY d   1       0.141   1.417  -0.111  0.00  0.00     0.003 A 
ATOM      8  C6  PXY d   1       1.396   0.820  -0.049  0.00  0.00     0.003 A 
ENDROOT
TORSDOF 0
ENDMDL
