MODEL 1
REMARK minimizedAffinity -0.3053599
REMARK minimizedRMSD -1
REMARK  0 active torsions:
REMARK  status: ('A' for Active; 'I' for Inactive)
ROOT
ATOM      1  C4' PXY d   1       0.861   3.171  -0.009  0.00  0.00     0.077 C 
ATOM      2  C1' PXY d   1       0.182  -2.479  -1.025  0.00  0.00     0.077 C 
ATOM      3  C1  PXY d   1       0.373  -0.999  -0.756  0.00  0.00    -0.082 A 
ATOM      4  C2  PXY d   1      -0.661  -0.264  -0.378  0.00  0.00     0.003 A 
ATOM      5  C3  PXY d   1      -0.513   1.081  -0.162  0.00  0.00     0.003 A 
ATOM      6  C4  PXY d   1       0.717   1.671  -0.282  0.00  0.00    -0.082 A 
ATOM      7  C5  PXY d   1       1.779   0.926  -0.657  0.00  0.00     0.003 A 
ATOM      8  C6  PXY d   1       1.599  -0.430  -0.912  0.00  0.00     0.003 A 
ENDROOT
TORSDOF 0
ENDMDL
