MODEL 1
REMARK minimizedAffinity 15.1899977
REMARK minimizedRMSD -1
REMARK  0 active torsions:
REMARK  status: ('A' for Active; 'I' for Inactive)
ROOT
ATOM      1  C   UNL d   1       3.371  -1.146  -1.478  0.00  0.00     0.020 A 
ATOM      2  C1  UNL d   1       3.251  -1.376  -0.108  0.00  0.00     0.020 A 
ATOM      3  C2  UNL d   1       3.743  -0.439   0.803  0.00  0.00     0.034 A 
ATOM      4  C3  UNL d   1       4.357   0.732   0.346  0.00  0.00     0.017 A 
ATOM      5  C4  UNL d   1       4.477   0.962  -1.029  0.00  0.00     0.017 A 
ATOM      6  C5  UNL d   1       3.983   0.021  -1.937  0.00  0.00     0.034 A 
ATOM      7 Cl   UNL d   1       5.223   2.384  -1.669  0.00  0.00    -0.070 Cl
ATOM      8 Cl1  UNL d   1       4.943   1.847   1.529  0.00  0.00    -0.070 Cl
ENDROOT
TORSDOF 0
ENDMDL
