MODEL 1
REMARK minimizedAffinity 8.78556156
REMARK minimizedRMSD -1
REMARK  0 active torsions:
REMARK  status: ('A' for Active; 'I' for Inactive)
ROOT
ATOM      1  C   UNL d   1       5.999   0.754  -0.521  0.00  0.00     0.020 A 
ATOM      2  C1  UNL d   1       5.204   1.742  -1.100  0.00  0.00     0.020 A 
ATOM      3  C2  UNL d   1       3.818   1.577  -1.160  0.00  0.00     0.034 A 
ATOM      4  C3  UNL d   1       3.225   0.421  -0.640  0.00  0.00     0.017 A 
ATOM      5  C4  UNL d   1       4.024  -0.570  -0.059  0.00  0.00     0.017 A 
ATOM      6  C5  UNL d   1       5.411  -0.399  -0.002  0.00  0.00     0.034 A 
ATOM      7 Cl   UNL d   1       3.364  -2.024   0.603  0.00  0.00    -0.070 Cl
ATOM      8 Cl1  UNL d   1       1.506   0.283  -0.748  0.00  0.00    -0.070 Cl
ENDROOT
TORSDOF 0
ENDMDL
