MODEL 1
REMARK minimizedAffinity 8.50891113
REMARK minimizedRMSD -1
REMARK  0 active torsions:
REMARK  status: ('A' for Active; 'I' for Inactive)
ROOT
ATOM      1  C   UNL d   1       3.952   1.238  -1.507  0.00  0.00     0.020 A 
ATOM      2  C1  UNL d   1       5.250   1.488  -1.063  0.00  0.00     0.020 A 
ATOM      3  C2  UNL d   1       5.860   0.615  -0.160  0.00  0.00     0.034 A 
ATOM      4  C3  UNL d   1       5.172  -0.513   0.302  0.00  0.00     0.017 A 
ATOM      5  C4  UNL d   1       3.869  -0.763  -0.143  0.00  0.00     0.017 A 
ATOM      6  C5  UNL d   1       3.263   0.114  -1.048  0.00  0.00     0.034 A 
ATOM      7 Cl   UNL d   1       2.957  -2.134   0.382  0.00  0.00    -0.070 Cl
ATOM      8 Cl1  UNL d   1       5.988  -1.550   1.418  0.00  0.00    -0.070 Cl
ENDROOT
TORSDOF 0
ENDMDL
