MODEL 1
REMARK minimizedAffinity 9.29510212
REMARK minimizedRMSD -1
REMARK  0 active torsions:
REMARK  status: ('A' for Active; 'I' for Inactive)
ROOT
ATOM      1  C   UNL d   1       1.594  -2.948   0.596  0.00  0.00     0.020 A 
ATOM      2  C1  UNL d   1       1.175  -3.742  -0.471  0.00  0.00     0.020 A 
ATOM      3  C2  UNL d   1       1.690  -3.522  -1.750  0.00  0.00     0.034 A 
ATOM      4  C3  UNL d   1       2.628  -2.506  -1.966  0.00  0.00     0.017 A 
ATOM      5  C4  UNL d   1       3.048  -1.709  -0.894  0.00  0.00     0.017 A 
ATOM      6  C5  UNL d   1       2.529  -1.934   0.384  0.00  0.00     0.034 A 
ATOM      7 Cl   UNL d   1       4.202  -0.436  -1.083  0.00  0.00    -0.070 Cl
ATOM      8 Cl1  UNL d   1       3.223  -2.290  -3.573  0.00  0.00    -0.070 Cl
ENDROOT
TORSDOF 0
ENDMDL
