MODEL 1
REMARK minimizedAffinity 5.78041315
REMARK minimizedRMSD -1
REMARK  0 active torsions:
REMARK  status: ('A' for Active; 'I' for Inactive)
ROOT
ATOM      1  C   UNL d   1       5.909   5.260  -0.668  0.00  0.00     0.020 A 
ATOM      2  C1  UNL d   1       5.277   4.866  -1.847  0.00  0.00     0.020 A 
ATOM      3  C2  UNL d   1       4.735   3.583  -1.953  0.00  0.00     0.034 A 
ATOM      4  C3  UNL d   1       4.823   2.690  -0.879  0.00  0.00     0.017 A 
ATOM      5  C4  UNL d   1       5.458   3.086   0.304  0.00  0.00     0.017 A 
ATOM      6  C5  UNL d   1       5.999   4.372   0.405  0.00  0.00     0.034 A 
ATOM      7 Cl   UNL d   1       5.606   2.040   1.672  0.00  0.00    -0.070 Cl
ATOM      8 Cl1  UNL d   1       4.130   1.120  -1.080  0.00  0.00    -0.070 Cl
ENDROOT
TORSDOF 0
ENDMDL
