MODEL 1
REMARK minimizedAffinity 8.52524853
REMARK minimizedRMSD -1
REMARK  0 active torsions:
REMARK  status: ('A' for Active; 'I' for Inactive)
ROOT
ATOM      1  C   UNL d   1       6.000   0.752  -0.439  0.00  0.00     0.020 A 
ATOM      2  C1  UNL d   1       5.209   1.847  -0.781  0.00  0.00     0.020 A 
ATOM      3  C2  UNL d   1       3.824   1.702  -0.889  0.00  0.00     0.034 A 
ATOM      4  C3  UNL d   1       3.226   0.458  -0.655  0.00  0.00     0.017 A 
ATOM      5  C4  UNL d   1       4.021  -0.641  -0.312  0.00  0.00     0.017 A 
ATOM      6  C5  UNL d   1       5.407  -0.490  -0.205  0.00  0.00     0.034 A 
ATOM      7 Cl   UNL d   1       3.356  -2.207  -0.008  0.00  0.00    -0.070 Cl
ATOM      8 Cl1  UNL d   1       1.508   0.351  -0.806  0.00  0.00    -0.070 Cl
ENDROOT
TORSDOF 0
ENDMDL
