MODEL 1
REMARK minimizedAffinity 8.50882149
REMARK minimizedRMSD -1
REMARK  0 active torsions:
REMARK  status: ('A' for Active; 'I' for Inactive)
ROOT
ATOM      1  C   UNL d   1       5.214   2.240  -0.745  0.00  0.00     0.020 A 
ATOM      2  C1  UNL d   1       6.000   1.111  -0.968  0.00  0.00     0.020 A 
ATOM      3  C2  UNL d   1       5.399  -0.144  -1.096  0.00  0.00     0.034 A 
ATOM      4  C3  UNL d   1       4.009  -0.271  -1.002  0.00  0.00     0.017 A 
ATOM      5  C4  UNL d   1       3.220   0.864  -0.779  0.00  0.00     0.017 A 
ATOM      6  C5  UNL d   1       3.827   2.117  -0.651  0.00  0.00     0.034 A 
ATOM      7 Cl   UNL d   1       1.499   0.786  -0.651  0.00  0.00    -0.070 Cl
ATOM      8 Cl1  UNL d   1       3.334  -1.853  -1.171  0.00  0.00    -0.070 Cl
ENDROOT
TORSDOF 0
ENDMDL
