MODEL 1
REMARK minimizedAffinity 7.59077263
REMARK minimizedRMSD -1
REMARK  0 active torsions:
REMARK  status: ('A' for Active; 'I' for Inactive)
ROOT
ATOM      1  C   UNL d   1       3.397   0.009  -1.125  0.00  0.00     0.020 A 
ATOM      2  C1  UNL d   1       4.724   0.391  -1.316  0.00  0.00     0.020 A 
ATOM      3  C2  UNL d   1       5.510  -0.268  -2.264  0.00  0.00     0.034 A 
ATOM      4  C3  UNL d   1       4.970  -1.311  -3.025  0.00  0.00     0.017 A 
ATOM      5  C4  UNL d   1       3.637  -1.693  -2.832  0.00  0.00     0.017 A 
ATOM      6  C5  UNL d   1       2.855  -1.030  -1.881  0.00  0.00     0.034 A 
ATOM      7 Cl   UNL d   1       2.900  -2.970  -3.733  0.00  0.00    -0.070 Cl
ATOM      8 Cl1  UNL d   1       5.999  -2.080  -4.180  0.00  0.00    -0.070 Cl
ENDROOT
TORSDOF 0
ENDMDL
