MODEL 1
REMARK minimizedAffinity 9.96011543
REMARK minimizedRMSD -1
REMARK  0 active torsions:
REMARK  status: ('A' for Active; 'I' for Inactive)
ROOT
ATOM      1  C   UNL d   1      -3.400   1.726  -5.708  0.00  0.00     0.020 A 
ATOM      2  C1  UNL d   1      -4.620   1.135  -5.383  0.00  0.00     0.020 A 
ATOM      3  C2  UNL d   1      -4.711   0.278  -4.285  0.00  0.00     0.034 A 
ATOM      4  C3  UNL d   1      -3.578   0.008  -3.507  0.00  0.00     0.017 A 
ATOM      5  C4  UNL d   1      -2.354   0.601  -3.834  0.00  0.00     0.017 A 
ATOM      6  C5  UNL d   1      -2.269   1.459  -4.936  0.00  0.00     0.034 A 
ATOM      7 Cl   UNL d   1      -0.913   0.317  -2.923  0.00  0.00    -0.070 Cl
ATOM      8 Cl1  UNL d   1      -3.763  -1.061  -2.163  0.00  0.00    -0.070 Cl
ENDROOT
TORSDOF 0
ENDMDL
