MODEL 1
REMARK minimizedAffinity 0.278234363
REMARK minimizedRMSD -1
REMARK  0 active torsions:
REMARK  status: ('A' for Active; 'I' for Inactive)
ROOT
ATOM      1  O1  BZF d   1       2.057  -0.912   4.579  0.00  0.00    -0.204 OA
ATOM      2  C2  BZF d   1       2.290  -2.271   4.651  0.00  0.00     0.174 A 
ATOM      3  C3  BZF d   1       2.923  -2.708   3.543  0.00  0.00    -0.012 A 
ATOM      4  C3A BZF d   1       3.179  -1.532   2.769  0.00  0.00    -0.107 A 
ATOM      5  C4  BZF d   1       3.794  -1.314   1.569  0.00  0.00     0.055 A 
ATOM      6  C5  BZF d   1       3.812  -0.056   1.056  0.00  0.00    -0.016 A 
ATOM      7  C6  BZF d   1       3.223   1.005   1.712  0.00  0.00     0.022 A 
ATOM      8  C7  BZF d   1       2.605   0.838   2.907  0.00  0.00     0.029 A 
ATOM      9  C7A BZF d   1       2.613  -0.426   3.444  0.00  0.00     0.058 A 
ENDROOT
TORSDOF 0
ENDMDL
