MODEL 1
REMARK minimizedAffinity 1.32172728
REMARK minimizedRMSD -1
REMARK  0 active torsions:
REMARK  status: ('A' for Active; 'I' for Inactive)
ROOT
ATOM      1  O1  BZF d   1       0.644  -1.932   3.671  0.00  0.00    -0.204 OA
ATOM      2  C2  BZF d   1       1.292  -0.918   2.992  0.00  0.00     0.174 A 
ATOM      3  C3  BZF d   1       1.647  -1.322   1.756  0.00  0.00    -0.012 A 
ATOM      4  C3A BZF d   1       1.112  -2.642   1.622  0.00  0.00    -0.107 A 
ATOM      5  C4  BZF d   1       1.120  -3.560   0.612  0.00  0.00     0.055 A 
ATOM      6  C5  BZF d   1       0.569  -4.784   0.827  0.00  0.00    -0.016 A 
ATOM      7  C6  BZF d   1       0.008  -5.124   2.040  0.00  0.00     0.022 A 
ATOM      8  C7  BZF d   1      -0.028  -4.244   3.071  0.00  0.00     0.029 A 
ATOM      9  C7A BZF d   1       0.498  -2.996   2.845  0.00  0.00     0.058 A 
ENDROOT
TORSDOF 0
ENDMDL
