MODEL 1
REMARK minimizedAffinity 3.09162831
REMARK minimizedRMSD -1
REMARK  0 active torsions:
REMARK  status: ('A' for Active; 'I' for Inactive)
ROOT
ATOM      1  O1  BZF d   1       3.698   5.980  -4.907  0.00  0.00    -0.204 OA
ATOM      2  C2  BZF d   1       4.865   5.966  -5.647  0.00  0.00     0.174 A 
ATOM      3  C3  BZF d   1       5.944   5.999  -4.840  0.00  0.00    -0.012 A 
ATOM      4  C3A BZF d   1       5.421   5.944  -3.509  0.00  0.00    -0.107 A 
ATOM      5  C4  BZF d   1       5.999   5.929  -2.272  0.00  0.00     0.055 A 
ATOM      6  C5  BZF d   1       5.204   5.945  -1.171  0.00  0.00    -0.016 A 
ATOM      7  C6  BZF d   1       3.828   5.982  -1.269  0.00  0.00     0.022 A 
ATOM      8  C7  BZF d   1       3.209   5.993  -2.474  0.00  0.00     0.029 A 
ATOM      9  C7A BZF d   1       4.009   5.943  -3.589  0.00  0.00     0.058 A 
ENDROOT
TORSDOF 0
ENDMDL
