MODEL 1
REMARK minimizedAffinity 2.39762592
REMARK minimizedRMSD -1
REMARK  0 active torsions:
REMARK  status: ('A' for Active; 'I' for Inactive)
ROOT
ATOM      1  O1  BZF d   1      -4.353  -3.817  -5.565  0.00  0.00    -0.204 OA
ATOM      2  C2  BZF d   1      -4.566  -5.111  -6.000  0.00  0.00     0.174 A 
ATOM      3  C3  BZF d   1      -5.152  -5.850  -5.036  0.00  0.00    -0.012 A 
ATOM      4  C3A BZF d   1      -5.401  -4.938  -3.962  0.00  0.00    -0.107 A 
ATOM      5  C4  BZF d   1      -5.977  -5.072  -2.731  0.00  0.00     0.055 A 
ATOM      6  C5  BZF d   1      -5.999  -4.003  -1.892  0.00  0.00    -0.016 A 
ATOM      7  C6  BZF d   1      -5.450  -2.789  -2.249  0.00  0.00     0.022 A 
ATOM      8  C7  BZF d   1      -4.872  -2.606  -3.461  0.00  0.00     0.029 A 
ATOM      9  C7A BZF d   1      -4.878  -3.675  -4.324  0.00  0.00     0.058 A 
ENDROOT
TORSDOF 0
ENDMDL
