MODEL 1
REMARK minimizedAffinity -2.29575014
REMARK minimizedRMSD -1
REMARK  0 active torsions:
REMARK  status: ('A' for Active; 'I' for Inactive)
ROOT
ATOM      1  O1  BZF d   1      -5.848  -3.898  -2.291  0.00  0.00    -0.204 OA
ATOM      2  C2  BZF d   1      -5.379  -4.952  -1.531  0.00  0.00     0.174 A 
ATOM      3  C3  BZF d   1      -4.951  -5.958  -2.320  0.00  0.00    -0.012 A 
ATOM      4  C3A BZF d   1      -5.081  -5.468  -3.658  0.00  0.00    -0.107 A 
ATOM      5  C4  BZF d   1      -4.802  -6.000  -4.884  0.00  0.00     0.055 A 
ATOM      6  C5  BZF d   1      -5.113  -5.289  -6.000  0.00  0.00    -0.016 A 
ATOM      7  C6  BZF d   1      -5.708  -4.046  -5.926  0.00  0.00     0.022 A 
ATOM      8  C7  BZF d   1      -5.999  -3.475  -4.732  0.00  0.00     0.029 A 
ATOM      9  C7A BZF d   1      -5.656  -4.177  -3.602  0.00  0.00     0.058 A 
ENDROOT
TORSDOF 0
ENDMDL
