MODEL 1
REMARK minimizedAffinity -3.73849869
REMARK minimizedRMSD -1
REMARK  0 active torsions:
REMARK  status: ('A' for Active; 'I' for Inactive)
ROOT
ATOM      1  O1  BZF d   1       3.775   3.562  -5.517  0.00  0.00    -0.204 OA
ATOM      2  C2  BZF d   1       4.905   4.210  -5.979  0.00  0.00     0.174 A 
ATOM      3  C3  BZF d   1       5.962   3.372  -5.999  0.00  0.00    -0.012 A 
ATOM      4  C3A BZF d   1       5.440   2.099  -5.607  0.00  0.00    -0.107 A 
ATOM      5  C4  BZF d   1       5.999   0.862  -5.453  0.00  0.00     0.055 A 
ATOM      6  C5  BZF d   1       5.231  -0.156  -4.987  0.00  0.00    -0.016 A 
ATOM      7  C6  BZF d   1       3.903   0.026  -4.660  0.00  0.00     0.022 A 
ATOM      8  C7  BZF d   1       3.303   1.234  -4.800  0.00  0.00     0.029 A 
ATOM      9  C7A BZF d   1       4.069   2.257  -5.303  0.00  0.00     0.058 A 
ENDROOT
TORSDOF 0
ENDMDL
