MODEL 1
REMARK minimizedAffinity 0.270797014
REMARK minimizedRMSD -1
REMARK  0 active torsions:
REMARK  status: ('A' for Active; 'I' for Inactive)
ROOT
ATOM      1  O1  BZF d   1      -5.983  -2.974  -4.726  0.00  0.00    -0.204 OA
ATOM      2  C2  BZF d   1      -5.519  -3.539  -5.898  0.00  0.00     0.174 A 
ATOM      3  C3  BZF d   1      -4.925  -4.725  -5.655  0.00  0.00    -0.012 A 
ATOM      4  C3A BZF d   1      -5.106  -4.956  -4.254  0.00  0.00    -0.107 A 
ATOM      5  C4  BZF d   1      -4.751  -5.976  -3.418  0.00  0.00     0.055 A 
ATOM      6  C5  BZF d   1      -5.013  -5.861  -2.089  0.00  0.00    -0.016 A 
ATOM      7  C6  BZF d   1      -5.623  -4.740  -1.563  0.00  0.00     0.022 A 
ATOM      8  C7  BZF d   1      -5.998  -3.706  -2.355  0.00  0.00     0.029 A 
ATOM      9  C7A BZF d   1      -5.764  -3.833  -3.702  0.00  0.00     0.058 A 
ENDROOT
TORSDOF 0
ENDMDL
