MODEL 1
REMARK minimizedAffinity -3.88039422
REMARK minimizedRMSD -1
REMARK  0 active torsions:
REMARK  status: ('A' for Active; 'I' for Inactive)
ROOT
ATOM      1  O1  BZF d   1      -5.999  -3.790  -2.420  0.00  0.00    -0.204 OA
ATOM      2  C2  BZF d   1      -5.813  -4.906  -1.626  0.00  0.00     0.174 A 
ATOM      3  C3  BZF d   1      -5.404  -5.957  -2.366  0.00  0.00    -0.012 A 
ATOM      4  C3A BZF d   1      -5.241  -5.443  -3.691  0.00  0.00    -0.107 A 
ATOM      5  C4  BZF d   1      -4.839  -6.000  -4.871  0.00  0.00     0.055 A 
ATOM      6  C5  BZF d   1      -4.859  -5.243  -6.000  0.00  0.00    -0.016 A 
ATOM      7  C6  BZF d   1      -5.280  -3.930  -5.986  0.00  0.00     0.022 A 
ATOM      8  C7  BZF d   1      -5.683  -3.332  -4.838  0.00  0.00     0.029 A 
ATOM      9  C7A BZF d   1      -5.633  -4.084  -3.690  0.00  0.00     0.058 A 
ENDROOT
TORSDOF 0
ENDMDL
