MODEL 1
REMARK minimizedAffinity -2.00674725
REMARK minimizedRMSD -1
REMARK  0 active torsions:
REMARK  status: ('A' for Active; 'I' for Inactive)
ROOT
ATOM      1  O1  BZF d   1      -5.792  -3.256  -2.430  0.00  0.00    -0.204 OA
ATOM      2  C2  BZF d   1      -5.795  -4.263  -1.483  0.00  0.00     0.174 A 
ATOM      3  C3  BZF d   1      -5.707  -5.473  -2.072  0.00  0.00    -0.012 A 
ATOM      4  C3A BZF d   1      -5.552  -5.202  -3.468  0.00  0.00    -0.107 A 
ATOM      5  C4  BZF d   1      -5.398  -5.998  -4.567  0.00  0.00     0.055 A 
ATOM      6  C5  BZF d   1      -5.347  -5.423  -5.797  0.00  0.00    -0.016 A 
ATOM      7  C6  BZF d   1      -5.453  -4.057  -5.965  0.00  0.00     0.022 A 
ATOM      8  C7  BZF d   1      -5.602  -3.227  -4.905  0.00  0.00     0.029 A 
ATOM      9  C7A BZF d   1      -5.620  -3.803  -3.658  0.00  0.00     0.058 A 
ENDROOT
TORSDOF 0
ENDMDL
