MODEL 1
REMARK minimizedAffinity 9.47928524
REMARK minimizedRMSD -1
REMARK  0 active torsions:
REMARK  status: ('A' for Active; 'I' for Inactive)
ROOT
ATOM      1  C   UNL d   1      -5.221   3.391   4.414  0.00  0.00     0.078 C 
ATOM      2  C1  UNL d   1      -4.197   2.554   3.707  0.00  0.00    -0.077 A 
ATOM      3  C2  UNL d   1      -4.382   1.176   3.540  0.00  0.00    -0.001 A 
ATOM      4  C3  UNL d   1      -3.416   0.408   2.889  0.00  0.00     0.003 A 
ATOM      5  C4  UNL d   1      -2.257   1.008   2.401  0.00  0.00    -0.005 A 
ATOM      6  C5  UNL d   1      -2.063   2.378   2.565  0.00  0.00     0.003 A 
ATOM      7  C6  UNL d   1      -3.028   3.148   3.215  0.00  0.00    -0.001 A 
ENDROOT
TORSDOF 0
ENDMDL
