MODEL 1
REMARK minimizedAffinity -4.14649439
REMARK minimizedRMSD -1
REMARK  0 active torsions:
REMARK  status: ('A' for Active; 'I' for Inactive)
ROOT
ATOM      1  C   UNL d   1       4.408  -4.547   0.393  0.00  0.00     0.078 C 
ATOM      2  C1  UNL d   1       3.865  -4.227  -0.967  0.00  0.00    -0.077 A 
ATOM      3  C2  UNL d   1       4.639  -4.422  -2.117  0.00  0.00    -0.001 A 
ATOM      4  C3  UNL d   1       4.124  -4.110  -3.376  0.00  0.00     0.003 A 
ATOM      5  C4  UNL d   1       2.832  -3.602  -3.497  0.00  0.00    -0.005 A 
ATOM      6  C5  UNL d   1       2.055  -3.403  -2.358  0.00  0.00     0.003 A 
ATOM      7  C6  UNL d   1       2.568  -3.713  -1.098  0.00  0.00    -0.001 A 
ENDROOT
TORSDOF 0
ENDMDL
