MODEL 1
REMARK minimizedAffinity 4.97815466
REMARK minimizedRMSD -1
REMARK  0 active torsions:
REMARK  status: ('A' for Active; 'I' for Inactive)
ROOT
ATOM      1  C   UNL d   1       3.712   0.069  -0.252  0.00  0.00     0.078 C 
ATOM      2  C1  UNL d   1       2.916   0.692  -1.360  0.00  0.00    -0.077 A 
ATOM      3  C2  UNL d   1       2.794   2.083  -1.466  0.00  0.00    -0.001 A 
ATOM      4  C3  UNL d   1       2.042   2.649  -2.497  0.00  0.00     0.003 A 
ATOM      5  C4  UNL d   1       1.406   1.832  -3.429  0.00  0.00    -0.005 A 
ATOM      6  C5  UNL d   1       1.520   0.447  -3.330  0.00  0.00     0.003 A 
ATOM      7  C6  UNL d   1       2.272  -0.121  -2.300  0.00  0.00    -0.001 A 
ENDROOT
TORSDOF 0
ENDMDL
