MODEL 1
REMARK minimizedAffinity -1.18720794
REMARK minimizedRMSD -1
REMARK  0 active torsions:
REMARK  status: ('A' for Active; 'I' for Inactive)
ROOT
ATOM      1  C   UNL d   1       1.840   1.986  -1.009  0.00  0.00     0.078 C 
ATOM      2  C1  UNL d   1       1.354   3.381  -0.751  0.00  0.00    -0.077 A 
ATOM      3  C2  UNL d   1       0.121   3.611  -0.129  0.00  0.00    -0.001 A 
ATOM      4  C3  UNL d   1      -0.324   4.915   0.097  0.00  0.00     0.003 A 
ATOM      5  C4  UNL d   1       0.458   5.999  -0.299  0.00  0.00    -0.005 A 
ATOM      6  C5  UNL d   1       1.685   5.780  -0.921  0.00  0.00     0.003 A 
ATOM      7  C6  UNL d   1       2.131   4.476  -1.147  0.00  0.00    -0.001 A 
ENDROOT
TORSDOF 0
ENDMDL
