MODEL 1
REMARK minimizedAffinity -2.79118371
REMARK minimizedRMSD -1
REMARK  0 active torsions:
REMARK  status: ('A' for Active; 'I' for Inactive)
ROOT
ATOM      1  C   UNL d   1       0.851   5.935  -0.402  0.00  0.00     0.078 C 
ATOM      2  C1  UNL d   1       1.234   4.527  -0.746  0.00  0.00    -0.077 A 
ATOM      3  C2  UNL d   1       2.036   4.249  -1.860  0.00  0.00    -0.001 A 
ATOM      4  C3  UNL d   1       2.377   2.933  -2.174  0.00  0.00     0.003 A 
ATOM      5  C4  UNL d   1       1.921   1.883  -1.380  0.00  0.00    -0.005 A 
ATOM      6  C5  UNL d   1       1.121   2.149  -0.270  0.00  0.00     0.003 A 
ATOM      7  C6  UNL d   1       0.779   3.465   0.045  0.00  0.00    -0.001 A 
ENDROOT
TORSDOF 0
ENDMDL
