MODEL 1
REMARK minimizedAffinity 1.51296735
REMARK minimizedRMSD -1
REMARK  0 active torsions:
REMARK  status: ('A' for Active; 'I' for Inactive)
ROOT
ATOM      1  C   UNL d   1       0.449  -2.796  -1.480  0.00  0.00     0.078 C 
ATOM      2  C1  UNL d   1       1.534  -1.766  -1.381  0.00  0.00    -0.077 A 
ATOM      3  C2  UNL d   1       1.476  -0.583  -2.127  0.00  0.00    -0.001 A 
ATOM      4  C3  UNL d   1       2.498   0.363  -2.032  0.00  0.00     0.003 A 
ATOM      5  C4  UNL d   1       3.587   0.135  -1.192  0.00  0.00    -0.005 A 
ATOM      6  C5  UNL d   1       3.655  -1.041  -0.448  0.00  0.00     0.003 A 
ATOM      7  C6  UNL d   1       2.633  -1.988  -0.542  0.00  0.00    -0.001 A 
ENDROOT
TORSDOF 0
ENDMDL
