MODEL 1
REMARK minimizedAffinity -2.01037431
REMARK minimizedRMSD -1
REMARK  0 active torsions:
REMARK  status: ('A' for Active; 'I' for Inactive)
ROOT
ATOM      1  C   UNL d   1       2.555  -0.958  -1.538  0.00  0.00     0.078 C 
ATOM      2  C1  UNL d   1       2.189   0.493  -1.444  0.00  0.00    -0.077 A 
ATOM      3  C2  UNL d   1       1.332   0.956  -0.437  0.00  0.00    -0.001 A 
ATOM      4  C3  UNL d   1       0.992   2.308  -0.367  0.00  0.00     0.003 A 
ATOM      5  C4  UNL d   1       1.502   3.208  -1.301  0.00  0.00    -0.005 A 
ATOM      6  C5  UNL d   1       2.353   2.756  -2.307  0.00  0.00     0.003 A 
ATOM      7  C6  UNL d   1       2.695   1.404  -2.379  0.00  0.00    -0.001 A 
ENDROOT
TORSDOF 0
ENDMDL
