MODEL 1
REMARK minimizedAffinity 12.8817606
REMARK minimizedRMSD -1
REMARK  0 active torsions:
REMARK  status: ('A' for Active; 'I' for Inactive)
ROOT
ATOM      1  C   UNL d   1       3.849  -3.214  -0.348  0.00  0.00     0.078 C 
ATOM      2  C1  UNL d   1       3.011  -1.982  -0.513  0.00  0.00    -0.077 A 
ATOM      3  C2  UNL d   1       1.830  -2.008  -1.265  0.00  0.00    -0.001 A 
ATOM      4  C3  UNL d   1       1.064  -0.851  -1.418  0.00  0.00     0.003 A 
ATOM      5  C4  UNL d   1       1.471   0.341  -0.822  0.00  0.00    -0.005 A 
ATOM      6  C5  UNL d   1       2.646   0.377  -0.074  0.00  0.00     0.003 A 
ATOM      7  C6  UNL d   1       3.413  -0.778   0.080  0.00  0.00    -0.001 A 
ENDROOT
TORSDOF 0
ENDMDL
