MODEL 1
REMARK minimizedAffinity 4.90670824
REMARK minimizedRMSD -1
REMARK  0 active torsions:
REMARK  status: ('A' for Active; 'I' for Inactive)
ROOT
ATOM      1  C   UNL d   1      -3.383  -5.629   1.874  0.00  0.00     0.078 C 
ATOM      2  C1  UNL d   1      -4.036  -4.363   2.340  0.00  0.00    -0.077 A 
ATOM      3  C2  UNL d   1      -5.407  -4.146   2.151  0.00  0.00    -0.001 A 
ATOM      4  C3  UNL d   1      -6.000  -2.959   2.582  0.00  0.00     0.003 A 
ATOM      5  C4  UNL d   1      -5.230  -1.978   3.204  0.00  0.00    -0.005 A 
ATOM      6  C5  UNL d   1      -3.866  -2.183   3.395  0.00  0.00     0.003 A 
ATOM      7  C6  UNL d   1      -3.271  -3.370   2.965  0.00  0.00    -0.001 A 
ENDROOT
TORSDOF 0
ENDMDL
