MODEL 1
REMARK minimizedAffinity 14.7435312
REMARK minimizedRMSD -1
REMARK  0 active torsions:
REMARK  status: ('A' for Active; 'I' for Inactive)
ROOT
ATOM      1  C   UNL d   1       2.876   0.796   0.879  0.00  0.00     0.078 C 
ATOM      2  C1  UNL d   1       2.332  -0.049  -0.234  0.00  0.00    -0.077 A 
ATOM      3  C2  UNL d   1       1.730   0.535  -1.355  0.00  0.00    -0.001 A 
ATOM      4  C3  UNL d   1       1.219  -0.264  -2.379  0.00  0.00     0.003 A 
ATOM      5  C4  UNL d   1       1.303  -1.652  -2.291  0.00  0.00    -0.005 A 
ATOM      6  C5  UNL d   1       1.899  -2.243  -1.178  0.00  0.00     0.003 A 
ATOM      7  C6  UNL d   1       2.410  -1.445  -0.153  0.00  0.00    -0.001 A 
ENDROOT
TORSDOF 0
ENDMDL
