MODEL 1
REMARK minimizedAffinity -3.88208914
REMARK minimizedRMSD -1
REMARK  0 active torsions:
REMARK  status: ('A' for Active; 'I' for Inactive)
ROOT
ATOM      1  C   UNL d   1      -3.028   1.907  -5.628  0.00  0.00     0.078 C 
ATOM      2  C1  UNL d   1      -3.507   3.323  -5.750  0.00  0.00    -0.077 A 
ATOM      3  C2  UNL d   1      -4.870   3.616  -5.877  0.00  0.00    -0.001 A 
ATOM      4  C3  UNL d   1      -5.300   4.938  -6.000  0.00  0.00     0.003 A 
ATOM      5  C4  UNL d   1      -4.373   5.978  -5.999  0.00  0.00    -0.005 A 
ATOM      6  C5  UNL d   1      -3.014   5.697  -5.875  0.00  0.00     0.003 A 
ATOM      7  C6  UNL d   1      -2.582   4.375  -5.752  0.00  0.00    -0.001 A 
ENDROOT
TORSDOF 0
ENDMDL
