MODEL 1
REMARK minimizedAffinity 5.65829754
REMARK minimizedRMSD -1
REMARK  0 active torsions:
REMARK  status: ('A' for Active; 'I' for Inactive)
ROOT
ATOM      1  C   UNL d   1       1.882   5.138  -0.797  0.00  0.00     0.078 C 
ATOM      2  C1  UNL d   1       1.792   3.749  -1.355  0.00  0.00    -0.077 A 
ATOM      3  C2  UNL d   1       2.585   2.714  -0.846  0.00  0.00    -0.001 A 
ATOM      4  C3  UNL d   1       2.498   1.428  -1.382  0.00  0.00     0.003 A 
ATOM      5  C4  UNL d   1       1.618   1.165  -2.430  0.00  0.00    -0.005 A 
ATOM      6  C5  UNL d   1       0.826   2.189  -2.945  0.00  0.00     0.003 A 
ATOM      7  C6  UNL d   1       0.913   3.476  -2.411  0.00  0.00    -0.001 A 
ENDROOT
TORSDOF 0
ENDMDL
