MODEL 1
REMARK minimizedAffinity 6.47212648
REMARK minimizedRMSD -1
REMARK  0 active torsions:
REMARK  status: ('A' for Active; 'I' for Inactive)
ROOT
ATOM      1  C   UNL d   1      -1.581  -4.622  -1.168  0.00  0.00     0.078 C 
ATOM      2  C1  UNL d   1      -1.704  -4.106  -2.571  0.00  0.00    -0.077 A 
ATOM      3  C2  UNL d   1      -1.493  -2.752  -2.862  0.00  0.00    -0.001 A 
ATOM      4  C3  UNL d   1      -1.620  -2.284  -4.170  0.00  0.00     0.003 A 
ATOM      5  C4  UNL d   1      -1.961  -3.161  -5.198  0.00  0.00    -0.005 A 
ATOM      6  C5  UNL d   1      -2.175  -4.509  -4.918  0.00  0.00     0.003 A 
ATOM      7  C6  UNL d   1      -2.048  -4.980  -3.610  0.00  0.00    -0.001 A 
ENDROOT
TORSDOF 0
ENDMDL
