MODEL 1
REMARK minimizedAffinity 2.59002757
REMARK minimizedRMSD -1
REMARK  0 active torsions:
REMARK  status: ('A' for Active; 'I' for Inactive)
ROOT
ATOM      1  C   UNL d   1      -1.764  -5.006  -1.946  0.00  0.00     0.078 C 
ATOM      2  C1  UNL d   1      -2.107  -4.357  -3.253  0.00  0.00    -0.077 A 
ATOM      3  C2  UNL d   1      -2.542  -5.118  -4.345  0.00  0.00    -0.001 A 
ATOM      4  C3  UNL d   1      -2.849  -4.501  -5.559  0.00  0.00     0.003 A 
ATOM      5  C4  UNL d   1      -2.723  -3.120  -5.693  0.00  0.00    -0.005 A 
ATOM      6  C5  UNL d   1      -2.289  -2.354  -4.613  0.00  0.00     0.003 A 
ATOM      7  C6  UNL d   1      -1.981  -2.969  -3.399  0.00  0.00    -0.001 A 
ENDROOT
TORSDOF 0
ENDMDL
