MODEL 1
REMARK minimizedAffinity 6.62913847
REMARK minimizedRMSD -1
REMARK  0 active torsions:
REMARK  status: ('A' for Active; 'I' for Inactive)
ROOT
ATOM      1  C   UNL d   1       0.389  -1.493   4.270  0.00  0.00     0.078 C 
ATOM      2  C1  UNL d   1      -0.727  -2.320   3.705  0.00  0.00    -0.077 A 
ATOM      3  C2  UNL d   1      -0.495  -3.234   2.669  0.00  0.00    -0.001 A 
ATOM      4  C3  UNL d   1      -1.545  -3.990   2.147  0.00  0.00     0.003 A 
ATOM      5  C4  UNL d   1      -2.835  -3.840   2.652  0.00  0.00    -0.005 A 
ATOM      6  C5  UNL d   1      -3.076  -2.932   3.681  0.00  0.00     0.003 A 
ATOM      7  C6  UNL d   1      -2.027  -2.175   4.205  0.00  0.00    -0.001 A 
ENDROOT
TORSDOF 0
ENDMDL
