MODEL 1
REMARK minimizedAffinity 3.86873198
REMARK minimizedRMSD -1
REMARK  0 active torsions:
REMARK  status: ('A' for Active; 'I' for Inactive)
ROOT
ATOM      1  C   UNL d   1       1.708   6.000  -1.117  0.00  0.00     0.078 C 
ATOM      2  C1  UNL d   1       1.650   4.505  -1.221  0.00  0.00    -0.077 A 
ATOM      3  C2  UNL d   1       1.669   3.701  -0.074  0.00  0.00    -0.001 A 
ATOM      4  C3  UNL d   1       1.624   2.311  -0.187  0.00  0.00     0.003 A 
ATOM      5  C4  UNL d   1       1.562   1.712  -1.443  0.00  0.00    -0.005 A 
ATOM      6  C5  UNL d   1       1.546   2.503  -2.590  0.00  0.00     0.003 A 
ATOM      7  C6  UNL d   1       1.590   3.894  -2.480  0.00  0.00    -0.001 A 
ENDROOT
TORSDOF 0
ENDMDL
