MODEL 1
REMARK minimizedAffinity 3.42373514
REMARK minimizedRMSD -1
REMARK  0 active torsions:
REMARK  status: ('A' for Active; 'I' for Inactive)
ROOT
ATOM      1  C   UNL d   1      -1.540  -2.876   3.250  0.00  0.00     0.078 C 
ATOM      2  C1  UNL d   1      -1.181  -3.157   1.821  0.00  0.00    -0.077 A 
ATOM      3  C2  UNL d   1       0.103  -2.883   1.333  0.00  0.00    -0.001 A 
ATOM      4  C3  UNL d   1       0.420  -3.140  -0.002  0.00  0.00     0.003 A 
ATOM      5  C4  UNL d   1      -0.541  -3.672  -0.860  0.00  0.00    -0.005 A 
ATOM      6  C5  UNL d   1      -1.822  -3.946  -0.383  0.00  0.00     0.003 A 
ATOM      7  C6  UNL d   1      -2.141  -3.689   0.951  0.00  0.00    -0.001 A 
ENDROOT
TORSDOF 0
ENDMDL
