MODEL 1
REMARK minimizedAffinity 3.24569035
REMARK minimizedRMSD -1
REMARK  0 active torsions:
REMARK  status: ('A' for Active; 'I' for Inactive)
ROOT
ATOM      1  C   UNL d   1       2.549  -2.353  -0.377  0.00  0.00     0.078 C 
ATOM      2  C1  UNL d   1       3.142  -0.982  -0.250  0.00  0.00    -0.077 A 
ATOM      3  C2  UNL d   1       2.349   0.117   0.106  0.00  0.00    -0.001 A 
ATOM      4  C3  UNL d   1       2.913   1.389   0.211  0.00  0.00     0.003 A 
ATOM      5  C4  UNL d   1       4.271   1.576  -0.038  0.00  0.00    -0.005 A 
ATOM      6  C5  UNL d   1       5.067   0.489  -0.394  0.00  0.00     0.003 A 
ATOM      7  C6  UNL d   1       4.506  -0.784  -0.500  0.00  0.00    -0.001 A 
ENDROOT
TORSDOF 0
ENDMDL
