MODEL 1
REMARK minimizedAffinity -1.31081843
REMARK minimizedRMSD -1
REMARK  0 active torsions:
REMARK  status: ('A' for Active; 'I' for Inactive)
ROOT
ATOM      1  C   UNL d   1      -0.801  -1.836   5.998  0.00  0.00     0.078 C 
ATOM      2  C1  UNL d   1      -0.601  -3.286   5.672  0.00  0.00    -0.077 A 
ATOM      3  C2  UNL d   1      -1.574  -4.239   5.999  0.00  0.00    -0.001 A 
ATOM      4  C3  UNL d   1      -1.370  -5.587   5.699  0.00  0.00     0.003 A 
ATOM      5  C4  UNL d   1      -0.194  -5.994   5.072  0.00  0.00    -0.005 A 
ATOM      6  C5  UNL d   1       0.780  -5.053   4.745  0.00  0.00     0.003 A 
ATOM      7  C6  UNL d   1       0.578  -3.705   5.044  0.00  0.00    -0.001 A 
ENDROOT
TORSDOF 0
ENDMDL
