MODEL 1
REMARK minimizedAffinity 4.39626026
REMARK minimizedRMSD -1
REMARK  0 active torsions:
REMARK  status: ('A' for Active; 'I' for Inactive)
ROOT
ATOM      1  C   UNL d   1       0.563   5.127   4.491  0.00  0.00     0.078 C 
ATOM      2  C1  UNL d   1       0.201   3.921   3.676  0.00  0.00    -0.077 A 
ATOM      3  C2  UNL d   1       0.416   2.628   4.167  0.00  0.00    -0.001 A 
ATOM      4  C3  UNL d   1       0.083   1.515   3.393  0.00  0.00     0.003 A 
ATOM      5  C4  UNL d   1      -0.464   1.684   2.123  0.00  0.00    -0.005 A 
ATOM      6  C5  UNL d   1      -0.679   2.967   1.625  0.00  0.00     0.003 A 
ATOM      7  C6  UNL d   1      -0.347   4.081   2.397  0.00  0.00    -0.001 A 
ENDROOT
TORSDOF 0
ENDMDL
