MODEL 1
REMARK minimizedAffinity 3.28828907
REMARK minimizedRMSD -1
REMARK  0 active torsions:
REMARK  status: ('A' for Active; 'I' for Inactive)
ROOT
ATOM      1  C   UNL d   1      -4.615   1.987   2.217  0.00  0.00     0.078 C 
ATOM      2  C1  UNL d   1      -3.213   2.411   2.542  0.00  0.00    -0.077 A 
ATOM      3  C2  UNL d   1      -2.605   2.030   3.744  0.00  0.00    -0.001 A 
ATOM      4  C3  UNL d   1      -1.304   2.440   4.038  0.00  0.00     0.003 A 
ATOM      5  C4  UNL d   1      -0.599   3.234   3.135  0.00  0.00    -0.005 A 
ATOM      6  C5  UNL d   1      -1.197   3.620   1.937  0.00  0.00     0.003 A 
ATOM      7  C6  UNL d   1      -2.499   3.211   1.641  0.00  0.00    -0.001 A 
ENDROOT
TORSDOF 0
ENDMDL
