MODEL 1
REMARK minimizedAffinity 9.19139671
REMARK minimizedRMSD -1
REMARK  0 active torsions:
REMARK  status: ('A' for Active; 'I' for Inactive)
ROOT
ATOM      1  C   UNL d   1       4.998   5.898   4.737  0.00  0.00     0.078 C 
ATOM      2  C1  UNL d   1       3.733   5.227   5.183  0.00  0.00    -0.077 A 
ATOM      3  C2  UNL d   1       3.626   3.831   5.204  0.00  0.00    -0.001 A 
ATOM      4  C3  UNL d   1       2.439   3.220   5.611  0.00  0.00     0.003 A 
ATOM      5  C4  UNL d   1       1.349   3.997   5.999  0.00  0.00    -0.005 A 
ATOM      6  C5  UNL d   1       1.445   5.386   5.979  0.00  0.00     0.003 A 
ATOM      7  C6  UNL d   1       2.631   5.999   5.572  0.00  0.00    -0.001 A 
ENDROOT
TORSDOF 0
ENDMDL
