MODEL 1
REMARK minimizedAffinity 10.5214748
REMARK minimizedRMSD -1
REMARK  0 active torsions:
REMARK  status: ('A' for Active; 'I' for Inactive)
ROOT
ATOM      1  C   UNL d   1       2.482  -4.922   5.509  0.00  0.00     0.078 C 
ATOM      2  C1  UNL d   1       0.983  -4.885   5.547  0.00  0.00    -0.077 A 
ATOM      3  C2  UNL d   1       0.245  -5.996   5.975  0.00  0.00    -0.001 A 
ATOM      4  C3  UNL d   1      -1.150  -5.951   5.996  0.00  0.00     0.003 A 
ATOM      5  C4  UNL d   1      -1.819  -4.799   5.590  0.00  0.00    -0.005 A 
ATOM      6  C5  UNL d   1      -1.093  -3.689   5.160  0.00  0.00     0.003 A 
ATOM      7  C6  UNL d   1       0.301  -3.732   5.138  0.00  0.00    -0.001 A 
ENDROOT
TORSDOF 0
ENDMDL
