MODEL 1
REMARK minimizedAffinity 7.62622261
REMARK minimizedRMSD -1
REMARK  0 active torsions:
REMARK  status: ('A' for Active; 'I' for Inactive)
ROOT
ATOM      1  C   UNL d   1       1.182   0.304   1.090  0.00  0.00     0.078 C 
ATOM      2  C1  UNL d   1       0.760  -0.649   0.011  0.00  0.00    -0.077 A 
ATOM      3  C2  UNL d   1       1.698  -1.452  -0.650  0.00  0.00    -0.001 A 
ATOM      4  C3  UNL d   1       1.292  -2.327  -1.659  0.00  0.00     0.003 A 
ATOM      5  C4  UNL d   1      -0.053  -2.407  -2.016  0.00  0.00    -0.005 A 
ATOM      6  C5  UNL d   1      -0.993  -1.611  -1.366  0.00  0.00     0.003 A 
ATOM      7  C6  UNL d   1      -0.589  -0.735  -0.357  0.00  0.00    -0.001 A 
ENDROOT
TORSDOF 0
ENDMDL
