MODEL 1
REMARK minimizedAffinity 4.87995577
REMARK minimizedRMSD -1
REMARK  0 active torsions:
REMARK  status: ('A' for Active; 'I' for Inactive)
ROOT
ATOM      1  C   UNL d   1       5.747   5.996   5.533  0.00  0.00     0.078 C 
ATOM      2  C1  UNL d   1       4.403   5.331   5.497  0.00  0.00    -0.077 A 
ATOM      3  C2  UNL d   1       4.247   4.050   4.955  0.00  0.00    -0.001 A 
ATOM      4  C3  UNL d   1       2.989   3.447   4.920  0.00  0.00     0.003 A 
ATOM      5  C4  UNL d   1       1.877   4.118   5.424  0.00  0.00    -0.005 A 
ATOM      6  C5  UNL d   1       2.022   5.394   5.964  0.00  0.00     0.003 A 
ATOM      7  C6  UNL d   1       3.280   5.999   6.000  0.00  0.00    -0.001 A 
ENDROOT
TORSDOF 0
ENDMDL
