MODEL 1
REMARK minimizedAffinity 7.02101183
REMARK minimizedRMSD -1
REMARK  0 active torsions:
REMARK  status: ('A' for Active; 'I' for Inactive)
ROOT
ATOM      1  C   UNL d   1       1.656  -4.544   3.681  0.00  0.00     0.078 C 
ATOM      2  C1  UNL d   1       0.398  -4.688   4.484  0.00  0.00    -0.077 A 
ATOM      3  C2  UNL d   1      -0.334  -5.882   4.469  0.00  0.00    -0.001 A 
ATOM      4  C3  UNL d   1      -1.509  -5.999   5.214  0.00  0.00     0.003 A 
ATOM      5  C4  UNL d   1      -1.963  -4.926   5.978  0.00  0.00    -0.005 A 
ATOM      6  C5  UNL d   1      -1.243  -3.733   5.997  0.00  0.00     0.003 A 
ATOM      7  C6  UNL d   1      -0.068  -3.614   5.253  0.00  0.00    -0.001 A 
ENDROOT
TORSDOF 0
ENDMDL
