MODEL 1
REMARK minimizedAffinity -0.106891923
REMARK minimizedRMSD -1
REMARK  0 active torsions:
REMARK  status: ('A' for Active; 'I' for Inactive)
ROOT
ATOM      1  C   UNL d   1       0.102  -4.015  -1.440  0.00  0.00     0.124 A 
ATOM      2  C1  UNL d   1      -1.148  -3.486  -1.151  0.00  0.00     0.062 A 
ATOM      3  C2  UNL d   1      -1.260  -2.201  -0.627  0.00  0.00     0.162 A 
ATOM      4  C3  UNL d   1      -0.119  -1.436  -0.389  0.00  0.00    -0.034 A 
ATOM      5  C4  UNL d   1       1.135  -1.975  -0.681  0.00  0.00     0.162 A 
ATOM      6  C5  UNL d   1       1.242  -3.260  -1.205  0.00  0.00     0.062 A 
ATOM      7  F   UNL d   1       2.451  -3.769  -1.483  0.00  0.00    -0.097 F 
ATOM      8  F1  UNL d   1       2.254  -1.267  -0.464  0.00  0.00    -0.096 F 
ATOM      9  I   UNL d   1      -0.282   0.485   0.395  0.00  0.00    -0.060 I 
ATOM     10  F2  UNL d   1      -2.481  -1.715  -0.357  0.00  0.00    -0.096 F 
ATOM     11  F3  UNL d   1      -2.251  -4.214  -1.376  0.00  0.00    -0.097 F 
ATOM     12  F4  UNL d   1       0.208  -5.251  -1.943  0.00  0.00    -0.092 F 
ENDROOT
TORSDOF 0
ENDMDL
