MODEL 1
REMARK minimizedAffinity -1.37951803
REMARK minimizedRMSD -1
REMARK  0 active torsions:
REMARK  status: ('A' for Active; 'I' for Inactive)
ROOT
ATOM      1  C   UNL d   1      -1.474   1.818  -0.065  0.00  0.00     0.124 A 
ATOM      2  C1  UNL d   1      -0.551   1.615  -1.082  0.00  0.00     0.062 A 
ATOM      3  C2  UNL d   1      -0.059   0.338  -1.337  0.00  0.00     0.162 A 
ATOM      4  C3  UNL d   1      -0.492  -0.747  -0.575  0.00  0.00    -0.034 A 
ATOM      5  C4  UNL d   1      -1.420  -0.536   0.446  0.00  0.00     0.162 A 
ATOM      6  C5  UNL d   1      -1.907   0.742   0.697  0.00  0.00     0.062 A 
ATOM      7  F   UNL d   1      -2.799   0.936   1.680  0.00  0.00    -0.097 F 
ATOM      8  F1  UNL d   1      -1.856  -1.557   1.197  0.00  0.00    -0.096 F 
ATOM      9  I   UNL d   1       0.240  -2.658  -0.954  0.00  0.00    -0.060 I 
ATOM     10  F2  UNL d   1       0.832   0.172  -2.326  0.00  0.00    -0.096 F 
ATOM     11  F3  UNL d   1      -0.129   2.653  -1.819  0.00  0.00    -0.097 F 
ATOM     12  F4  UNL d   1      -1.944   3.048   0.179  0.00  0.00    -0.092 F 
ENDROOT
TORSDOF 0
ENDMDL
