MODEL 1
REMARK minimizedAffinity 2.74224663
REMARK minimizedRMSD -1
REMARK  0 active torsions:
REMARK  status: ('A' for Active; 'I' for Inactive)
ROOT
ATOM      1  C   UNL d   1       4.213  -1.134   2.001  0.00  0.00     0.124 A 
ATOM      2  C1  UNL d   1       3.131  -1.003   2.861  0.00  0.00     0.062 A 
ATOM      3  C2  UNL d   1       1.891  -0.604   2.370  0.00  0.00     0.162 A 
ATOM      4  C3  UNL d   1       1.725  -0.335   1.012  0.00  0.00    -0.034 A 
ATOM      5  C4  UNL d   1       2.818  -0.468   0.153  0.00  0.00     0.162 A 
ATOM      6  C5  UNL d   1       4.055  -0.867   0.648  0.00  0.00     0.062 A 
ATOM      7  F   UNL d   1       5.099  -0.994  -0.184  0.00  0.00    -0.097 F 
ATOM      8  F1  UNL d   1       2.693  -0.218  -1.159  0.00  0.00    -0.096 F 
ATOM      9  I   UNL d   1      -0.127   0.261   0.274  0.00  0.00    -0.060 I 
ATOM     10  F2  UNL d   1       0.864  -0.485   3.224  0.00  0.00    -0.096 F 
ATOM     11  F3  UNL d   1       3.281  -1.259   4.168  0.00  0.00    -0.097 F 
ATOM     12  F4  UNL d   1       5.405  -1.517   2.476  0.00  0.00    -0.092 F 
ENDROOT
TORSDOF 0
ENDMDL
