MODEL 1
REMARK minimizedAffinity 1.85769105
REMARK minimizedRMSD -1
REMARK  0 active torsions:
REMARK  status: ('A' for Active; 'I' for Inactive)
ROOT
ATOM      1  C   UNL d   1      -0.739   2.328   0.718  0.00  0.00     0.124 A 
ATOM      2  C1  UNL d   1      -0.289   2.048  -0.565  0.00  0.00     0.062 A 
ATOM      3  C2  UNL d   1       0.522   0.940  -0.796  0.00  0.00     0.162 A 
ATOM      4  C3  UNL d   1       0.889   0.104   0.259  0.00  0.00    -0.034 A 
ATOM      5  C4  UNL d   1       0.434   0.394   1.546  0.00  0.00     0.162 A 
ATOM      6  C5  UNL d   1      -0.377   1.501   1.772  0.00  0.00     0.062 A 
ATOM      7  F   UNL d   1      -0.810   1.771   3.012  0.00  0.00    -0.097 F 
ATOM      8  F1  UNL d   1       0.767  -0.389   2.583  0.00  0.00    -0.096 F 
ATOM      9  I   UNL d   1       2.102  -1.552  -0.083  0.00  0.00    -0.060 I 
ATOM     10  F2  UNL d   1       0.942   0.694  -2.046  0.00  0.00    -0.096 F 
ATOM     11  F3  UNL d   1      -0.636   2.845  -1.585  0.00  0.00    -0.097 F 
ATOM     12  F4  UNL d   1      -1.518   3.394   0.937  0.00  0.00    -0.092 F 
ENDROOT
TORSDOF 0
ENDMDL
