MODEL 1
REMARK minimizedAffinity -0.894505382
REMARK minimizedRMSD -1
REMARK  0 active torsions:
REMARK  status: ('A' for Active; 'I' for Inactive)
ROOT
ATOM      1  C   UNL d   1      -0.316  -4.754  -1.473  0.00  0.00     0.124 A 
ATOM      2  C1  UNL d   1      -1.055  -3.580  -1.422  0.00  0.00     0.062 A 
ATOM      3  C2  UNL d   1      -0.511  -2.435  -0.847  0.00  0.00     0.162 A 
ATOM      4  C3  UNL d   1       0.779  -2.458  -0.319  0.00  0.00    -0.034 A 
ATOM      5  C4  UNL d   1       1.516  -3.642  -0.373  0.00  0.00     0.162 A 
ATOM      6  C5  UNL d   1       0.968  -4.784  -0.949  0.00  0.00     0.062 A 
ATOM      7  F   UNL d   1       1.683  -5.917  -0.997  0.00  0.00    -0.097 F 
ATOM      8  F1  UNL d   1       2.760  -3.699   0.125  0.00  0.00    -0.096 F 
ATOM      9  I   UNL d   1       1.596  -0.748   0.541  0.00  0.00    -0.060 I 
ATOM     10  F2  UNL d   1      -1.248  -1.314  -0.812  0.00  0.00    -0.096 F 
ATOM     11  F3  UNL d   1      -2.297  -3.548  -1.928  0.00  0.00    -0.097 F 
ATOM     12  F4  UNL d   1      -0.843  -5.854  -2.026  0.00  0.00    -0.092 F 
ENDROOT
TORSDOF 0
ENDMDL
