MODEL 1
REMARK minimizedAffinity -1.02038813
REMARK minimizedRMSD -1
REMARK  0 active torsions:
REMARK  status: ('A' for Active; 'I' for Inactive)
ROOT
ATOM      1  C   UNL d   1      -1.128   3.113   0.347  0.00  0.00     0.124 A 
ATOM      2  C1  UNL d   1      -1.261   2.102   1.289  0.00  0.00     0.062 A 
ATOM      3  C2  UNL d   1      -0.850   0.807   0.988  0.00  0.00     0.162 A 
ATOM      4  C3  UNL d   1      -0.300   0.514  -0.260  0.00  0.00    -0.034 A 
ATOM      5  C4  UNL d   1      -0.170   1.536  -1.202  0.00  0.00     0.162 A 
ATOM      6  C5  UNL d   1      -0.583   2.829  -0.897  0.00  0.00     0.062 A 
ATOM      7  F   UNL d   1      -0.454   3.804  -1.809  0.00  0.00    -0.097 F 
ATOM      8  F1  UNL d   1       0.354   1.290  -2.412  0.00  0.00    -0.096 F 
ATOM      9  I   UNL d   1       0.317  -1.421  -0.713  0.00  0.00    -0.060 I 
ATOM     10  F2  UNL d   1      -0.990  -0.150   1.918  0.00  0.00    -0.096 F 
ATOM     11  F3  UNL d   1      -1.789   2.373   2.491  0.00  0.00    -0.097 F 
ATOM     12  F4  UNL d   1      -1.526   4.358   0.638  0.00  0.00    -0.092 F 
ENDROOT
TORSDOF 0
ENDMDL
