MODEL 1
REMARK minimizedAffinity 3.59783077
REMARK minimizedRMSD -1
REMARK  0 active torsions:
REMARK  status: ('A' for Active; 'I' for Inactive)
ROOT
ATOM      1  C   UNL d   1      -0.310   0.085  -0.523  0.00  0.00     0.124 A 
ATOM      2  C1  UNL d   1      -1.156   1.181  -0.621  0.00  0.00     0.062 A 
ATOM      3  C2  UNL d   1      -0.852   2.362   0.050  0.00  0.00     0.162 A 
ATOM      4  C3  UNL d   1       0.304   2.453   0.826  0.00  0.00    -0.034 A 
ATOM      5  C4  UNL d   1       1.149   1.346   0.921  0.00  0.00     0.162 A 
ATOM      6  C5  UNL d   1       0.841   0.168   0.247  0.00  0.00     0.062 A 
ATOM      7  F   UNL d   1       1.659  -0.890   0.344  0.00  0.00    -0.097 F 
ATOM      8  F1  UNL d   1       2.268   1.399   1.658  0.00  0.00    -0.096 F 
ATOM      9  I   UNL d   1       0.762   4.216   1.832  0.00  0.00    -0.060 I 
ATOM     10  F2  UNL d   1      -1.687   3.405  -0.063  0.00  0.00    -0.096 F 
ATOM     11  F3  UNL d   1      -2.269   1.103  -1.365  0.00  0.00    -0.097 F 
ATOM     12  F4  UNL d   1      -0.606  -1.050  -1.170  0.00  0.00    -0.092 F 
ENDROOT
TORSDOF 0
ENDMDL
