MODEL 1
REMARK minimizedAffinity 6.15276051
REMARK minimizedRMSD -1
REMARK  0 active torsions:
REMARK  status: ('A' for Active; 'I' for Inactive)
ROOT
ATOM      1  C   UNL d   1      -1.761   2.022  -0.531  0.00  0.00     0.124 A 
ATOM      2  C1  UNL d   1      -2.088   0.996   0.345  0.00  0.00     0.062 A 
ATOM      3  C2  UNL d   1      -1.448  -0.236   0.251  0.00  0.00     0.162 A 
ATOM      4  C3  UNL d   1      -0.472  -0.449  -0.723  0.00  0.00    -0.034 A 
ATOM      5  C4  UNL d   1      -0.149   0.586  -1.601  0.00  0.00     0.162 A 
ATOM      6  C5  UNL d   1      -0.792   1.816  -1.503  0.00  0.00     0.062 A 
ATOM      7  F   UNL d   1      -0.475   2.806  -2.351  0.00  0.00    -0.097 F 
ATOM      8  F1  UNL d   1       0.784   0.415  -2.549  0.00  0.00    -0.096 F 
ATOM      9  I   UNL d   1       0.488  -2.290  -0.866  0.00  0.00    -0.060 I 
ATOM     10  F2  UNL d   1      -1.784  -1.209   1.111  0.00  0.00    -0.096 F 
ATOM     11  F3  UNL d   1      -3.025   1.192   1.284  0.00  0.00    -0.097 F 
ATOM     12  F4  UNL d   1      -2.380   3.206  -0.439  0.00  0.00    -0.092 F 
ENDROOT
TORSDOF 0
ENDMDL
