MODEL 1
REMARK minimizedAffinity 3.74640632
REMARK minimizedRMSD -1
REMARK  0 active torsions:
REMARK  status: ('A' for Active; 'I' for Inactive)
ROOT
ATOM      1  C   UNL d   1      -0.292   2.507   1.477  0.00  0.00     0.124 A 
ATOM      2  C1  UNL d   1       0.573   1.596   2.067  0.00  0.00     0.062 A 
ATOM      3  C2  UNL d   1       0.729   0.325   1.522  0.00  0.00     0.162 A 
ATOM      4  C3  UNL d   1       0.020  -0.042   0.378  0.00  0.00    -0.034 A 
ATOM      5  C4  UNL d   1      -0.849   0.879  -0.209  0.00  0.00     0.162 A 
ATOM      6  C5  UNL d   1      -1.002   2.148   0.340  0.00  0.00     0.062 A 
ATOM      7  F   UNL d   1      -1.838   3.027  -0.232  0.00  0.00    -0.097 F 
ATOM      8  F1  UNL d   1      -1.546   0.559  -1.309  0.00  0.00    -0.096 F 
ATOM      9  I   UNL d   1       0.251  -1.942  -0.441  0.00  0.00    -0.060 I 
ATOM     10  F2  UNL d   1       1.572  -0.535   2.113  0.00  0.00    -0.096 F 
ATOM     11  F3  UNL d   1       1.259   1.940   3.166  0.00  0.00    -0.097 F 
ATOM     12  F4  UNL d   1      -0.442   3.729   2.004  0.00  0.00    -0.092 F 
ENDROOT
TORSDOF 0
ENDMDL
