MODEL 1
REMARK minimizedAffinity -5.93764353
REMARK minimizedRMSD -1
REMARK  3 active torsions:
REMARK  status: ('A' for Active; 'I' for Inactive)
REMARK    1  A    between atoms: C3'_2  and  C2'_3 
REMARK    2  A    between atoms: C2'_3  and  C1'_4 
REMARK    3  A    between atoms: C1'_4  and  C1_5 
ROOT
ATOM      1  C1  N4B d   1       0.470  -0.003  -0.018  0.00  0.00    -0.075 A 
ATOM      2  C2  N4B d   1       0.583  -1.154  -0.828  0.00  0.00     0.002 A 
ATOM      3  C3  N4B d   1       1.774  -1.443  -1.448  0.00  0.00     0.002 A 
ATOM      4  C4  N4B d   1       2.855  -0.588  -1.290  0.00  0.00    -0.004 A 
ATOM      5  C5  N4B d   1       2.744   0.508  -0.485  0.00  0.00     0.002 A 
ATOM      6  C6  N4B d   1       1.555   0.808   0.148  0.00  0.00     0.002 A 
ENDROOT
BRANCH   1   7
ATOM      7  C1' N4B d   1      -0.836   0.400   0.612  0.00  0.00     0.057 C 
BRANCH   7   8
ATOM      8  C2' N4B d   1      -0.559   1.347   1.776  0.00  0.00     0.009 C 
BRANCH   8   9
ATOM      9  C3' N4B d   1      -1.623   1.244   2.856  0.00  0.00     0.004 C 
ATOM     10  C4' N4B d   1      -1.057   0.878   4.195  0.00  0.00     0.003 C 
ENDBRANCH   8   9
ENDBRANCH   7   8
ENDBRANCH   1   7
TORSDOF 3
ENDMDL
