MODEL 1
REMARK minimizedAffinity -5.23737144
REMARK minimizedRMSD -1
REMARK  3 active torsions:
REMARK  status: ('A' for Active; 'I' for Inactive)
REMARK    1  A    between atoms: C3'_2  and  C2'_3 
REMARK    2  A    between atoms: C2'_3  and  C1'_4 
REMARK    3  A    between atoms: C1'_4  and  C1_5 
ROOT
ATOM      1  C1  N4B d   1       0.007   0.266  -0.332  0.00  0.00    -0.075 A 
ATOM      2  C2  N4B d   1       0.111  -1.142  -0.299  0.00  0.00     0.002 A 
ATOM      3  C3  N4B d   1       1.286  -1.753  -0.664  0.00  0.00     0.002 A 
ATOM      4  C4  N4B d   1       2.359  -0.980  -1.081  0.00  0.00    -0.004 A 
ATOM      5  C5  N4B d   1       2.259   0.380  -1.086  0.00  0.00     0.002 A 
ATOM      6  C6  N4B d   1       1.086   1.008  -0.718  0.00  0.00     0.002 A 
ENDROOT
BRANCH   1   7
ATOM      7  C1' N4B d   1      -1.284   0.975  -0.024  0.00  0.00     0.057 C 
BRANCH   7   8
ATOM      8  C2' N4B d   1      -1.881   0.395   1.255  0.00  0.00     0.009 C 
BRANCH   8   9
ATOM      9  C3' N4B d   1      -1.642   1.297   2.453  0.00  0.00     0.004 C 
ATOM     10  C4' N4B d   1      -2.341   0.817   3.690  0.00  0.00     0.003 C 
ENDBRANCH   8   9
ENDBRANCH   7   8
ENDBRANCH   1   7
TORSDOF 3
ENDMDL
