MODEL 1
REMARK minimizedAffinity -5.30573273
REMARK minimizedRMSD -1
REMARK  3 active torsions:
REMARK  status: ('A' for Active; 'I' for Inactive)
REMARK    1  A    between atoms: C3'_2  and  C2'_3 
REMARK    2  A    between atoms: C2'_3  and  C1'_4 
REMARK    3  A    between atoms: C1'_4  and  C1_5 
ROOT
ATOM      1  C1  N4B d   1      -0.563   0.254  -0.039  0.00  0.00    -0.075 A 
ATOM      2  C2  N4B d   1       0.463   1.079  -0.548  0.00  0.00     0.002 A 
ATOM      3  C3  N4B d   1       1.613   0.517  -1.045  0.00  0.00     0.002 A 
ATOM      4  C4  N4B d   1       1.767  -0.861  -1.026  0.00  0.00    -0.004 A 
ATOM      5  C5  N4B d   1       0.761  -1.653  -0.555  0.00  0.00     0.002 A 
ATOM      6  C6  N4B d   1      -0.402  -1.102  -0.056  0.00  0.00     0.002 A 
ENDROOT
BRANCH   1   7
ATOM      7  C1' N4B d   1      -1.802   0.826   0.594  0.00  0.00     0.057 C 
BRANCH   7   8
ATOM      8  C2' N4B d   1      -1.992   0.205   1.975  0.00  0.00     0.009 C 
BRANCH   8   9
ATOM      9  C3' N4B d   1      -2.316   1.250   3.028  0.00  0.00     0.004 C 
ATOM     10  C4' N4B d   1      -1.214   2.251   3.211  0.00  0.00     0.003 C 
ENDBRANCH   8   9
ENDBRANCH   7   8
ENDBRANCH   1   7
TORSDOF 3
ENDMDL
