MODEL 1
REMARK minimizedAffinity -5.48629904
REMARK minimizedRMSD -1
REMARK  3 active torsions:
REMARK  status: ('A' for Active; 'I' for Inactive)
REMARK    1  A    between atoms: C3'_2  and  C2'_3 
REMARK    2  A    between atoms: C2'_3  and  C1'_4 
REMARK    3  A    between atoms: C1'_4  and  C1_5 
ROOT
ATOM      1  C1  N4B d   1       0.503  -0.445  -0.050  0.00  0.00    -0.075 A 
ATOM      2  C2  N4B d   1       0.998  -1.151  -1.169  0.00  0.00     0.002 A 
ATOM      3  C3  N4B d   1       2.288  -0.947  -1.595  0.00  0.00     0.002 A 
ATOM      4  C4  N4B d   1       3.092  -0.033  -0.931  0.00  0.00    -0.004 A 
ATOM      5  C5  N4B d   1       2.615   0.626   0.165  0.00  0.00     0.002 A 
ATOM      6  C6  N4B d   1       1.322   0.428   0.606  0.00  0.00     0.002 A 
ENDROOT
BRANCH   1   7
ATOM      7  C1' N4B d   1      -0.927  -0.571   0.400  0.00  0.00     0.057 C 
BRANCH   7   8
ATOM      8  C2' N4B d   1      -1.377   0.752   1.012  0.00  0.00     0.009 C 
BRANCH   8   9
ATOM      9  C3' N4B d   1      -2.419   0.549   2.098  0.00  0.00     0.004 C 
ATOM     10  C4' N4B d   1      -2.359   1.602   3.165  0.00  0.00     0.003 C 
ENDBRANCH   8   9
ENDBRANCH   7   8
ENDBRANCH   1   7
TORSDOF 3
ENDMDL
