MODEL 1
REMARK minimizedAffinity -4.10165596
REMARK minimizedRMSD -1
REMARK  3 active torsions:
REMARK  status: ('A' for Active; 'I' for Inactive)
REMARK    1  A    between atoms: C3'_2  and  C2'_3 
REMARK    2  A    between atoms: C2'_3  and  C1'_4 
REMARK    3  A    between atoms: C1'_4  and  C1_5 
ROOT
ATOM      1  C1  N4B d   1       0.382   0.226  -0.254  0.00  0.00    -0.075 A 
ATOM      2  C2  N4B d   1       0.458  -1.184  -0.275  0.00  0.00     0.002 A 
ATOM      3  C3  N4B d   1       1.616  -1.803  -0.679  0.00  0.00     0.002 A 
ATOM      4  C4  N4B d   1       2.699  -1.037  -1.081  0.00  0.00    -0.004 A 
ATOM      5  C5  N4B d   1       2.626   0.325  -1.033  0.00  0.00     0.002 A 
ATOM      6  C6  N4B d   1       1.471   0.960  -0.626  0.00  0.00     0.002 A 
ENDROOT
BRANCH   1   7
ATOM      7  C1' N4B d   1      -0.890   0.947   0.097  0.00  0.00     0.057 C 
BRANCH   7   8
ATOM      8  C2' N4B d   1      -1.373   0.474   1.465  0.00  0.00     0.009 C 
BRANCH   8   9
ATOM      9  C3' N4B d   1      -1.050   1.478   2.559  0.00  0.00     0.004 C 
ATOM     10  C4' N4B d   1      -1.713   1.148   3.863  0.00  0.00     0.003 C 
ENDBRANCH   8   9
ENDBRANCH   7   8
ENDBRANCH   1   7
TORSDOF 3
ENDMDL
