MODEL 1
REMARK minimizedAffinity -3.63446546
REMARK minimizedRMSD -1
REMARK  0 active torsions:
REMARK  status: ('A' for Active; 'I' for Inactive)
ROOT
ATOM      1  C4' PXY d   1       3.096  -3.986   4.713  0.00  0.00     0.077 C 
ATOM      2  C1' PXY d   1       1.721  -0.588   0.243  0.00  0.00     0.077 C 
ATOM      3  C1  PXY d   1       2.069  -1.479   1.419  0.00  0.00    -0.082 A 
ATOM      4  C2  PXY d   1       3.318  -1.531   1.853  0.00  0.00     0.003 A 
ATOM      5  C3  PXY d   1       3.657  -2.355   2.895  0.00  0.00     0.003 A 
ATOM      6  C4  PXY d   1       2.697  -3.093   3.535  0.00  0.00    -0.082 A 
ATOM      7  C5  PXY d   1       1.418  -3.037   3.105  0.00  0.00     0.003 A 
ATOM      8  C6  PXY d   1       1.103  -2.226   2.019  0.00  0.00     0.003 A 
ENDROOT
TORSDOF 0
ENDMDL
