MODEL 1
REMARK minimizedAffinity -3.49110508
REMARK minimizedRMSD -1
REMARK  0 active torsions:
REMARK  status: ('A' for Active; 'I' for Inactive)
ROOT
ATOM      1  C4' PXY d   1       2.647  -4.747   4.638  0.00  0.00     0.077 C 
ATOM      2  C1' PXY d   1       2.277  -0.356   0.897  0.00  0.00     0.077 C 
ATOM      3  C1  PXY d   1       2.362  -1.505   1.882  0.00  0.00    -0.082 A 
ATOM      4  C2  PXY d   1       3.547  -1.940   2.278  0.00  0.00     0.003 A 
ATOM      5  C3  PXY d   1       3.643  -2.999   3.144  0.00  0.00     0.003 A 
ATOM      6  C4  PXY d   1       2.513  -3.584   3.652  0.00  0.00    -0.082 A 
ATOM      7  C5  PXY d   1       1.300  -3.138   3.260  0.00  0.00     0.003 A 
ATOM      8  C6  PXY d   1       1.225  -2.089   2.349  0.00  0.00     0.003 A 
ENDROOT
TORSDOF 0
ENDMDL
