MODEL 1
REMARK minimizedAffinity -1.13218772
REMARK minimizedRMSD -1
REMARK  0 active torsions:
REMARK  status: ('A' for Active; 'I' for Inactive)
ROOT
ATOM      1  C4' PXY d   1       1.487  -4.094   3.151  0.00  0.00     0.077 C 
ATOM      2  C1' PXY d   1       2.900   0.902   0.609  0.00  0.00     0.077 C 
ATOM      3  C1  PXY d   1       2.542  -0.411   1.277  0.00  0.00    -0.082 A 
ATOM      4  C2  PXY d   1       1.364  -0.965   1.042  0.00  0.00     0.003 A 
ATOM      5  C3  PXY d   1       1.011  -2.136   1.662  0.00  0.00     0.003 A 
ATOM      6  C4  PXY d   1       1.895  -2.774   2.492  0.00  0.00    -0.082 A 
ATOM      7  C5  PXY d   1       3.103  -2.221   2.729  0.00  0.00     0.003 A 
ATOM      8  C6  PXY d   1       3.426  -1.011   2.121  0.00  0.00     0.003 A 
ENDROOT
TORSDOF 0
ENDMDL
