MODEL 1
REMARK minimizedAffinity -1.21940243
REMARK minimizedRMSD -1
REMARK  0 active torsions:
REMARK  status: ('A' for Active; 'I' for Inactive)
ROOT
ATOM      1  C4' PXY d   1       2.980   0.591   0.531  0.00  0.00     0.077 C 
ATOM      2  C1' PXY d   1       1.064  -4.165   3.200  0.00  0.00     0.077 C 
ATOM      3  C1  PXY d   1       1.558  -2.920   2.490  0.00  0.00    -0.082 A 
ATOM      4  C2  PXY d   1       2.763  -2.446   2.763  0.00  0.00     0.003 A 
ATOM      5  C3  PXY d   1       3.213  -1.303   2.154  0.00  0.00     0.003 A 
ATOM      6  C4  PXY d   1       2.443  -0.668   1.216  0.00  0.00    -0.082 A 
ATOM      7  C5  PXY d   1       1.217  -1.152   0.924  0.00  0.00     0.003 A 
ATOM      8  C6  PXY d   1       0.763  -2.290   1.584  0.00  0.00     0.003 A 
ENDROOT
TORSDOF 0
ENDMDL
