MODEL 1
REMARK minimizedAffinity 2.04559231
REMARK minimizedRMSD -1
REMARK  0 active torsions:
REMARK  status: ('A' for Active; 'I' for Inactive)
ROOT
ATOM      1  C4' PXY d   1       2.613   2.147   0.367  0.00  0.00     0.077 C 
ATOM      2  C1' PXY d   1       1.328  -3.073   2.494  0.00  0.00     0.077 C 
ATOM      3  C1  PXY d   1       1.677  -1.704   1.943  0.00  0.00    -0.082 A 
ATOM      4  C2  PXY d   1       0.710  -0.900   1.529  0.00  0.00     0.003 A 
ATOM      5  C3  PXY d   1       1.010   0.328   0.998  0.00  0.00     0.003 A 
ATOM      6  C4  PXY d   1       2.308   0.760   0.939  0.00  0.00    -0.082 A 
ATOM      7  C5  PXY d   1       3.298  -0.050   1.370  0.00  0.00     0.003 A 
ATOM      8  C6  PXY d   1       2.977  -1.309   1.867  0.00  0.00     0.003 A 
ENDROOT
TORSDOF 0
ENDMDL
