MODEL 1
REMARK minimizedAffinity 0.732349753
REMARK minimizedRMSD -1
REMARK  0 active torsions:
REMARK  status: ('A' for Active; 'I' for Inactive)
ROOT
ATOM      1  C4' PXY d   1       2.177   2.450  -0.062  0.00  0.00     0.077 C 
ATOM      2  C1' PXY d   1       1.173  -2.836   2.050  0.00  0.00     0.077 C 
ATOM      3  C1  PXY d   1       1.424  -1.449   1.492  0.00  0.00    -0.082 A 
ATOM      4  C2  PXY d   1       2.643  -1.110   1.105  0.00  0.00     0.003 A 
ATOM      5  C3  PXY d   1       2.893   0.151   0.628  0.00  0.00     0.003 A 
ATOM      6  C4  PXY d   1       1.875   1.057   0.498  0.00  0.00    -0.082 A 
ATOM      7  C5  PXY d   1       0.627   0.716   0.881  0.00  0.00     0.003 A 
ATOM      8  C6  PXY d   1       0.401  -0.556   1.400  0.00  0.00     0.003 A 
ENDROOT
TORSDOF 0
ENDMDL
