MODEL 1
REMARK minimizedAffinity 3.95638752
REMARK minimizedRMSD -1
REMARK  0 active torsions:
REMARK  status: ('A' for Active; 'I' for Inactive)
ROOT
ATOM      1  C4' PXY d   1       4.853  -1.493   1.423  0.00  0.00     0.077 C 
ATOM      2  C1' PXY d   1      -0.925  -1.652   1.510  0.00  0.00     0.077 C 
ATOM      3  C1  PXY d   1       0.590  -1.597   1.485  0.00  0.00    -0.082 A 
ATOM      4  C2  PXY d   1       1.279  -2.686   1.184  0.00  0.00     0.003 A 
ATOM      5  C3  PXY d   1       2.650  -2.663   1.188  0.00  0.00     0.003 A 
ATOM      6  C4  PXY d   1       3.322  -1.500   1.451  0.00  0.00    -0.082 A 
ATOM      7  C5  PXY d   1       2.626  -0.382   1.749  0.00  0.00     0.003 A 
ATOM      8  C6  PXY d   1       1.236  -0.437   1.779  0.00  0.00     0.003 A 
ENDROOT
TORSDOF 0
ENDMDL
