MODEL 1
REMARK minimizedAffinity 1.33838987
REMARK minimizedRMSD -1
REMARK  0 active torsions:
REMARK  status: ('A' for Active; 'I' for Inactive)
ROOT
ATOM      1  C4' PXY d   1       1.029  -2.334   4.153  0.00  0.00     0.077 C 
ATOM      2  C1' PXY d   1       0.387  -1.397  -1.515  0.00  0.00     0.077 C 
ATOM      3  C1  PXY d   1       0.567  -1.649  -0.030  0.00  0.00    -0.082 A 
ATOM      4  C2  PXY d   1      -0.493  -1.673   0.762  0.00  0.00     0.003 A 
ATOM      5  C3  PXY d   1      -0.345  -1.868   2.111  0.00  0.00     0.003 A 
ATOM      6  C4  PXY d   1       0.894  -2.093   2.647  0.00  0.00    -0.082 A 
ATOM      7  C5  PXY d   1       1.979  -2.080   1.844  0.00  0.00     0.003 A 
ATOM      8  C6  PXY d   1       1.812  -1.840   0.483  0.00  0.00     0.003 A 
ENDROOT
TORSDOF 0
ENDMDL
