MODEL 1
REMARK minimizedAffinity -3.01890779
REMARK minimizedRMSD -1
REMARK  0 active torsions:
REMARK  status: ('A' for Active; 'I' for Inactive)
ROOT
ATOM      1  C1  BNZ d   1      -1.229   1.163   0.367  0.00  0.00     0.000 A 
ATOM      2  C2  BNZ d   1      -0.464   0.988  -0.756  0.00  0.00     0.000 A 
ATOM      3  C3  BNZ d   1       0.362  -0.094  -0.878  0.00  0.00     0.000 A 
ATOM      4  C4  BNZ d   1       0.454  -0.977   0.138  0.00  0.00     0.000 A 
ATOM      5  C5  BNZ d   1      -0.303  -0.809   1.280  0.00  0.00     0.000 A 
ATOM      6  C6  BNZ d   1      -1.163   0.260   1.383  0.00  0.00     0.000 A 
ENDROOT
TORSDOF 0
ENDMDL
