MODEL 1
REMARK minimizedAffinity -3.32683945
REMARK minimizedRMSD -1
REMARK  0 active torsions:
REMARK  status: ('A' for Active; 'I' for Inactive)
ROOT
ATOM      1  C1  BNZ d   1       0.553  -0.529  -0.503  0.00  0.00     0.000 A 
ATOM      2  C2  BNZ d   1      -0.674  -0.475   0.102  0.00  0.00     0.000 A 
ATOM      3  C3  BNZ d   1      -1.462   0.637  -0.011  0.00  0.00     0.000 A 
ATOM      4  C4  BNZ d   1      -1.006   1.706  -0.696  0.00  0.00     0.000 A 
ATOM      5  C5  BNZ d   1       0.233   1.669  -1.304  0.00  0.00     0.000 A 
ATOM      6  C6  BNZ d   1       1.007   0.534  -1.220  0.00  0.00     0.000 A 
ENDROOT
TORSDOF 0
ENDMDL
