MODEL 1
REMARK minimizedAffinity -3.68487978
REMARK minimizedRMSD -1
REMARK  0 active torsions:
REMARK  status: ('A' for Active; 'I' for Inactive)
ROOT
ATOM      1  C1  BNZ d   1      -1.653   2.227   0.291  0.00  0.00     0.000 A 
ATOM      2  C2  BNZ d   1      -1.602   2.404   1.648  0.00  0.00     0.000 A 
ATOM      3  C3  BNZ d   1      -0.876   1.558   2.438  0.00  0.00     0.000 A 
ATOM      4  C4  BNZ d   1      -0.234   0.513   1.876  0.00  0.00     0.000 A 
ATOM      5  C5  BNZ d   1      -0.283   0.315   0.510  0.00  0.00     0.000 A 
ATOM      6  C6  BNZ d   1      -0.984   1.192  -0.286  0.00  0.00     0.000 A 
ENDROOT
TORSDOF 0
ENDMDL
