MODEL 1
REMARK minimizedAffinity -4.0228858
REMARK minimizedRMSD -1
REMARK  0 active torsions:
REMARK  status: ('A' for Active; 'I' for Inactive)
ROOT
ATOM      1  C1  BNZ d   1       0.680  -0.683   0.801  0.00  0.00     0.000 A 
ATOM      2  C2  BNZ d   1      -0.093  -0.566   1.926  0.00  0.00     0.000 A 
ATOM      3  C3  BNZ d   1      -1.010   0.441   2.044  0.00  0.00     0.000 A 
ATOM      4  C4  BNZ d   1      -1.124   1.352   1.056  0.00  0.00     0.000 A 
ATOM      5  C5  BNZ d   1      -0.346   1.253  -0.080  0.00  0.00     0.000 A 
ATOM      6  C6  BNZ d   1       0.548   0.216  -0.212  0.00  0.00     0.000 A 
ENDROOT
TORSDOF 0
ENDMDL
