MODEL 1
REMARK minimizedAffinity -4.48309374
REMARK minimizedRMSD -1
REMARK  0 active torsions:
REMARK  status: ('A' for Active; 'I' for Inactive)
ROOT
ATOM      1  C1  BNZ d   1      -1.418   2.910   0.689  0.00  0.00     0.000 A 
ATOM      2  C2  BNZ d   1      -0.727   3.003  -0.489  0.00  0.00     0.000 A 
ATOM      3  C3  BNZ d   1      -0.148   1.900  -1.050  0.00  0.00     0.000 A 
ATOM      4  C4  BNZ d   1      -0.226   0.713  -0.414  0.00  0.00     0.000 A 
ATOM      5  C5  BNZ d   1      -0.912   0.605   0.780  0.00  0.00     0.000 A 
ATOM      6  C6  BNZ d   1      -1.527   1.710   1.322  0.00  0.00     0.000 A 
ENDROOT
TORSDOF 0
ENDMDL
