MODEL 1
REMARK minimizedAffinity -1.30797124
REMARK minimizedRMSD -1
REMARK  0 active torsions:
REMARK  status: ('A' for Active; 'I' for Inactive)
ROOT
ATOM      1  C1  BNZ d   1      -0.882   1.599  -0.345  0.00  0.00     0.000 A 
ATOM      2  C2  BNZ d   1      -0.940   0.419   0.347  0.00  0.00     0.000 A 
ATOM      3  C3  BNZ d   1       0.029  -0.533   0.191  0.00  0.00     0.000 A 
ATOM      4  C4  BNZ d   1       1.032  -0.320  -0.685  0.00  0.00     0.000 A 
ATOM      5  C5  BNZ d   1       1.100   0.861  -1.397  0.00  0.00     0.000 A 
ATOM      6  C6  BNZ d   1       0.144   1.833  -1.208  0.00  0.00     0.000 A 
ENDROOT
TORSDOF 0
ENDMDL
