MODEL 1
REMARK minimizedAffinity -4.64370584
REMARK minimizedRMSD -1
REMARK  0 active torsions:
REMARK  status: ('A' for Active; 'I' for Inactive)
ROOT
ATOM      1  C1  BNZ d   1      -0.309   0.333  -0.327  0.00  0.00     0.000 A 
ATOM      2  C2  BNZ d   1      -1.506   0.907   0.010  0.00  0.00     0.000 A 
ATOM      3  C3  BNZ d   1      -1.877   1.037   1.319  0.00  0.00     0.000 A 
ATOM      4  C4  BNZ d   1      -1.070   0.558   2.287  0.00  0.00     0.000 A 
ATOM      5  C5  BNZ d   1       0.136  -0.032   1.964  0.00  0.00     0.000 A 
ATOM      6  C6  BNZ d   1       0.524  -0.126   0.647  0.00  0.00     0.000 A 
ENDROOT
TORSDOF 0
ENDMDL
