MODEL 1
REMARK minimizedAffinity -3.92060232
REMARK minimizedRMSD -1
REMARK  0 active torsions:
REMARK  status: ('A' for Active; 'I' for Inactive)
ROOT
ATOM      1  C1  BNZ d   1      -0.342   0.026   0.742  0.00  0.00     0.000 A 
ATOM      2  C2  BNZ d   1      -0.686   1.315   0.430  0.00  0.00     0.000 A 
ATOM      3  C3  BNZ d   1      -0.014   2.002  -0.542  0.00  0.00     0.000 A 
ATOM      4  C4  BNZ d   1       1.024   1.416  -1.172  0.00  0.00     0.000 A 
ATOM      5  C5  BNZ d   1       1.389   0.121  -0.862  0.00  0.00     0.000 A 
ATOM      6  C6  BNZ d   1       0.686  -0.582   0.090  0.00  0.00     0.000 A 
ENDROOT
TORSDOF 0
ENDMDL
