MODEL 1
REMARK minimizedAffinity -1.3721323
REMARK minimizedRMSD -1
REMARK  0 active torsions:
REMARK  status: ('A' for Active; 'I' for Inactive)
ROOT
ATOM      1  C1  BNZ d   1       0.344  -1.047   0.041  0.00  0.00     0.000 A 
ATOM      2  C2  BNZ d   1      -0.683  -0.214   0.395  0.00  0.00     0.000 A 
ATOM      3  C3  BNZ d   1      -0.822   1.013  -0.189  0.00  0.00     0.000 A 
ATOM      4  C4  BNZ d   1       0.088   1.423  -1.096  0.00  0.00     0.000 A 
ATOM      5  C5  BNZ d   1       1.135   0.598  -1.457  0.00  0.00     0.000 A 
ATOM      6  C6  BNZ d   1       1.249  -0.653  -0.896  0.00  0.00     0.000 A 
ENDROOT
TORSDOF 0
ENDMDL
