MODEL 1
REMARK minimizedAffinity -4.38691378
REMARK minimizedRMSD -1
REMARK  0 active torsions:
REMARK  status: ('A' for Active; 'I' for Inactive)
ROOT
ATOM      1  C1  BNZ d   1      -0.176  -0.483   1.208  0.00  0.00     0.000 A 
ATOM      2  C2  BNZ d   1       0.542  -0.582   0.046  0.00  0.00     0.000 A 
ATOM      3  C3  BNZ d   1       0.231   0.192  -1.037  0.00  0.00     0.000 A 
ATOM      4  C4  BNZ d   1      -0.821   1.034  -0.971  0.00  0.00     0.000 A 
ATOM      5  C5  BNZ d   1      -1.560   1.139   0.191  0.00  0.00     0.000 A 
ATOM      6  C6  BNZ d   1      -1.220   0.386   1.292  0.00  0.00     0.000 A 
ENDROOT
TORSDOF 0
ENDMDL
