MODEL 1
REMARK minimizedAffinity -3.05667734
REMARK minimizedRMSD -1
REMARK  0 active torsions:
REMARK  status: ('A' for Active; 'I' for Inactive)
ROOT
ATOM      1  C1  BNZ d   1      -1.357   0.957  -0.207  0.00  0.00     0.000 A 
ATOM      2  C2  BNZ d   1      -1.760   2.011   0.568  0.00  0.00     0.000 A 
ATOM      3  C3  BNZ d   1      -1.531   2.018   1.915  0.00  0.00     0.000 A 
ATOM      4  C4  BNZ d   1      -0.935   0.954   2.492  0.00  0.00     0.000 A 
ATOM      5  C5  BNZ d   1      -0.531  -0.121   1.725  0.00  0.00     0.000 A 
ATOM      6  C6  BNZ d   1      -0.729  -0.107   0.363  0.00  0.00     0.000 A 
ENDROOT
TORSDOF 0
ENDMDL
