MODEL 1
REMARK minimizedAffinity -1.83537483
REMARK minimizedRMSD -1
REMARK  0 active torsions:
REMARK  status: ('A' for Active; 'I' for Inactive)
ROOT
ATOM      1  C1  BNZ d   1       0.560  -4.114  -1.436  0.00  0.00     0.000 A 
ATOM      2  C2  BNZ d   1      -0.138  -3.913  -2.597  0.00  0.00     0.000 A 
ATOM      3  C3  BNZ d   1      -0.270  -2.659  -3.125  0.00  0.00     0.000 A 
ATOM      4  C4  BNZ d   1       0.261  -1.605  -2.473  0.00  0.00     0.000 A 
ATOM      5  C5  BNZ d   1       0.959  -1.791  -1.296  0.00  0.00     0.000 A 
ATOM      6  C6  BNZ d   1       1.123  -3.059  -0.788  0.00  0.00     0.000 A 
ENDROOT
TORSDOF 0
ENDMDL
