MODEL 1
REMARK minimizedAffinity -4.43784094
REMARK minimizedRMSD -1
REMARK  0 active torsions:
REMARK  status: ('A' for Active; 'I' for Inactive)
ROOT
ATOM      1  C1  BNZ d   1      -0.145   0.023   1.576  0.00  0.00     0.000 A 
ATOM      2  C2  BNZ d   1      -0.973   0.926   2.188  0.00  0.00     0.000 A 
ATOM      3  C3  BNZ d   1      -1.894   1.632   1.465  0.00  0.00     0.000 A 
ATOM      4  C4  BNZ d   1      -1.957   1.465   0.128  0.00  0.00     0.000 A 
ATOM      5  C5  BNZ d   1      -1.122   0.565  -0.504  0.00  0.00     0.000 A 
ATOM      6  C6  BNZ d   1      -0.223  -0.172   0.232  0.00  0.00     0.000 A 
ENDROOT
TORSDOF 0
ENDMDL
