MODEL 1
REMARK minimizedAffinity 8.21308422
REMARK minimizedRMSD -1
REMARK  1 active torsions:
REMARK  status: ('A' for Active; 'I' for Inactive)
REMARK    1  A    between atoms: N_2  and  C1_3 
ROOT
ATOM      1  C1  UNL d   1       1.447  -3.157  -2.043  0.00  0.00     0.143 A 
ATOM      2  C2  UNL d   1       1.416  -1.769  -2.221  0.00  0.00    -0.057 A 
ATOM      3  C3  UNL d   1       2.100  -0.911  -1.351  0.00  0.00     0.033 A 
ATOM      4  C4  UNL d   1       2.804  -1.425  -0.267  0.00  0.00    -0.042 A 
ATOM      5  C5  UNL d   1       2.828  -2.799  -0.057  0.00  0.00     0.033 A 
ATOM      6  C6  UNL d   1       2.149  -3.652  -0.933  0.00  0.00    -0.057 A 
ENDROOT
BRANCH   1   7
ATOM      7  N   UNL d   1       0.708  -4.056  -2.815  0.00  0.00    -0.732 N 
ATOM      8  C   UNL d   1      -0.536  -3.649  -3.433  0.00  0.00     0.284 C 
ATOM      9  H3  UNL d   1       1.298  -4.634  -3.410  0.00  0.00     0.395 HD
ENDBRANCH   1   7
TORSDOF 1
ENDMDL
