MODEL 1
REMARK minimizedAffinity 7.30130959
REMARK minimizedRMSD -1
REMARK  1 active torsions:
REMARK  status: ('A' for Active; 'I' for Inactive)
REMARK    1  A    between atoms: N_2  and  C1_3 
ROOT
ATOM      1  C1  UNL d   1       2.263  -2.449  -0.663  0.00  0.00     0.143 A 
ATOM      2  C2  UNL d   1       1.591  -2.443  -1.890  0.00  0.00    -0.057 A 
ATOM      3  C3  UNL d   1       1.405  -1.257  -2.610  0.00  0.00     0.033 A 
ATOM      4  C4  UNL d   1       1.862  -0.047  -2.100  0.00  0.00    -0.042 A 
ATOM      5  C5  UNL d   1       2.510  -0.025  -0.870  0.00  0.00     0.033 A 
ATOM      6  C6  UNL d   1       2.699  -1.214  -0.158  0.00  0.00    -0.057 A 
ENDROOT
BRANCH   1   7
ATOM      7  N   UNL d   1       2.393  -3.579   0.148  0.00  0.00    -0.732 N 
ATOM      8  C   UNL d   1       3.436  -4.551  -0.105  0.00  0.00     0.284 C 
ATOM      9  H3  UNL d   1       2.250  -3.370   1.133  0.00  0.00     0.395 HD
ENDBRANCH   1   7
TORSDOF 1
ENDMDL
