MODEL 1
REMARK minimizedAffinity 11.3834457
REMARK minimizedRMSD -1
REMARK  1 active torsions:
REMARK  status: ('A' for Active; 'I' for Inactive)
REMARK    1  A    between atoms: N_2  and  C1_3 
ROOT
ATOM      1  C1  UNL d   1      -3.839  -3.029  -5.406  0.00  0.00     0.143 A 
ATOM      2  C2  UNL d   1      -3.711  -4.291  -5.996  0.00  0.00    -0.057 A 
ATOM      3  C3  UNL d   1      -2.929  -5.292  -5.407  0.00  0.00     0.033 A 
ATOM      4  C4  UNL d   1      -2.236  -5.037  -4.228  0.00  0.00    -0.042 A 
ATOM      5  C5  UNL d   1      -2.328  -3.782  -3.638  0.00  0.00     0.033 A 
ATOM      6  C6  UNL d   1      -3.116  -2.789  -4.227  0.00  0.00    -0.057 A 
ENDROOT
BRANCH   1   7
ATOM      7  N   UNL d   1      -4.522  -1.961  -5.994  0.00  0.00    -0.732 N 
ATOM      8  C   UNL d   1      -5.969  -1.925  -6.000  0.00  0.00     0.284 C 
ATOM      9  H3  UNL d   1      -4.085  -1.064  -5.796  0.00  0.00     0.395 HD
ENDBRANCH   1   7
TORSDOF 1
ENDMDL
