MODEL 1
REMARK minimizedAffinity 7.3852725
REMARK minimizedRMSD -1
REMARK  1 active torsions:
REMARK  status: ('A' for Active; 'I' for Inactive)
REMARK    1  A    between atoms: N_2  and  C1_3 
ROOT
ATOM      1  C1  UNL d   1       2.255   1.646   1.488  0.00  0.00     0.143 A 
ATOM      2  C2  UNL d   1       2.486   1.040   0.249  0.00  0.00    -0.057 A 
ATOM      3  C3  UNL d   1       3.627   1.341  -0.505  0.00  0.00     0.033 A 
ATOM      4  C4  UNL d   1       4.545   2.279  -0.044  0.00  0.00    -0.042 A 
ATOM      5  C5  UNL d   1       4.323   2.913   1.173  0.00  0.00     0.033 A 
ATOM      6  C6  UNL d   1       3.185   2.603   1.924  0.00  0.00    -0.057 A 
ENDROOT
BRANCH   1   7
ATOM      7  N   UNL d   1       1.091   1.463   2.239  0.00  0.00    -0.732 N 
ATOM      8  C   UNL d   1       1.138   1.473   3.685  0.00  0.00     0.284 C 
ATOM      9  H3  UNL d   1       0.293   1.956   1.845  0.00  0.00     0.395 HD
ENDBRANCH   1   7
TORSDOF 1
ENDMDL
