MODEL 1
REMARK minimizedAffinity 5.76108074
REMARK minimizedRMSD -1
REMARK  1 active torsions:
REMARK  status: ('A' for Active; 'I' for Inactive)
REMARK    1  A    between atoms: N_2  and  C1_3 
ROOT
ATOM      1  C1  UNL d   1       1.779  -3.659  -2.053  0.00  0.00     0.143 A 
ATOM      2  C2  UNL d   1       1.506  -2.292  -1.934  0.00  0.00    -0.057 A 
ATOM      3  C3  UNL d   1       2.106  -1.516  -0.935  0.00  0.00     0.033 A 
ATOM      4  C4  UNL d   1       2.971  -2.101  -0.017  0.00  0.00    -0.042 A 
ATOM      5  C5  UNL d   1       3.238  -3.463  -0.100  0.00  0.00     0.033 A 
ATOM      6  C6  UNL d   1       2.640  -4.232  -1.104  0.00  0.00    -0.057 A 
ENDROOT
BRANCH   1   7
ATOM      7  N   UNL d   1       1.139  -4.504  -2.963  0.00  0.00    -0.732 N 
ATOM      8  C   UNL d   1      -0.293  -4.702  -2.902  0.00  0.00     0.284 C 
ATOM      9  H3  UNL d   1       1.506  -4.407  -3.907  0.00  0.00     0.395 HD
ENDBRANCH   1   7
TORSDOF 1
ENDMDL
