MODEL 1
REMARK minimizedAffinity 9.52434158
REMARK minimizedRMSD -1
REMARK  1 active torsions:
REMARK  status: ('A' for Active; 'I' for Inactive)
REMARK    1  A    between atoms: N_2  and  C1_3 
ROOT
ATOM      1  C1  UNL d   1       2.006  -1.678  -0.816  0.00  0.00     0.143 A 
ATOM      2  C2  UNL d   1       1.317  -2.117  -1.952  0.00  0.00    -0.057 A 
ATOM      3  C3  UNL d   1       1.370  -3.455  -2.362  0.00  0.00     0.033 A 
ATOM      4  C4  UNL d   1       2.138  -4.375  -1.657  0.00  0.00    -0.042 A 
ATOM      5  C5  UNL d   1       2.851  -3.956  -0.539  0.00  0.00     0.033 A 
ATOM      6  C6  UNL d   1       2.790  -2.620  -0.131  0.00  0.00    -0.057 A 
ENDROOT
BRANCH   1   7
ATOM      7  N   UNL d   1       2.073  -0.342  -0.415  0.00  0.00    -0.732 N 
ATOM      8  C   UNL d   1       2.281   0.710  -1.387  0.00  0.00     0.284 C 
ATOM      9  H3  UNL d   1       1.387  -0.117   0.301  0.00  0.00     0.395 HD
ENDBRANCH   1   7
TORSDOF 1
ENDMDL
