MODEL 1
REMARK minimizedAffinity 4.66363001
REMARK minimizedRMSD -1
REMARK  1 active torsions:
REMARK  status: ('A' for Active; 'I' for Inactive)
REMARK    1  A    between atoms: N_2  and  C1_3 
ROOT
ATOM      1  C1  UNL d   1      -1.961  -4.840  -4.425  0.00  0.00     0.143 A 
ATOM      2  C2  UNL d   1      -2.657  -5.436  -3.369  0.00  0.00    -0.057 A 
ATOM      3  C3  UNL d   1      -1.982  -5.999  -2.279  0.00  0.00     0.033 A 
ATOM      4  C4  UNL d   1      -0.591  -6.000  -2.240  0.00  0.00    -0.042 A 
ATOM      5  C5  UNL d   1       0.123  -5.435  -3.291  0.00  0.00     0.033 A 
ATOM      6  C6  UNL d   1      -0.558  -4.869  -4.373  0.00  0.00    -0.057 A 
ENDROOT
BRANCH   1   7
ATOM      7  N   UNL d   1      -2.572  -4.352  -5.583  0.00  0.00    -0.732 N 
ATOM      8  C   UNL d   1      -3.888  -3.754  -5.525  0.00  0.00     0.284 C 
ATOM      9  H3  UNL d   1      -1.918  -3.861  -6.189  0.00  0.00     0.395 HD
ENDBRANCH   1   7
TORSDOF 1
ENDMDL
