MODEL 1
REMARK minimizedAffinity 9.16084576
REMARK minimizedRMSD -1
REMARK  1 active torsions:
REMARK  status: ('A' for Active; 'I' for Inactive)
REMARK    1  A    between atoms: N_2  and  C1_3 
ROOT
ATOM      1  C1  UNL d   1       2.774  -1.556   0.768  0.00  0.00     0.143 A 
ATOM      2  C2  UNL d   1       1.834  -0.521   0.767  0.00  0.00    -0.057 A 
ATOM      3  C3  UNL d   1       2.183   0.778   1.157  0.00  0.00     0.033 A 
ATOM      4  C4  UNL d   1       3.477   1.058   1.583  0.00  0.00    -0.042 A 
ATOM      5  C5  UNL d   1       4.422   0.039   1.616  0.00  0.00     0.033 A 
ATOM      6  C6  UNL d   1       4.069  -1.254   1.220  0.00  0.00    -0.057 A 
ENDROOT
BRANCH   1   7
ATOM      7  N   UNL d   1       2.464  -2.889   0.487  0.00  0.00    -0.732 N 
ATOM      8  C   UNL d   1       3.491  -3.806   0.041  0.00  0.00     0.284 C 
ATOM      9  H3  UNL d   1       1.815  -3.287   1.161  0.00  0.00     0.395 HD
ENDBRANCH   1   7
TORSDOF 1
ENDMDL
