MODEL 1
REMARK minimizedAffinity 10.2167101
REMARK minimizedRMSD -1
REMARK  1 active torsions:
REMARK  status: ('A' for Active; 'I' for Inactive)
REMARK    1  A    between atoms: N_2  and  C1_3 
ROOT
ATOM      1  C1  UNL d   1      -2.645  -3.894  -4.220  0.00  0.00     0.143 A 
ATOM      2  C2  UNL d   1      -2.865  -4.490  -2.974  0.00  0.00    -0.057 A 
ATOM      3  C3  UNL d   1      -1.857  -5.218  -2.329  0.00  0.00     0.033 A 
ATOM      4  C4  UNL d   1      -0.617  -5.387  -2.935  0.00  0.00    -0.042 A 
ATOM      5  C5  UNL d   1      -0.384  -4.824  -4.185  0.00  0.00     0.033 A 
ATOM      6  C6  UNL d   1      -1.392  -4.093  -4.821  0.00  0.00    -0.057 A 
ENDROOT
BRANCH   1   7
ATOM      7  N   UNL d   1      -3.637  -3.242  -4.956  0.00  0.00    -0.732 N 
ATOM      8  C   UNL d   1      -4.358  -3.938  -6.000  0.00  0.00     0.284 C 
ATOM      9  H3  UNL d   1      -4.221  -2.643  -4.376  0.00  0.00     0.395 HD
ENDBRANCH   1   7
TORSDOF 1
ENDMDL
