MODEL 1
REMARK minimizedAffinity 17.5445976
REMARK minimizedRMSD -1
REMARK  1 active torsions:
REMARK  status: ('A' for Active; 'I' for Inactive)
REMARK    1  A    between atoms: N_2  and  C1_3 
ROOT
ATOM      1  C1  UNL d   1      -1.412   0.877   2.406  0.00  0.00     0.143 A 
ATOM      2  C2  UNL d   1      -0.557   1.638   3.211  0.00  0.00    -0.057 A 
ATOM      3  C3  UNL d   1       0.828   1.429   3.198  0.00  0.00     0.033 A 
ATOM      4  C4  UNL d   1       1.380   0.434   2.399  0.00  0.00    -0.042 A 
ATOM      5  C5  UNL d   1       0.547  -0.350   1.610  0.00  0.00     0.033 A 
ATOM      6  C6  UNL d   1      -0.834  -0.133   1.622  0.00  0.00    -0.057 A 
ENDROOT
BRANCH   1   7
ATOM      7  N   UNL d   1      -2.805   0.970   2.448  0.00  0.00    -0.732 N 
ATOM      8  C   UNL d   1      -3.606  -0.158   2.873  0.00  0.00     0.284 C 
ATOM      9  H3  UNL d   1      -3.125   1.866   2.808  0.00  0.00     0.395 HD
ENDBRANCH   1   7
TORSDOF 1
ENDMDL
