MODEL 1
REMARK minimizedAffinity 4.31775808
REMARK minimizedRMSD -1
REMARK  0 active torsions:
REMARK  status: ('A' for Active; 'I' for Inactive)
ROOT
ATOM      1  N1  IND d   1       1.313  -3.722   4.674  0.00  0.00    -0.196 N 
ATOM      2  C2  IND d   1       1.972  -4.891   4.413  0.00  0.00     0.054 A 
ATOM      3  C3  IND d   1       1.192  -5.951   4.723  0.00  0.00    -0.031 A 
ATOM      4  C4  IND d   1      -1.237  -5.999   5.576  0.00  0.00     0.051 A 
ATOM      5  C5  IND d   1      -2.246  -5.181   5.999  0.00  0.00    -0.031 A 
ATOM      6  C6  IND d   1      -2.120  -3.807   6.000  0.00  0.00     0.015 A 
ATOM      7  C7  IND d   1      -0.978  -3.197   5.564  0.00  0.00    -0.016 A 
ATOM      8  C8  IND d   1       0.052  -4.025   5.140  0.00  0.00    -0.047 A 
ATOM      9  C9  IND d   1      -0.055  -5.421   5.177  0.00  0.00    -0.096 A 
ATOM     10  HN1 IND d   1       1.631  -2.931   4.564  0.00  0.00     0.298 HD
ENDROOT
TORSDOF 0
ENDMDL
