MODEL 1
REMARK minimizedAffinity 9.19186497
REMARK minimizedRMSD -1
REMARK  0 active torsions:
REMARK  status: ('A' for Active; 'I' for Inactive)
ROOT
ATOM      1  N1  IND d   1      -0.037   1.926   0.153  0.00  0.00    -0.196 N 
ATOM      2  C2  IND d   1       0.367   0.623   0.243  0.00  0.00     0.054 A 
ATOM      3  C3  IND d   1       0.564   0.280   1.536  0.00  0.00    -0.031 A 
ATOM      4  C4  IND d   1       0.187   1.667   3.671  0.00  0.00     0.051 A 
ATOM      5  C5  IND d   1      -0.143   2.924   4.096  0.00  0.00    -0.031 A 
ATOM      6  C6  IND d   1      -0.464   3.932   3.209  0.00  0.00     0.015 A 
ATOM      7  C7  IND d   1      -0.477   3.716   1.860  0.00  0.00    -0.016 A 
ATOM      8  C8  IND d   1      -0.136   2.444   1.426  0.00  0.00    -0.047 A 
ATOM      9  C9  IND d   1       0.231   1.428   2.318  0.00  0.00    -0.096 A 
ATOM     10  HN1 IND d   1      -0.202   2.351  -0.576  0.00  0.00     0.298 HD
ENDROOT
TORSDOF 0
ENDMDL
