MODEL 1
REMARK minimizedAffinity 7.69805956
REMARK minimizedRMSD -1
REMARK  0 active torsions:
REMARK  status: ('A' for Active; 'I' for Inactive)
ROOT
ATOM      1  N1  IND d   1      -4.658   2.715   2.861  0.00  0.00    -0.196 N 
ATOM      2  C2  IND d   1      -4.942   1.602   2.120  0.00  0.00     0.054 A 
ATOM      3  C3  IND d   1      -3.800   0.999   1.721  0.00  0.00    -0.031 A 
ATOM      4  C4  IND d   1      -1.356   1.609   2.252  0.00  0.00     0.051 A 
ATOM      5  C5  IND d   1      -0.593   2.565   2.862  0.00  0.00    -0.031 A 
ATOM      6  C6  IND d   1      -1.157   3.640   3.518  0.00  0.00     0.015 A 
ATOM      7  C7  IND d   1      -2.512   3.793   3.599  0.00  0.00    -0.016 A 
ATOM      8  C8  IND d   1      -3.290   2.829   2.975  0.00  0.00    -0.047 A 
ATOM      9  C9  IND d   1      -2.723   1.759   2.271  0.00  0.00    -0.096 A 
ATOM     10  HN1 IND d   1      -5.237   3.254   3.199  0.00  0.00     0.298 HD
ENDROOT
TORSDOF 0
ENDMDL
