MODEL 1
REMARK minimizedAffinity 13.8177338
REMARK minimizedRMSD -1
REMARK  0 active torsions:
REMARK  status: ('A' for Active; 'I' for Inactive)
ROOT
ATOM      1  N1  IND d   1      -1.338  -0.933   0.373  0.00  0.00    -0.196 N 
ATOM      2  C2  IND d   1      -0.531  -0.865  -0.728  0.00  0.00     0.054 A 
ATOM      3  C3  IND d   1      -1.264  -0.599  -1.832  0.00  0.00    -0.031 A 
ATOM      4  C4  IND d   1      -3.787  -0.135  -2.048  0.00  0.00     0.051 A 
ATOM      5  C5  IND d   1      -4.946  -0.121  -1.324  0.00  0.00    -0.031 A 
ATOM      6  C6  IND d   1      -4.961  -0.380   0.032  0.00  0.00     0.015 A 
ATOM      7  C7  IND d   1      -3.811  -0.652   0.718  0.00  0.00    -0.016 A 
ATOM      8  C8  IND d   1      -2.634  -0.674  -0.016  0.00  0.00    -0.047 A 
ATOM      9  C9  IND d   1      -2.618  -0.454  -1.399  0.00  0.00    -0.096 A 
ATOM     10  HN1 IND d   1      -1.080  -1.108   1.174  0.00  0.00     0.298 HD
ENDROOT
TORSDOF 0
ENDMDL
