MODEL 1
REMARK minimizedAffinity 9.83529854
REMARK minimizedRMSD -1
REMARK  0 active torsions:
REMARK  status: ('A' for Active; 'I' for Inactive)
ROOT
ATOM      1  N1  IND d   1       2.240  -3.852  -2.104  0.00  0.00    -0.196 N 
ATOM      2  C2  IND d   1       3.510  -3.412  -1.852  0.00  0.00     0.054 A 
ATOM      3  C3  IND d   1       3.479  -2.190  -1.276  0.00  0.00    -0.031 A 
ATOM      4  C4  IND d   1       1.454  -0.768  -0.564  0.00  0.00     0.051 A 
ATOM      5  C5  IND d   1       0.089  -0.734  -0.620  0.00  0.00    -0.031 A 
ATOM      6  C6  IND d   1      -0.644  -1.759  -1.182  0.00  0.00     0.015 A 
ATOM      7  C7  IND d   1      -0.036  -2.867  -1.702  0.00  0.00    -0.016 A 
ATOM      8  C8  IND d   1       1.350  -2.902  -1.653  0.00  0.00    -0.047 A 
ATOM      9  C9  IND d   1       2.101  -1.846  -1.122  0.00  0.00    -0.096 A 
ATOM     10  HN1 IND d   1       2.033  -4.596  -2.480  0.00  0.00     0.298 HD
ENDROOT
TORSDOF 0
ENDMDL
