MODEL 1
REMARK minimizedAffinity 7.98329592
REMARK minimizedRMSD -1
REMARK  0 active torsions:
REMARK  status: ('A' for Active; 'I' for Inactive)
ROOT
ATOM      1  N1  IND d   1       1.492  -5.463   5.999  0.00  0.00    -0.196 N 
ATOM      2  C2  IND d   1       2.257  -4.568   5.304  0.00  0.00     0.054 A 
ATOM      3  C3  IND d   1       1.489  -3.859   4.447  0.00  0.00    -0.031 A 
ATOM      4  C4  IND d   1      -1.060  -3.929   4.092  0.00  0.00     0.051 A 
ATOM      5  C5  IND d   1      -2.181  -4.611   4.472  0.00  0.00    -0.031 A 
ATOM      6  C6  IND d   1      -2.136  -5.630   5.401  0.00  0.00     0.015 A 
ATOM      7  C7  IND d   1      -0.963  -6.000   5.996  0.00  0.00    -0.016 A 
ATOM      8  C8  IND d   1       0.180  -5.314   5.608  0.00  0.00    -0.047 A 
ATOM      9  C9  IND d   1       0.146  -4.308   4.634  0.00  0.00    -0.096 A 
ATOM     10  HN1 IND d   1       1.782  -6.023   6.583  0.00  0.00     0.298 HD
ENDROOT
TORSDOF 0
ENDMDL
