MODEL 1
REMARK minimizedAffinity 11.1716394
REMARK minimizedRMSD -1
REMARK  0 active torsions:
REMARK  status: ('A' for Active; 'I' for Inactive)
ROOT
ATOM      1  N1  IND d   1       3.392  -2.230  -1.056  0.00  0.00    -0.196 N 
ATOM      2  C2  IND d   1       3.635  -3.111  -2.072  0.00  0.00     0.054 A 
ATOM      3  C3  IND d   1       2.485  -3.426  -2.708  0.00  0.00    -0.031 A 
ATOM      4  C4  IND d   1       0.102  -2.533  -2.315  0.00  0.00     0.051 A 
ATOM      5  C5  IND d   1      -0.625  -1.737  -1.475  0.00  0.00    -0.031 A 
ATOM      6  C6  IND d   1      -0.038  -1.048  -0.433  0.00  0.00     0.015 A 
ATOM      7  C7  IND d   1       1.306  -1.122  -0.198  0.00  0.00    -0.016 A 
ATOM      8  C8  IND d   1       2.046  -1.935  -1.045  0.00  0.00    -0.047 A 
ATOM      9  C9  IND d   1       1.450  -2.669  -2.078  0.00  0.00    -0.096 A 
ATOM     10  HN1 IND d   1       3.980  -1.913  -0.515  0.00  0.00     0.298 HD
ENDROOT
TORSDOF 0
ENDMDL
