MODEL 1
REMARK minimizedAffinity 1.16695106
REMARK minimizedRMSD -1
REMARK  0 active torsions:
REMARK  status: ('A' for Active; 'I' for Inactive)
ROOT
ATOM      1  C2' OXE d   1      -1.091   0.201   1.158  0.00  0.00     0.078 C 
ATOM      2  C1' OXE d   1       1.114  -0.472  -0.444  0.00  0.00     0.078 C 
ATOM      3  C1  OXE d   1       0.778  -1.384   0.710  0.00  0.00    -0.078 A 
ATOM      4  C2  OXE d   1      -0.274  -1.022   1.516  0.00  0.00    -0.078 A 
ATOM      5  C3  OXE d   1      -0.661  -1.856   2.561  0.00  0.00     0.003 A 
ATOM      6  C4  OXE d   1       0.105  -2.980   2.892  0.00  0.00    -0.002 A 
ATOM      7  C5  OXE d   1       1.205  -3.345   2.107  0.00  0.00    -0.002 A 
ATOM      8  C6  OXE d   1       1.528  -2.583   0.990  0.00  0.00     0.003 A 
ENDROOT
TORSDOF 0
ENDMDL
