MODEL 1
REMARK minimizedAffinity 7.2068553
REMARK minimizedRMSD -1
REMARK  0 active torsions:
REMARK  status: ('A' for Active; 'I' for Inactive)
ROOT
ATOM      1  C2' OXE d   1       2.606  -1.823   0.351  0.00  0.00     0.078 C 
ATOM      2  C1' OXE d   1       4.757  -0.021   0.456  0.00  0.00     0.078 C 
ATOM      3  C1  OXE d   1       3.557   0.363  -0.373  0.00  0.00    -0.078 A 
ATOM      4  C2  OXE d   1       2.529  -0.545  -0.457  0.00  0.00    -0.078 A 
ATOM      5  C3  OXE d   1       1.375  -0.217  -1.163  0.00  0.00     0.003 A 
ATOM      6  C4  OXE d   1       1.316   0.963  -1.915  0.00  0.00    -0.002 A 
ATOM      7  C5  OXE d   1       2.368   1.884  -1.876  0.00  0.00    -0.002 A 
ATOM      8  C6  OXE d   1       3.476   1.619  -1.078  0.00  0.00     0.003 A 
ENDROOT
TORSDOF 0
ENDMDL
