MODEL 1
REMARK minimizedAffinity 9.51925373
REMARK minimizedRMSD -1
REMARK  0 active torsions:
REMARK  status: ('A' for Active; 'I' for Inactive)
ROOT
ATOM      1  C2' OXE d   1       0.366  -0.648   3.167  0.00  0.00     0.078 C 
ATOM      2  C1' OXE d   1       1.067  -0.903   0.460  0.00  0.00     0.078 C 
ATOM      3  C1  OXE d   1      -0.362  -0.548   0.786  0.00  0.00    -0.078 A 
ATOM      4  C2  OXE d   1      -0.707  -0.471   2.114  0.00  0.00    -0.078 A 
ATOM      5  C3  OXE d   1      -1.999  -0.093   2.470  0.00  0.00     0.003 A 
ATOM      6  C4  OXE d   1      -2.988   0.059   1.491  0.00  0.00    -0.002 A 
ATOM      7  C5  OXE d   1      -2.667  -0.054   0.134  0.00  0.00    -0.002 A 
ATOM      8  C6  OXE d   1      -1.352  -0.314  -0.236  0.00  0.00     0.003 A 
ENDROOT
TORSDOF 0
ENDMDL
