MODEL 1
REMARK minimizedAffinity 2.61679649
REMARK minimizedRMSD -1
REMARK  0 active torsions:
REMARK  status: ('A' for Active; 'I' for Inactive)
ROOT
ATOM      1  C2' OXE d   1       0.502  -0.464  -0.654  0.00  0.00     0.078 C 
ATOM      2  C1' OXE d   1      -1.399   0.025   1.352  0.00  0.00     0.078 C 
ATOM      3  C1  OXE d   1      -0.468  -1.147   1.536  0.00  0.00    -0.078 A 
ATOM      4  C2  OXE d   1       0.428  -1.407   0.527  0.00  0.00    -0.078 A 
ATOM      5  C3  OXE d   1       1.346  -2.443   0.671  0.00  0.00     0.003 A 
ATOM      6  C4  OXE d   1       1.264  -3.316   1.762  0.00  0.00    -0.002 A 
ATOM      7  C5  OXE d   1       0.333  -3.093   2.782  0.00  0.00    -0.002 A 
ATOM      8  C6  OXE d   1      -0.511  -1.990   2.705  0.00  0.00     0.003 A 
ENDROOT
TORSDOF 0
ENDMDL
