MODEL 1
REMARK minimizedAffinity 7.82332325
REMARK minimizedRMSD -1
REMARK  0 active torsions:
REMARK  status: ('A' for Active; 'I' for Inactive)
ROOT
ATOM      1  C2' OXE d   1       0.985  -0.798   0.641  0.00  0.00     0.078 C 
ATOM      2  C1' OXE d   1      -1.504   0.139   1.540  0.00  0.00     0.078 C 
ATOM      3  C1  OXE d   1      -0.998  -1.165   2.104  0.00  0.00    -0.078 A 
ATOM      4  C2  OXE d   1       0.199  -1.639   1.624  0.00  0.00    -0.078 A 
ATOM      5  C3  OXE d   1       0.738  -2.810   2.150  0.00  0.00     0.003 A 
ATOM      6  C4  OXE d   1      -0.000  -3.587   3.051  0.00  0.00    -0.002 A 
ATOM      7  C5  OXE d   1      -1.240  -3.142   3.523  0.00  0.00    -0.002 A 
ATOM      8  C6  OXE d   1      -1.732  -1.915   3.093  0.00  0.00     0.003 A 
ENDROOT
TORSDOF 0
ENDMDL
