MODEL 1
REMARK minimizedAffinity -1.75640643
REMARK minimizedRMSD -1
REMARK  0 active torsions:
REMARK  status: ('A' for Active; 'I' for Inactive)
ROOT
ATOM      1  C2' OXE d   1       1.077  -0.818   0.006  0.00  0.00     0.078 C 
ATOM      2  C1' OXE d   1      -1.000  -0.149   1.772  0.00  0.00     0.078 C 
ATOM      3  C1  OXE d   1      -0.340  -1.495   1.940  0.00  0.00    -0.078 A 
ATOM      4  C2  OXE d   1       0.644  -1.833   1.042  0.00  0.00    -0.078 A 
ATOM      5  C3  OXE d   1       1.323  -3.039   1.186  0.00  0.00     0.003 A 
ATOM      6  C4  OXE d   1       0.910  -3.976   2.140  0.00  0.00    -0.002 A 
ATOM      7  C5  OXE d   1      -0.116  -3.668   3.039  0.00  0.00    -0.002 A 
ATOM      8  C6  OXE d   1      -0.722  -2.418   2.980  0.00  0.00     0.003 A 
ENDROOT
TORSDOF 0
ENDMDL
