MODEL 1
REMARK minimizedAffinity 2.32513142
REMARK minimizedRMSD -1
REMARK  0 active torsions:
REMARK  status: ('A' for Active; 'I' for Inactive)
ROOT
ATOM      1  C2' OXE d   1      -3.040   2.252  -3.638  0.00  0.00     0.078 C 
ATOM      2  C1' OXE d   1      -5.287   1.662  -5.214  0.00  0.00     0.078 C 
ATOM      3  C1  OXE d   1      -4.831   0.622  -4.221  0.00  0.00    -0.078 A 
ATOM      4  C2  OXE d   1      -3.703   0.900  -3.487  0.00  0.00    -0.078 A 
ATOM      5  C3  OXE d   1      -3.271  -0.002  -2.519  0.00  0.00     0.003 A 
ATOM      6  C4  OXE d   1      -3.885  -1.254  -2.392  0.00  0.00    -0.002 A 
ATOM      7  C5  OXE d   1      -5.011  -1.573  -3.158  0.00  0.00    -0.002 A 
ATOM      8  C6  OXE d   1      -5.522  -0.632  -4.045  0.00  0.00     0.003 A 
ENDROOT
TORSDOF 0
ENDMDL
