MODEL 1
REMARK minimizedAffinity 4.55059767
REMARK minimizedRMSD -1
REMARK  0 active torsions:
REMARK  status: ('A' for Active; 'I' for Inactive)
ROOT
ATOM      1  C2' OXE d   1      -0.687  -0.948   2.641  0.00  0.00     0.078 C 
ATOM      2  C1' OXE d   1      -2.873  -0.372   0.978  0.00  0.00     0.078 C 
ATOM      3  C1  OXE d   1      -1.507  -0.446   0.343  0.00  0.00    -0.078 A 
ATOM      4  C2  OXE d   1      -0.437  -0.682   1.172  0.00  0.00    -0.078 A 
ATOM      5  C3  OXE d   1       0.839  -0.814   0.631  0.00  0.00     0.003 A 
ATOM      6  C4  OXE d   1       1.063  -0.557  -0.727  0.00  0.00    -0.002 A 
ATOM      7  C5  OXE d   1      -0.008  -0.275  -1.582  0.00  0.00    -0.002 A 
ATOM      8  C6  OXE d   1      -1.302  -0.258  -1.072  0.00  0.00     0.003 A 
ENDROOT
TORSDOF 0
ENDMDL
