MODEL 1
REMARK minimizedAffinity -0.51487571
REMARK minimizedRMSD -1
REMARK  0 active torsions:
REMARK  status: ('A' for Active; 'I' for Inactive)
ROOT
ATOM      1  C2' OXE d   1      -1.589   0.118   1.741  0.00  0.00     0.078 C 
ATOM      2  C1' OXE d   1      -0.260  -0.344  -0.688  0.00  0.00     0.078 C 
ATOM      3  C1  OXE d   1       0.189  -1.128   0.519  0.00  0.00    -0.078 A 
ATOM      4  C2  OXE d   1      -0.436  -0.862   1.714  0.00  0.00    -0.078 A 
ATOM      5  C3  OXE d   1      -0.098  -1.596   2.847  0.00  0.00     0.003 A 
ATOM      6  C4  OXE d   1       0.976  -2.493   2.816  0.00  0.00    -0.002 A 
ATOM      7  C5  OXE d   1       1.652  -2.750   1.619  0.00  0.00    -0.002 A 
ATOM      8  C6  OXE d   1       1.244  -2.109   0.454  0.00  0.00     0.003 A 
ENDROOT
TORSDOF 0
ENDMDL
