MODEL 1
REMARK minimizedAffinity 1.21314204
REMARK minimizedRMSD -1
REMARK  0 active torsions:
REMARK  status: ('A' for Active; 'I' for Inactive)
ROOT
ATOM      1  C2' OXE d   1      -1.606  -2.241   3.528  0.00  0.00     0.078 C 
ATOM      2  C1' OXE d   1      -1.826  -0.170   1.646  0.00  0.00     0.078 C 
ATOM      3  C1  OXE d   1      -0.669  -1.127   1.506  0.00  0.00    -0.078 A 
ATOM      4  C2  OXE d   1      -0.543  -2.109   2.459  0.00  0.00    -0.078 A 
ATOM      5  C3  OXE d   1       0.475  -3.052   2.347  0.00  0.00     0.003 A 
ATOM      6  C4  OXE d   1       1.461  -2.917   1.361  0.00  0.00    -0.002 A 
ATOM      7  C5  OXE d   1       1.373  -1.900   0.404  0.00  0.00    -0.002 A 
ATOM      8  C6  OXE d   1       0.293  -1.025   0.437  0.00  0.00     0.003 A 
ENDROOT
TORSDOF 0
ENDMDL
