MODEL 1
REMARK minimizedAffinity -1.0105933
REMARK minimizedRMSD -1
REMARK  0 active torsions:
REMARK  status: ('A' for Active; 'I' for Inactive)
ROOT
ATOM      1  C   UNL d   1      -2.684  -5.255  -5.999  0.00  0.00     0.077 C 
ATOM      2  C1  UNL d   1      -3.698  -4.150  -5.992  0.00  0.00    -0.074 A 
ATOM      3  C2  UNL d   1      -5.068  -4.432  -5.983  0.00  0.00    -0.005 A 
ATOM      4  C3  UNL d   1      -6.000  -3.395  -5.967  0.00  0.00     0.006 A 
ATOM      5  C4  UNL d   1      -5.572  -2.066  -5.960  0.00  0.00    -0.005 A 
ATOM      6  C5  UNL d   1      -4.207  -1.765  -5.967  0.00  0.00    -0.074 A 
ATOM      7  C6  UNL d   1      -3.730  -0.343  -5.949  0.00  0.00     0.077 C 
ATOM      8  C7  UNL d   1      -3.276  -2.813  -5.976  0.00  0.00    -0.001 A 
ENDROOT
TORSDOF 0
ENDMDL
