MODEL 1
REMARK minimizedAffinity -1.75480306
REMARK minimizedRMSD -1
REMARK  0 active torsions:
REMARK  status: ('A' for Active; 'I' for Inactive)
ROOT
ATOM      1  C   UNL d   1      -4.869  -0.574  -5.917  0.00  0.00     0.077 C 
ATOM      2  C1  UNL d   1      -4.113   0.722  -5.939  0.00  0.00    -0.074 A 
ATOM      3  C2  UNL d   1      -2.715   0.738  -5.960  0.00  0.00    -0.005 A 
ATOM      4  C3  UNL d   1      -2.026   1.950  -5.991  0.00  0.00     0.006 A 
ATOM      5  C4  UNL d   1      -2.727   3.157  -6.000  0.00  0.00    -0.005 A 
ATOM      6  C5  UNL d   1      -4.125   3.160  -5.980  0.00  0.00    -0.074 A 
ATOM      7  C6  UNL d   1      -4.894   4.448  -5.999  0.00  0.00     0.077 C 
ATOM      8  C7  UNL d   1      -4.810   1.938  -5.956  0.00  0.00    -0.001 A 
ENDROOT
TORSDOF 0
ENDMDL
