MODEL 1
REMARK minimizedAffinity 2.27212572
REMARK minimizedRMSD -1
REMARK  0 active torsions:
REMARK  status: ('A' for Active; 'I' for Inactive)
ROOT
ATOM      1  C   UNL d   1      -3.407  -0.290  -5.988  0.00  0.00     0.077 C 
ATOM      2  C1  UNL d   1      -3.342   1.208  -5.984  0.00  0.00    -0.074 A 
ATOM      3  C2  UNL d   1      -2.112   1.874  -5.993  0.00  0.00    -0.005 A 
ATOM      4  C3  UNL d   1      -2.068   3.268  -5.999  0.00  0.00     0.006 A 
ATOM      5  C4  UNL d   1      -3.250   4.009  -5.997  0.00  0.00    -0.005 A 
ATOM      6  C5  UNL d   1      -4.489   3.360  -5.989  0.00  0.00    -0.074 A 
ATOM      7  C6  UNL d   1      -5.769   4.141  -5.997  0.00  0.00     0.077 C 
ATOM      8  C7  UNL d   1      -4.525   1.959  -5.990  0.00  0.00    -0.001 A 
ENDROOT
TORSDOF 0
ENDMDL
