MODEL 1
REMARK minimizedAffinity 5.02408171
REMARK minimizedRMSD -1
REMARK  0 active torsions:
REMARK  status: ('A' for Active; 'I' for Inactive)
ROOT
ATOM      1  C   UNL d   1       2.139   3.003  -0.135  0.00  0.00     0.077 C 
ATOM      2  C1  UNL d   1       1.600   1.658  -0.521  0.00  0.00    -0.074 A 
ATOM      3  C2  UNL d   1       1.312   0.693   0.451  0.00  0.00    -0.005 A 
ATOM      4  C3  UNL d   1       0.802  -0.550   0.078  0.00  0.00     0.006 A 
ATOM      5  C4  UNL d   1       0.574  -0.841  -1.268  0.00  0.00    -0.005 A 
ATOM      6  C5  UNL d   1       0.855   0.111  -2.253  0.00  0.00    -0.074 A 
ATOM      7  C6  UNL d   1       0.606  -0.182  -3.703  0.00  0.00     0.077 C 
ATOM      8  C7  UNL d   1       1.361   1.360  -1.870  0.00  0.00    -0.001 A 
ENDROOT
TORSDOF 0
ENDMDL
