MODEL 1
REMARK minimizedAffinity 9.79099083
REMARK minimizedRMSD -1
REMARK  0 active torsions:
REMARK  status: ('A' for Active; 'I' for Inactive)
ROOT
ATOM      1  C   UNL d   1       1.347  -1.041  -0.626  0.00  0.00     0.077 C 
ATOM      2  C1  UNL d   1       2.172   0.212  -0.614  0.00  0.00    -0.074 A 
ATOM      3  C2  UNL d   1       1.566   1.472  -0.585  0.00  0.00    -0.005 A 
ATOM      4  C3  UNL d   1       2.346   2.627  -0.563  0.00  0.00     0.006 A 
ATOM      5  C4  UNL d   1       3.738   2.535  -0.571  0.00  0.00    -0.005 A 
ATOM      6  C5  UNL d   1       4.362   1.284  -0.599  0.00  0.00    -0.074 A 
ATOM      7  C6  UNL d   1       5.858   1.167  -0.598  0.00  0.00     0.077 C 
ATOM      8  C7  UNL d   1       3.571   0.127  -0.613  0.00  0.00    -0.001 A 
ENDROOT
TORSDOF 0
ENDMDL
