MODEL 1
REMARK minimizedAffinity 4.7408433
REMARK minimizedRMSD -1
REMARK  0 active torsions:
REMARK  status: ('A' for Active; 'I' for Inactive)
ROOT
ATOM      1  C   UNL d   1      -0.685   0.760   0.342  0.00  0.00     0.077 C 
ATOM      2  C1  UNL d   1       0.417   0.366  -0.596  0.00  0.00    -0.074 A 
ATOM      3  C2  UNL d   1       0.142  -0.343  -1.770  0.00  0.00    -0.005 A 
ATOM      4  C3  UNL d   1       1.176  -0.694  -2.638  0.00  0.00     0.006 A 
ATOM      5  C4  UNL d   1       2.493  -0.339  -2.342  0.00  0.00    -0.005 A 
ATOM      6  C5  UNL d   1       2.787   0.371  -1.173  0.00  0.00    -0.074 A 
ATOM      7  C6  UNL d   1       4.195   0.768  -0.845  0.00  0.00     0.077 C 
ATOM      8  C7  UNL d   1       1.741   0.726  -0.310  0.00  0.00    -0.001 A 
ENDROOT
TORSDOF 0
ENDMDL
