MODEL 1
REMARK minimizedAffinity -1.12024355
REMARK minimizedRMSD -1
REMARK  0 active torsions:
REMARK  status: ('A' for Active; 'I' for Inactive)
ROOT
ATOM      1  C   UNL d   1      -4.122  -0.638  -5.993  0.00  0.00     0.077 C 
ATOM      2  C1  UNL d   1      -4.130   0.862  -5.998  0.00  0.00    -0.074 A 
ATOM      3  C2  UNL d   1      -5.334   1.574  -5.987  0.00  0.00    -0.005 A 
ATOM      4  C3  UNL d   1      -5.326   2.968  -5.982  0.00  0.00     0.006 A 
ATOM      5  C4  UNL d   1      -4.116   3.664  -5.989  0.00  0.00    -0.005 A 
ATOM      6  C5  UNL d   1      -2.903   2.969  -5.999  0.00  0.00    -0.074 A 
ATOM      7  C6  UNL d   1      -1.594   3.702  -5.996  0.00  0.00     0.077 C 
ATOM      8  C7  UNL d   1      -2.919   1.568  -5.996  0.00  0.00    -0.001 A 
ENDROOT
TORSDOF 0
ENDMDL
