MODEL 1
REMARK minimizedAffinity -1.74357212
REMARK minimizedRMSD -1
REMARK  0 active torsions:
REMARK  status: ('A' for Active; 'I' for Inactive)
ROOT
ATOM      1  C   UNL d   1      -4.894  -0.824  -5.948  0.00  0.00     0.077 C 
ATOM      2  C1  UNL d   1      -4.827  -2.322  -5.958  0.00  0.00    -0.074 A 
ATOM      3  C2  UNL d   1      -5.994  -3.093  -5.981  0.00  0.00    -0.005 A 
ATOM      4  C3  UNL d   1      -5.916  -4.486  -6.000  0.00  0.00     0.006 A 
ATOM      5  C4  UNL d   1      -4.673  -5.120  -5.996  0.00  0.00    -0.005 A 
ATOM      6  C5  UNL d   1      -3.496  -4.365  -5.974  0.00  0.00    -0.074 A 
ATOM      7  C6  UNL d   1      -2.152  -5.031  -5.980  0.00  0.00     0.077 C 
ATOM      8  C7  UNL d   1      -3.582  -2.966  -5.962  0.00  0.00    -0.001 A 
ENDROOT
TORSDOF 0
ENDMDL
