MODEL 1
REMARK minimizedAffinity 1.41923523
REMARK minimizedRMSD -1
REMARK  0 active torsions:
REMARK  status: ('A' for Active; 'I' for Inactive)
ROOT
ATOM      1  C   UNL d   1      -5.249   3.787  -5.999  0.00  0.00     0.077 C 
ATOM      2  C1  UNL d   1      -4.409   2.544  -5.994  0.00  0.00    -0.074 A 
ATOM      3  C2  UNL d   1      -3.013   2.621  -5.969  0.00  0.00    -0.005 A 
ATOM      4  C3  UNL d   1      -2.245   1.456  -5.955  0.00  0.00     0.006 A 
ATOM      5  C4  UNL d   1      -2.864   0.206  -5.966  0.00  0.00    -0.005 A 
ATOM      6  C5  UNL d   1      -4.259   0.110  -5.990  0.00  0.00    -0.074 A 
ATOM      7  C6  UNL d   1      -4.941  -1.226  -5.993  0.00  0.00     0.077 C 
ATOM      8  C7  UNL d   1      -5.024   1.284  -5.997  0.00  0.00    -0.001 A 
ENDROOT
TORSDOF 0
ENDMDL
