MODEL 1
REMARK minimizedAffinity 4.42697763
REMARK minimizedRMSD -1
REMARK  0 active torsions:
REMARK  status: ('A' for Active; 'I' for Inactive)
ROOT
ATOM      1  C   UNL d   1      -1.747   0.312  -3.922  0.00  0.00     0.077 C 
ATOM      2  C1  UNL d   1      -0.615   0.069  -2.968  0.00  0.00    -0.074 A 
ATOM      3  C2  UNL d   1       0.506  -0.671  -3.358  0.00  0.00    -0.005 A 
ATOM      4  C3  UNL d   1       1.555  -0.881  -2.463  0.00  0.00     0.006 A 
ATOM      5  C4  UNL d   1       1.494  -0.355  -1.172  0.00  0.00    -0.005 A 
ATOM      6  C5  UNL d   1       0.381   0.389  -0.765  0.00  0.00    -0.074 A 
ATOM      7  C6  UNL d   1       0.304   0.970   0.615  0.00  0.00     0.077 C 
ATOM      8  C7  UNL d   1      -0.666   0.601  -1.672  0.00  0.00    -0.001 A 
ENDROOT
TORSDOF 0
ENDMDL
