MODEL 1
REMARK minimizedAffinity -2.08324003
REMARK minimizedRMSD -1
REMARK  0 active torsions:
REMARK  status: ('A' for Active; 'I' for Inactive)
ROOT
ATOM      1  C   UNL d   1      -5.938   3.319  -5.983  0.00  0.00     0.077 C 
ATOM      2  C1  UNL d   1      -4.865   2.272  -5.994  0.00  0.00    -0.074 A 
ATOM      3  C2  UNL d   1      -3.512   2.629  -5.993  0.00  0.00    -0.005 A 
ATOM      4  C3  UNL d   1      -2.525   1.644  -5.994  0.00  0.00     0.006 A 
ATOM      5  C4  UNL d   1      -2.879   0.295  -5.995  0.00  0.00    -0.005 A 
ATOM      6  C5  UNL d   1      -4.226  -0.082  -5.994  0.00  0.00    -0.074 A 
ATOM      7  C6  UNL d   1      -4.623  -1.528  -5.984  0.00  0.00     0.077 C 
ATOM      8  C7  UNL d   1      -5.212   0.914  -5.986  0.00  0.00    -0.001 A 
ENDROOT
TORSDOF 0
ENDMDL
