MODEL 1
REMARK minimizedAffinity -1.99332154
REMARK minimizedRMSD -1
REMARK  0 active torsions:
REMARK  status: ('A' for Active; 'I' for Inactive)
ROOT
ATOM      1  C   UNL d   1      -5.999   2.999  -5.970  0.00  0.00     0.077 C 
ATOM      2  C1  UNL d   1      -4.893   1.985  -5.987  0.00  0.00    -0.074 A 
ATOM      3  C2  UNL d   1      -3.553   2.383  -5.987  0.00  0.00    -0.005 A 
ATOM      4  C3  UNL d   1      -2.536   1.429  -5.993  0.00  0.00     0.006 A 
ATOM      5  C4  UNL d   1      -2.848   0.069  -6.000  0.00  0.00    -0.005 A 
ATOM      6  C5  UNL d   1      -4.183  -0.348  -5.999  0.00  0.00    -0.074 A 
ATOM      7  C6  UNL d   1      -4.537  -1.806  -5.997  0.00  0.00     0.077 C 
ATOM      8  C7  UNL d   1      -5.199   0.617  -5.986  0.00  0.00    -0.001 A 
ENDROOT
TORSDOF 0
ENDMDL
