MODEL 1
REMARK minimizedAffinity 0.672797084
REMARK minimizedRMSD -1
REMARK  0 active torsions:
REMARK  status: ('A' for Active; 'I' for Inactive)
ROOT
ATOM      1  C   UNL d   1      -5.966   3.694  -5.999  0.00  0.00     0.077 C 
ATOM      2  C1  UNL d   1      -4.538   3.234  -5.990  0.00  0.00    -0.074 A 
ATOM      3  C2  UNL d   1      -4.221   1.872  -5.998  0.00  0.00    -0.005 A 
ATOM      4  C3  UNL d   1      -2.889   1.460  -5.999  0.00  0.00     0.006 A 
ATOM      5  C4  UNL d   1      -1.861   2.404  -5.991  0.00  0.00    -0.005 A 
ATOM      6  C5  UNL d   1      -2.159   3.770  -5.983  0.00  0.00    -0.074 A 
ATOM      7  C6  UNL d   1      -1.067   4.798  -5.985  0.00  0.00     0.077 C 
ATOM      8  C7  UNL d   1      -3.500   4.177  -5.990  0.00  0.00    -0.001 A 
ENDROOT
TORSDOF 0
ENDMDL
