MODEL 1
REMARK minimizedAffinity 2.77106738
REMARK minimizedRMSD -1
REMARK  0 active torsions:
REMARK  status: ('A' for Active; 'I' for Inactive)
ROOT
ATOM      1  C   UNL d   1      -1.165   1.644  -5.988  0.00  0.00     0.077 C 
ATOM      2  C1  UNL d   1      -2.639   1.366  -5.999  0.00  0.00    -0.074 A 
ATOM      3  C2  UNL d   1      -3.123   0.054  -5.997  0.00  0.00    -0.005 A 
ATOM      4  C3  UNL d   1      -4.496  -0.189  -5.998  0.00  0.00     0.006 A 
ATOM      5  C4  UNL d   1      -5.398   0.876  -5.999  0.00  0.00    -0.005 A 
ATOM      6  C5  UNL d   1      -4.933   2.194  -6.000  0.00  0.00    -0.074 A 
ATOM      7  C6  UNL d   1      -5.889   3.350  -5.992  0.00  0.00     0.077 C 
ATOM      8  C7  UNL d   1      -3.551   2.430  -5.993  0.00  0.00    -0.001 A 
ENDROOT
TORSDOF 0
ENDMDL
