MODEL 1
REMARK minimizedAffinity 0.489260197
REMARK minimizedRMSD -1
REMARK  0 active torsions:
REMARK  status: ('A' for Active; 'I' for Inactive)
ROOT
ATOM      1  C   UNL d   1      -5.279  -1.749  -5.933  0.00  0.00     0.077 C 
ATOM      2  C1  UNL d   1      -4.941  -0.288  -5.961  0.00  0.00    -0.074 A 
ATOM      3  C2  UNL d   1      -5.948   0.683  -5.963  0.00  0.00    -0.005 A 
ATOM      4  C3  UNL d   1      -5.617   2.038  -5.980  0.00  0.00     0.006 A 
ATOM      5  C4  UNL d   1      -4.280   2.435  -5.995  0.00  0.00    -0.005 A 
ATOM      6  C5  UNL d   1      -3.260   1.478  -5.992  0.00  0.00    -0.074 A 
ATOM      7  C6  UNL d   1      -1.817   1.888  -5.998  0.00  0.00     0.077 C 
ATOM      8  C7  UNL d   1      -3.599   0.119  -5.968  0.00  0.00    -0.001 A 
ENDROOT
TORSDOF 0
ENDMDL
