MODEL 1
REMARK minimizedAffinity -1.12838471
REMARK minimizedRMSD -1
REMARK  0 active torsions:
REMARK  status: ('A' for Active; 'I' for Inactive)
ROOT
ATOM      1  C   UNL d   1      -5.966   4.035  -5.937  0.00  0.00     0.077 C 
ATOM      2  C1  UNL d   1      -4.877   3.004  -5.965  0.00  0.00    -0.074 A 
ATOM      3  C2  UNL d   1      -3.530   3.380  -5.968  0.00  0.00    -0.005 A 
ATOM      4  C3  UNL d   1      -2.529   2.410  -5.985  0.00  0.00     0.006 A 
ATOM      5  C4  UNL d   1      -2.864   1.055  -5.998  0.00  0.00    -0.005 A 
ATOM      6  C5  UNL d   1      -4.205   0.660  -5.995  0.00  0.00    -0.074 A 
ATOM      7  C6  UNL d   1      -4.582  -0.792  -6.000  0.00  0.00     0.077 C 
ATOM      8  C7  UNL d   1      -5.205   1.641  -5.971  0.00  0.00    -0.001 A 
ENDROOT
TORSDOF 0
ENDMDL
