MODEL 1
REMARK minimizedAffinity -1.92247152
REMARK minimizedRMSD -1
REMARK  0 active torsions:
REMARK  status: ('A' for Active; 'I' for Inactive)
ROOT
ATOM      1  C   UNL d   1      -4.145   3.101  -5.988  0.00  0.00     0.077 C 
ATOM      2  C1  UNL d   1      -3.715   1.665  -5.999  0.00  0.00    -0.074 A 
ATOM      3  C2  UNL d   1      -2.359   1.321  -5.998  0.00  0.00    -0.005 A 
ATOM      4  C3  UNL d   1      -1.974  -0.020  -5.999  0.00  0.00     0.006 A 
ATOM      5  C4  UNL d   1      -2.939  -1.028  -6.000  0.00  0.00    -0.005 A 
ATOM      6  C5  UNL d   1      -4.299  -0.703  -6.000  0.00  0.00    -0.074 A 
ATOM      7  C6  UNL d   1      -5.348  -1.775  -5.991  0.00  0.00     0.077 C 
ATOM      8  C7  UNL d   1      -4.678   0.646  -5.992  0.00  0.00    -0.001 A 
ENDROOT
TORSDOF 0
ENDMDL
