MODEL 1
REMARK minimizedAffinity 19.649704
REMARK minimizedRMSD -1
REMARK  0 active torsions:
REMARK  status: ('A' for Active; 'I' for Inactive)
ROOT
ATOM      1  C   UNL d   1       3.281  -0.823   2.519  0.00  0.00     0.023 A 
ATOM      2  C1  UNL d   1       1.937  -0.763   2.152  0.00  0.00     0.003 A 
ATOM      3  C2  UNL d   1       1.468  -1.534   1.086  0.00  0.00     0.048 A 
ATOM      4  C3  UNL d   1       2.348  -2.364   0.394  0.00  0.00     0.023 A 
ATOM      5  C4  UNL d   1       3.694  -2.428   0.758  0.00  0.00     0.048 A 
ATOM      6  C5  UNL d   1       4.159  -1.654   1.824  0.00  0.00     0.003 A 
ATOM      7  I   UNL d   1       1.653  -3.513  -1.192  0.00  0.00    -0.146 I 
ENDROOT
TORSDOF 0
ENDMDL
