MODEL 1
REMARK minimizedAffinity 14.4502907
REMARK minimizedRMSD -1
REMARK  0 active torsions:
REMARK  status: ('A' for Active; 'I' for Inactive)
ROOT
ATOM      1  C   UNL d   1       3.480  -1.468   1.467  0.00  0.00     0.023 A 
ATOM      2  C1  UNL d   1       2.289  -1.157   0.811  0.00  0.00     0.003 A 
ATOM      3  C2  UNL d   1       1.766  -2.032  -0.143  0.00  0.00     0.048 A 
ATOM      4  C3  UNL d   1       2.440  -3.218  -0.436  0.00  0.00     0.023 A 
ATOM      5  C4  UNL d   1       3.631  -3.534   0.219  0.00  0.00     0.048 A 
ATOM      6  C5  UNL d   1       4.150  -2.655   1.172  0.00  0.00     0.003 A 
ATOM      7  I   UNL d   1       1.664  -4.522  -1.856  0.00  0.00    -0.146 I 
ENDROOT
TORSDOF 0
ENDMDL
