MODEL 1
REMARK minimizedAffinity 12.053009
REMARK minimizedRMSD -1
REMARK  0 active torsions:
REMARK  status: ('A' for Active; 'I' for Inactive)
ROOT
ATOM      1  C   UNL d   1       6.000  -3.792   1.115  0.00  0.00     0.023 A 
ATOM      2  C1  UNL d   1       4.842  -4.430   0.669  0.00  0.00     0.003 A 
ATOM      3  C2  UNL d   1       3.681  -3.689   0.437  0.00  0.00     0.048 A 
ATOM      4  C3  UNL d   1       3.685  -2.311   0.652  0.00  0.00     0.023 A 
ATOM      5  C4  UNL d   1       4.842  -1.669   1.097  0.00  0.00     0.048 A 
ATOM      6  C5  UNL d   1       6.000  -2.414   1.329  0.00  0.00     0.003 A 
ATOM      7  I   UNL d   1       1.959  -1.207   0.307  0.00  0.00    -0.146 I 
ENDROOT
TORSDOF 0
ENDMDL
