MODEL 1
REMARK minimizedAffinity 17.6983032
REMARK minimizedRMSD -1
REMARK  0 active torsions:
REMARK  status: ('A' for Active; 'I' for Inactive)
ROOT
ATOM      1  C   UNL d   1       2.067  -3.711  -3.950  0.00  0.00     0.023 A 
ATOM      2  C1  UNL d   1       1.797  -4.328  -2.728  0.00  0.00     0.003 A 
ATOM      3  C2  UNL d   1       2.845  -4.803  -1.937  0.00  0.00     0.048 A 
ATOM      4  C3  UNL d   1       4.161  -4.656  -2.373  0.00  0.00     0.023 A 
ATOM      5  C4  UNL d   1       4.437  -4.038  -3.594  0.00  0.00     0.048 A 
ATOM      6  C5  UNL d   1       3.385  -3.566  -4.382  0.00  0.00     0.003 A 
ATOM      7  I   UNL d   1       5.723  -5.362  -1.197  0.00  0.00    -0.146 I 
ENDROOT
TORSDOF 0
ENDMDL
