MODEL 1
REMARK minimizedAffinity 14.8609285
REMARK minimizedRMSD -1
REMARK  0 active torsions:
REMARK  status: ('A' for Active; 'I' for Inactive)
ROOT
ATOM      1  C   UNL d   1       1.442  -1.352  -0.102  0.00  0.00     0.023 A 
ATOM      2  C1  UNL d   1       0.723  -1.753  -1.229  0.00  0.00     0.003 A 
ATOM      3  C2  UNL d   1       0.833  -3.063  -1.699  0.00  0.00     0.048 A 
ATOM      4  C3  UNL d   1       1.662  -3.968  -1.037  0.00  0.00     0.023 A 
ATOM      5  C4  UNL d   1       2.383  -3.572   0.091  0.00  0.00     0.048 A 
ATOM      6  C5  UNL d   1       2.271  -2.261   0.556  0.00  0.00     0.003 A 
ATOM      7  I   UNL d   1       1.827  -5.919  -1.735  0.00  0.00    -0.146 I 
ENDROOT
TORSDOF 0
ENDMDL
