MODEL 1
REMARK minimizedAffinity 10.9206667
REMARK minimizedRMSD -1
REMARK  0 active torsions:
REMARK  status: ('A' for Active; 'I' for Inactive)
ROOT
ATOM      1  C   UNL d   1      -4.223   5.806  -0.705  0.00  0.00     0.023 A 
ATOM      2  C1  UNL d   1      -3.278   5.790   0.321  0.00  0.00     0.003 A 
ATOM      3  C2  UNL d   1      -3.691   5.846   1.654  0.00  0.00     0.048 A 
ATOM      4  C3  UNL d   1      -5.050   5.917   1.954  0.00  0.00     0.023 A 
ATOM      5  C4  UNL d   1      -6.000   5.932   0.931  0.00  0.00     0.048 A 
ATOM      6  C5  UNL d   1      -5.582   5.877  -0.401  0.00  0.00     0.003 A 
ATOM      7  I   UNL d   1      -5.668   5.999   3.936  0.00  0.00    -0.146 I 
ENDROOT
TORSDOF 0
ENDMDL
