MODEL 1
REMARK minimizedAffinity 2.29795694
REMARK minimizedRMSD -1
REMARK  0 active torsions:
REMARK  status: ('A' for Active; 'I' for Inactive)
ROOT
ATOM      1  C   UNL d   1      -2.055   5.251  -4.437  0.00  0.00     0.023 A 
ATOM      2  C1  UNL d   1      -1.766   3.928  -4.104  0.00  0.00     0.003 A 
ATOM      3  C2  UNL d   1      -2.757   2.949  -4.200  0.00  0.00     0.048 A 
ATOM      4  C3  UNL d   1      -4.036   3.301  -4.631  0.00  0.00     0.023 A 
ATOM      5  C4  UNL d   1      -4.330   4.624  -4.966  0.00  0.00     0.048 A 
ATOM      6  C5  UNL d   1      -3.336   5.599  -4.867  0.00  0.00     0.003 A 
ATOM      7  I   UNL d   1      -5.513   1.846  -4.776  0.00  0.00    -0.146 I 
ENDROOT
TORSDOF 0
ENDMDL
