MODEL 1
REMARK minimizedAffinity 20.0326462
REMARK minimizedRMSD -1
REMARK  0 active torsions:
REMARK  status: ('A' for Active; 'I' for Inactive)
ROOT
ATOM      1  C   UNL d   1       0.264   2.108   3.082  0.00  0.00     0.023 A 
ATOM      2  C1  UNL d   1       1.103   1.258   3.803  0.00  0.00     0.003 A 
ATOM      3  C2  UNL d   1       1.695   0.161   3.175  0.00  0.00     0.048 A 
ATOM      4  C3  UNL d   1       1.445  -0.081   1.825  0.00  0.00     0.023 A 
ATOM      5  C4  UNL d   1       0.607   0.767   1.099  0.00  0.00     0.048 A 
ATOM      6  C5  UNL d   1       0.016   1.862   1.731  0.00  0.00     0.003 A 
ATOM      7  I   UNL d   1       2.326  -1.714   0.888  0.00  0.00    -0.146 I 
ENDROOT
TORSDOF 0
ENDMDL
