MODEL 1
REMARK minimizedAffinity 12.6761999
REMARK minimizedRMSD -1
REMARK  0 active torsions:
REMARK  status: ('A' for Active; 'I' for Inactive)
ROOT
ATOM      1  C   UNL d   1       2.268  -1.405   0.313  0.00  0.00     0.023 A 
ATOM      2  C1  UNL d   1       1.960  -2.741   0.054  0.00  0.00     0.003 A 
ATOM      3  C2  UNL d   1       2.895  -3.741   0.332  0.00  0.00     0.048 A 
ATOM      4  C3  UNL d   1       4.135  -3.397   0.870  0.00  0.00     0.023 A 
ATOM      5  C4  UNL d   1       4.447  -2.062   1.131  0.00  0.00     0.048 A 
ATOM      6  C5  UNL d   1       3.509  -1.066   0.851  0.00  0.00     0.003 A 
ATOM      7  I   UNL d   1       5.528  -4.883   1.284  0.00  0.00    -0.146 I 
ENDROOT
TORSDOF 0
ENDMDL
