MODEL 1
REMARK minimizedAffinity 12.8176575
REMARK minimizedRMSD -1
REMARK  0 active torsions:
REMARK  status: ('A' for Active; 'I' for Inactive)
ROOT
ATOM      1  C   UNL d   1      -5.876  -1.351  -0.049  0.00  0.00     0.023 A 
ATOM      2  C1  UNL d   1      -5.954  -2.683  -0.457  0.00  0.00     0.003 A 
ATOM      3  C2  UNL d   1      -5.989  -3.705   0.494  0.00  0.00     0.048 A 
ATOM      4  C3  UNL d   1      -5.947  -3.389   1.851  0.00  0.00     0.023 A 
ATOM      5  C4  UNL d   1      -5.870  -2.058   2.264  0.00  0.00     0.048 A 
ATOM      6  C5  UNL d   1      -5.834  -1.039   1.310  0.00  0.00     0.003 A 
ATOM      7  I   UNL d   1      -5.999  -4.908   3.268  0.00  0.00    -0.146 I 
ENDROOT
TORSDOF 0
ENDMDL
