MODEL 1
REMARK minimizedAffinity 8.34453201
REMARK minimizedRMSD -1
REMARK  0 active torsions:
REMARK  status: ('A' for Active; 'I' for Inactive)
ROOT
ATOM      1  C   UNL d   1       5.409  -5.999  -0.259  0.00  0.00     0.023 A 
ATOM      2  C1  UNL d   1       4.495  -5.399  -1.125  0.00  0.00     0.003 A 
ATOM      3  C2  UNL d   1       3.832  -4.230  -0.742  0.00  0.00     0.048 A 
ATOM      4  C3  UNL d   1       4.090  -3.667   0.507  0.00  0.00     0.023 A 
ATOM      5  C4  UNL d   1       5.005  -4.263   1.376  0.00  0.00     0.048 A 
ATOM      6  C5  UNL d   1       5.664  -5.432   0.990  0.00  0.00     0.003 A 
ATOM      7  I   UNL d   1       3.106  -1.927   1.078  0.00  0.00    -0.146 I 
ENDROOT
TORSDOF 0
ENDMDL
