MODEL 1
REMARK minimizedAffinity 1.69758761
REMARK minimizedRMSD -1
REMARK  0 active torsions:
REMARK  status: ('A' for Active; 'I' for Inactive)
ROOT
ATOM      1  C   UNL d   1      -2.924  -2.465   5.466  0.00  0.00     0.023 A 
ATOM      2  C1  UNL d   1      -1.577  -2.186   5.238  0.00  0.00     0.003 A 
ATOM      3  C2  UNL d   1      -0.619  -3.190   5.391  0.00  0.00     0.048 A 
ATOM      4  C3  UNL d   1      -1.015  -4.472   5.771  0.00  0.00     0.023 A 
ATOM      5  C4  UNL d   1      -2.362  -4.756   6.000  0.00  0.00     0.048 A 
ATOM      6  C5  UNL d   1      -3.317  -3.749   5.847  0.00  0.00     0.003 A 
ATOM      7  I   UNL d   1       0.409  -5.968   5.999  0.00  0.00    -0.146 I 
ENDROOT
TORSDOF 0
ENDMDL
