MODEL 1
REMARK minimizedAffinity 12.1487637
REMARK minimizedRMSD -1
REMARK  0 active torsions:
REMARK  status: ('A' for Active; 'I' for Inactive)
ROOT
ATOM      1  C   UNL d   1      -4.480   5.708  -1.202  0.00  0.00     0.023 A 
ATOM      2  C1  UNL d   1      -3.397   5.617  -0.328  0.00  0.00     0.003 A 
ATOM      3  C2  UNL d   1      -3.602   5.701   1.051  0.00  0.00     0.048 A 
ATOM      4  C3  UNL d   1      -4.892   5.875   1.549  0.00  0.00     0.023 A 
ATOM      5  C4  UNL d   1      -5.980   5.965   0.678  0.00  0.00     0.048 A 
ATOM      6  C5  UNL d   1      -5.770   5.882  -0.700  0.00  0.00     0.003 A 
ATOM      7  I   UNL d   1      -5.200   5.999   3.600  0.00  0.00    -0.146 I 
ENDROOT
TORSDOF 0
ENDMDL
