MODEL 1
REMARK minimizedAffinity 18.1723175
REMARK minimizedRMSD -1
REMARK  0 active torsions:
REMARK  status: ('A' for Active; 'I' for Inactive)
ROOT
ATOM      1  C   UNL d   1       0.923   2.072  -5.974  0.00  0.00     0.023 A 
ATOM      2  C1  UNL d   1       2.259   1.670  -5.948  0.00  0.00     0.003 A 
ATOM      3  C2  UNL d   1       2.580   0.311  -5.947  0.00  0.00     0.048 A 
ATOM      4  C3  UNL d   1       1.560  -0.640  -5.972  0.00  0.00     0.023 A 
ATOM      5  C4  UNL d   1       0.223  -0.242  -5.998  0.00  0.00     0.048 A 
ATOM      6  C5  UNL d   1      -0.093   1.117  -5.999  0.00  0.00     0.003 A 
ATOM      7  I   UNL d   1       2.036  -2.664  -5.970  0.00  0.00    -0.146 I 
ENDROOT
TORSDOF 0
ENDMDL
