MODEL 1
REMARK minimizedAffinity 16.2229919
REMARK minimizedRMSD -1
REMARK  0 active torsions:
REMARK  status: ('A' for Active; 'I' for Inactive)
ROOT
ATOM      1  C   UNL d   1       0.145   1.557   0.775  0.00  0.00     0.023 A 
ATOM      2  C1  UNL d   1      -0.541   1.632   1.988  0.00  0.00     0.003 A 
ATOM      3  C2  UNL d   1      -1.673   2.442   2.101  0.00  0.00     0.048 A 
ATOM      4  C3  UNL d   1      -2.114   3.173   0.998  0.00  0.00     0.023 A 
ATOM      5  C4  UNL d   1      -1.431   3.100  -0.217  0.00  0.00     0.048 A 
ATOM      6  C5  UNL d   1      -0.299   2.290  -0.325  0.00  0.00     0.003 A 
ATOM      7  I   UNL d   1      -3.799   4.378   1.165  0.00  0.00    -0.146 I 
ENDROOT
TORSDOF 0
ENDMDL
