MODEL 1
REMARK minimizedAffinity 11.5111418
REMARK minimizedRMSD -1
REMARK  0 active torsions:
REMARK  status: ('A' for Active; 'I' for Inactive)
ROOT
ATOM      1  C   UNL d   1       0.423   3.867  -0.168  0.00  0.00     0.023 A 
ATOM      2  C1  UNL d   1       0.085   2.698   0.515  0.00  0.00     0.003 A 
ATOM      3  C2  UNL d   1      -0.829   1.802  -0.042  0.00  0.00     0.048 A 
ATOM      4  C3  UNL d   1      -1.401   2.080  -1.284  0.00  0.00     0.023 A 
ATOM      5  C4  UNL d   1      -1.064   3.247  -1.971  0.00  0.00     0.048 A 
ATOM      6  C5  UNL d   1      -0.150   4.141  -1.410  0.00  0.00     0.003 A 
ATOM      7  I   UNL d   1      -2.762   0.747  -2.116  0.00  0.00    -0.146 I 
ENDROOT
TORSDOF 0
ENDMDL
