MODEL 1
REMARK minimizedAffinity -0.998511672
REMARK minimizedRMSD -1
REMARK  0 active torsions:
REMARK  status: ('A' for Active; 'I' for Inactive)
ROOT
ATOM      1  C1  DEN d   1      -4.959  -6.000  -3.121  0.00  0.00     0.130 A 
ATOM      2  C2  DEN d   1      -4.524  -5.954  -4.515  0.00  0.00    -0.031 A 
ATOM      3  C3  DEN d   1      -4.181  -4.555  -4.840  0.00  0.00     0.027 A 
ATOM      4  C4  DEN d   1      -4.275  -2.468  -3.329  0.00  0.00     0.027 A 
ATOM      5  C5  DEN d   1      -4.592  -2.006  -2.070  0.00  0.00    -0.003 A 
ATOM      6  C6  DEN d   1      -5.082  -2.831  -1.092  0.00  0.00     0.001 A 
ATOM      7  C7  DEN d   1      -5.226  -4.170  -1.343  0.00  0.00     0.017 A 
ATOM      8  C8  DEN d   1      -4.916  -4.641  -2.612  0.00  0.00    -0.094 A 
ATOM      9  C9  DEN d   1      -4.411  -3.794  -3.583  0.00  0.00    -0.072 A 
ENDROOT
TORSDOF 0
ENDMDL
