MODEL 1
REMARK minimizedAffinity 7.11022806
REMARK minimizedRMSD -1
REMARK  0 active torsions:
REMARK  status: ('A' for Active; 'I' for Inactive)
ROOT
ATOM      1  C1  DEN d   1      -5.156  -3.618  -5.202  0.00  0.00     0.130 A 
ATOM      2  C2  DEN d   1      -5.121  -4.841  -5.999  0.00  0.00    -0.031 A 
ATOM      3  C3  DEN d   1      -5.219  -5.991  -5.078  0.00  0.00     0.027 A 
ATOM      4  C4  DEN d   1      -5.424  -5.996  -2.507  0.00  0.00     0.027 A 
ATOM      5  C5  DEN d   1      -5.483  -5.201  -1.384  0.00  0.00    -0.003 A 
ATOM      6  C6  DEN d   1      -5.404  -3.835  -1.451  0.00  0.00     0.001 A 
ATOM      7  C7  DEN d   1      -5.306  -3.220  -2.671  0.00  0.00     0.017 A 
ATOM      8  C8  DEN d   1      -5.239  -4.016  -3.808  0.00  0.00    -0.094 A 
ATOM      9  C9  DEN d   1      -5.333  -5.394  -3.719  0.00  0.00    -0.072 A 
ENDROOT
TORSDOF 0
ENDMDL
