MODEL 1
REMARK minimizedAffinity 0.886195481
REMARK minimizedRMSD -1
REMARK  0 active torsions:
REMARK  status: ('A' for Active; 'I' for Inactive)
ROOT
ATOM      1  C1  DEN d   1      -5.848  -3.211  -2.537  0.00  0.00     0.130 A 
ATOM      2  C2  DEN d   1      -5.999  -4.401  -1.704  0.00  0.00    -0.031 A 
ATOM      3  C3  DEN d   1      -5.431  -5.548  -2.441  0.00  0.00     0.027 A 
ATOM      4  C4  DEN d   1      -4.333  -5.596  -4.774  0.00  0.00     0.027 A 
ATOM      5  C5  DEN d   1      -3.988  -4.833  -5.868  0.00  0.00    -0.003 A 
ATOM      6  C6  DEN d   1      -4.267  -3.494  -5.942  0.00  0.00     0.001 A 
ATOM      7  C7  DEN d   1      -4.870  -2.867  -4.884  0.00  0.00     0.017 A 
ATOM      8  C8  DEN d   1      -5.227  -3.630  -3.780  0.00  0.00    -0.094 A 
ATOM      9  C9  DEN d   1      -4.925  -4.980  -3.720  0.00  0.00    -0.072 A 
ENDROOT
TORSDOF 0
ENDMDL
