MODEL 1
REMARK minimizedAffinity -2.92859364
REMARK minimizedRMSD -1
REMARK  0 active torsions:
REMARK  status: ('A' for Active; 'I' for Inactive)
ROOT
ATOM      1  C1  DEN d   1      -5.991  -3.758  -2.486  0.00  0.00     0.130 A 
ATOM      2  C2  DEN d   1      -5.891  -4.914  -1.598  0.00  0.00    -0.031 A 
ATOM      3  C3  DEN d   1      -5.212  -5.998  -2.335  0.00  0.00     0.027 A 
ATOM      4  C4  DEN d   1      -4.307  -6.000  -4.750  0.00  0.00     0.027 A 
ATOM      5  C5  DEN d   1      -4.171  -5.251  -5.898  0.00  0.00    -0.003 A 
ATOM      6  C6  DEN d   1      -4.658  -3.975  -6.000  0.00  0.00     0.001 A 
ATOM      7  C7  DEN d   1      -5.265  -3.392  -4.919  0.00  0.00     0.017 A 
ATOM      8  C8  DEN d   1      -5.412  -4.143  -3.760  0.00  0.00    -0.094 A 
ATOM      9  C9  DEN d   1      -4.902  -5.427  -3.673  0.00  0.00    -0.072 A 
ENDROOT
TORSDOF 0
ENDMDL
