MODEL 1
REMARK minimizedAffinity 1.12928307
REMARK minimizedRMSD -1
REMARK  0 active torsions:
REMARK  status: ('A' for Active; 'I' for Inactive)
ROOT
ATOM      1  C1  DEN d   1      -5.986  -4.130  -2.469  0.00  0.00     0.130 A 
ATOM      2  C2  DEN d   1      -5.486  -5.246  -1.671  0.00  0.00    -0.031 A 
ATOM      3  C3  DEN d   1      -4.514  -5.996  -2.493  0.00  0.00     0.027 A 
ATOM      4  C4  DEN d   1      -3.735  -5.535  -4.908  0.00  0.00     0.027 A 
ATOM      5  C5  DEN d   1      -3.888  -4.706  -5.998  0.00  0.00    -0.003 A 
ATOM      6  C6  DEN d   1      -4.768  -3.657  -6.000  0.00  0.00     0.001 A 
ATOM      7  C7  DEN d   1      -5.497  -3.380  -4.873  0.00  0.00     0.017 A 
ATOM      8  C8  DEN d   1      -5.354  -4.215  -3.773  0.00  0.00    -0.094 A 
ATOM      9  C9  DEN d   1      -4.450  -5.264  -3.787  0.00  0.00    -0.072 A 
ENDROOT
TORSDOF 0
ENDMDL
