MODEL 1
REMARK minimizedAffinity 11.1013222
REMARK minimizedRMSD -1
REMARK  0 active torsions:
REMARK  status: ('A' for Active; 'I' for Inactive)
ROOT
ATOM      1  C1  DEN d   1      -5.768  -5.117  -5.370  0.00  0.00     0.130 A 
ATOM      2  C2  DEN d   1      -4.718  -5.913  -6.000  0.00  0.00    -0.031 A 
ATOM      3  C3  DEN d   1      -3.568  -5.965  -5.076  0.00  0.00     0.027 A 
ATOM      4  C4  DEN d   1      -3.313  -4.899  -2.741  0.00  0.00     0.027 A 
ATOM      5  C5  DEN d   1      -3.933  -4.120  -1.788  0.00  0.00    -0.003 A 
ATOM      6  C6  DEN d   1      -5.184  -3.596  -1.976  0.00  0.00     0.001 A 
ATOM      7  C7  DEN d   1      -5.874  -3.880  -3.124  0.00  0.00     0.017 A 
ATOM      8  C8  DEN d   1      -5.253  -4.658  -4.092  0.00  0.00    -0.094 A 
ATOM      9  C9  DEN d   1      -3.992  -5.190  -3.879  0.00  0.00    -0.072 A 
ENDROOT
TORSDOF 0
ENDMDL
