MODEL 1
REMARK minimizedAffinity 1.7383877
REMARK minimizedRMSD -1
REMARK  0 active torsions:
REMARK  status: ('A' for Active; 'I' for Inactive)
ROOT
ATOM      1  C1  DEN d   1      -5.315  -3.459  -2.296  0.00  0.00     0.130 A 
ATOM      2  C2  DEN d   1      -4.872  -4.501  -1.374  0.00  0.00    -0.031 A 
ATOM      3  C3  DEN d   1      -4.491  -5.684  -2.171  0.00  0.00     0.027 A 
ATOM      4  C4  DEN d   1      -4.540  -6.000  -4.731  0.00  0.00     0.027 A 
ATOM      5  C5  DEN d   1      -4.852  -5.399  -5.930  0.00  0.00    -0.003 A 
ATOM      6  C6  DEN d   1      -5.368  -4.132  -6.000  0.00  0.00     0.001 A 
ATOM      7  C7  DEN d   1      -5.545  -3.408  -4.851  0.00  0.00     0.017 A 
ATOM      8  C8  DEN d   1      -5.240  -4.009  -3.637  0.00  0.00    -0.094 A 
ATOM      9  C9  DEN d   1      -4.708  -5.287  -3.589  0.00  0.00    -0.072 A 
ENDROOT
TORSDOF 0
ENDMDL
