MODEL 1
REMARK minimizedAffinity -0.985273302
REMARK minimizedRMSD -1
REMARK  0 active torsions:
REMARK  status: ('A' for Active; 'I' for Inactive)
ROOT
ATOM      1  C1  DEN d   1      -5.291  -3.592  -2.298  0.00  0.00     0.130 A 
ATOM      2  C2  DEN d   1      -4.533  -4.551  -1.499  0.00  0.00    -0.031 A 
ATOM      3  C3  DEN d   1      -4.136  -5.667  -2.381  0.00  0.00     0.027 A 
ATOM      4  C4  DEN d   1      -4.615  -6.000  -4.893  0.00  0.00     0.027 A 
ATOM      5  C5  DEN d   1      -5.231  -5.458  -6.000  0.00  0.00    -0.003 A 
ATOM      6  C6  DEN d   1      -5.934  -4.284  -5.943  0.00  0.00     0.001 A 
ATOM      7  C7  DEN d   1      -5.999  -3.589  -4.764  0.00  0.00     0.017 A 
ATOM      8  C8  DEN d   1      -5.387  -4.132  -3.643  0.00  0.00    -0.094 A 
ATOM      9  C9  DEN d   1      -4.671  -5.314  -3.723  0.00  0.00    -0.072 A 
ENDROOT
TORSDOF 0
ENDMDL
