MODEL 1
REMARK minimizedAffinity -3.96686268
REMARK minimizedRMSD -1
REMARK  0 active torsions:
REMARK  status: ('A' for Active; 'I' for Inactive)
ROOT
ATOM      1  C1  BNZ d   1       1.409   0.621   1.105  0.00  0.00     0.000 A 
ATOM      2  C2  BNZ d   1       1.928  -0.644   1.019  0.00  0.00     0.000 A 
ATOM      3  C3  BNZ d   1       1.404  -1.557   0.148  0.00  0.00     0.000 A 
ATOM      4  C4  BNZ d   1       0.338  -1.219  -0.606  0.00  0.00     0.000 A 
ATOM      5  C5  BNZ d   1      -0.202   0.049  -0.523  0.00  0.00     0.000 A 
ATOM      6  C6  BNZ d   1       0.352   0.978   0.326  0.00  0.00     0.000 A 
ENDROOT
TORSDOF 0
ENDMDL
