MODEL 1
REMARK minimizedAffinity -4.72328758
REMARK minimizedRMSD -1
REMARK  0 active torsions:
REMARK  status: ('A' for Active; 'I' for Inactive)
ROOT
ATOM      1  C1  BNZ d   1       3.197  -0.151   0.512  0.00  0.00     0.000 A 
ATOM      2  C2  BNZ d   1       2.752   1.143   0.462  0.00  0.00     0.000 A 
ATOM      3  C3  BNZ d   1       1.414   1.423   0.440  0.00  0.00     0.000 A 
ATOM      4  C4  BNZ d   1       0.525   0.409   0.428  0.00  0.00     0.000 A 
ATOM      5  C5  BNZ d   1       0.958  -0.901   0.469  0.00  0.00     0.000 A 
ATOM      6  C6  BNZ d   1       2.305  -1.178   0.530  0.00  0.00     0.000 A 
ENDROOT
TORSDOF 0
ENDMDL
