MODEL 1
REMARK minimizedAffinity -3.70171118
REMARK minimizedRMSD -1
REMARK  0 active torsions:
REMARK  status: ('A' for Active; 'I' for Inactive)
ROOT
ATOM      1  C1  BNZ d   1       0.758   0.498   0.485  0.00  0.00     0.000 A 
ATOM      2  C2  BNZ d   1       1.199  -0.798   0.522  0.00  0.00     0.000 A 
ATOM      3  C3  BNZ d   1       2.534  -1.081   0.612  0.00  0.00     0.000 A 
ATOM      4  C4  BNZ d   1       3.426  -0.069   0.626  0.00  0.00     0.000 A 
ATOM      5  C5  BNZ d   1       2.997   1.242   0.580  0.00  0.00     0.000 A 
ATOM      6  C6  BNZ d   1       1.651   1.523   0.528  0.00  0.00     0.000 A 
ENDROOT
TORSDOF 0
ENDMDL
