MODEL 1
REMARK minimizedAffinity -5.20444489
REMARK minimizedRMSD -1
REMARK  0 active torsions:
REMARK  status: ('A' for Active; 'I' for Inactive)
ROOT
ATOM      1  C1  BNZ d   1       3.227  -0.800   0.640  0.00  0.00     0.000 A 
ATOM      2  C2  BNZ d   1       2.115  -1.594   0.545  0.00  0.00     0.000 A 
ATOM      3  C3  BNZ d   1       0.883  -1.048   0.317  0.00  0.00     0.000 A 
ATOM      4  C4  BNZ d   1       0.758   0.292   0.224  0.00  0.00     0.000 A 
ATOM      5  C5  BNZ d   1       1.869   1.106   0.327  0.00  0.00     0.000 A 
ATOM      6  C6  BNZ d   1       3.113   0.550   0.518  0.00  0.00     0.000 A 
ENDROOT
TORSDOF 0
ENDMDL
