MODEL 1
REMARK minimizedAffinity -5.14672995
REMARK minimizedRMSD -1
REMARK  0 active torsions:
REMARK  status: ('A' for Active; 'I' for Inactive)
ROOT
ATOM      1  C1  BNZ d   1       0.338   0.068   0.355  0.00  0.00     0.000 A 
ATOM      2  C2  BNZ d   1       1.102   1.185   0.562  0.00  0.00     0.000 A 
ATOM      3  C3  BNZ d   1       2.457   1.088   0.715  0.00  0.00     0.000 A 
ATOM      4  C4  BNZ d   1       3.040  -0.129   0.702  0.00  0.00     0.000 A 
ATOM      5  C5  BNZ d   1       2.281  -1.265   0.504  0.00  0.00     0.000 A 
ATOM      6  C6  BNZ d   1       0.923  -1.160   0.312  0.00  0.00     0.000 A 
ENDROOT
TORSDOF 0
ENDMDL
