MODEL 1
REMARK minimizedAffinity -5.04632235
REMARK minimizedRMSD -1
REMARK  0 active torsions:
REMARK  status: ('A' for Active; 'I' for Inactive)
ROOT
ATOM      1  C1  BNZ d   1       1.040   0.085   0.096  0.00  0.00     0.000 A 
ATOM      2  C2  BNZ d   1       1.461  -1.218   0.097  0.00  0.00     0.000 A 
ATOM      3  C3  BNZ d   1       2.785  -1.527   0.235  0.00  0.00     0.000 A 
ATOM      4  C4  BNZ d   1       3.691  -0.532   0.331  0.00  0.00     0.000 A 
ATOM      5  C5  BNZ d   1       3.284   0.787   0.323  0.00  0.00     0.000 A 
ATOM      6  C6  BNZ d   1       1.946   1.093   0.223  0.00  0.00     0.000 A 
ENDROOT
TORSDOF 0
ENDMDL
