MODEL 1
REMARK minimizedAffinity -3.92824793
REMARK minimizedRMSD -1
REMARK  0 active torsions:
REMARK  status: ('A' for Active; 'I' for Inactive)
ROOT
ATOM      1  C1  BNZ d   1       1.857   0.696   0.665  0.00  0.00     0.000 A 
ATOM      2  C2  BNZ d   1       2.101  -0.652   0.641  0.00  0.00     0.000 A 
ATOM      3  C3  BNZ d   1       1.266  -1.503  -0.026  0.00  0.00     0.000 A 
ATOM      4  C4  BNZ d   1       0.167  -1.012  -0.634  0.00  0.00     0.000 A 
ATOM      5  C5  BNZ d   1      -0.098   0.343  -0.612  0.00  0.00     0.000 A 
ATOM      6  C6  BNZ d   1       0.766   1.202   0.028  0.00  0.00     0.000 A 
ENDROOT
TORSDOF 0
ENDMDL
