MODEL 1
REMARK minimizedAffinity -4.20120096
REMARK minimizedRMSD -1
REMARK  0 active torsions:
REMARK  status: ('A' for Active; 'I' for Inactive)
ROOT
ATOM      1  C1  BNZ d   1      -0.337  -1.370  -0.716  0.00  0.00     0.000 A 
ATOM      2  C2  BNZ d   1      -0.786  -0.079  -0.638  0.00  0.00     0.000 A 
ATOM      3  C3  BNZ d   1      -0.040   0.887  -0.022  0.00  0.00     0.000 A 
ATOM      4  C4  BNZ d   1       1.135   0.552   0.549  0.00  0.00     0.000 A 
ATOM      5  C5  BNZ d   1       1.598  -0.747   0.487  0.00  0.00     0.000 A 
ATOM      6  C6  BNZ d   1       0.862  -1.708  -0.168  0.00  0.00     0.000 A 
ENDROOT
TORSDOF 0
ENDMDL
