MODEL 1
REMARK minimizedAffinity 15.0157766
REMARK minimizedRMSD -1
REMARK  1 active torsions:
REMARK  status: ('A' for Active; 'I' for Inactive)
REMARK    1  A    between atoms: C1_2  and  C2_3 
ROOT
ATOM      1  C2  UNL d   1      -4.229  -1.860   2.859  0.00  0.00    -0.076 A 
ATOM      2  C3  UNL d   1      -5.123  -2.284   3.857  0.00  0.00     0.004 A 
ATOM      3  C4  UNL d   1      -6.000  -1.386   4.464  0.00  0.00    -0.003 A 
ATOM      4  C5  UNL d   1      -5.997  -0.049   4.081  0.00  0.00     0.000 A 
ATOM      5  C6  UNL d   1      -5.129   0.386   3.080  0.00  0.00     0.000 A 
ATOM      6  C7  UNL d   1      -4.250  -0.510   2.447  0.00  0.00    -0.073 A 
ATOM      7  C8  UNL d   1      -3.332   0.014   1.378  0.00  0.00     0.078 C 
ENDROOT
BRANCH   1   8
ATOM      8  C1  UNL d   1      -3.282  -2.873   2.256  0.00  0.00     0.053 C 
ATOM      9  C   UNL d   1      -2.718  -3.832   3.293  0.00  0.00     0.018 C 
ENDBRANCH   1   8
TORSDOF 1
ENDMDL
