MODEL 1
REMARK minimizedAffinity -0.355914325
REMARK minimizedRMSD -1
REMARK  1 active torsions:
REMARK  status: ('A' for Active; 'I' for Inactive)
REMARK    1  A    between atoms: C1_2  and  C2_3 
ROOT
ATOM      1  C2  UNL d   1       0.787   3.535  -0.125  0.00  0.00    -0.076 A 
ATOM      2  C3  UNL d   1       1.462   3.650   1.102  0.00  0.00     0.004 A 
ATOM      3  C4  UNL d   1       1.441   2.612   2.032  0.00  0.00    -0.003 A 
ATOM      4  C5  UNL d   1       0.745   1.442   1.749  0.00  0.00     0.000 A 
ATOM      5  C6  UNL d   1       0.084   1.304   0.529  0.00  0.00     0.000 A 
ATOM      6  C7  UNL d   1       0.109   2.335  -0.426  0.00  0.00    -0.073 A 
ATOM      7  C8  UNL d   1      -0.627   2.135  -1.723  0.00  0.00     0.078 C 
ENDROOT
BRANCH   1   8
ATOM      8  C1  UNL d   1       0.822   4.705  -1.083  0.00  0.00     0.053 C 
ATOM      9  C   UNL d   1      -0.070   5.852  -0.636  0.00  0.00     0.018 C 
ENDBRANCH   1   8
TORSDOF 1
ENDMDL
