MODEL 1
REMARK minimizedAffinity 3.75701642
REMARK minimizedRMSD -1
REMARK  1 active torsions:
REMARK  status: ('A' for Active; 'I' for Inactive)
REMARK    1  A    between atoms: C1_2  and  C2_3 
ROOT
ATOM      1  C2  UNL d   1      -0.994   4.030   0.016  0.00  0.00    -0.076 A 
ATOM      2  C3  UNL d   1      -1.361   3.025   0.927  0.00  0.00     0.004 A 
ATOM      3  C4  UNL d   1      -0.737   1.779   0.911  0.00  0.00    -0.003 A 
ATOM      4  C5  UNL d   1       0.265   1.518  -0.018  0.00  0.00     0.000 A 
ATOM      5  C6  UNL d   1       0.653   2.509  -0.918  0.00  0.00     0.000 A 
ATOM      6  C7  UNL d   1       0.045   3.776  -0.904  0.00  0.00    -0.073 A 
ATOM      7  C8  UNL d   1       0.499   4.806  -1.902  0.00  0.00     0.078 C 
ENDROOT
BRANCH   1   8
ATOM      8  C1  UNL d   1      -1.725   5.353   0.063  0.00  0.00     0.053 C 
ATOM      9  C   UNL d   1      -2.541   5.522   1.336  0.00  0.00     0.018 C 
ENDBRANCH   1   8
TORSDOF 1
ENDMDL
