MODEL 1
REMARK minimizedAffinity 7.16465712
REMARK minimizedRMSD -1
REMARK  1 active torsions:
REMARK  status: ('A' for Active; 'I' for Inactive)
REMARK    1  A    between atoms: C1_2  and  C2_3 
ROOT
ATOM      1  C2  UNL d   1       1.262   2.611   0.222  0.00  0.00    -0.076 A 
ATOM      2  C3  UNL d   1       2.170   3.628   0.566  0.00  0.00     0.004 A 
ATOM      3  C4  UNL d   1       2.346   4.741  -0.254  0.00  0.00    -0.003 A 
ATOM      4  C5  UNL d   1       1.617   4.855  -1.433  0.00  0.00     0.000 A 
ATOM      5  C6  UNL d   1       0.698   3.865  -1.781  0.00  0.00     0.000 A 
ATOM      6  C7  UNL d   1       0.497   2.745  -0.957  0.00  0.00    -0.073 A 
ATOM      7  C8  UNL d   1      -0.502   1.705  -1.384  0.00  0.00     0.078 C 
ENDROOT
BRANCH   1   8
ATOM      8  C1  UNL d   1       1.133   1.415   1.137  0.00  0.00     0.053 C 
ATOM      9  C   UNL d   1       0.119   1.638   2.249  0.00  0.00     0.018 C 
ENDBRANCH   1   8
TORSDOF 1
ENDMDL
