MODEL 1
REMARK minimizedAffinity -1.96526694
REMARK minimizedRMSD -1
REMARK  0 active torsions:
REMARK  status: ('A' for Active; 'I' for Inactive)
ROOT
ATOM      1  C   UNL d   1      -1.717  -0.806  -1.513  0.00  0.00     0.023 A 
ATOM      2  C1  UNL d   1      -1.147   0.319  -2.111  0.00  0.00     0.003 A 
ATOM      3  C2  UNL d   1      -0.098   0.990  -1.479  0.00  0.00     0.048 A 
ATOM      4  C3  UNL d   1       0.378   0.531  -0.252  0.00  0.00     0.023 A 
ATOM      5  C4  UNL d   1      -0.189  -0.594   0.349  0.00  0.00     0.048 A 
ATOM      6  C5  UNL d   1      -1.238  -1.262  -0.285  0.00  0.00     0.003 A 
ATOM      7  I   UNL d   1       1.939   1.528   0.689  0.00  0.00    -0.146 I 
ENDROOT
TORSDOF 0
ENDMDL
