MODEL 1
REMARK minimizedAffinity -1.43112159
REMARK minimizedRMSD -1
REMARK  0 active torsions:
REMARK  status: ('A' for Active; 'I' for Inactive)
ROOT
ATOM      1  C   UNL d   1      -1.944  -0.339  -1.419  0.00  0.00     0.023 A 
ATOM      2  C1  UNL d   1      -1.153  -1.113  -0.570  0.00  0.00     0.003 A 
ATOM      3  C2  UNL d   1       0.021  -0.584  -0.031  0.00  0.00     0.048 A 
ATOM      4  C3  UNL d   1       0.398   0.722  -0.345  0.00  0.00     0.023 A 
ATOM      5  C4  UNL d   1      -0.391   1.501  -1.193  0.00  0.00     0.048 A 
ATOM      6  C5  UNL d   1      -1.563   0.966  -1.730  0.00  0.00     0.003 A 
ATOM      7  I   UNL d   1       2.145   1.513   0.457  0.00  0.00    -0.146 I 
ENDROOT
TORSDOF 0
ENDMDL
