MODEL 1
REMARK minimizedAffinity -4.32699299
REMARK minimizedRMSD -1
REMARK  0 active torsions:
REMARK  status: ('A' for Active; 'I' for Inactive)
ROOT
ATOM      1  C   UNL d   1       2.732   3.145   1.881  0.00  0.00     0.023 A 
ATOM      2  C1  UNL d   1       1.369   3.191   2.174  0.00  0.00     0.003 A 
ATOM      3  C2  UNL d   1       0.499   2.262   1.600  0.00  0.00     0.048 A 
ATOM      4  C3  UNL d   1       0.998   1.288   0.736  0.00  0.00     0.023 A 
ATOM      5  C4  UNL d   1       2.361   1.238   0.440  0.00  0.00     0.048 A 
ATOM      6  C5  UNL d   1       3.228   2.170   1.015  0.00  0.00     0.003 A 
ATOM      7  I   UNL d   1      -0.295  -0.096  -0.118  0.00  0.00    -0.146 I 
ENDROOT
TORSDOF 0
ENDMDL
