MODEL 1
REMARK minimizedAffinity -2.63861728
REMARK minimizedRMSD -1
REMARK  0 active torsions:
REMARK  status: ('A' for Active; 'I' for Inactive)
ROOT
ATOM      1  C   UNL d   1      -0.710   0.603  -1.470  0.00  0.00     0.023 A 
ATOM      2  C1  UNL d   1       0.205   0.133  -0.528  0.00  0.00     0.003 A 
ATOM      3  C2  UNL d   1      -0.065  -1.033   0.190  0.00  0.00     0.048 A 
ATOM      4  C3  UNL d   1      -1.254  -1.726  -0.040  0.00  0.00     0.023 A 
ATOM      5  C4  UNL d   1      -2.173  -1.261  -0.982  0.00  0.00     0.048 A 
ATOM      6  C5  UNL d   1      -1.898  -0.093  -1.696  0.00  0.00     0.003 A 
ATOM      7  I   UNL d   1      -1.659  -3.463   1.028  0.00  0.00    -0.146 I 
ENDROOT
TORSDOF 0
ENDMDL
