MODEL 1
REMARK minimizedAffinity -2.54956412
REMARK minimizedRMSD -1
REMARK  0 active torsions:
REMARK  status: ('A' for Active; 'I' for Inactive)
ROOT
ATOM      1  C   UNL d   1      -2.719  -2.298   0.385  0.00  0.00     0.023 A 
ATOM      2  C1  UNL d   1      -2.565  -1.238  -0.509  0.00  0.00     0.003 A 
ATOM      3  C2  UNL d   1      -1.410  -0.455  -0.474  0.00  0.00     0.048 A 
ATOM      4  C3  UNL d   1      -0.411  -0.738   0.457  0.00  0.00     0.023 A 
ATOM      5  C4  UNL d   1      -0.560  -1.798   1.353  0.00  0.00     0.048 A 
ATOM      6  C5  UNL d   1      -1.717  -2.577   1.315  0.00  0.00     0.003 A 
ATOM      7  I   UNL d   1       1.310   0.426   0.512  0.00  0.00    -0.146 I 
ENDROOT
TORSDOF 0
ENDMDL
