MODEL 1
REMARK minimizedAffinity -1.43926513
REMARK minimizedRMSD -1
REMARK  0 active torsions:
REMARK  status: ('A' for Active; 'I' for Inactive)
ROOT
ATOM      1  C   UNL d   1      -0.786   0.989  -1.332  0.00  0.00     0.023 A 
ATOM      2  C1  UNL d   1      -0.004   0.472  -0.299  0.00  0.00     0.003 A 
ATOM      3  C2  UNL d   1      -0.296  -0.783   0.239  0.00  0.00     0.048 A 
ATOM      4  C3  UNL d   1      -1.371  -1.516  -0.261  0.00  0.00     0.023 A 
ATOM      5  C4  UNL d   1      -2.157  -1.003  -1.295  0.00  0.00     0.048 A 
ATOM      6  C5  UNL d   1      -1.861   0.253  -1.829  0.00  0.00     0.003 A 
ATOM      7  I   UNL d   1      -1.808  -3.384   0.538  0.00  0.00    -0.146 I 
ENDROOT
TORSDOF 0
ENDMDL
