MODEL 1
REMARK minimizedAffinity -2.66606379
REMARK minimizedRMSD -1
REMARK  0 active torsions:
REMARK  status: ('A' for Active; 'I' for Inactive)
ROOT
ATOM      1  C   UNL d   1      -2.656  -2.239  -0.456  0.00  0.00     0.023 A 
ATOM      2  C1  UNL d   1      -1.790  -2.699   0.536  0.00  0.00     0.003 A 
ATOM      3  C2  UNL d   1      -0.568  -2.057   0.750  0.00  0.00     0.048 A 
ATOM      4  C3  UNL d   1      -0.220  -0.955  -0.030  0.00  0.00     0.023 A 
ATOM      5  C4  UNL d   1      -1.084  -0.490  -1.022  0.00  0.00     0.048 A 
ATOM      6  C5  UNL d   1      -2.304  -1.136  -1.234  0.00  0.00     0.003 A 
ATOM      7  I   UNL d   1       1.598   0.002   0.288  0.00  0.00    -0.146 I 
ENDROOT
TORSDOF 0
ENDMDL
