MODEL 1
REMARK minimizedAffinity -2.64028811
REMARK minimizedRMSD -1
REMARK  0 active torsions:
REMARK  status: ('A' for Active; 'I' for Inactive)
ROOT
ATOM      1  C   UNL d   1      -2.321  -2.409  -0.551  0.00  0.00     0.023 A 
ATOM      2  C1  UNL d   1      -2.022  -1.298  -1.339  0.00  0.00     0.003 A 
ATOM      3  C2  UNL d   1      -0.877  -0.543  -1.078  0.00  0.00     0.048 A 
ATOM      4  C3  UNL d   1      -0.034  -0.905  -0.028  0.00  0.00     0.023 A 
ATOM      5  C4  UNL d   1      -0.329  -2.017   0.763  0.00  0.00     0.048 A 
ATOM      6  C5  UNL d   1      -1.476  -2.768   0.499  0.00  0.00     0.003 A 
ATOM      7  I   UNL d   1       1.671   0.216   0.363  0.00  0.00    -0.146 I 
ENDROOT
TORSDOF 0
ENDMDL
