MODEL 1
REMARK minimizedAffinity -2.46331429
REMARK minimizedRMSD -1
REMARK  0 active torsions:
REMARK  status: ('A' for Active; 'I' for Inactive)
ROOT
ATOM      1  C   UNL d   1       2.176   2.030   0.872  0.00  0.00     0.023 A 
ATOM      2  C1  UNL d   1       2.426   0.772   0.324  0.00  0.00     0.003 A 
ATOM      3  C2  UNL d   1       1.379   0.024  -0.219  0.00  0.00     0.048 A 
ATOM      4  C3  UNL d   1       0.084   0.542  -0.212  0.00  0.00     0.023 A 
ATOM      5  C4  UNL d   1      -0.171   1.800   0.335  0.00  0.00     0.048 A 
ATOM      6  C5  UNL d   1       0.879   2.544   0.877  0.00  0.00     0.003 A 
ATOM      7  I   UNL d   1      -1.476  -0.569  -1.020  0.00  0.00    -0.146 I 
ENDROOT
TORSDOF 0
ENDMDL
