MODEL 1
REMARK minimizedAffinity -0.355295509
REMARK minimizedRMSD -1
REMARK  0 active torsions:
REMARK  status: ('A' for Active; 'I' for Inactive)
ROOT
ATOM      1  C   UNL d   1      -0.916   0.204  -1.331  0.00  0.00     0.023 A 
ATOM      2  C1  UNL d   1       0.390  -0.284  -1.393  0.00  0.00     0.003 A 
ATOM      3  C2  UNL d   1       1.382   0.267  -0.580  0.00  0.00     0.048 A 
ATOM      4  C3  UNL d   1       1.062   1.305   0.295  0.00  0.00     0.023 A 
ATOM      5  C4  UNL d   1      -0.243   1.796   0.361  0.00  0.00     0.048 A 
ATOM      6  C5  UNL d   1      -1.232   1.243  -0.455  0.00  0.00     0.003 A 
ATOM      7  I   UNL d   1       2.537   2.126   1.507  0.00  0.00    -0.146 I 
ENDROOT
TORSDOF 0
ENDMDL
