MODEL 1
REMARK minimizedAffinity -1.76838398
REMARK minimizedRMSD -1
REMARK  0 active torsions:
REMARK  status: ('A' for Active; 'I' for Inactive)
ROOT
ATOM      1  C   UNL d   1      -2.289  -1.608  -0.309  0.00  0.00     0.023 A 
ATOM      2  C1  UNL d   1      -1.322  -1.858   0.665  0.00  0.00     0.003 A 
ATOM      3  C2  UNL d   1      -0.163  -1.080   0.716  0.00  0.00     0.048 A 
ATOM      4  C3  UNL d   1       0.021  -0.053  -0.209  0.00  0.00     0.023 A 
ATOM      5  C4  UNL d   1      -0.944   0.201  -1.184  0.00  0.00     0.048 A 
ATOM      6  C5  UNL d   1      -2.101  -0.579  -1.232  0.00  0.00     0.003 A 
ATOM      7  I   UNL d   1       1.745   1.106  -0.135  0.00  0.00    -0.146 I 
ENDROOT
TORSDOF 0
ENDMDL
