MODEL 1
REMARK minimizedAffinity -4.28904676
REMARK minimizedRMSD -1
REMARK  0 active torsions:
REMARK  status: ('A' for Active; 'I' for Inactive)
ROOT
ATOM      1  C   UNL d   1       2.677   2.841   1.392  0.00  0.00     0.023 A 
ATOM      2  C1  UNL d   1       1.342   3.200   1.574  0.00  0.00     0.003 A 
ATOM      3  C2  UNL d   1       0.323   2.356   1.129  0.00  0.00     0.048 A 
ATOM      4  C3  UNL d   1       0.646   1.153   0.502  0.00  0.00     0.023 A 
ATOM      5  C4  UNL d   1       1.981   0.789   0.318  0.00  0.00     0.048 A 
ATOM      6  C5  UNL d   1       2.997   1.637   0.764  0.00  0.00     0.003 A 
ATOM      7  I   UNL d   1      -0.868  -0.106  -0.162  0.00  0.00    -0.146 I 
ENDROOT
TORSDOF 0
ENDMDL
