MODEL 1
REMARK minimizedAffinity -2.85546851
REMARK minimizedRMSD -1
REMARK  0 active torsions:
REMARK  status: ('A' for Active; 'I' for Inactive)
ROOT
ATOM      1  C   UNL d   1      -1.003   0.012  -1.124  0.00  0.00     0.023 A 
ATOM      2  C1  UNL d   1       0.278  -0.433  -0.800  0.00  0.00     0.003 A 
ATOM      3  C2  UNL d   1       1.175   0.424  -0.159  0.00  0.00     0.048 A 
ATOM      4  C3  UNL d   1       0.784   1.725   0.155  0.00  0.00     0.023 A 
ATOM      5  C4  UNL d   1      -0.498   2.175  -0.166  0.00  0.00     0.048 A 
ATOM      6  C5  UNL d   1      -1.391   1.314  -0.808  0.00  0.00     0.003 A 
ATOM      7  I   UNL d   1       2.117   3.003   1.109  0.00  0.00    -0.146 I 
ENDROOT
TORSDOF 0
ENDMDL
