MODEL 1
REMARK minimizedAffinity -4.19480324
REMARK minimizedRMSD -1
REMARK  0 active torsions:
REMARK  status: ('A' for Active; 'I' for Inactive)
ROOT
ATOM      1  C   UNL d   1      -2.859  -0.556  -0.297  0.00  0.00     0.023 A 
ATOM      2  C1  UNL d   1      -2.213  -0.923   0.884  0.00  0.00     0.003 A 
ATOM      3  C2  UNL d   1      -0.828  -0.786   0.994  0.00  0.00     0.048 A 
ATOM      4  C3  UNL d   1      -0.095  -0.280  -0.079  0.00  0.00     0.023 A 
ATOM      5  C4  UNL d   1      -0.738   0.089  -1.262  0.00  0.00     0.048 A 
ATOM      6  C5  UNL d   1      -2.123  -0.051  -1.368  0.00  0.00     0.003 A 
ATOM      7  I   UNL d   1       1.967  -0.074   0.083  0.00  0.00    -0.146 I 
ENDROOT
TORSDOF 0
ENDMDL
