MODEL 1
REMARK minimizedAffinity -3.69054937
REMARK minimizedRMSD -1
REMARK  0 active torsions:
REMARK  status: ('A' for Active; 'I' for Inactive)
ROOT
ATOM      1  C   UNL d   1      -3.136  -0.535  -0.143  0.00  0.00     0.023 A 
ATOM      2  C1  UNL d   1      -2.747   0.184   0.987  0.00  0.00     0.003 A 
ATOM      3  C2  UNL d   1      -1.414   0.569   1.147  0.00  0.00     0.048 A 
ATOM      4  C3  UNL d   1      -0.476   0.234   0.171  0.00  0.00     0.023 A 
ATOM      5  C4  UNL d   1      -0.861  -0.484  -0.962  0.00  0.00     0.048 A 
ATOM      6  C5  UNL d   1      -2.194  -0.868  -1.117  0.00  0.00     0.003 A 
ATOM      7  I   UNL d   1       1.508   0.807   0.407  0.00  0.00    -0.146 I 
ENDROOT
TORSDOF 0
ENDMDL
