MODEL 1
REMARK minimizedAffinity -2.16727591
REMARK minimizedRMSD -1
REMARK  0 active torsions:
REMARK  status: ('A' for Active; 'I' for Inactive)
ROOT
ATOM      1  C   UNL d   1      -5.998   3.565  -1.462  0.00  0.00    -0.002 A 
ATOM      2  C1  UNL d   1      -5.997   4.838  -2.014  0.00  0.00     0.010 A 
ATOM      3  C2  UNL d   1      -5.995   5.012  -3.399  0.00  0.00     0.041 A 
ATOM      4  C3  UNL d   1      -5.997   3.873  -4.229  0.00  0.00    -0.075 A 
ATOM      5  S   UNL d   1      -5.996   3.843  -5.953  0.00  0.00     0.015 SA
ATOM      6  C4  UNL d   1      -5.999   2.139  -5.997  0.00  0.00     0.022 A 
ATOM      7  C5  UNL d   1      -6.000   1.590  -4.737  0.00  0.00     0.026 A 
ATOM      8  C6  UNL d   1      -5.999   2.580  -3.697  0.00  0.00    -0.082 A 
ATOM      9  C7  UNL d   1      -6.000   2.438  -2.288  0.00  0.00     0.045 A 
ENDROOT
TORSDOF 0
ENDMDL
