MODEL 1
REMARK minimizedAffinity 1.90960991
REMARK minimizedRMSD -1
REMARK  0 active torsions:
REMARK  status: ('A' for Active; 'I' for Inactive)
ROOT
ATOM      1  C   UNL d   1      -5.851   5.118  -3.204  0.00  0.00    -0.002 A 
ATOM      2  C1  UNL d   1      -5.860   4.240  -2.130  0.00  0.00     0.010 A 
ATOM      3  C2  UNL d   1      -5.903   2.860  -2.340  0.00  0.00     0.041 A 
ATOM      4  C3  UNL d   1      -5.935   2.373  -3.662  0.00  0.00    -0.075 A 
ATOM      5  S   UNL d   1      -5.988   0.724  -4.161  0.00  0.00     0.015 SA
ATOM      6  C4  UNL d   1      -5.999   1.146  -5.812  0.00  0.00     0.022 A 
ATOM      7  C5  UNL d   1      -5.963   2.508  -5.996  0.00  0.00     0.026 A 
ATOM      8  C6  UNL d   1      -5.925   3.238  -4.760  0.00  0.00    -0.082 A 
ATOM      9  C7  UNL d   1      -5.882   4.631  -4.514  0.00  0.00     0.045 A 
ENDROOT
TORSDOF 0
ENDMDL
