MODEL 1
REMARK minimizedAffinity 5.22269249
REMARK minimizedRMSD -1
REMARK  0 active torsions:
REMARK  status: ('A' for Active; 'I' for Inactive)
ROOT
ATOM      1  C   UNL d   1       1.137  -0.594   0.011  0.00  0.00    -0.002 A 
ATOM      2  C1  UNL d   1       2.086  -1.490   0.482  0.00  0.00     0.010 A 
ATOM      3  C2  UNL d   1       2.023  -2.840   0.131  0.00  0.00     0.041 A 
ATOM      4  C3  UNL d   1       0.983  -3.278  -0.712  0.00  0.00    -0.075 A 
ATOM      5  S   UNL d   1       0.707  -4.884  -1.275  0.00  0.00     0.015 SA
ATOM      6  C4  UNL d   1      -0.676  -4.417  -2.155  0.00  0.00     0.022 A 
ATOM      7  C5  UNL d   1      -0.936  -3.073  -2.033  0.00  0.00     0.026 A 
ATOM      8  C6  UNL d   1       0.016  -2.394  -1.200  0.00  0.00    -0.082 A 
ATOM      9  C7  UNL d   1       0.106  -1.032  -0.825  0.00  0.00     0.045 A 
ENDROOT
TORSDOF 0
ENDMDL
