MODEL 1
REMARK minimizedAffinity 15.6700459
REMARK minimizedRMSD -1
REMARK  0 active torsions:
REMARK  status: ('A' for Active; 'I' for Inactive)
ROOT
ATOM      1  C   UNL d   1      -6.000  -1.186   5.999  0.00  0.00    -0.002 A 
ATOM      2  C1  UNL d   1      -5.152  -2.273   5.831  0.00  0.00     0.010 A 
ATOM      3  C2  UNL d   1      -4.178  -2.265   4.832  0.00  0.00     0.041 A 
ATOM      4  C3  UNL d   1      -4.066  -1.135   3.997  0.00  0.00    -0.075 A 
ATOM      5  S   UNL d   1      -2.946  -0.903   2.707  0.00  0.00     0.015 SA
ATOM      6  C4  UNL d   1      -3.565   0.645   2.350  0.00  0.00     0.022 A 
ATOM      7  C5  UNL d   1      -4.602   0.991   3.184  0.00  0.00     0.026 A 
ATOM      8  C6  UNL d   1      -4.907  -0.029   4.148  0.00  0.00    -0.082 A 
ATOM      9  C7  UNL d   1      -5.886  -0.068   5.170  0.00  0.00     0.045 A 
ENDROOT
TORSDOF 0
ENDMDL
