MODEL 1
REMARK minimizedAffinity 10.2977562
REMARK minimizedRMSD -1
REMARK  0 active torsions:
REMARK  status: ('A' for Active; 'I' for Inactive)
ROOT
ATOM      1  C   UNL d   1      -0.965   5.999  -4.510  0.00  0.00    -0.002 A 
ATOM      2  C1  UNL d   1       0.422   6.000  -4.475  0.00  0.00     0.010 A 
ATOM      3  C2  UNL d   1       1.105   5.547  -3.345  0.00  0.00     0.041 A 
ATOM      4  C3  UNL d   1       0.362   5.087  -2.239  0.00  0.00    -0.075 A 
ATOM      5  S   UNL d   1       0.983   4.484  -0.748  0.00  0.00     0.015 SA
ATOM      6  C4  UNL d   1      -0.579   4.211  -0.122  0.00  0.00     0.022 A 
ATOM      7  C5  UNL d   1      -1.562   4.565  -1.016  0.00  0.00     0.026 A 
ATOM      8  C6  UNL d   1      -1.036   5.075  -2.251  0.00  0.00    -0.082 A 
ATOM      9  C7  UNL d   1      -1.698   5.542  -3.412  0.00  0.00     0.045 A 
ENDROOT
TORSDOF 0
ENDMDL
