MODEL 1
REMARK minimizedAffinity 6.28690386
REMARK minimizedRMSD -1
REMARK  1 active torsions:
REMARK  status: ('A' for Active; 'I' for Inactive)
REMARK    1  A    between atoms: C1_2  and  C2_3 
ROOT
ATOM      1  C2  UNL d   1      -2.451  -1.551  -3.535  0.00  0.00    -0.073 A 
ATOM      2  C3  UNL d   1      -1.860  -0.467  -2.877  0.00  0.00    -0.002 A 
ATOM      3  C4  UNL d   1      -2.129  -0.230  -1.528  0.00  0.00     0.004 A 
ATOM      4  C5  UNL d   1      -2.984  -1.076  -0.823  0.00  0.00    -0.004 A 
ATOM      5  C6  UNL d   1      -3.576  -2.172  -1.461  0.00  0.00    -0.075 A 
ATOM      6  C7  UNL d   1      -4.500  -3.090  -0.717  0.00  0.00     0.076 C 
ATOM      7  C8  UNL d   1      -3.303  -2.402  -2.816  0.00  0.00     0.001 A 
ENDROOT
BRANCH   1   8
ATOM      8  C1  UNL d   1      -2.159  -1.815  -4.990  0.00  0.00     0.053 C 
ATOM      9  C   UNL d   1      -1.026  -0.945  -5.510  0.00  0.00     0.018 C 
ENDBRANCH   1   8
TORSDOF 1
ENDMDL
