MODEL 1
REMARK minimizedAffinity -3.53164148
REMARK minimizedRMSD -1
REMARK  1 active torsions:
REMARK  status: ('A' for Active; 'I' for Inactive)
REMARK    1  A    between atoms: C1_2  and  C2_3 
ROOT
ATOM      1  C2  UNL d   1      -0.688   5.983  -4.300  0.00  0.00    -0.073 A 
ATOM      2  C3  UNL d   1       0.058   5.983  -3.116  0.00  0.00    -0.002 A 
ATOM      3  C4  UNL d   1      -0.585   5.994  -1.878  0.00  0.00     0.004 A 
ATOM      4  C5  UNL d   1      -1.978   6.000  -1.810  0.00  0.00    -0.004 A 
ATOM      5  C6  UNL d   1      -2.741   5.989  -2.983  0.00  0.00    -0.075 A 
ATOM      6  C7  UNL d   1      -4.240   5.997  -2.927  0.00  0.00     0.076 C 
ATOM      7  C8  UNL d   1      -2.088   5.980  -4.222  0.00  0.00     0.001 A 
ENDROOT
BRANCH   1   8
ATOM      8  C1  UNL d   1       0.003   5.964  -5.640  0.00  0.00     0.053 C 
ATOM      9  C   UNL d   1       1.476   5.610  -5.516  0.00  0.00     0.018 C 
ENDBRANCH   1   8
TORSDOF 1
ENDMDL
