MODEL 1
REMARK minimizedAffinity 4.82958794
REMARK minimizedRMSD -1
REMARK  1 active torsions:
REMARK  status: ('A' for Active; 'I' for Inactive)
REMARK    1  A    between atoms: C1_2  and  C2_3 
ROOT
ATOM      1  C2  UNL d   1       2.195   1.353   0.651  0.00  0.00    -0.073 A 
ATOM      2  C3  UNL d   1       1.659   1.217  -0.635  0.00  0.00    -0.002 A 
ATOM      3  C4  UNL d   1       0.399   0.646  -0.816  0.00  0.00     0.004 A 
ATOM      4  C5  UNL d   1      -0.340   0.211   0.285  0.00  0.00    -0.004 A 
ATOM      5  C6  UNL d   1       0.174   0.349   1.578  0.00  0.00    -0.075 A 
ATOM      6  C7  UNL d   1      -0.606  -0.115   2.773  0.00  0.00     0.076 C 
ATOM      7  C8  UNL d   1       1.442   0.922   1.752  0.00  0.00     0.001 A 
ENDROOT
BRANCH   1   8
ATOM      8  C1  UNL d   1       3.553   1.976   0.851  0.00  0.00     0.053 C 
ATOM      9  C   UNL d   1       4.416   1.166   1.806  0.00  0.00     0.018 C 
ENDBRANCH   1   8
TORSDOF 1
ENDMDL
