MODEL 1
REMARK minimizedAffinity 7.31741333
REMARK minimizedRMSD -1
REMARK  1 active torsions:
REMARK  status: ('A' for Active; 'I' for Inactive)
REMARK    1  A    between atoms: C1_2  and  C2_3 
ROOT
ATOM      1  C2  UNL d   1       0.623  -0.509   0.549  0.00  0.00    -0.073 A 
ATOM      2  C3  UNL d   1       1.452   0.220   1.410  0.00  0.00    -0.002 A 
ATOM      3  C4  UNL d   1       2.064   1.395   0.971  0.00  0.00     0.004 A 
ATOM      4  C5  UNL d   1       1.848   1.856  -0.327  0.00  0.00    -0.004 A 
ATOM      5  C6  UNL d   1       1.014   1.148  -1.198  0.00  0.00    -0.075 A 
ATOM      6  C7  UNL d   1       0.774   1.629  -2.599  0.00  0.00     0.076 C 
ATOM      7  C8  UNL d   1       0.405  -0.033  -0.751  0.00  0.00     0.001 A 
ENDROOT
BRANCH   1   8
ATOM      8  C1  UNL d   1      -0.045  -1.775   1.021  0.00  0.00     0.053 C 
ATOM      9  C   UNL d   1      -0.948  -1.531   2.219  0.00  0.00     0.018 C 
ENDBRANCH   1   8
TORSDOF 1
ENDMDL
