MODEL 1
REMARK minimizedAffinity 0.271547884
REMARK minimizedRMSD -1
REMARK  1 active torsions:
REMARK  status: ('A' for Active; 'I' for Inactive)
REMARK    1  A    between atoms: C1_2  and  C2_3 
ROOT
ATOM      1  C2  UNL d   1      -1.899   5.989  -3.054  0.00  0.00    -0.073 A 
ATOM      2  C3  UNL d   1      -1.433   5.999  -1.734  0.00  0.00    -0.002 A 
ATOM      3  C4  UNL d   1      -0.062   6.000  -1.471  0.00  0.00     0.004 A 
ATOM      4  C5  UNL d   1       0.855   5.998  -2.522  0.00  0.00    -0.004 A 
ATOM      5  C6  UNL d   1       0.409   6.000  -3.847  0.00  0.00    -0.075 A 
ATOM      6  C7  UNL d   1       1.382   5.995  -4.989  0.00  0.00     0.076 C 
ATOM      7  C8  UNL d   1      -0.969   5.996  -4.104  0.00  0.00     0.001 A 
ENDROOT
BRANCH   1   8
ATOM      8  C1  UNL d   1      -3.377   5.994  -3.344  0.00  0.00     0.053 C 
ATOM      9  C   UNL d   1      -4.208   6.000  -2.070  0.00  0.00     0.018 C 
ENDBRANCH   1   8
TORSDOF 1
ENDMDL
