MODEL 1
REMARK minimizedAffinity -2.72762203
REMARK minimizedRMSD -1
REMARK  1 active torsions:
REMARK  status: ('A' for Active; 'I' for Inactive)
REMARK    1  A    between atoms: C1_2  and  C2_3 
ROOT
ATOM      1  C2  UNL d   1      -0.246   5.994  -4.135  0.00  0.00    -0.073 A 
ATOM      2  C3  UNL d   1       0.027   5.974  -2.763  0.00  0.00    -0.002 A 
ATOM      3  C4  UNL d   1      -1.017   5.968  -1.836  0.00  0.00     0.004 A 
ATOM      4  C5  UNL d   1      -2.342   5.975  -2.272  0.00  0.00    -0.004 A 
ATOM      5  C6  UNL d   1      -2.635   5.983  -3.640  0.00  0.00    -0.075 A 
ATOM      6  C7  UNL d   1      -4.055   5.993  -4.124  0.00  0.00     0.076 C 
ATOM      7  C8  UNL d   1      -1.581   5.991  -4.563  0.00  0.00     0.001 A 
ENDROOT
BRANCH   1   8
ATOM      8  C1  UNL d   1       0.878   5.994  -5.139  0.00  0.00     0.053 C 
ATOM      9  C   UNL d   1       2.242   5.988  -4.467  0.00  0.00     0.018 C 
ENDBRANCH   1   8
TORSDOF 1
ENDMDL
