MODEL 1
REMARK minimizedAffinity 1.2300359
REMARK minimizedRMSD -1
REMARK  1 active torsions:
REMARK  status: ('A' for Active; 'I' for Inactive)
REMARK    1  A    between atoms: C1_2  and  C2_3 
ROOT
ATOM      1  C2  UNL d   1      -4.026  -2.799  -1.180  0.00  0.00    -0.073 A 
ATOM      2  C3  UNL d   1      -4.070  -4.013  -1.875  0.00  0.00    -0.002 A 
ATOM      3  C4  UNL d   1      -4.648  -5.140  -1.288  0.00  0.00     0.004 A 
ATOM      4  C5  UNL d   1      -5.192  -5.063  -0.006  0.00  0.00    -0.004 A 
ATOM      5  C6  UNL d   1      -5.167  -3.856   0.700  0.00  0.00    -0.075 A 
ATOM      6  C7  UNL d   1      -5.746  -3.758   2.080  0.00  0.00     0.076 C 
ATOM      7  C8  UNL d   1      -4.583  -2.729   0.105  0.00  0.00     0.001 A 
ENDROOT
BRANCH   1   8
ATOM      8  C1  UNL d   1      -3.409  -1.577  -1.811  0.00  0.00     0.053 C 
ATOM      9  C   UNL d   1      -2.842  -1.874  -3.190  0.00  0.00     0.018 C 
ENDBRANCH   1   8
TORSDOF 1
ENDMDL
