MODEL 1
REMARK minimizedAffinity 1.40905011
REMARK minimizedRMSD -1
REMARK  1 active torsions:
REMARK  status: ('A' for Active; 'I' for Inactive)
REMARK    1  A    between atoms: C1_2  and  C2_3 
ROOT
ATOM      1  C2  UNL d   1      -2.376   5.989  -3.027  0.00  0.00    -0.073 A 
ATOM      2  C3  UNL d   1      -2.623   5.969  -1.649  0.00  0.00    -0.002 A 
ATOM      3  C4  UNL d   1      -3.933   5.967  -1.168  0.00  0.00     0.004 A 
ATOM      4  C5  UNL d   1      -5.007   5.977  -2.058  0.00  0.00    -0.004 A 
ATOM      5  C6  UNL d   1      -4.781   5.986  -3.438  0.00  0.00    -0.075 A 
ATOM      6  C7  UNL d   1      -5.926   6.000  -4.407  0.00  0.00     0.076 C 
ATOM      7  C8  UNL d   1      -3.462   5.990  -3.913  0.00  0.00     0.001 A 
ENDROOT
BRANCH   1   8
ATOM      8  C1  UNL d   1      -0.963   5.985  -3.551  0.00  0.00     0.053 C 
ATOM      9  C   UNL d   1      -0.724   4.852  -4.536  0.00  0.00     0.018 C 
ENDBRANCH   1   8
TORSDOF 1
ENDMDL
