MODEL 1
REMARK minimizedAffinity -2.16138697
REMARK minimizedRMSD -1
REMARK  0 active torsions:
REMARK  status: ('A' for Active; 'I' for Inactive)
ROOT
ATOM      1  N1  IND d   1      -5.996   2.989  -1.930  0.00  0.00    -0.196 N 
ATOM      2  C2  IND d   1      -5.963   4.328  -1.658  0.00  0.00     0.054 A 
ATOM      3  C3  IND d   1      -5.916   5.040  -2.806  0.00  0.00    -0.031 A 
ATOM      4  C4  IND d   1      -5.986   4.218  -5.245  0.00  0.00     0.051 A 
ATOM      5  C5  IND d   1      -5.979   3.077  -5.997  0.00  0.00    -0.031 A 
ATOM      6  C6  IND d   1      -5.980   1.823  -5.421  0.00  0.00     0.015 A 
ATOM      7  C7  IND d   1      -6.000   1.663  -4.065  0.00  0.00    -0.016 A 
ATOM      8  C8  IND d   1      -6.000   2.819  -3.297  0.00  0.00    -0.047 A 
ATOM      9  C9  IND d   1      -5.955   4.094  -3.876  0.00  0.00    -0.096 A 
ATOM     10  HN1 IND d   1      -6.011   2.358  -1.345  0.00  0.00     0.298 HD
ENDROOT
TORSDOF 0
ENDMDL
