MODEL 1
REMARK minimizedAffinity 0.301545769
REMARK minimizedRMSD -1
REMARK  0 active torsions:
REMARK  status: ('A' for Active; 'I' for Inactive)
ROOT
ATOM      1  N1  IND d   1      -5.993   2.216  -5.992  0.00  0.00    -0.196 N 
ATOM      2  C2  IND d   1      -5.999   0.913  -5.578  0.00  0.00     0.054 A 
ATOM      3  C3  IND d   1      -5.963   0.848  -4.228  0.00  0.00    -0.031 A 
ATOM      4  C4  IND d   1      -5.993   2.755  -2.498  0.00  0.00     0.051 A 
ATOM      5  C5  IND d   1      -5.950   4.117  -2.395  0.00  0.00    -0.031 A 
ATOM      6  C6  IND d   1      -5.921   4.931  -3.509  0.00  0.00     0.015 A 
ATOM      7  C7  IND d   1      -5.946   4.412  -4.772  0.00  0.00    -0.016 A 
ATOM      8  C8  IND d   1      -5.982   3.029  -4.880  0.00  0.00    -0.047 A 
ATOM      9  C9  IND d   1      -5.969   2.196  -3.754  0.00  0.00    -0.096 A 
ATOM     10  HN1 IND d   1      -5.995   2.482  -6.810  0.00  0.00     0.298 HD
ENDROOT
TORSDOF 0
ENDMDL
