MODEL 1
REMARK minimizedAffinity 10.8893356
REMARK minimizedRMSD -1
REMARK  0 active torsions:
REMARK  status: ('A' for Active; 'I' for Inactive)
ROOT
ATOM      1  N1  IND d   1      -4.714   0.952   3.356  0.00  0.00    -0.196 N 
ATOM      2  C2  IND d   1      -3.661   0.550   2.582  0.00  0.00     0.054 A 
ATOM      3  C3  IND d   1      -3.240  -0.678   2.962  0.00  0.00    -0.031 A 
ATOM      4  C4  IND d   1      -4.197  -2.252   4.760  0.00  0.00     0.051 A 
ATOM      5  C5  IND d   1      -5.135  -2.309   5.752  0.00  0.00    -0.031 A 
ATOM      6  C6  IND d   1      -6.000  -1.263   6.000  0.00  0.00     0.015 A 
ATOM      7  C7  IND d   1      -5.966  -0.119   5.254  0.00  0.00    -0.016 A 
ATOM      8  C8  IND d   1      -5.010  -0.054   4.250  0.00  0.00    -0.047 A 
ATOM      9  C9  IND d   1      -4.102  -1.096   4.021  0.00  0.00    -0.096 A 
ATOM     10  HN1 IND d   1      -5.122   1.706   3.295  0.00  0.00     0.298 HD
ENDROOT
TORSDOF 0
ENDMDL
