MODEL 1
REMARK minimizedAffinity 7.48487616
REMARK minimizedRMSD -1
REMARK  0 active torsions:
REMARK  status: ('A' for Active; 'I' for Inactive)
ROOT
ATOM      1  N1  IND d   1       1.215   3.370   2.894  0.00  0.00    -0.196 N 
ATOM      2  C2  IND d   1       0.669   2.283   3.517  0.00  0.00     0.054 A 
ATOM      3  C3  IND d   1      -0.150   1.618   2.672  0.00  0.00    -0.031 A 
ATOM      4  C4  IND d   1      -0.661   2.077   0.191  0.00  0.00     0.051 A 
ATOM      5  C5  IND d   1      -0.427   2.979  -0.808  0.00  0.00    -0.031 A 
ATOM      6  C6  IND d   1       0.386   4.079  -0.622  0.00  0.00     0.015 A 
ATOM      7  C7  IND d   1       1.006   4.312   0.573  0.00  0.00    -0.016 A 
ATOM      8  C8  IND d   1       0.764   3.401   1.592  0.00  0.00    -0.047 A 
ATOM      9  C9  IND d   1      -0.093   2.307   1.422  0.00  0.00    -0.096 A 
ATOM     10  HN1 IND d   1       1.750   3.939   3.254  0.00  0.00     0.298 HD
ENDROOT
TORSDOF 0
ENDMDL
