MODEL 1
REMARK minimizedAffinity 15.3209734
REMARK minimizedRMSD -1
REMARK  0 active torsions:
REMARK  status: ('A' for Active; 'I' for Inactive)
ROOT
ATOM      1  N1  IND d   1       0.361   2.622  -1.553  0.00  0.00    -0.196 N 
ATOM      2  C2  IND d   1       0.555   2.630  -0.200  0.00  0.00     0.054 A 
ATOM      3  C3  IND d   1      -0.034   3.715   0.352  0.00  0.00    -0.031 A 
ATOM      4  C4  IND d   1      -1.455   5.550  -0.761  0.00  0.00     0.051 A 
ATOM      5  C5  IND d   1      -1.881   5.990  -1.983  0.00  0.00    -0.031 A 
ATOM      6  C6  IND d   1      -1.577   5.314  -3.147  0.00  0.00     0.015 A 
ATOM      7  C7  IND d   1      -0.843   4.162  -3.132  0.00  0.00    -0.016 A 
ATOM      8  C8  IND d   1      -0.403   3.717  -1.894  0.00  0.00    -0.047 A 
ATOM      9  C9  IND d   1      -0.671   4.421  -0.713  0.00  0.00    -0.096 A 
ATOM     10  HN1 IND d   1       0.665   2.032  -2.100  0.00  0.00     0.298 HD
ENDROOT
TORSDOF 0
ENDMDL
