MODEL 1
REMARK minimizedAffinity 9.33599091
REMARK minimizedRMSD -1
REMARK  0 active torsions:
REMARK  status: ('A' for Active; 'I' for Inactive)
ROOT
ATOM      1  N1  IND d   1      -4.318   1.181   3.155  0.00  0.00    -0.196 N 
ATOM      2  C2  IND d   1      -3.624   0.426   2.251  0.00  0.00     0.054 A 
ATOM      3  C3  IND d   1      -3.672  -0.881   2.595  0.00  0.00    -0.031 A 
ATOM      4  C4  IND d   1      -4.917  -2.015   4.543  0.00  0.00     0.051 A 
ATOM      5  C5  IND d   1      -5.658  -1.734   5.657  0.00  0.00    -0.031 A 
ATOM      6  C6  IND d   1      -5.999  -0.442   5.999  0.00  0.00     0.015 A 
ATOM      7  C7  IND d   1      -5.620   0.622   5.230  0.00  0.00    -0.016 A 
ATOM      8  C8  IND d   1      -4.862   0.342   4.103  0.00  0.00    -0.047 A 
ATOM      9  C9  IND d   1      -4.476  -0.964   3.773  0.00  0.00    -0.096 A 
ATOM     10  HN1 IND d   1      -4.401   2.037   3.135  0.00  0.00     0.298 HD
ENDROOT
TORSDOF 0
ENDMDL
