MODEL 1
REMARK minimizedAffinity 7.46474934
REMARK minimizedRMSD -1
REMARK  0 active torsions:
REMARK  status: ('A' for Active; 'I' for Inactive)
ROOT
ATOM      1  N1  IND d   1       1.115   5.433  -3.807  0.00  0.00    -0.196 N 
ATOM      2  C2  IND d   1       0.285   5.982  -4.744  0.00  0.00     0.054 A 
ATOM      3  C3  IND d   1      -0.989   5.996  -4.293  0.00  0.00    -0.031 A 
ATOM      4  C4  IND d   1      -1.924   5.264  -2.008  0.00  0.00     0.051 A 
ATOM      5  C5  IND d   1      -1.556   4.665  -0.836  0.00  0.00    -0.031 A 
ATOM      6  C6  IND d   1      -0.253   4.287  -0.588  0.00  0.00     0.015 A 
ATOM      7  C7  IND d   1       0.739   4.504  -1.503  0.00  0.00    -0.016 A 
ATOM      8  C8  IND d   1       0.368   5.106  -2.697  0.00  0.00    -0.047 A 
ATOM      9  C9  IND d   1      -0.961   5.453  -2.972  0.00  0.00    -0.096 A 
ATOM     10  HN1 IND d   1       1.962   5.313  -3.896  0.00  0.00     0.298 HD
ENDROOT
TORSDOF 0
ENDMDL
