MODEL 1
REMARK minimizedAffinity 6.40620375
REMARK minimizedRMSD -1
REMARK  0 active torsions:
REMARK  status: ('A' for Active; 'I' for Inactive)
ROOT
ATOM      1  C   UNL d   1       2.293  -3.098   0.775  0.00  0.00     0.078 C 
ATOM      2  C1  UNL d   1       3.497  -3.913   1.141  0.00  0.00    -0.077 A 
ATOM      3  C2  UNL d   1       3.373  -5.256   1.514  0.00  0.00    -0.001 A 
ATOM      4  C3  UNL d   1       4.502  -6.000   1.862  0.00  0.00     0.003 A 
ATOM      5  C4  UNL d   1       5.763  -5.408   1.841  0.00  0.00    -0.005 A 
ATOM      6  C5  UNL d   1       5.897  -4.071   1.473  0.00  0.00     0.003 A 
ATOM      7  C6  UNL d   1       4.769  -3.326   1.125  0.00  0.00    -0.001 A 
ENDROOT
TORSDOF 0
ENDMDL
