MODEL 1
REMARK minimizedAffinity -2.52606869
REMARK minimizedRMSD -1
REMARK  0 active torsions:
REMARK  status: ('A' for Active; 'I' for Inactive)
ROOT
ATOM      1  C   UNL d   1       0.393  -1.407   2.803  0.00  0.00     0.078 C 
ATOM      2  C1  UNL d   1       0.470  -1.143   1.329  0.00  0.00    -0.077 A 
ATOM      3  C2  UNL d   1       1.540  -1.625   0.566  0.00  0.00    -0.001 A 
ATOM      4  C3  UNL d   1       1.605  -1.363  -0.804  0.00  0.00     0.003 A 
ATOM      5  C4  UNL d   1       0.603  -0.618  -1.421  0.00  0.00    -0.005 A 
ATOM      6  C5  UNL d   1      -0.465  -0.132  -0.669  0.00  0.00     0.003 A 
ATOM      7  C6  UNL d   1      -0.531  -0.393   0.700  0.00  0.00    -0.001 A 
ENDROOT
TORSDOF 0
ENDMDL
