MODEL 1
REMARK minimizedAffinity 4.19154167
REMARK minimizedRMSD -1
REMARK  0 active torsions:
REMARK  status: ('A' for Active; 'I' for Inactive)
ROOT
ATOM      1  C   UNL d   1       1.147  -1.078  -0.627  0.00  0.00     0.078 C 
ATOM      2  C1  UNL d   1      -0.047  -0.880   0.258  0.00  0.00    -0.077 A 
ATOM      3  C2  UNL d   1      -1.288  -0.511  -0.276  0.00  0.00    -0.001 A 
ATOM      4  C3  UNL d   1      -2.389  -0.320   0.561  0.00  0.00     0.003 A 
ATOM      5  C4  UNL d   1      -2.260  -0.496   1.937  0.00  0.00    -0.005 A 
ATOM      6  C5  UNL d   1      -1.029  -0.860   2.478  0.00  0.00     0.003 A 
ATOM      7  C6  UNL d   1       0.073  -1.051   1.643  0.00  0.00    -0.001 A 
ENDROOT
TORSDOF 0
ENDMDL
