MODEL 1
REMARK minimizedAffinity 5.4264183
REMARK minimizedRMSD -1
REMARK  0 active torsions:
REMARK  status: ('A' for Active; 'I' for Inactive)
ROOT
ATOM      1  C   UNL d   1       1.808   5.993   5.977  0.00  0.00     0.078 C 
ATOM      2  C1  UNL d   1       2.378   5.979   4.590  0.00  0.00    -0.077 A 
ATOM      3  C2  UNL d   1       3.762   5.991   4.380  0.00  0.00    -0.001 A 
ATOM      4  C3  UNL d   1       4.279   5.987   3.083  0.00  0.00     0.003 A 
ATOM      5  C4  UNL d   1       3.419   5.973   1.987  0.00  0.00    -0.005 A 
ATOM      6  C5  UNL d   1       2.040   5.962   2.187  0.00  0.00     0.003 A 
ATOM      7  C6  UNL d   1       1.521   5.966   3.483  0.00  0.00    -0.001 A 
ENDROOT
TORSDOF 0
ENDMDL
