MODEL 1
REMARK minimizedAffinity -2.37074757
REMARK minimizedRMSD -1
REMARK  0 active torsions:
REMARK  status: ('A' for Active; 'I' for Inactive)
ROOT
ATOM      1  C   UNL d   1      -3.247  -0.439   1.435  0.00  0.00     0.078 C 
ATOM      2  C1  UNL d   1      -1.759  -0.578   1.316  0.00  0.00    -0.077 A 
ATOM      3  C2  UNL d   1      -1.121  -0.465   0.074  0.00  0.00    -0.001 A 
ATOM      4  C3  UNL d   1       0.264  -0.607  -0.024  0.00  0.00     0.003 A 
ATOM      5  C4  UNL d   1       1.023  -0.864   1.116  0.00  0.00    -0.005 A 
ATOM      6  C5  UNL d   1       0.397  -0.981   2.355  0.00  0.00     0.003 A 
ATOM      7  C6  UNL d   1      -0.988  -0.839   2.455  0.00  0.00    -0.001 A 
ENDROOT
TORSDOF 0
ENDMDL
