MODEL 1
REMARK minimizedAffinity 2.47664714
REMARK minimizedRMSD -1
REMARK  0 active torsions:
REMARK  status: ('A' for Active; 'I' for Inactive)
ROOT
ATOM      1  C   UNL d   1       4.575   5.997   2.051  0.00  0.00     0.078 C 
ATOM      2  C1  UNL d   1       3.592   5.989   3.184  0.00  0.00    -0.077 A 
ATOM      3  C2  UNL d   1       2.213   5.987   2.943  0.00  0.00    -0.001 A 
ATOM      4  C3  UNL d   1       1.310   5.989   4.007  0.00  0.00     0.003 A 
ATOM      5  C4  UNL d   1       1.776   5.995   5.320  0.00  0.00    -0.005 A 
ATOM      6  C5  UNL d   1       3.147   5.999   5.570  0.00  0.00     0.003 A 
ATOM      7  C6  UNL d   1       4.052   5.996   4.507  0.00  0.00    -0.001 A 
ENDROOT
TORSDOF 0
ENDMDL
