MODEL 1
REMARK minimizedAffinity 5.67292881
REMARK minimizedRMSD -1
REMARK  0 active torsions:
REMARK  status: ('A' for Active; 'I' for Inactive)
ROOT
ATOM      1  C   UNL d   1       1.264  -0.457  -0.511  0.00  0.00     0.078 C 
ATOM      2  C1  UNL d   1       0.326  -0.695   0.634  0.00  0.00    -0.077 A 
ATOM      3  C2  UNL d   1       0.650  -1.595   1.657  0.00  0.00    -0.001 A 
ATOM      4  C3  UNL d   1      -0.238  -1.813   2.712  0.00  0.00     0.003 A 
ATOM      5  C4  UNL d   1      -1.456  -1.138   2.754  0.00  0.00    -0.005 A 
ATOM      6  C5  UNL d   1      -1.788  -0.242   1.739  0.00  0.00     0.003 A 
ATOM      7  C6  UNL d   1      -0.902  -0.022   0.683  0.00  0.00    -0.001 A 
ENDROOT
TORSDOF 0
ENDMDL
