MODEL 1
REMARK minimizedAffinity 0.3444601
REMARK minimizedRMSD -1
REMARK  0 active torsions:
REMARK  status: ('A' for Active; 'I' for Inactive)
ROOT
ATOM      1  C   UNL d   1       4.441   5.965   1.861  0.00  0.00     0.078 C 
ATOM      2  C1  UNL d   1       3.453   5.983   2.988  0.00  0.00    -0.077 A 
ATOM      3  C2  UNL d   1       3.880   5.993   4.322  0.00  0.00    -0.001 A 
ATOM      4  C3  UNL d   1       2.949   6.000   5.362  0.00  0.00     0.003 A 
ATOM      5  C4  UNL d   1       1.584   5.996   5.079  0.00  0.00    -0.005 A 
ATOM      6  C5  UNL d   1       1.150   5.984   3.755  0.00  0.00     0.003 A 
ATOM      7  C6  UNL d   1       2.080   5.977   2.714  0.00  0.00    -0.001 A 
ENDROOT
TORSDOF 0
ENDMDL
