MODEL 1
REMARK minimizedAffinity 3.57612419
REMARK minimizedRMSD -1
REMARK  0 active torsions:
REMARK  status: ('A' for Active; 'I' for Inactive)
ROOT
ATOM      1  C   UNL d   1       2.355  -2.287   0.613  0.00  0.00     0.078 C 
ATOM      2  C1  UNL d   1       1.094  -1.612   1.065  0.00  0.00    -0.077 A 
ATOM      3  C2  UNL d   1       0.582  -1.828   2.350  0.00  0.00    -0.001 A 
ATOM      4  C3  UNL d   1      -0.598  -1.200   2.754  0.00  0.00     0.003 A 
ATOM      5  C4  UNL d   1      -1.276  -0.354   1.878  0.00  0.00    -0.005 A 
ATOM      6  C5  UNL d   1      -0.774  -0.136   0.596  0.00  0.00     0.003 A 
ATOM      7  C6  UNL d   1       0.405  -0.763   0.191  0.00  0.00    -0.001 A 
ENDROOT
TORSDOF 0
ENDMDL
