MODEL 1
REMARK minimizedAffinity -3.99033999
REMARK minimizedRMSD -1
REMARK  1 active torsions:
REMARK  status: ('A' for Active; 'I' for Inactive)
REMARK    1  A    between atoms: N_2  and  C1_3 
ROOT
ATOM      1  C1  UNL d   1      -0.080  -0.282  -0.395  0.00  0.00     0.143 A 
ATOM      2  C2  UNL d   1      -0.763  -0.298   0.826  0.00  0.00    -0.057 A 
ATOM      3  C3  UNL d   1      -2.147  -0.504   0.882  0.00  0.00     0.033 A 
ATOM      4  C4  UNL d   1      -2.879  -0.671  -0.289  0.00  0.00    -0.042 A 
ATOM      5  C5  UNL d   1      -2.225  -0.634  -1.516  0.00  0.00     0.033 A 
ATOM      6  C6  UNL d   1      -0.842  -0.434  -1.564  0.00  0.00    -0.057 A 
ENDROOT
BRANCH   1   7
ATOM      7  N   UNL d   1       1.278   0.016  -0.522  0.00  0.00    -0.732 N 
ATOM      8  C   UNL d   1       1.879   1.069   0.268  0.00  0.00     0.284 C 
ATOM      9  H3  UNL d   1       1.853  -0.819  -0.607  0.00  0.00     0.395 HD
ENDBRANCH   1   7
TORSDOF 1
ENDMDL
