MODEL 1
REMARK minimizedAffinity -4.67353773
REMARK minimizedRMSD -1
REMARK  1 active torsions:
REMARK  status: ('A' for Active; 'I' for Inactive)
REMARK    1  A    between atoms: N_2  and  C1_3 
ROOT
ATOM      1  C1  UNL d   1       0.147  -0.213  -0.309  0.00  0.00     0.143 A 
ATOM      2  C2  UNL d   1      -0.391  -0.975   0.734  0.00  0.00    -0.057 A 
ATOM      3  C3  UNL d   1      -1.731  -1.382   0.720  0.00  0.00     0.033 A 
ATOM      4  C4  UNL d   1      -2.566  -1.009  -0.327  0.00  0.00    -0.042 A 
ATOM      5  C5  UNL d   1      -2.060  -0.231  -1.363  0.00  0.00     0.033 A 
ATOM      6  C6  UNL d   1      -0.720   0.167  -1.346  0.00  0.00    -0.057 A 
ENDROOT
BRANCH   1   7
ATOM      7  N   UNL d   1       1.444   0.305  -0.305  0.00  0.00    -0.732 N 
ATOM      8  C   UNL d   1       1.766   1.479   0.478  0.00  0.00     0.284 C 
ATOM      9  H3  UNL d   1       2.153  -0.423  -0.274  0.00  0.00     0.395 HD
ENDBRANCH   1   7
TORSDOF 1
ENDMDL
