MODEL 1
REMARK minimizedAffinity -3.39032912
REMARK minimizedRMSD -1
REMARK  1 active torsions:
REMARK  status: ('A' for Active; 'I' for Inactive)
REMARK    1  A    between atoms: N_2  and  C1_3 
ROOT
ATOM      1  C1  UNL d   1       3.560   3.409  -0.679  0.00  0.00     0.143 A 
ATOM      2  C2  UNL d   1       3.150   3.910   0.561  0.00  0.00    -0.057 A 
ATOM      3  C3  UNL d   1       2.436   3.115   1.465  0.00  0.00     0.033 A 
ATOM      4  C4  UNL d   1       2.092   1.809   1.131  0.00  0.00    -0.042 A 
ATOM      5  C5  UNL d   1       2.467   1.298  -0.106  0.00  0.00     0.033 A 
ATOM      6  C6  UNL d   1       3.186   2.095  -1.002  0.00  0.00    -0.057 A 
ENDROOT
BRANCH   1   7
ATOM      7  N   UNL d   1       4.186   4.181  -1.661  0.00  0.00    -0.732 N 
ATOM      8  C   UNL d   1       5.152   3.587  -2.561  0.00  0.00     0.284 C 
ATOM      9  H3  UNL d   1       3.547   4.833  -2.109  0.00  0.00     0.395 HD
ENDBRANCH   1   7
TORSDOF 1
ENDMDL
