MODEL 1
REMARK minimizedAffinity -4.71094561
REMARK minimizedRMSD -1
REMARK  1 active torsions:
REMARK  status: ('A' for Active; 'I' for Inactive)
REMARK    1  A    between atoms: N_2  and  C1_3 
ROOT
ATOM      1  C1  UNL d   1       0.019   0.114  -0.134  0.00  0.00     0.143 A 
ATOM      2  C2  UNL d   1      -0.383   0.364  -1.450  0.00  0.00    -0.057 A 
ATOM      3  C3  UNL d   1      -1.708   0.160  -1.855  0.00  0.00     0.033 A 
ATOM      4  C4  UNL d   1      -2.650  -0.326  -0.955  0.00  0.00    -0.042 A 
ATOM      5  C5  UNL d   1      -2.266  -0.605   0.352  0.00  0.00     0.033 A 
ATOM      6  C6  UNL d   1      -0.944  -0.393   0.753  0.00  0.00    -0.057 A 
ENDROOT
BRANCH   1   7
ATOM      7  N   UNL d   1       1.343   0.204   0.305  0.00  0.00    -0.732 N 
ATOM      8  C   UNL d   1       1.924   1.486   0.637  0.00  0.00     0.284 C 
ATOM      9  H3  UNL d   1       1.590  -0.544   0.949  0.00  0.00     0.395 HD
ENDBRANCH   1   7
TORSDOF 1
ENDMDL
