MODEL 1
REMARK minimizedAffinity -3.47061324
REMARK minimizedRMSD -1
REMARK  1 active torsions:
REMARK  status: ('A' for Active; 'I' for Inactive)
REMARK    1  A    between atoms: N_2  and  C1_3 
ROOT
ATOM      1  C1  UNL d   1       0.319   0.088  -0.205  0.00  0.00     0.143 A 
ATOM      2  C2  UNL d   1       0.002   0.235  -1.559  0.00  0.00    -0.057 A 
ATOM      3  C3  UNL d   1      -1.303   0.032  -2.026  0.00  0.00     0.033 A 
ATOM      4  C4  UNL d   1      -2.310  -0.351  -1.146  0.00  0.00    -0.042 A 
ATOM      5  C5  UNL d   1      -2.012  -0.528   0.200  0.00  0.00     0.033 A 
ATOM      6  C6  UNL d   1      -0.709  -0.318   0.661  0.00  0.00    -0.057 A 
ENDROOT
BRANCH   1   7
ATOM      7  N   UNL d   1       1.617   0.179   0.304  0.00  0.00    -0.732 N 
ATOM      8  C   UNL d   1       2.157   1.456   0.721  0.00  0.00     0.284 C 
ATOM      9  H3  UNL d   1       1.845  -0.592   0.927  0.00  0.00     0.395 HD
ENDBRANCH   1   7
TORSDOF 1
ENDMDL
