MODEL 1
REMARK minimizedAffinity -3.97459984
REMARK minimizedRMSD -1
REMARK  1 active torsions:
REMARK  status: ('A' for Active; 'I' for Inactive)
REMARK    1  A    between atoms: N_2  and  C1_3 
ROOT
ATOM      1  C1  UNL d   1       2.015   0.883   1.049  0.00  0.00     0.143 A 
ATOM      2  C2  UNL d   1       2.345   1.463   2.279  0.00  0.00    -0.057 A 
ATOM      3  C3  UNL d   1       3.066   2.661   2.346  0.00  0.00     0.033 A 
ATOM      4  C4  UNL d   1       3.497   3.288   1.181  0.00  0.00    -0.042 A 
ATOM      5  C5  UNL d   1       3.202   2.716  -0.052  0.00  0.00     0.033 A 
ATOM      6  C6  UNL d   1       2.475   1.523  -0.112  0.00  0.00    -0.057 A 
ENDROOT
BRANCH   1   7
ATOM      7  N   UNL d   1       1.385  -0.357   0.918  0.00  0.00    -0.732 N 
ATOM      8  C   UNL d   1      -0.055  -0.445   0.814  0.00  0.00     0.284 C 
ATOM      9  H3  UNL d   1       1.886  -0.982   0.291  0.00  0.00     0.395 HD
ENDBRANCH   1   7
TORSDOF 1
ENDMDL
