MODEL 1
REMARK minimizedAffinity -2.063622
REMARK minimizedRMSD -1
REMARK  1 active torsions:
REMARK  status: ('A' for Active; 'I' for Inactive)
REMARK    1  A    between atoms: N_2  and  C1_3 
ROOT
ATOM      1  C1  UNL d   1       1.869   0.994   0.069  0.00  0.00     0.143 A 
ATOM      2  C2  UNL d   1       1.675  -0.388   0.171  0.00  0.00    -0.057 A 
ATOM      3  C3  UNL d   1       0.486  -0.988  -0.261  0.00  0.00     0.033 A 
ATOM      4  C4  UNL d   1      -0.545  -0.210  -0.779  0.00  0.00    -0.042 A 
ATOM      5  C5  UNL d   1      -0.383   1.168  -0.867  0.00  0.00     0.033 A 
ATOM      6  C6  UNL d   1       0.809   1.761  -0.439  0.00  0.00    -0.057 A 
ENDROOT
BRANCH   1   7
ATOM      7  N   UNL d   1       2.988   1.662   0.572  0.00  0.00    -0.732 N 
ATOM      8  C   UNL d   1       2.834   2.811   1.438  0.00  0.00     0.284 C 
ATOM      9  H3  UNL d   1       3.726   1.022   0.858  0.00  0.00     0.395 HD
ENDBRANCH   1   7
TORSDOF 1
ENDMDL
