MODEL 1
REMARK minimizedAffinity -3.85039282
REMARK minimizedRMSD -1
REMARK  1 active torsions:
REMARK  status: ('A' for Active; 'I' for Inactive)
REMARK    1  A    between atoms: N_2  and  C1_3 
ROOT
ATOM      1  C1  UNL d   1       0.543   0.067  -0.081  0.00  0.00     0.143 A 
ATOM      2  C2  UNL d   1      -0.461  -0.636   0.594  0.00  0.00    -0.057 A 
ATOM      3  C3  UNL d   1      -1.770  -0.686   0.100  0.00  0.00     0.033 A 
ATOM      4  C4  UNL d   1      -2.106  -0.008  -1.067  0.00  0.00    -0.042 A 
ATOM      5  C5  UNL d   1      -1.131   0.717  -1.741  0.00  0.00     0.033 A 
ATOM      6  C6  UNL d   1       0.176   0.758  -1.247  0.00  0.00    -0.057 A 
ENDROOT
BRANCH   1   7
ATOM      7  N   UNL d   1       1.839   0.236   0.410  0.00  0.00    -0.732 N 
ATOM      8  C   UNL d   1       2.576   1.453   0.143  0.00  0.00     0.284 C 
ATOM      9  H3  UNL d   1       1.943  -0.112   1.360  0.00  0.00     0.395 HD
ENDBRANCH   1   7
TORSDOF 1
ENDMDL
