MODEL 1
REMARK minimizedAffinity -3.72550464
REMARK minimizedRMSD -1
REMARK  1 active torsions:
REMARK  status: ('A' for Active; 'I' for Inactive)
REMARK    1  A    between atoms: N_2  and  C1_3 
ROOT
ATOM      1  C1  UNL d   1       0.218   0.014   0.153  0.00  0.00     0.143 A 
ATOM      2  C2  UNL d   1      -0.840  -0.452   0.941  0.00  0.00    -0.057 A 
ATOM      3  C3  UNL d   1      -2.111  -0.669   0.396  0.00  0.00     0.033 A 
ATOM      4  C4  UNL d   1      -2.354  -0.395  -0.946  0.00  0.00    -0.042 A 
ATOM      5  C5  UNL d   1      -1.324   0.092  -1.742  0.00  0.00     0.033 A 
ATOM      6  C6  UNL d   1      -0.055   0.300  -1.193  0.00  0.00    -0.057 A 
ENDROOT
BRANCH   1   7
ATOM      7  N   UNL d   1       1.479   0.342   0.659  0.00  0.00    -0.732 N 
ATOM      8  C   UNL d   1       1.859   1.726   0.847  0.00  0.00     0.284 C 
ATOM      9  H3  UNL d   1       1.767  -0.275   1.414  0.00  0.00     0.395 HD
ENDBRANCH   1   7
TORSDOF 1
ENDMDL
