MODEL 1
REMARK minimizedAffinity 0.359670937
REMARK minimizedRMSD -1
REMARK  2 active torsions:
REMARK  status: ('A' for Active; 'I' for Inactive)
REMARK    1  A    between atoms: C1_2  and  C2_3 
REMARK    2  A    between atoms: C2_3  and  C3_4 
ROOT
ATOM      1  C3  UNL d   1      -2.932   1.571  -3.801  0.00  0.00    -0.075 A 
ATOM      2  C4  UNL d   1      -2.956   0.467  -2.937  0.00  0.00     0.002 A 
ATOM      3  C5  UNL d   1      -3.240  -0.809  -3.427  0.00  0.00     0.002 A 
ATOM      4  C6  UNL d   1      -3.511  -0.994  -4.781  0.00  0.00    -0.004 A 
ATOM      5  C7  UNL d   1      -3.506   0.099  -5.645  0.00  0.00     0.002 A 
ATOM      6  C8  UNL d   1      -3.218   1.375  -5.158  0.00  0.00     0.002 A 
ENDROOT
BRANCH   1   7
ATOM      7  C2  UNL d   1      -2.597   2.950  -3.283  0.00  0.00     0.056 C 
BRANCH   7   8
ATOM      8  C1  UNL d   1      -1.119   3.140  -2.928  0.00  0.00     0.007 C 
ATOM      9  C   UNL d   1      -0.204   3.139  -4.145  0.00  0.00     0.009 C 
ENDBRANCH   7   8
ENDBRANCH   1   7
TORSDOF 2
ENDMDL
