MODEL 1
REMARK minimizedAffinity 0.473500073
REMARK minimizedRMSD -1
REMARK  2 active torsions:
REMARK  status: ('A' for Active; 'I' for Inactive)
REMARK    1  A    between atoms: C1_2  and  C2_3 
REMARK    2  A    between atoms: C2_3  and  C3_4 
ROOT
ATOM      1  C3  UNL d   1       0.667  -1.260   1.375  0.00  0.00    -0.075 A 
ATOM      2  C4  UNL d   1      -0.644  -0.862   1.075  0.00  0.00     0.002 A 
ATOM      3  C5  UNL d   1      -0.975  -0.426  -0.209  0.00  0.00     0.002 A 
ATOM      4  C6  UNL d   1      -0.000  -0.372  -1.202  0.00  0.00    -0.004 A 
ATOM      5  C7  UNL d   1       1.309  -0.750  -0.910  0.00  0.00     0.002 A 
ATOM      6  C8  UNL d   1       1.642  -1.191   0.371  0.00  0.00     0.002 A 
ENDROOT
BRANCH   1   7
ATOM      7  C2  UNL d   1       1.025  -1.762   2.754  0.00  0.00     0.056 C 
BRANCH   7   8
ATOM      8  C1  UNL d   1       2.228  -1.051   3.383  0.00  0.00     0.007 C 
ATOM      9  C   UNL d   1       3.052  -1.955   4.290  0.00  0.00     0.009 C 
ENDBRANCH   7   8
ENDBRANCH   1   7
TORSDOF 2
ENDMDL
