MODEL 1
REMARK minimizedAffinity 2.56681919
REMARK minimizedRMSD -1
REMARK  2 active torsions:
REMARK  status: ('A' for Active; 'I' for Inactive)
REMARK    1  A    between atoms: C1_2  and  C2_3 
REMARK    2  A    between atoms: C2_3  and  C3_4 
ROOT
ATOM      1  C3  UNL d   1       0.762  -0.943   0.848  0.00  0.00    -0.075 A 
ATOM      2  C4  UNL d   1       1.078  -2.270   1.174  0.00  0.00     0.002 A 
ATOM      3  C5  UNL d   1       0.422  -2.918   2.221  0.00  0.00     0.002 A 
ATOM      4  C6  UNL d   1      -0.548  -2.246   2.961  0.00  0.00    -0.004 A 
ATOM      5  C7  UNL d   1      -0.858  -0.922   2.658  0.00  0.00     0.002 A 
ATOM      6  C8  UNL d   1      -0.207  -0.273   1.607  0.00  0.00     0.002 A 
ENDROOT
BRANCH   1   7
ATOM      7  C2  UNL d   1       1.446  -0.246  -0.303  0.00  0.00     0.056 C 
BRANCH   7   8
ATOM      8  C1  UNL d   1       2.826   0.324   0.045  0.00  0.00     0.007 C 
ATOM      9  C   UNL d   1       3.316   1.363  -0.956  0.00  0.00     0.009 C 
ENDBRANCH   7   8
ENDBRANCH   1   7
TORSDOF 2
ENDMDL
