MODEL 1
REMARK minimizedAffinity 4.30578756
REMARK minimizedRMSD -1
REMARK  2 active torsions:
REMARK  status: ('A' for Active; 'I' for Inactive)
REMARK    1  A    between atoms: C1_2  and  C2_3 
REMARK    2  A    between atoms: C2_3  and  C3_4 
ROOT
ATOM      1  C3  UNL d   1       3.031  -4.246   3.481  0.00  0.00    -0.075 A 
ATOM      2  C4  UNL d   1       3.104  -5.605   3.819  0.00  0.00     0.002 A 
ATOM      3  C5  UNL d   1       3.571  -5.999   5.073  0.00  0.00     0.002 A 
ATOM      4  C6  UNL d   1       3.980  -5.043   6.000  0.00  0.00    -0.004 A 
ATOM      5  C7  UNL d   1       3.928  -3.691   5.669  0.00  0.00     0.002 A 
ATOM      6  C8  UNL d   1       3.457  -3.293   4.416  0.00  0.00     0.002 A 
ENDROOT
BRANCH   1   7
ATOM      7  C2  UNL d   1       2.499  -3.812   2.136  0.00  0.00     0.056 C 
BRANCH   7   8
ATOM      8  C1  UNL d   1       0.970  -3.806   2.043  0.00  0.00     0.007 C 
ATOM      9  C   UNL d   1       0.339  -2.536   2.598  0.00  0.00     0.009 C 
ENDBRANCH   7   8
ENDBRANCH   1   7
TORSDOF 2
ENDMDL
