MODEL 1
REMARK minimizedAffinity -0.952945888
REMARK minimizedRMSD -1
REMARK  2 active torsions:
REMARK  status: ('A' for Active; 'I' for Inactive)
REMARK    1  A    between atoms: C1_2  and  C2_3 
REMARK    2  A    between atoms: C2_3  and  C3_4 
ROOT
ATOM      1  C3  UNL d   1       0.290  -0.900   1.139  0.00  0.00    -0.075 A 
ATOM      2  C4  UNL d   1       1.131  -1.643   0.297  0.00  0.00     0.002 A 
ATOM      3  C5  UNL d   1       1.975  -2.621   0.824  0.00  0.00     0.002 A 
ATOM      4  C6  UNL d   1       1.997  -2.861   2.197  0.00  0.00    -0.004 A 
ATOM      5  C7  UNL d   1       1.178  -2.117   3.043  0.00  0.00     0.002 A 
ATOM      6  C8  UNL d   1       0.329  -1.141   2.518  0.00  0.00     0.002 A 
ENDROOT
BRANCH   1   7
ATOM      7  C2  UNL d   1      -0.647   0.140   0.571  0.00  0.00     0.056 C 
BRANCH   7   8
ATOM      8  C1  UNL d   1      -1.979  -0.428   0.070  0.00  0.00     0.007 C 
ATOM      9  C   UNL d   1      -3.030  -0.548   1.164  0.00  0.00     0.009 C 
ENDBRANCH   7   8
ENDBRANCH   1   7
TORSDOF 2
ENDMDL
