MODEL 1
REMARK minimizedAffinity -2.95648861
REMARK minimizedRMSD -1
REMARK  2 active torsions:
REMARK  status: ('A' for Active; 'I' for Inactive)
REMARK    1  A    between atoms: C1_2  and  C2_3 
REMARK    2  A    between atoms: C2_3  and  C3_4 
ROOT
ATOM      1  C3  UNL d   1       4.647   5.700   3.814  0.00  0.00    -0.075 A 
ATOM      2  C4  UNL d   1       3.573   5.230   3.045  0.00  0.00     0.002 A 
ATOM      3  C5  UNL d   1       3.716   5.038   1.671  0.00  0.00     0.002 A 
ATOM      4  C6  UNL d   1       4.929   5.323   1.047  0.00  0.00    -0.004 A 
ATOM      5  C7  UNL d   1       5.998   5.807   1.799  0.00  0.00     0.002 A 
ATOM      6  C8  UNL d   1       5.859   5.995   3.175  0.00  0.00     0.002 A 
ENDROOT
BRANCH   1   7
ATOM      7  C2  UNL d   1       4.508   5.881   5.307  0.00  0.00     0.056 C 
BRANCH   7   8
ATOM      8  C1  UNL d   1       3.367   5.069   5.930  0.00  0.00     0.007 C 
ATOM      9  C   UNL d   1       3.509   3.569   5.710  0.00  0.00     0.009 C 
ENDBRANCH   7   8
ENDBRANCH   1   7
TORSDOF 2
ENDMDL
