MODEL 1
REMARK minimizedAffinity -2.85569143
REMARK minimizedRMSD -1
REMARK  2 active torsions:
REMARK  status: ('A' for Active; 'I' for Inactive)
REMARK    1  A    between atoms: C1_2  and  C2_3 
REMARK    2  A    between atoms: C2_3  and  C3_4 
ROOT
ATOM      1  C3  UNL d   1      -0.093  -1.266   1.652  0.00  0.00    -0.075 A 
ATOM      2  C4  UNL d   1      -1.410  -1.002   2.054  0.00  0.00     0.002 A 
ATOM      3  C5  UNL d   1      -2.335  -0.477   1.151  0.00  0.00     0.002 A 
ATOM      4  C6  UNL d   1      -1.953  -0.200  -0.160  0.00  0.00    -0.004 A 
ATOM      5  C7  UNL d   1      -0.642  -0.443  -0.566  0.00  0.00     0.002 A 
ATOM      6  C8  UNL d   1       0.284  -0.973   0.335  0.00  0.00     0.002 A 
ENDROOT
BRANCH   1   7
ATOM      7  C2  UNL d   1       0.904  -1.862   2.617  0.00  0.00     0.056 C 
BRANCH   7   8
ATOM      8  C1  UNL d   1       1.083  -3.377   2.473  0.00  0.00     0.007 C 
ATOM      9  C   UNL d   1       1.875  -3.773   1.233  0.00  0.00     0.009 C 
ENDBRANCH   7   8
ENDBRANCH   1   7
TORSDOF 2
ENDMDL
