MODEL 1
REMARK minimizedAffinity -0.116576411
REMARK minimizedRMSD -1
REMARK  2 active torsions:
REMARK  status: ('A' for Active; 'I' for Inactive)
REMARK    1  A    between atoms: C1_2  and  C2_3 
REMARK    2  A    between atoms: C2_3  and  C3_4 
ROOT
ATOM      1  C3  UNL d   1       0.716  -3.094   2.285  0.00  0.00    -0.075 A 
ATOM      2  C4  UNL d   1       0.036  -2.595   3.405  0.00  0.00     0.002 A 
ATOM      3  C5  UNL d   1      -0.686  -1.403   3.323  0.00  0.00     0.002 A 
ATOM      4  C6  UNL d   1      -0.728  -0.692   2.126  0.00  0.00    -0.004 A 
ATOM      5  C7  UNL d   1      -0.042  -1.170   1.012  0.00  0.00     0.002 A 
ATOM      6  C8  UNL d   1       0.677  -2.364   1.090  0.00  0.00     0.002 A 
ENDROOT
BRANCH   1   7
ATOM      7  C2  UNL d   1       1.475  -4.397   2.360  0.00  0.00     0.056 C 
BRANCH   7   8
ATOM      8  C1  UNL d   1       2.507  -4.583   1.242  0.00  0.00     0.007 C 
ATOM      9  C   UNL d   1       3.660  -5.497   1.636  0.00  0.00     0.009 C 
ENDBRANCH   7   8
ENDBRANCH   1   7
TORSDOF 2
ENDMDL
