MODEL 1
REMARK minimizedAffinity -3.35511494
REMARK minimizedRMSD -1
REMARK  2 active torsions:
REMARK  status: ('A' for Active; 'I' for Inactive)
REMARK    1  A    between atoms: C1_2  and  C2_3 
REMARK    2  A    between atoms: C2_3  and  C3_4 
ROOT
ATOM      1  C3  UNL d   1       0.500  -2.005   1.725  0.00  0.00    -0.075 A 
ATOM      2  C4  UNL d   1       0.061  -1.562   0.469  0.00  0.00     0.002 A 
ATOM      3  C5  UNL d   1      -1.043  -0.715   0.363  0.00  0.00     0.002 A 
ATOM      4  C6  UNL d   1      -1.726  -0.310   1.508  0.00  0.00    -0.004 A 
ATOM      5  C7  UNL d   1      -1.308  -0.757   2.759  0.00  0.00     0.002 A 
ATOM      6  C8  UNL d   1      -0.201  -1.601   2.869  0.00  0.00     0.002 A 
ENDROOT
BRANCH   1   7
ATOM      7  C2  UNL d   1       1.712  -2.898   1.849  0.00  0.00     0.056 C 
BRANCH   7   8
ATOM      8  C1  UNL d   1       1.457  -4.355   1.449  0.00  0.00     0.007 C 
ATOM      9  C   UNL d   1       2.713  -5.079   0.984  0.00  0.00     0.009 C 
ENDBRANCH   7   8
ENDBRANCH   1   7
TORSDOF 2
ENDMDL
