MODEL 1
REMARK minimizedAffinity 1.5836823
REMARK minimizedRMSD -1
REMARK  2 active torsions:
REMARK  status: ('A' for Active; 'I' for Inactive)
REMARK    1  A    between atoms: C1_2  and  C2_3 
REMARK    2  A    between atoms: C2_3  and  C3_4 
ROOT
ATOM      1  C3  UNL d   1      -2.191  -0.491   0.694  0.00  0.00    -0.075 A 
ATOM      2  C4  UNL d   1      -1.679  -0.392   1.996  0.00  0.00     0.002 A 
ATOM      3  C5  UNL d   1      -0.302  -0.419   2.220  0.00  0.00     0.002 A 
ATOM      4  C6  UNL d   1       0.579  -0.554   1.148  0.00  0.00    -0.004 A 
ATOM      5  C7  UNL d   1       0.080  -0.670  -0.148  0.00  0.00     0.002 A 
ATOM      6  C8  UNL d   1      -1.297  -0.639  -0.375  0.00  0.00     0.002 A 
ENDROOT
BRANCH   1   7
ATOM      7  C2  UNL d   1      -3.678  -0.433   0.443  0.00  0.00     0.056 C 
BRANCH   7   8
ATOM      8  C1  UNL d   1      -4.522  -0.316   1.716  0.00  0.00     0.007 C 
ATOM      9  C   UNL d   1      -5.995  -0.633   1.492  0.00  0.00     0.009 C 
ENDBRANCH   7   8
ENDBRANCH   1   7
TORSDOF 2
ENDMDL
