MODEL 1
REMARK minimizedAffinity -5.23224449
REMARK minimizedRMSD -1
REMARK  0 active torsions:
REMARK  status: ('A' for Active; 'I' for Inactive)
ROOT
ATOM      1  C4' PXY d   1       0.719  -0.123  -2.821  0.00  0.00     0.077 C 
ATOM      2  C1' PXY d   1      -1.520   0.902   2.409  0.00  0.00     0.077 C 
ATOM      3  C1  PXY d   1      -0.923   0.626   1.043  0.00  0.00    -0.082 A 
ATOM      4  C2  PXY d   1      -1.125   1.484   0.056  0.00  0.00     0.003 A 
ATOM      5  C3  PXY d   1      -0.620   1.233  -1.194  0.00  0.00     0.003 A 
ATOM      6  C4  PXY d   1       0.144   0.120  -1.423  0.00  0.00    -0.082 A 
ATOM      7  C5  PXY d   1       0.363  -0.754  -0.418  0.00  0.00     0.003 A 
ATOM      8  C6  PXY d   1      -0.193  -0.503   0.833  0.00  0.00     0.003 A 
ENDROOT
TORSDOF 0
ENDMDL
