MODEL 1
REMARK minimizedAffinity -5.53044939
REMARK minimizedRMSD -1
REMARK  0 active torsions:
REMARK  status: ('A' for Active; 'I' for Inactive)
ROOT
ATOM      1  C4' PXY d   1       0.696  -0.293  -1.781  0.00  0.00     0.077 C 
ATOM      2  C1' PXY d   1      -0.048   1.164   3.764  0.00  0.00     0.077 C 
ATOM      3  C1  PXY d   1       0.135   0.787   2.307  0.00  0.00    -0.082 A 
ATOM      4  C2  PXY d   1       1.004  -0.156   1.980  0.00  0.00     0.003 A 
ATOM      5  C3  PXY d   1       1.205  -0.488   0.665  0.00  0.00     0.003 A 
ATOM      6  C4  PXY d   1       0.471   0.114  -0.322  0.00  0.00    -0.082 A 
ATOM      7  C5  PXY d   1      -0.425   1.070   0.005  0.00  0.00     0.003 A 
ATOM      8  C6  PXY d   1      -0.585   1.421   1.342  0.00  0.00     0.003 A 
ENDROOT
TORSDOF 0
ENDMDL
