MODEL 1
REMARK minimizedAffinity -5.37460279
REMARK minimizedRMSD -1
REMARK  0 active torsions:
REMARK  status: ('A' for Active; 'I' for Inactive)
ROOT
ATOM      1  C4' PXY d   1       1.293   0.056  -4.198  0.00  0.00     0.077 C 
ATOM      2  C1' PXY d   1      -0.555   1.466   1.094  0.00  0.00     0.077 C 
ATOM      3  C1  PXY d   1      -0.073   1.108  -0.298  0.00  0.00    -0.082 A 
ATOM      4  C2  PXY d   1      -0.125  -0.149  -0.705  0.00  0.00     0.003 A 
ATOM      5  C3  PXY d   1       0.337  -0.495  -1.949  0.00  0.00     0.003 A 
ATOM      6  C4  PXY d   1       0.808   0.465  -2.805  0.00  0.00    -0.082 A 
ATOM      7  C5  PXY d   1       0.854   1.752  -2.400  0.00  0.00     0.003 A 
ATOM      8  C6  PXY d   1       0.419   2.076  -1.118  0.00  0.00     0.003 A 
ENDROOT
TORSDOF 0
ENDMDL
