MODEL 1
REMARK minimizedAffinity -5.39437151
REMARK minimizedRMSD -1
REMARK  0 active torsions:
REMARK  status: ('A' for Active; 'I' for Inactive)
ROOT
ATOM      1  C4' PXY d   1       0.399  -0.624  -1.847  0.00  0.00     0.077 C 
ATOM      2  C1' PXY d   1      -0.951   1.576   3.326  0.00  0.00     0.077 C 
ATOM      3  C1  PXY d   1      -0.609   0.994   1.969  0.00  0.00    -0.082 A 
ATOM      4  C2  PXY d   1       0.659   0.812   1.635  0.00  0.00     0.003 A 
ATOM      5  C3  PXY d   1       0.987   0.317   0.400  0.00  0.00     0.003 A 
ATOM      6  C4  PXY d   1       0.007  -0.047  -0.484  0.00  0.00    -0.082 A 
ATOM      7  C5  PXY d   1      -1.289   0.125  -0.147  0.00  0.00     0.003 A 
ATOM      8  C6  PXY d   1      -1.601   0.668   1.096  0.00  0.00     0.003 A 
ENDROOT
TORSDOF 0
ENDMDL
