MODEL 1
REMARK minimizedAffinity -5.22199726
REMARK minimizedRMSD -1
REMARK  0 active torsions:
REMARK  status: ('A' for Active; 'I' for Inactive)
ROOT
ATOM      1  C4' PXY d   1       0.233  -0.024  -1.528  0.00  0.00     0.077 C 
ATOM      2  C1' PXY d   1      -0.631   1.275   4.038  0.00  0.00     0.077 C 
ATOM      3  C1  PXY d   1      -0.417   0.930   2.578  0.00  0.00    -0.082 A 
ATOM      4  C2  PXY d   1       0.810   0.715   2.129  0.00  0.00     0.003 A 
ATOM      5  C3  PXY d   1       1.025   0.433   0.805  0.00  0.00     0.003 A 
ATOM      6  C4  PXY d   1      -0.031   0.318  -0.059  0.00  0.00    -0.082 A 
ATOM      7  C5  PXY d   1      -1.286   0.525   0.393  0.00  0.00     0.003 A 
ATOM      8  C6  PXY d   1      -1.480   0.850   1.732  0.00  0.00     0.003 A 
ENDROOT
TORSDOF 0
ENDMDL
