MODEL 1
REMARK minimizedAffinity -1.8570832
REMARK minimizedRMSD -1
REMARK  0 active torsions:
REMARK  status: ('A' for Active; 'I' for Inactive)
ROOT
ATOM      1  C4' PXY d   1      -1.519   0.345   1.795  0.00  0.00     0.077 C 
ATOM      2  C1' PXY d   1       1.298   0.556  -3.248  0.00  0.00     0.077 C 
ATOM      3  C1  PXY d   1       0.559   0.488  -1.927  0.00  0.00    -0.082 A 
ATOM      4  C2  PXY d   1      -0.079   1.557  -1.478  0.00  0.00     0.003 A 
ATOM      5  C3  PXY d   1      -0.726   1.522  -0.270  0.00  0.00     0.003 A 
ATOM      6  C4  PXY d   1      -0.766   0.365   0.462  0.00  0.00    -0.082 A 
ATOM      7  C5  PXY d   1      -0.127  -0.733   0.006  0.00  0.00     0.003 A 
ATOM      8  C6  PXY d   1       0.559  -0.665  -1.203  0.00  0.00     0.003 A 
ENDROOT
TORSDOF 0
ENDMDL
