MODEL 1
REMARK minimizedAffinity -4.90181684
REMARK minimizedRMSD -1
REMARK  0 active torsions:
REMARK  status: ('A' for Active; 'I' for Inactive)
ROOT
ATOM      1  C4' PXY d   1      -0.747   2.048   4.030  0.00  0.00     0.077 C 
ATOM      2  C1' PXY d   1      -0.069  -0.724  -0.997  0.00  0.00     0.077 C 
ATOM      3  C1  PXY d   1      -0.259   0.005   0.318  0.00  0.00    -0.082 A 
ATOM      4  C2  PXY d   1       0.785   0.546   0.924  0.00  0.00     0.003 A 
ATOM      5  C3  PXY d   1       0.636   1.181   2.130  0.00  0.00     0.003 A 
ATOM      6  C4  PXY d   1      -0.604   1.310   2.696  0.00  0.00    -0.082 A 
ATOM      7  C5  PXY d   1      -1.676   0.770   2.079  0.00  0.00     0.003 A 
ATOM      8  C6  PXY d   1      -1.497   0.094   0.876  0.00  0.00     0.003 A 
ENDROOT
TORSDOF 0
ENDMDL
