MODEL 1
REMARK minimizedAffinity -2.9901824
REMARK minimizedRMSD -1
REMARK  0 active torsions:
REMARK  status: ('A' for Active; 'I' for Inactive)
ROOT
ATOM      1  C4' PXY d   1       0.425  -0.007  -2.290  0.00  0.00     0.077 C 
ATOM      2  C1' PXY d   1      -0.559   0.278   3.400  0.00  0.00     0.077 C 
ATOM      3  C1  PXY d   1      -0.288   0.202   1.910  0.00  0.00    -0.082 A 
ATOM      4  C2  PXY d   1      -1.157   0.725   1.060  0.00  0.00     0.003 A 
ATOM      5  C3  PXY d   1      -0.943   0.637  -0.292  0.00  0.00     0.003 A 
ATOM      6  C4  PXY d   1       0.197   0.055  -0.777  0.00  0.00    -0.082 A 
ATOM      7  C5  PXY d   1       1.094  -0.472   0.084  0.00  0.00     0.003 A 
ATOM      8  C6  PXY d   1       0.838  -0.408   1.451  0.00  0.00     0.003 A 
ENDROOT
TORSDOF 0
ENDMDL
