MODEL 1
REMARK minimizedAffinity -1.60115838
REMARK minimizedRMSD -1
REMARK  0 active torsions:
REMARK  status: ('A' for Active; 'I' for Inactive)
ROOT
ATOM      1  C4' PXY d   1      -3.466   0.429   0.253  0.00  0.00     0.077 C 
ATOM      2  C1' PXY d   1       2.102  -0.895   1.068  0.00  0.00     0.077 C 
ATOM      3  C1  PXY d   1       0.640  -0.548   0.867  0.00  0.00    -0.082 A 
ATOM      4  C2  PXY d   1       0.060  -0.807  -0.294  0.00  0.00     0.003 A 
ATOM      5  C3  PXY d   1      -1.253  -0.471  -0.503  0.00  0.00     0.003 A 
ATOM      6  C4  PXY d   1      -1.994   0.087   0.503  0.00  0.00    -0.082 A 
ATOM      7  C5  PXY d   1      -1.413   0.345   1.694  0.00  0.00     0.003 A 
ATOM      8  C6  PXY d   1      -0.068   0.034   1.873  0.00  0.00     0.003 A 
ENDROOT
TORSDOF 0
ENDMDL
