MODEL 1
REMARK minimizedAffinity -3.00848556
REMARK minimizedRMSD -1
REMARK  0 active torsions:
REMARK  status: ('A' for Active; 'I' for Inactive)
ROOT
ATOM      1  C4' PXY d   1       0.872  -0.312  -2.548  0.00  0.00     0.077 C 
ATOM      2  C1' PXY d   1      -1.450   0.214   2.719  0.00  0.00     0.077 C 
ATOM      3  C1  PXY d   1      -0.830   0.079   1.342  0.00  0.00    -0.082 A 
ATOM      4  C2  PXY d   1      -1.589   0.210   0.267  0.00  0.00     0.003 A 
ATOM      5  C3  PXY d   1      -1.050   0.060  -0.985  0.00  0.00     0.003 A 
ATOM      6  C4  PXY d   1       0.290  -0.175  -1.139  0.00  0.00    -0.082 A 
ATOM      7  C5  PXY d   1       1.074  -0.299  -0.046  0.00  0.00     0.003 A 
ATOM      8  C6  PXY d   1       0.499  -0.183   1.216  0.00  0.00     0.003 A 
ENDROOT
TORSDOF 0
ENDMDL
