MODEL 1
REMARK minimizedAffinity -6.1418128
REMARK minimizedRMSD -1
REMARK  3 active torsions:
REMARK  status: ('A' for Active; 'I' for Inactive)
REMARK    1  A    between atoms: C3'_2  and  C2'_3 
REMARK    2  A    between atoms: C2'_3  and  C1'_4 
REMARK    3  A    between atoms: C1'_4  and  C1_5 
ROOT
ATOM      1  C1  N4B d   1      -0.137  -0.350  -0.150  0.00  0.00    -0.075 A 
ATOM      2  C2  N4B d   1       0.989   0.227   0.477  0.00  0.00     0.002 A 
ATOM      3  C3  N4B d   1       2.124  -0.521   0.674  0.00  0.00     0.002 A 
ATOM      4  C4  N4B d   1       2.150  -1.847   0.271  0.00  0.00    -0.004 A 
ATOM      5  C5  N4B d   1       1.067  -2.390  -0.357  0.00  0.00     0.002 A 
ATOM      6  C6  N4B d   1      -0.079  -1.649  -0.566  0.00  0.00     0.002 A 
ENDROOT
BRANCH   1   7
ATOM      7  C1' N4B d   1      -1.429   0.403  -0.310  0.00  0.00     0.057 C 
BRANCH   7   8
ATOM      8  C2' N4B d   1      -1.839   0.986   1.039  0.00  0.00     0.009 C 
BRANCH   8   9
ATOM      9  C3' N4B d   1      -3.349   1.021   1.208  0.00  0.00     0.004 C 
ATOM     10  C4' N4B d   1      -4.082   0.629  -0.041  0.00  0.00     0.003 C 
ENDBRANCH   8   9
ENDBRANCH   7   8
ENDBRANCH   1   7
TORSDOF 3
ENDMDL
