MODEL 1
REMARK minimizedAffinity -0.381197751
REMARK minimizedRMSD -1
REMARK  1 active torsions:
REMARK  status: ('A' for Active; 'I' for Inactive)
REMARK    1  A    between atoms: C1_2  and  C2_3 
ROOT
ATOM      1  C2  UNL d   1       3.335   5.834   3.553  0.00  0.00    -0.077 A 
ATOM      2  C3  UNL d   1       3.898   6.000   4.826  0.00  0.00     0.002 A 
ATOM      3  C4  UNL d   1       3.121   5.818   5.971  0.00  0.00     0.002 A 
ATOM      4  C5  UNL d   1       1.778   5.465   5.855  0.00  0.00    -0.004 A 
ATOM      5  C6  UNL d   1       1.208   5.299   4.593  0.00  0.00     0.002 A 
ATOM      6  C7  UNL d   1       1.983   5.482   3.447  0.00  0.00     0.002 A 
ENDROOT
BRANCH   1   7
ATOM      7  C1  UNL d   1       4.184   5.981   2.317  0.00  0.00     0.055 C 
ATOM      8  C   UNL d   1       3.330   5.999   1.057  0.00  0.00     0.019 C 
ENDBRANCH   1   7
TORSDOF 1
ENDMDL
