MODEL 1
REMARK minimizedAffinity 6.48982334
REMARK minimizedRMSD -1
REMARK  1 active torsions:
REMARK  status: ('A' for Active; 'I' for Inactive)
REMARK    1  A    between atoms: C1_2  and  C2_3 
ROOT
ATOM      1  C2  UNL d   1      -0.128  -1.337   2.237  0.00  0.00    -0.077 A 
ATOM      2  C3  UNL d   1      -0.812  -0.514   1.332  0.00  0.00     0.002 A 
ATOM      3  C4  UNL d   1      -0.226  -0.163   0.114  0.00  0.00     0.002 A 
ATOM      4  C5  UNL d   1       1.044  -0.635  -0.211  0.00  0.00    -0.004 A 
ATOM      5  C6  UNL d   1       1.733  -1.452   0.684  0.00  0.00     0.002 A 
ATOM      6  C7  UNL d   1       1.150  -1.802   1.902  0.00  0.00     0.002 A 
ENDROOT
BRANCH   1   7
ATOM      7  C1  UNL d   1      -0.779  -1.756   3.530  0.00  0.00     0.055 C 
ATOM      8  C   UNL d   1      -1.665  -2.977   3.333  0.00  0.00     0.019 C 
ENDBRANCH   1   7
TORSDOF 1
ENDMDL
