MODEL 1
REMARK minimizedAffinity -0.550536036
REMARK minimizedRMSD -1
REMARK  1 active torsions:
REMARK  status: ('A' for Active; 'I' for Inactive)
REMARK    1  A    between atoms: C1_2  and  C2_3 
ROOT
ATOM      1  C2  UNL d   1       3.035   5.997   3.613  0.00  0.00    -0.077 A 
ATOM      2  C3  UNL d   1       3.438   5.998   4.956  0.00  0.00     0.002 A 
ATOM      3  C4  UNL d   1       2.488   5.999   5.978  0.00  0.00     0.002 A 
ATOM      4  C5  UNL d   1       1.129   5.994   5.670  0.00  0.00    -0.004 A 
ATOM      5  C6  UNL d   1       0.718   5.994   4.337  0.00  0.00     0.002 A 
ATOM      6  C7  UNL d   1       1.666   5.995   3.314  0.00  0.00     0.002 A 
ENDROOT
BRANCH   1   7
ATOM      7  C1  UNL d   1       4.058   5.946   2.508  0.00  0.00     0.055 C 
ATOM      8  C   UNL d   1       4.680   4.562   2.393  0.00  0.00     0.019 C 
ENDBRANCH   1   7
TORSDOF 1
ENDMDL
