MODEL 1
REMARK minimizedAffinity -1.28760588
REMARK minimizedRMSD -1
REMARK  1 active torsions:
REMARK  status: ('A' for Active; 'I' for Inactive)
REMARK    1  A    between atoms: C1_2  and  C2_3 
ROOT
ATOM      1  C2  UNL d   1       3.423   5.965   3.543  0.00  0.00    -0.077 A 
ATOM      2  C3  UNL d   1       2.041   5.981   3.310  0.00  0.00     0.002 A 
ATOM      3  C4  UNL d   1       1.145   5.996   4.381  0.00  0.00     0.002 A 
ATOM      4  C5  UNL d   1       1.621   5.998   5.690  0.00  0.00    -0.004 A 
ATOM      5  C6  UNL d   1       2.994   5.980   5.932  0.00  0.00     0.002 A 
ATOM      6  C7  UNL d   1       3.891   5.964   4.863  0.00  0.00     0.002 A 
ENDROOT
BRANCH   1   7
ATOM      7  C1  UNL d   1       4.392   5.999   2.390  0.00  0.00     0.055 C 
ATOM      8  C   UNL d   1       3.663   5.999   1.054  0.00  0.00     0.019 C 
ENDBRANCH   1   7
TORSDOF 1
ENDMDL
