MODEL 1
REMARK minimizedAffinity 6.60190487
REMARK minimizedRMSD -1
REMARK  0 active torsions:
REMARK  status: ('A' for Active; 'I' for Inactive)
ROOT
ATOM      1  C   UNL d   1       1.606  -1.689   0.944  0.00  0.00     0.023 A 
ATOM      2  C1  UNL d   1       1.898  -0.333   0.798  0.00  0.00     0.003 A 
ATOM      3  C2  UNL d   1       2.698   0.101  -0.261  0.00  0.00     0.048 A 
ATOM      4  C3  UNL d   1       3.203  -0.827  -1.171  0.00  0.00     0.023 A 
ATOM      5  C4  UNL d   1       2.912  -2.185  -1.030  0.00  0.00     0.048 A 
ATOM      6  C5  UNL d   1       2.113  -2.614   0.031  0.00  0.00     0.003 A 
ATOM      7  I   UNL d   1       4.394  -0.184  -2.748  0.00  0.00    -0.146 I 
ENDROOT
TORSDOF 0
ENDMDL
