MODEL 1
REMARK minimizedAffinity 7.16109371
REMARK minimizedRMSD -1
REMARK  0 active torsions:
REMARK  status: ('A' for Active; 'I' for Inactive)
ROOT
ATOM      1  C   UNL d   1      -3.729   1.026  -0.236  0.00  0.00     0.023 A 
ATOM      2  C1  UNL d   1      -3.949  -0.053  -1.094  0.00  0.00     0.003 A 
ATOM      3  C2  UNL d   1      -3.643  -1.350  -0.678  0.00  0.00     0.048 A 
ATOM      4  C3  UNL d   1      -3.118  -1.562   0.596  0.00  0.00     0.023 A 
ATOM      5  C4  UNL d   1      -2.897  -0.487   1.458  0.00  0.00     0.048 A 
ATOM      6  C5  UNL d   1      -3.204   0.809   1.038  0.00  0.00     0.003 A 
ATOM      7  I   UNL d   1      -2.661  -3.493   1.217  0.00  0.00    -0.146 I 
ENDROOT
TORSDOF 0
ENDMDL
