MODEL 1
REMARK minimizedAffinity 9.63775635
REMARK minimizedRMSD -1
REMARK  0 active torsions:
REMARK  status: ('A' for Active; 'I' for Inactive)
ROOT
ATOM      1  C   UNL d   1       3.698   0.634  -0.736  0.00  0.00     0.023 A 
ATOM      2  C1  UNL d   1       2.905   1.725  -0.380  0.00  0.00     0.003 A 
ATOM      3  C2  UNL d   1       1.658   1.519   0.215  0.00  0.00     0.048 A 
ATOM      4  C3  UNL d   1       1.211   0.219   0.452  0.00  0.00     0.023 A 
ATOM      5  C4  UNL d   1       2.002  -0.875   0.098  0.00  0.00     0.048 A 
ATOM      6  C5  UNL d   1       3.247  -0.665  -0.497  0.00  0.00     0.003 A 
ATOM      7  I   UNL d   1      -0.643  -0.089   1.338  0.00  0.00    -0.146 I 
ENDROOT
TORSDOF 0
ENDMDL
