MODEL 1
REMARK minimizedAffinity -2.62146306
REMARK minimizedRMSD -1
REMARK  0 active torsions:
REMARK  status: ('A' for Active; 'I' for Inactive)
ROOT
ATOM      1  C   UNL d   1       0.881  -1.910   1.603  0.00  0.00     0.023 A 
ATOM      2  C1  UNL d   1       2.044  -1.752   2.356  0.00  0.00     0.003 A 
ATOM      3  C2  UNL d   1       2.352  -2.663   3.368  0.00  0.00     0.048 A 
ATOM      4  C3  UNL d   1       1.492  -3.731   3.621  0.00  0.00     0.023 A 
ATOM      5  C4  UNL d   1       0.327  -3.895   2.870  0.00  0.00     0.048 A 
ATOM      6  C5  UNL d   1       0.023  -2.980   1.859  0.00  0.00     0.003 A 
ATOM      7  I   UNL d   1       1.948  -5.090   5.127  0.00  0.00    -0.146 I 
ENDROOT
TORSDOF 0
ENDMDL
