MODEL 1
REMARK minimizedAffinity 0.68029803
REMARK minimizedRMSD -1
REMARK  0 active torsions:
REMARK  status: ('A' for Active; 'I' for Inactive)
ROOT
ATOM      1  C   UNL d   1       2.170  -0.702  -0.688  0.00  0.00     0.023 A 
ATOM      2  C1  UNL d   1       3.325  -1.242  -0.122  0.00  0.00     0.003 A 
ATOM      3  C2  UNL d   1       3.365  -1.534   1.243  0.00  0.00     0.048 A 
ATOM      4  C3  UNL d   1       2.245  -1.284   2.037  0.00  0.00     0.023 A 
ATOM      5  C4  UNL d   1       1.087  -0.744   1.474  0.00  0.00     0.048 A 
ATOM      6  C5  UNL d   1       1.053  -0.453   0.109  0.00  0.00     0.003 A 
ATOM      7  I   UNL d   1       2.302  -1.717   4.069  0.00  0.00    -0.146 I 
ENDROOT
TORSDOF 0
ENDMDL
