MODEL 1
REMARK minimizedAffinity -2.2781527
REMARK minimizedRMSD -1
REMARK  0 active torsions:
REMARK  status: ('A' for Active; 'I' for Inactive)
ROOT
ATOM      1  C   UNL d   1      -3.792  -5.988   1.689  0.00  0.00     0.023 A 
ATOM      2  C1  UNL d   1      -2.711  -5.984   0.806  0.00  0.00     0.003 A 
ATOM      3  C2  UNL d   1      -2.934  -5.987  -0.572  0.00  0.00     0.048 A 
ATOM      4  C3  UNL d   1      -4.239  -5.993  -1.062  0.00  0.00     0.023 A 
ATOM      5  C4  UNL d   1      -5.324  -5.996  -0.183  0.00  0.00     0.048 A 
ATOM      6  C5  UNL d   1      -5.096  -5.994   1.195  0.00  0.00     0.003 A 
ATOM      7  I   UNL d   1      -4.573  -5.997  -3.113  0.00  0.00    -0.146 I 
ENDROOT
TORSDOF 0
ENDMDL
