MODEL 1
REMARK minimizedAffinity 2.58803225
REMARK minimizedRMSD -1
REMARK  0 active torsions:
REMARK  status: ('A' for Active; 'I' for Inactive)
ROOT
ATOM      1  C   UNL d   1      -2.626  -4.131   1.950  0.00  0.00     0.023 A 
ATOM      2  C1  UNL d   1      -3.772  -4.878   2.225  0.00  0.00     0.003 A 
ATOM      3  C2  UNL d   1      -4.525  -5.414   1.179  0.00  0.00     0.048 A 
ATOM      4  C3  UNL d   1      -4.126  -5.202  -0.140  0.00  0.00     0.023 A 
ATOM      5  C4  UNL d   1      -2.980  -4.457  -0.420  0.00  0.00     0.048 A 
ATOM      6  C5  UNL d   1      -2.230  -3.921   0.629  0.00  0.00     0.003 A 
ATOM      7  I   UNL d   1      -5.246  -6.000  -1.699  0.00  0.00    -0.146 I 
ENDROOT
TORSDOF 0
ENDMDL
