MODEL 1
REMARK minimizedAffinity 6.8257618
REMARK minimizedRMSD -1
REMARK  0 active torsions:
REMARK  status: ('A' for Active; 'I' for Inactive)
ROOT
ATOM      1  C   UNL d   1      -3.782  -4.753  -0.570  0.00  0.00     0.023 A 
ATOM      2  C1  UNL d   1      -2.728  -4.068   0.033  0.00  0.00     0.003 A 
ATOM      3  C2  UNL d   1      -2.644  -3.998   1.426  0.00  0.00     0.048 A 
ATOM      4  C3  UNL d   1      -3.618  -4.617   2.209  0.00  0.00     0.023 A 
ATOM      5  C4  UNL d   1      -4.674  -5.305   1.609  0.00  0.00     0.048 A 
ATOM      6  C5  UNL d   1      -4.754  -5.371   0.217  0.00  0.00     0.003 A 
ATOM      7  I   UNL d   1      -3.495  -4.515   4.281  0.00  0.00    -0.146 I 
ENDROOT
TORSDOF 0
ENDMDL
