MODEL 1
REMARK minimizedAffinity 6.52952385
REMARK minimizedRMSD -1
REMARK  0 active torsions:
REMARK  status: ('A' for Active; 'I' for Inactive)
ROOT
ATOM      1  C   UNL d   1       1.885  -5.451  -4.848  0.00  0.00     0.023 A 
ATOM      2  C1  UNL d   1       1.197  -5.234  -3.654  0.00  0.00     0.003 A 
ATOM      3  C2  UNL d   1      -0.190  -5.389  -3.608  0.00  0.00     0.048 A 
ATOM      4  C3  UNL d   1      -0.883  -5.762  -4.759  0.00  0.00     0.023 A 
ATOM      5  C4  UNL d   1      -0.199  -5.981  -5.956  0.00  0.00     0.048 A 
ATOM      6  C5  UNL d   1       1.188  -5.824  -5.998  0.00  0.00     0.003 A 
ATOM      7  I   UNL d   1      -2.947  -5.993  -4.693  0.00  0.00    -0.146 I 
ENDROOT
TORSDOF 0
ENDMDL
