MODEL 1
REMARK minimizedAffinity 1.33007658
REMARK minimizedRMSD -1
REMARK  0 active torsions:
REMARK  status: ('A' for Active; 'I' for Inactive)
ROOT
ATOM      1  C   UNL d   1       1.499  -5.197  -4.816  0.00  0.00     0.023 A 
ATOM      2  C1  UNL d   1       1.220  -4.874  -3.488  0.00  0.00     0.003 A 
ATOM      3  C2  UNL d   1      -0.054  -5.103  -2.965  0.00  0.00     0.048 A 
ATOM      4  C3  UNL d   1      -1.045  -5.657  -3.776  0.00  0.00     0.023 A 
ATOM      5  C4  UNL d   1      -0.770  -5.983  -5.105  0.00  0.00     0.048 A 
ATOM      6  C5  UNL d   1       0.506  -5.751  -5.623  0.00  0.00     0.003 A 
ATOM      7  I   UNL d   1      -2.942  -6.000  -3.000  0.00  0.00    -0.146 I 
ENDROOT
TORSDOF 0
ENDMDL
