MODEL 1
REMARK minimizedAffinity 5.23551798
REMARK minimizedRMSD -1
REMARK  0 active torsions:
REMARK  status: ('A' for Active; 'I' for Inactive)
ROOT
ATOM      1  C   UNL d   1       1.471   0.467  -2.977  0.00  0.00     0.023 A 
ATOM      2  C1  UNL d   1       0.215   1.020  -2.725  0.00  0.00     0.003 A 
ATOM      3  C2  UNL d   1      -0.335   0.950  -1.444  0.00  0.00     0.048 A 
ATOM      4  C3  UNL d   1       0.376   0.327  -0.419  0.00  0.00     0.023 A 
ATOM      5  C4  UNL d   1       1.633  -0.227  -0.666  0.00  0.00     0.048 A 
ATOM      6  C5  UNL d   1       2.179  -0.155  -1.949  0.00  0.00     0.003 A 
ATOM      7  I   UNL d   1      -0.442   0.221   1.489  0.00  0.00    -0.146 I 
ENDROOT
TORSDOF 0
ENDMDL
