MODEL 1
REMARK minimizedAffinity 1.64596677
REMARK minimizedRMSD -1
REMARK  0 active torsions:
REMARK  status: ('A' for Active; 'I' for Inactive)
ROOT
ATOM      1  C   UNL d   1      -2.149  -0.819   1.223  0.00  0.00     0.023 A 
ATOM      2  C1  UNL d   1      -1.814   0.517   1.445  0.00  0.00     0.003 A 
ATOM      3  C2  UNL d   1      -1.750   1.409   0.373  0.00  0.00     0.048 A 
ATOM      4  C3  UNL d   1      -2.023   0.960  -0.918  0.00  0.00     0.023 A 
ATOM      5  C4  UNL d   1      -2.359  -0.376  -1.145  0.00  0.00     0.048 A 
ATOM      6  C5  UNL d   1      -2.421  -1.265  -0.070  0.00  0.00     0.003 A 
ATOM      7  I   UNL d   1      -1.928   2.286  -2.515  0.00  0.00    -0.146 I 
ENDROOT
TORSDOF 0
ENDMDL
