MODEL 1
REMARK minimizedAffinity 1.15252805
REMARK minimizedRMSD -1
REMARK  1 active torsions:
REMARK  status: ('A' for Active; 'I' for Inactive)
REMARK    1  A    between atoms: C1_2  and  C2_3 
ROOT
ATOM      1  C2  UNL d   1      -4.878  -0.580   2.375  0.00  0.00    -0.077 A 
ATOM      2  C3  UNL d   1      -5.811  -0.271   3.374  0.00  0.00     0.002 A 
ATOM      3  C4  UNL d   1      -6.000  -1.134   4.455  0.00  0.00     0.002 A 
ATOM      4  C5  UNL d   1      -5.256  -2.309   4.549  0.00  0.00    -0.004 A 
ATOM      5  C6  UNL d   1      -4.327  -2.626   3.559  0.00  0.00     0.002 A 
ATOM      6  C7  UNL d   1      -4.138  -1.764   2.477  0.00  0.00     0.002 A 
ENDROOT
BRANCH   1   7
ATOM      7  C1  UNL d   1      -4.638   0.374   1.233  0.00  0.00     0.055 C 
ATOM      8  C   UNL d   1      -4.125  -0.355   0.001  0.00  0.00     0.019 C 
ENDBRANCH   1   7
TORSDOF 1
ENDMDL
