MODEL 1
REMARK minimizedAffinity 6.49147701
REMARK minimizedRMSD -1
REMARK  1 active torsions:
REMARK  status: ('A' for Active; 'I' for Inactive)
REMARK    1  A    between atoms: C1_2  and  C2_3 
ROOT
ATOM      1  C2  UNL d   1      -3.647   0.526   3.171  0.00  0.00    -0.077 A 
ATOM      2  C3  UNL d   1      -4.904   1.112   3.377  0.00  0.00     0.002 A 
ATOM      3  C4  UNL d   1      -5.999   0.326   3.739  0.00  0.00     0.002 A 
ATOM      4  C5  UNL d   1      -5.848  -1.050   3.902  0.00  0.00    -0.004 A 
ATOM      5  C6  UNL d   1      -4.603  -1.643   3.697  0.00  0.00     0.002 A 
ATOM      6  C7  UNL d   1      -3.507  -0.858   3.334  0.00  0.00     0.002 A 
ENDROOT
BRANCH   1   7
ATOM      7  C1  UNL d   1      -2.454   1.379   2.828  0.00  0.00     0.055 C 
ATOM      8  C   UNL d   1      -1.269   1.061   3.729  0.00  0.00     0.019 C 
ENDBRANCH   1   7
TORSDOF 1
ENDMDL
