MODEL 1
REMARK minimizedAffinity 4.93285894
REMARK minimizedRMSD -1
REMARK  1 active torsions:
REMARK  status: ('A' for Active; 'I' for Inactive)
REMARK    1  A    between atoms: C1_2  and  C2_3 
ROOT
ATOM      1  C2  UNL d   1      -0.194   2.522   0.718  0.00  0.00    -0.077 A 
ATOM      2  C3  UNL d   1      -1.483   2.387   1.252  0.00  0.00     0.002 A 
ATOM      3  C4  UNL d   1      -1.684   1.689   2.445  0.00  0.00     0.002 A 
ATOM      4  C5  UNL d   1      -0.600   1.124   3.114  0.00  0.00    -0.004 A 
ATOM      5  C6  UNL d   1       0.685   1.251   2.589  0.00  0.00     0.002 A 
ATOM      6  C7  UNL d   1       0.887   1.948   1.397  0.00  0.00     0.002 A 
ENDROOT
BRANCH   1   7
ATOM      7  C1  UNL d   1       0.030   3.317  -0.542  0.00  0.00     0.055 C 
ATOM      8  C   UNL d   1      -0.685   2.688  -1.729  0.00  0.00     0.019 C 
ENDBRANCH   1   7
TORSDOF 1
ENDMDL
