MODEL 1
REMARK minimizedAffinity 7.8968544
REMARK minimizedRMSD -1
REMARK  1 active torsions:
REMARK  status: ('A' for Active; 'I' for Inactive)
REMARK    1  A    between atoms: C1_2  and  C2_3 
ROOT
ATOM      1  C2  UNL d   1      -5.334   0.464   1.329  0.00  0.00    -0.077 A 
ATOM      2  C3  UNL d   1      -5.904  -0.090   0.174  0.00  0.00     0.002 A 
ATOM      3  C4  UNL d   1      -5.263   0.036  -1.060  0.00  0.00     0.002 A 
ATOM      4  C5  UNL d   1      -4.047   0.711  -1.150  0.00  0.00    -0.004 A 
ATOM      5  C6  UNL d   1      -3.473   1.267  -0.007  0.00  0.00     0.002 A 
ATOM      6  C7  UNL d   1      -4.113   1.143   1.227  0.00  0.00     0.002 A 
ENDROOT
BRANCH   1   7
ATOM      7  C1  UNL d   1      -5.999   0.287   2.669  0.00  0.00     0.055 C 
ATOM      8  C   UNL d   1      -5.994  -1.172   3.101  0.00  0.00     0.019 C 
ENDBRANCH   1   7
TORSDOF 1
ENDMDL
