MODEL 1
REMARK minimizedAffinity 2.89217973
REMARK minimizedRMSD -1
REMARK  1 active torsions:
REMARK  status: ('A' for Active; 'I' for Inactive)
REMARK    1  A    between atoms: C1_2  and  C2_3 
ROOT
ATOM      1  C2  UNL d   1       1.337  -1.841   4.501  0.00  0.00    -0.077 A 
ATOM      2  C3  UNL d   1       1.713  -2.366   3.256  0.00  0.00     0.002 A 
ATOM      3  C4  UNL d   1       1.636  -1.580   2.105  0.00  0.00     0.002 A 
ATOM      4  C5  UNL d   1       1.187  -0.263   2.188  0.00  0.00    -0.004 A 
ATOM      5  C6  UNL d   1       0.809   0.268   3.420  0.00  0.00     0.002 A 
ATOM      6  C7  UNL d   1       0.885  -0.517   4.572  0.00  0.00     0.002 A 
ENDROOT
BRANCH   1   7
ATOM      7  C1  UNL d   1       1.466  -2.672   5.751  0.00  0.00     0.055 C 
ATOM      8  C   UNL d   1       2.911  -3.081   5.996  0.00  0.00     0.019 C 
ENDBRANCH   1   7
TORSDOF 1
ENDMDL
