MODEL 1
REMARK minimizedAffinity 1.6952064
REMARK minimizedRMSD -1
REMARK  1 active torsions:
REMARK  status: ('A' for Active; 'I' for Inactive)
REMARK    1  A    between atoms: C1_2  and  C2_3 
ROOT
ATOM      1  C2  UNL d   1      -2.198   5.396  -4.455  0.00  0.00    -0.077 A 
ATOM      2  C3  UNL d   1      -3.217   5.447  -3.494  0.00  0.00     0.002 A 
ATOM      3  C4  UNL d   1      -4.468   4.887  -3.760  0.00  0.00     0.002 A 
ATOM      4  C5  UNL d   1      -4.710   4.267  -4.984  0.00  0.00    -0.004 A 
ATOM      5  C6  UNL d   1      -3.703   4.213  -5.948  0.00  0.00     0.002 A 
ATOM      6  C7  UNL d   1      -2.453   4.774  -5.684  0.00  0.00     0.002 A 
ENDROOT
BRANCH   1   7
ATOM      7  C1  UNL d   1      -0.833   5.956  -4.152  0.00  0.00     0.055 C 
ATOM      8  C   UNL d   1       0.040   5.994  -5.398  0.00  0.00     0.019 C 
ENDBRANCH   1   7
TORSDOF 1
ENDMDL
