MODEL 1
REMARK minimizedAffinity 5.74003935
REMARK minimizedRMSD -1
REMARK  1 active torsions:
REMARK  status: ('A' for Active; 'I' for Inactive)
REMARK    1  A    between atoms: C1_2  and  C2_3 
ROOT
ATOM      1  C2  UNL d   1      -3.478  -5.266  -5.500  0.00  0.00    -0.077 A 
ATOM      2  C3  UNL d   1      -3.602  -3.918  -5.863  0.00  0.00     0.002 A 
ATOM      3  C4  UNL d   1      -4.858  -3.310  -5.905  0.00  0.00     0.002 A 
ATOM      4  C5  UNL d   1      -5.999  -4.042  -5.579  0.00  0.00    -0.004 A 
ATOM      5  C6  UNL d   1      -5.886  -5.384  -5.218  0.00  0.00     0.002 A 
ATOM      6  C7  UNL d   1      -4.631  -5.993  -5.178  0.00  0.00     0.002 A 
ENDROOT
BRANCH   1   7
ATOM      7  C1  UNL d   1      -2.119  -5.910  -5.407  0.00  0.00     0.055 C 
ATOM      8  C   UNL d   1      -1.083  -4.939  -4.859  0.00  0.00     0.019 C 
ENDBRANCH   1   7
TORSDOF 1
ENDMDL
