MODEL 1
REMARK minimizedAffinity 10.4788408
REMARK minimizedRMSD -1
REMARK  3 active torsions:
REMARK  status: ('A' for Active; 'I' for Inactive)
REMARK    1  A    between atoms: C3'_2  and  C2'_3 
REMARK    2  A    between atoms: C2'_3  and  C1'_4 
REMARK    3  A    between atoms: C1'_4  and  C1_5 
ROOT
ATOM      1  C1  N4B d   1       1.303  -1.018   1.049  0.00  0.00    -0.075 A 
ATOM      2  C2  N4B d   1       1.744  -1.735  -0.084  0.00  0.00     0.002 A 
ATOM      3  C3  N4B d   1       0.840  -2.134  -1.039  0.00  0.00     0.002 A 
ATOM      4  C4  N4B d   1      -0.506  -1.844  -0.872  0.00  0.00    -0.004 A 
ATOM      5  C5  N4B d   1      -0.920  -1.129   0.214  0.00  0.00     0.002 A 
ATOM      6  C6  N4B d   1      -0.022  -0.718   1.178  0.00  0.00     0.002 A 
ENDROOT
BRANCH   1   7
ATOM      7  C1' N4B d   1       2.241  -0.635   2.161  0.00  0.00     0.057 C 
BRANCH   7   8
ATOM      8  C2' N4B d   1       1.718  -1.205   3.476  0.00  0.00     0.009 C 
BRANCH   8   9
ATOM      9  C3' N4B d   1       2.798  -1.948   4.243  0.00  0.00     0.004 C 
ATOM     10  C4' N4B d   1       2.472  -3.398   4.449  0.00  0.00     0.003 C 
ENDBRANCH   8   9
ENDBRANCH   7   8
ENDBRANCH   1   7
TORSDOF 3
ENDMDL
