MODEL 1
REMARK minimizedAffinity 5.99478149
REMARK minimizedRMSD -1
REMARK  3 active torsions:
REMARK  status: ('A' for Active; 'I' for Inactive)
REMARK    1  A    between atoms: C3'_2  and  C2'_3 
REMARK    2  A    between atoms: C2'_3  and  C1'_4 
REMARK    3  A    between atoms: C1'_4  and  C1_5 
ROOT
ATOM      1  C1  N4B d   1       3.656  -1.684   4.228  0.00  0.00    -0.075 A 
ATOM      2  C2  N4B d   1       3.705  -2.236   5.527  0.00  0.00     0.002 A 
ATOM      3  C3  N4B d   1       4.876  -2.778   5.998  0.00  0.00     0.002 A 
ATOM      4  C4  N4B d   1       6.000  -2.795   5.186  0.00  0.00    -0.004 A 
ATOM      5  C5  N4B d   1       5.951  -2.237   3.943  0.00  0.00     0.002 A 
ATOM      6  C6  N4B d   1       4.782  -1.685   3.457  0.00  0.00     0.002 A 
ENDROOT
BRANCH   1   7
ATOM      7  C1' N4B d   1       2.377  -1.158   3.637  0.00  0.00     0.057 C 
BRANCH   7   8
ATOM      8  C2' N4B d   1       2.707  -0.093   2.595  0.00  0.00     0.009 C 
BRANCH   8   9
ATOM      9  C3' N4B d   1       2.358   1.304   3.080  0.00  0.00     0.004 C 
ATOM     10  C4' N4B d   1       2.735   2.371   2.096  0.00  0.00     0.003 C 
ENDBRANCH   8   9
ENDBRANCH   7   8
ENDBRANCH   1   7
TORSDOF 3
ENDMDL
