MODEL 1
REMARK minimizedAffinity 17.0316391
REMARK minimizedRMSD -1
REMARK  3 active torsions:
REMARK  status: ('A' for Active; 'I' for Inactive)
REMARK    1  A    between atoms: C3'_2  and  C2'_3 
REMARK    2  A    between atoms: C2'_3  and  C1'_4 
REMARK    3  A    between atoms: C1'_4  and  C1_5 
ROOT
ATOM      1  C1  N4B d   1       2.981   0.230   1.418  0.00  0.00    -0.075 A 
ATOM      2  C2  N4B d   1       3.877  -0.839   1.641  0.00  0.00     0.002 A 
ATOM      3  C3  N4B d   1       3.595  -1.783   2.598  0.00  0.00     0.002 A 
ATOM      4  C4  N4B d   1       2.438  -1.668   3.354  0.00  0.00    -0.004 A 
ATOM      5  C5  N4B d   1       1.565  -0.647   3.115  0.00  0.00     0.002 A 
ATOM      6  C6  N4B d   1       1.834   0.306   2.153  0.00  0.00     0.002 A 
ENDROOT
BRANCH   1   7
ATOM      7  C1' N4B d   1       3.289   1.333   0.442  0.00  0.00     0.057 C 
BRANCH   7   8
ATOM      8  C2' N4B d   1       2.588   2.611   0.894  0.00  0.00     0.009 C 
BRANCH   8   9
ATOM      9  C3' N4B d   1       2.787   3.747  -0.094  0.00  0.00     0.004 C 
ATOM     10  C4' N4B d   1       1.521   4.502  -0.374  0.00  0.00     0.003 C 
ENDBRANCH   8   9
ENDBRANCH   7   8
ENDBRANCH   1   7
TORSDOF 3
ENDMDL
