MODEL 1
REMARK minimizedAffinity -1.09059477
REMARK minimizedRMSD -1
REMARK  3 active torsions:
REMARK  status: ('A' for Active; 'I' for Inactive)
REMARK    1  A    between atoms: C3'_2  and  C2'_3 
REMARK    2  A    between atoms: C2'_3  and  C1'_4 
REMARK    3  A    between atoms: C1'_4  and  C1_5 
ROOT
ATOM      1  C1  N4B d   1       5.425  -0.627  -4.954  0.00  0.00    -0.075 A 
ATOM      2  C2  N4B d   1       5.987   0.159  -5.984  0.00  0.00     0.002 A 
ATOM      3  C3  N4B d   1       5.786   1.517  -5.998  0.00  0.00     0.002 A 
ATOM      4  C4  N4B d   1       5.015   2.107  -5.008  0.00  0.00    -0.004 A 
ATOM      5  C5  N4B d   1       4.497   1.344  -4.003  0.00  0.00     0.002 A 
ATOM      6  C6  N4B d   1       4.694  -0.022  -3.974  0.00  0.00     0.002 A 
ENDROOT
BRANCH   1   7
ATOM      7  C1' N4B d   1       5.546  -2.127  -4.944  0.00  0.00     0.057 C 
BRANCH   7   8
ATOM      8  C2' N4B d   1       4.609  -2.712  -5.997  0.00  0.00     0.009 C 
BRANCH   8   9
ATOM      9  C3' N4B d   1       4.610  -4.230  -5.978  0.00  0.00     0.004 C 
ATOM     10  C4' N4B d   1       5.993  -4.810  -5.975  0.00  0.00     0.003 C 
ENDBRANCH   8   9
ENDBRANCH   7   8
ENDBRANCH   1   7
TORSDOF 3
ENDMDL
