MODEL 1
REMARK minimizedAffinity 6.46113396
REMARK minimizedRMSD -1
REMARK  0 active torsions:
REMARK  status: ('A' for Active; 'I' for Inactive)
ROOT
ATOM      1  C   UNL d   1      -0.756  -1.565  -1.583  0.00  0.00     0.077 C 
ATOM      2  C1  UNL d   1      -0.772  -1.493  -3.081  0.00  0.00    -0.074 A 
ATOM      3  C2  UNL d   1      -0.227  -0.395  -3.754  0.00  0.00    -0.005 A 
ATOM      4  C3  UNL d   1      -0.241  -0.347  -5.148  0.00  0.00     0.006 A 
ATOM      5  C4  UNL d   1      -0.799  -1.394  -5.882  0.00  0.00    -0.005 A 
ATOM      6  C5  UNL d   1      -1.349  -2.500  -5.226  0.00  0.00    -0.074 A 
ATOM      7  C6  UNL d   1      -1.944  -3.639  -6.000  0.00  0.00     0.077 C 
ATOM      8  C7  UNL d   1      -1.325  -2.545  -3.825  0.00  0.00    -0.001 A 
ENDROOT
TORSDOF 0
ENDMDL
