MODEL 1
REMARK minimizedAffinity 6.98126364
REMARK minimizedRMSD -1
REMARK  0 active torsions:
REMARK  status: ('A' for Active; 'I' for Inactive)
ROOT
ATOM      1  C   UNL d   1      -2.001  -4.873  -5.324  0.00  0.00     0.077 C 
ATOM      2  C1  UNL d   1      -1.571  -3.921  -4.248  0.00  0.00    -0.074 A 
ATOM      3  C2  UNL d   1      -1.776  -4.222  -2.898  0.00  0.00    -0.005 A 
ATOM      4  C3  UNL d   1      -1.362  -3.330  -1.908  0.00  0.00     0.006 A 
ATOM      5  C4  UNL d   1      -0.741  -2.131  -2.258  0.00  0.00    -0.005 A 
ATOM      6  C5  UNL d   1      -0.528  -1.813  -3.603  0.00  0.00    -0.074 A 
ATOM      7  C6  UNL d   1       0.147  -0.532  -3.996  0.00  0.00     0.077 C 
ATOM      8  C7  UNL d   1      -0.940  -2.717  -4.591  0.00  0.00    -0.001 A 
ENDROOT
TORSDOF 0
ENDMDL
