MODEL 1
REMARK minimizedAffinity 10.6578569
REMARK minimizedRMSD -1
REMARK  0 active torsions:
REMARK  status: ('A' for Active; 'I' for Inactive)
ROOT
ATOM      1  C   UNL d   1      -1.512  -4.383  -6.000  0.00  0.00     0.077 C 
ATOM      2  C1  UNL d   1      -1.144  -3.231  -5.112  0.00  0.00    -0.074 A 
ATOM      3  C2  UNL d   1      -1.530  -3.207  -3.768  0.00  0.00    -0.005 A 
ATOM      4  C3  UNL d   1      -1.173  -2.133  -2.953  0.00  0.00     0.006 A 
ATOM      5  C4  UNL d   1      -0.427  -1.074  -3.473  0.00  0.00    -0.005 A 
ATOM      6  C5  UNL d   1      -0.031  -1.082  -4.814  0.00  0.00    -0.074 A 
ATOM      7  C6  UNL d   1       0.779   0.044  -5.386  0.00  0.00     0.077 C 
ATOM      8  C7  UNL d   1      -0.388  -2.167  -5.625  0.00  0.00    -0.001 A 
ENDROOT
TORSDOF 0
ENDMDL
