MODEL 1
REMARK minimizedAffinity 8.2499361
REMARK minimizedRMSD -1
REMARK  0 active torsions:
REMARK  status: ('A' for Active; 'I' for Inactive)
ROOT
ATOM      1  C   UNL d   1       1.055  -0.799   3.056  0.00  0.00     0.077 C 
ATOM      2  C1  UNL d   1      -0.004   0.180   2.644  0.00  0.00    -0.074 A 
ATOM      3  C2  UNL d   1      -1.344  -0.209   2.548  0.00  0.00    -0.005 A 
ATOM      4  C3  UNL d   1      -2.319   0.715   2.172  0.00  0.00     0.006 A 
ATOM      5  C4  UNL d   1      -1.965   2.034   1.888  0.00  0.00    -0.005 A 
ATOM      6  C5  UNL d   1      -0.630   2.441   1.979  0.00  0.00    -0.074 A 
ATOM      7  C6  UNL d   1      -0.234   3.858   1.687  0.00  0.00     0.077 C 
ATOM      8  C7  UNL d   1       0.343   1.509   2.364  0.00  0.00    -0.001 A 
ENDROOT
TORSDOF 0
ENDMDL
