MODEL 1
REMARK minimizedAffinity 12.0234509
REMARK minimizedRMSD -1
REMARK  0 active torsions:
REMARK  status: ('A' for Active; 'I' for Inactive)
ROOT
ATOM      1  C   UNL d   1       3.514   1.104   3.129  0.00  0.00     0.077 C 
ATOM      2  C1  UNL d   1       2.358   0.149   3.091  0.00  0.00    -0.074 A 
ATOM      3  C2  UNL d   1       2.492  -1.161   3.561  0.00  0.00    -0.005 A 
ATOM      4  C3  UNL d   1       1.405  -2.035   3.528  0.00  0.00     0.006 A 
ATOM      5  C4  UNL d   1       0.175  -1.608   3.025  0.00  0.00    -0.005 A 
ATOM      6  C5  UNL d   1       0.022  -0.302   2.552  0.00  0.00    -0.074 A 
ATOM      7  C6  UNL d   1      -1.295   0.176   2.017  0.00  0.00     0.077 C 
ATOM      8  C7  UNL d   1       1.117   0.573   2.595  0.00  0.00    -0.001 A 
ENDROOT
TORSDOF 0
ENDMDL
