MODEL 1
REMARK minimizedAffinity 13.5446339
REMARK minimizedRMSD -1
REMARK  0 active torsions:
REMARK  status: ('A' for Active; 'I' for Inactive)
ROOT
ATOM      1  C   UNL d   1       6.000  -6.000   5.254  0.00  0.00     0.077 C 
ATOM      2  C1  UNL d   1       5.283  -4.686   5.157  0.00  0.00    -0.074 A 
ATOM      3  C2  UNL d   1       5.947  -3.484   5.426  0.00  0.00    -0.005 A 
ATOM      4  C3  UNL d   1       5.270  -2.269   5.323  0.00  0.00     0.006 A 
ATOM      5  C4  UNL d   1       3.926  -2.243   4.951  0.00  0.00    -0.005 A 
ATOM      6  C5  UNL d   1       3.246  -3.434   4.677  0.00  0.00    -0.074 A 
ATOM      7  C6  UNL d   1       1.804  -3.423   4.266  0.00  0.00     0.077 C 
ATOM      8  C7  UNL d   1       3.935  -4.651   4.776  0.00  0.00    -0.001 A 
ENDROOT
TORSDOF 0
ENDMDL
