MODEL 1
REMARK minimizedAffinity 6.47328281
REMARK minimizedRMSD -1
REMARK  0 active torsions:
REMARK  status: ('A' for Active; 'I' for Inactive)
ROOT
ATOM      1  C   UNL d   1       5.646  -5.999   5.631  0.00  0.00     0.077 C 
ATOM      2  C1  UNL d   1       5.142  -4.632   5.276  0.00  0.00    -0.074 A 
ATOM      3  C2  UNL d   1       6.000  -3.528   5.272  0.00  0.00    -0.005 A 
ATOM      4  C3  UNL d   1       5.518  -2.264   4.930  0.00  0.00     0.006 A 
ATOM      5  C4  UNL d   1       4.176  -2.092   4.590  0.00  0.00    -0.005 A 
ATOM      6  C5  UNL d   1       3.303  -3.185   4.588  0.00  0.00    -0.074 A 
ATOM      7  C6  UNL d   1       1.860  -3.020   4.215  0.00  0.00     0.077 C 
ATOM      8  C7  UNL d   1       3.796  -4.453   4.925  0.00  0.00    -0.001 A 
ENDROOT
TORSDOF 0
ENDMDL
