MODEL 1
REMARK minimizedAffinity 5.4377389
REMARK minimizedRMSD -1
REMARK  0 active torsions:
REMARK  status: ('A' for Active; 'I' for Inactive)
ROOT
ATOM      1  C   UNL d   1       5.618  -1.981   5.362  0.00  0.00     0.077 C 
ATOM      2  C1  UNL d   1       4.259  -2.584   5.170  0.00  0.00    -0.074 A 
ATOM      3  C2  UNL d   1       3.807  -3.616   5.999  0.00  0.00    -0.005 A 
ATOM      4  C3  UNL d   1       2.536  -4.161   5.814  0.00  0.00     0.006 A 
ATOM      5  C4  UNL d   1       1.707  -3.681   4.800  0.00  0.00    -0.005 A 
ATOM      6  C5  UNL d   1       2.141  -2.650   3.962  0.00  0.00    -0.074 A 
ATOM      7  C6  UNL d   1       1.259  -2.116   2.873  0.00  0.00     0.077 C 
ATOM      8  C7  UNL d   1       3.417  -2.102   4.158  0.00  0.00    -0.001 A 
ENDROOT
TORSDOF 0
ENDMDL
