MODEL 1
REMARK minimizedAffinity 10.74722
REMARK minimizedRMSD -1
REMARK  0 active torsions:
REMARK  status: ('A' for Active; 'I' for Inactive)
ROOT
ATOM      1  C   UNL d   1       4.580   0.571   2.280  0.00  0.00     0.078 C 
ATOM      2  C1  UNL d   1       3.180   0.063   2.458  0.00  0.00    -0.077 A 
ATOM      3  C2  UNL d   1       2.423   0.414   3.583  0.00  0.00    -0.001 A 
ATOM      4  C3  UNL d   1       1.126  -0.074   3.741  0.00  0.00     0.003 A 
ATOM      5  C4  UNL d   1       0.573  -0.918   2.779  0.00  0.00    -0.005 A 
ATOM      6  C5  UNL d   1       1.320  -1.274   1.658  0.00  0.00     0.003 A 
ATOM      7  C6  UNL d   1       2.618  -0.787   1.498  0.00  0.00    -0.001 A 
ENDROOT
TORSDOF 0
ENDMDL
