MODEL 1
REMARK minimizedAffinity 11.5131369
REMARK minimizedRMSD -1
REMARK  0 active torsions:
REMARK  status: ('A' for Active; 'I' for Inactive)
ROOT
ATOM      1  C   UNL d   1       0.369   3.587  -0.036  0.00  0.00     0.078 C 
ATOM      2  C1  UNL d   1      -0.686   3.344  -1.074  0.00  0.00    -0.077 A 
ATOM      3  C2  UNL d   1      -0.462   2.460  -2.137  0.00  0.00    -0.001 A 
ATOM      4  C3  UNL d   1      -1.449   2.252  -3.102  0.00  0.00     0.003 A 
ATOM      5  C4  UNL d   1      -2.666   2.924  -3.014  0.00  0.00    -0.005 A 
ATOM      6  C5  UNL d   1      -2.897   3.807  -1.961  0.00  0.00     0.003 A 
ATOM      7  C6  UNL d   1      -1.912   4.017  -0.996  0.00  0.00    -0.001 A 
ENDROOT
TORSDOF 0
ENDMDL
