MODEL 1
REMARK minimizedAffinity 13.081315
REMARK minimizedRMSD -1
REMARK  0 active torsions:
REMARK  status: ('A' for Active; 'I' for Inactive)
ROOT
ATOM      1  C   UNL d   1       0.717   3.262  -0.862  0.00  0.00     0.078 C 
ATOM      2  C1  UNL d   1      -0.493   2.876  -1.659  0.00  0.00    -0.077 A 
ATOM      3  C2  UNL d   1      -0.907   3.639  -2.757  0.00  0.00    -0.001 A 
ATOM      4  C3  UNL d   1      -2.041   3.273  -3.484  0.00  0.00     0.003 A 
ATOM      5  C4  UNL d   1      -2.771   2.143  -3.120  0.00  0.00    -0.005 A 
ATOM      6  C5  UNL d   1      -2.368   1.379  -2.027  0.00  0.00     0.003 A 
ATOM      7  C6  UNL d   1      -1.234   1.743  -1.299  0.00  0.00    -0.001 A 
ENDROOT
TORSDOF 0
ENDMDL
