MODEL 1
REMARK minimizedAffinity 8.97821617
REMARK minimizedRMSD -1
REMARK  0 active torsions:
REMARK  status: ('A' for Active; 'I' for Inactive)
ROOT
ATOM      1  C   UNL d   1      -0.003  -0.144   3.345  0.00  0.00     0.078 C 
ATOM      2  C1  UNL d   1       1.250  -0.490   2.598  0.00  0.00    -0.077 A 
ATOM      3  C2  UNL d   1       2.360   0.365   2.616  0.00  0.00    -0.001 A 
ATOM      4  C3  UNL d   1       3.516   0.035   1.908  0.00  0.00     0.003 A 
ATOM      5  C4  UNL d   1       3.575  -1.149   1.176  0.00  0.00    -0.005 A 
ATOM      6  C5  UNL d   1       2.475  -2.005   1.150  0.00  0.00     0.003 A 
ATOM      7  C6  UNL d   1       1.317  -1.676   1.857  0.00  0.00    -0.001 A 
ENDROOT
TORSDOF 0
ENDMDL
