MODEL 1
REMARK minimizedAffinity 8.02422714
REMARK minimizedRMSD -1
REMARK  0 active torsions:
REMARK  status: ('A' for Active; 'I' for Inactive)
ROOT
ATOM      1  C   UNL d   1      -0.010  -0.395   4.712  0.00  0.00     0.078 C 
ATOM      2  C1  UNL d   1      -0.448  -1.375   3.665  0.00  0.00    -0.077 A 
ATOM      3  C2  UNL d   1      -1.711  -1.978   3.724  0.00  0.00    -0.001 A 
ATOM      4  C3  UNL d   1      -2.102  -2.896   2.748  0.00  0.00     0.003 A 
ATOM      5  C4  UNL d   1      -1.235  -3.220   1.706  0.00  0.00    -0.005 A 
ATOM      6  C5  UNL d   1       0.024  -2.628   1.640  0.00  0.00     0.003 A 
ATOM      7  C6  UNL d   1       0.416  -1.710   2.615  0.00  0.00    -0.001 A 
ENDROOT
TORSDOF 0
ENDMDL
