MODEL 1
REMARK minimizedAffinity 14.1756907
REMARK minimizedRMSD -1
REMARK  0 active torsions:
REMARK  status: ('A' for Active; 'I' for Inactive)
ROOT
ATOM      1  C   UNL d   1      -1.867   2.397  -2.625  0.00  0.00     0.078 C 
ATOM      2  C1  UNL d   1      -1.870   3.579  -3.547  0.00  0.00    -0.077 A 
ATOM      3  C2  UNL d   1      -1.871   3.410  -4.937  0.00  0.00    -0.001 A 
ATOM      4  C3  UNL d   1      -1.864   4.520  -5.783  0.00  0.00     0.003 A 
ATOM      5  C4  UNL d   1      -1.854   5.807  -5.249  0.00  0.00    -0.005 A 
ATOM      6  C5  UNL d   1      -1.851   5.985  -3.867  0.00  0.00     0.003 A 
ATOM      7  C6  UNL d   1      -1.858   4.877  -3.019  0.00  0.00    -0.001 A 
ENDROOT
TORSDOF 0
ENDMDL
