MODEL 1
REMARK minimizedAffinity 3.13090611
REMARK minimizedRMSD -1
REMARK  0 active torsions:
REMARK  status: ('A' for Active; 'I' for Inactive)
ROOT
ATOM      1  C   UNL d   1      -5.150  -5.313  -0.774  0.00  0.00     0.078 C 
ATOM      2  C1  UNL d   1      -4.715  -4.500   0.409  0.00  0.00    -0.077 A 
ATOM      3  C2  UNL d   1      -3.399  -4.564   0.884  0.00  0.00    -0.001 A 
ATOM      4  C3  UNL d   1      -3.011  -3.809   1.992  0.00  0.00     0.003 A 
ATOM      5  C4  UNL d   1      -3.933  -2.986   2.635  0.00  0.00    -0.005 A 
ATOM      6  C5  UNL d   1      -5.245  -2.918   2.171  0.00  0.00     0.003 A 
ATOM      7  C6  UNL d   1      -5.635  -3.672   1.064  0.00  0.00    -0.001 A 
ENDROOT
TORSDOF 0
ENDMDL
