MODEL 1
REMARK minimizedAffinity 3.42513728
REMARK minimizedRMSD -1
REMARK  0 active torsions:
REMARK  status: ('A' for Active; 'I' for Inactive)
ROOT
ATOM      1  C   UNL d   1      -4.496  -5.994  -0.379  0.00  0.00     0.078 C 
ATOM      2  C1  UNL d   1      -4.111  -5.034   0.706  0.00  0.00    -0.077 A 
ATOM      3  C2  UNL d   1      -4.884  -3.895   0.968  0.00  0.00    -0.001 A 
ATOM      4  C3  UNL d   1      -4.508  -3.005   1.975  0.00  0.00     0.003 A 
ATOM      5  C4  UNL d   1      -3.359  -3.242   2.726  0.00  0.00    -0.005 A 
ATOM      6  C5  UNL d   1      -2.583  -4.371   2.471  0.00  0.00     0.003 A 
ATOM      7  C6  UNL d   1      -2.957  -5.263   1.464  0.00  0.00    -0.001 A 
ENDROOT
TORSDOF 0
ENDMDL
