MODEL 1
REMARK minimizedAffinity 13.1463947
REMARK minimizedRMSD -1
REMARK  0 active torsions:
REMARK  status: ('A' for Active; 'I' for Inactive)
ROOT
ATOM      1  C   UNL d   1      -3.693   2.845  -1.462  0.00  0.00     0.078 C 
ATOM      2  C1  UNL d   1      -2.221   2.805  -1.177  0.00  0.00    -0.077 A 
ATOM      3  C2  UNL d   1      -1.726   3.091   0.101  0.00  0.00    -0.001 A 
ATOM      4  C3  UNL d   1      -0.353   3.059   0.350  0.00  0.00     0.003 A 
ATOM      5  C4  UNL d   1       0.537   2.743  -0.675  0.00  0.00    -0.005 A 
ATOM      6  C5  UNL d   1       0.054   2.458  -1.950  0.00  0.00     0.003 A 
ATOM      7  C6  UNL d   1      -1.319   2.489  -2.201  0.00  0.00    -0.001 A 
ENDROOT
TORSDOF 0
ENDMDL
