MODEL 1
REMARK minimizedAffinity 12.1821032
REMARK minimizedRMSD -1
REMARK  0 active torsions:
REMARK  status: ('A' for Active; 'I' for Inactive)
ROOT
ATOM      1  C   UNL d   1       2.870  -0.379   1.877  0.00  0.00     0.078 C 
ATOM      2  C1  UNL d   1       1.613  -0.397   2.695  0.00  0.00    -0.077 A 
ATOM      3  C2  UNL d   1       0.388  -0.768   2.127  0.00  0.00    -0.001 A 
ATOM      4  C3  UNL d   1      -0.775  -0.771   2.898  0.00  0.00     0.003 A 
ATOM      5  C4  UNL d   1      -0.725  -0.401   4.241  0.00  0.00    -0.005 A 
ATOM      6  C5  UNL d   1       0.488  -0.027   4.814  0.00  0.00     0.003 A 
ATOM      7  C6  UNL d   1       1.653  -0.024   4.044  0.00  0.00    -0.001 A 
ENDROOT
TORSDOF 0
ENDMDL
