MODEL 1
REMARK minimizedAffinity 0.813950658
REMARK minimizedRMSD -1
REMARK  0 active torsions:
REMARK  status: ('A' for Active; 'I' for Inactive)
ROOT
ATOM      1  C   UNL d   1      -2.619  -3.235   2.647  0.00  0.00     0.078 C 
ATOM      2  C1  UNL d   1      -1.595  -2.254   3.134  0.00  0.00    -0.077 A 
ATOM      3  C2  UNL d   1      -0.480  -1.928   2.352  0.00  0.00    -0.001 A 
ATOM      4  C3  UNL d   1       0.471  -1.020   2.822  0.00  0.00     0.003 A 
ATOM      5  C4  UNL d   1       0.317  -0.432   4.075  0.00  0.00    -0.005 A 
ATOM      6  C5  UNL d   1      -0.788  -0.752   4.862  0.00  0.00     0.003 A 
ATOM      7  C6  UNL d   1      -1.740  -1.659   4.394  0.00  0.00    -0.001 A 
ENDROOT
TORSDOF 0
ENDMDL
