MODEL 1
REMARK minimizedAffinity 17.3274517
REMARK minimizedRMSD -1
REMARK  0 active torsions:
REMARK  status: ('A' for Active; 'I' for Inactive)
ROOT
ATOM      1  C   UNL d   1      -0.140  -0.147   5.322  0.00  0.00     0.078 C 
ATOM      2  C1  UNL d   1       0.081  -0.736   3.961  0.00  0.00    -0.077 A 
ATOM      3  C2  UNL d   1       1.169  -0.342   3.173  0.00  0.00    -0.001 A 
ATOM      4  C3  UNL d   1       1.357  -0.891   1.904  0.00  0.00     0.003 A 
ATOM      5  C4  UNL d   1       0.461  -1.838   1.411  0.00  0.00    -0.005 A 
ATOM      6  C5  UNL d   1      -0.626  -2.235   2.188  0.00  0.00     0.003 A 
ATOM      7  C6  UNL d   1      -0.816  -1.687   3.457  0.00  0.00    -0.001 A 
ENDROOT
TORSDOF 0
ENDMDL
