MODEL 1
REMARK minimizedAffinity 7.52175713
REMARK minimizedRMSD -1
REMARK  0 active torsions:
REMARK  status: ('A' for Active; 'I' for Inactive)
ROOT
ATOM      1  C   UNL d   1      -3.120   2.070  -2.261  0.00  0.00     0.078 C 
ATOM      2  C1  UNL d   1      -1.736   2.417  -1.800  0.00  0.00    -0.077 A 
ATOM      3  C2  UNL d   1      -0.751   2.815  -2.713  0.00  0.00    -0.001 A 
ATOM      4  C3  UNL d   1       0.536   3.126  -2.271  0.00  0.00     0.003 A 
ATOM      5  C4  UNL d   1       0.850   3.040  -0.916  0.00  0.00    -0.005 A 
ATOM      6  C5  UNL d   1      -0.123   2.643  -0.001  0.00  0.00     0.003 A 
ATOM      7  C6  UNL d   1      -1.410   2.332  -0.441  0.00  0.00    -0.001 A 
ENDROOT
TORSDOF 0
ENDMDL
