MODEL 1
REMARK minimizedAffinity -3.27622128
REMARK minimizedRMSD -1
REMARK  1 active torsions:
REMARK  status: ('A' for Active; 'I' for Inactive)
REMARK    1  A    between atoms: C1_2  and  C2_3 
ROOT
ATOM      1  C2  UNL d   1       1.770  -2.316  -1.709  0.00  0.00    -0.077 A 
ATOM      2  C3  UNL d   1       0.831  -2.223  -0.671  0.00  0.00     0.002 A 
ATOM      3  C4  UNL d   1       0.893  -1.170   0.244  0.00  0.00     0.002 A 
ATOM      4  C5  UNL d   1       1.888  -0.202   0.129  0.00  0.00    -0.004 A 
ATOM      5  C6  UNL d   1       2.827  -0.287  -0.899  0.00  0.00     0.002 A 
ATOM      6  C7  UNL d   1       2.767  -1.338  -1.814  0.00  0.00     0.002 A 
ENDROOT
BRANCH   1   7
ATOM      7  C1  UNL d   1       1.675  -3.423  -2.727  0.00  0.00     0.055 C 
ATOM      8  C   UNL d   1       1.320  -2.880  -4.103  0.00  0.00     0.019 C 
ENDBRANCH   1   7
TORSDOF 1
ENDMDL
