MODEL 1
REMARK minimizedAffinity -4.95919895
REMARK minimizedRMSD -1
REMARK  1 active torsions:
REMARK  status: ('A' for Active; 'I' for Inactive)
REMARK    1  A    between atoms: C1_2  and  C2_3 
ROOT
ATOM      1  C2  UNL d   1       0.174  -0.173  -0.125  0.00  0.00    -0.077 A 
ATOM      2  C3  UNL d   1       0.849   0.991  -0.519  0.00  0.00     0.002 A 
ATOM      3  C4  UNL d   1       2.037   0.906  -1.248  0.00  0.00     0.002 A 
ATOM      4  C5  UNL d   1       2.557  -0.339  -1.593  0.00  0.00    -0.004 A 
ATOM      5  C6  UNL d   1       1.894  -1.503  -1.204  0.00  0.00     0.002 A 
ATOM      6  C7  UNL d   1       0.707  -1.420  -0.475  0.00  0.00     0.002 A 
ENDROOT
BRANCH   1   7
ATOM      7  C1  UNL d   1      -1.133  -0.083   0.618  0.00  0.00     0.055 C 
ATOM      8  C   UNL d   1      -0.959   0.612   1.962  0.00  0.00     0.019 C 
ENDBRANCH   1   7
TORSDOF 1
ENDMDL
