MODEL 1
REMARK minimizedAffinity -2.58042336
REMARK minimizedRMSD -1
REMARK  1 active torsions:
REMARK  status: ('A' for Active; 'I' for Inactive)
REMARK    1  A    between atoms: C1_2  and  C2_3 
ROOT
ATOM      1  C2  UNL d   1       0.018   0.060   1.273  0.00  0.00    -0.077 A 
ATOM      2  C3  UNL d   1      -0.442  -0.014  -0.050  0.00  0.00     0.002 A 
ATOM      3  C4  UNL d   1       0.048  -0.994  -0.914  0.00  0.00     0.002 A 
ATOM      4  C5  UNL d   1       0.997  -1.910  -0.465  0.00  0.00    -0.004 A 
ATOM      5  C6  UNL d   1       1.462  -1.844   0.847  0.00  0.00     0.002 A 
ATOM      6  C7  UNL d   1       0.974  -0.864   1.713  0.00  0.00     0.002 A 
ENDROOT
BRANCH   1   7
ATOM      7  C1  UNL d   1      -0.546   1.085   2.221  0.00  0.00     0.055 C 
ATOM      8  C   UNL d   1      -0.963   0.450   3.540  0.00  0.00     0.019 C 
ENDBRANCH   1   7
TORSDOF 1
ENDMDL
