MODEL 1
REMARK minimizedAffinity -2.54423857
REMARK minimizedRMSD -1
REMARK  1 active torsions:
REMARK  status: ('A' for Active; 'I' for Inactive)
REMARK    1  A    between atoms: C1_2  and  C2_3 
ROOT
ATOM      1  C2  UNL d   1      -1.184   0.475   1.420  0.00  0.00    -0.077 A 
ATOM      2  C3  UNL d   1      -2.412  -0.092   1.787  0.00  0.00     0.002 A 
ATOM      3  C4  UNL d   1      -2.989   0.210   3.023  0.00  0.00     0.002 A 
ATOM      4  C5  UNL d   1      -2.346   1.083   3.898  0.00  0.00    -0.004 A 
ATOM      5  C6  UNL d   1      -1.123   1.650   3.543  0.00  0.00     0.002 A 
ATOM      6  C7  UNL d   1      -0.545   1.349   2.309  0.00  0.00     0.002 A 
ENDROOT
BRANCH   1   7
ATOM      7  C1  UNL d   1      -0.585   0.189   0.068  0.00  0.00     0.055 C 
ATOM      8  C   UNL d   1      -0.628   1.419  -0.828  0.00  0.00     0.019 C 
ENDBRANCH   1   7
TORSDOF 1
ENDMDL
