MODEL 1
REMARK minimizedAffinity -2.42955971
REMARK minimizedRMSD -1
REMARK  1 active torsions:
REMARK  status: ('A' for Active; 'I' for Inactive)
REMARK    1  A    between atoms: C1_2  and  C2_3 
ROOT
ATOM      1  C2  UNL d   1       0.995   0.302  -0.342  0.00  0.00    -0.077 A 
ATOM      2  C3  UNL d   1       2.168   0.198  -1.103  0.00  0.00     0.002 A 
ATOM      3  C4  UNL d   1       2.654  -1.054  -1.486  0.00  0.00     0.002 A 
ATOM      4  C5  UNL d   1       1.971  -2.211  -1.115  0.00  0.00    -0.004 A 
ATOM      5  C6  UNL d   1       0.805  -2.118  -0.357  0.00  0.00     0.002 A 
ATOM      6  C7  UNL d   1       0.319  -0.868   0.027  0.00  0.00     0.002 A 
ENDROOT
BRANCH   1   7
ATOM      7  C1  UNL d   1       0.443   1.653   0.029  0.00  0.00     0.055 C 
ATOM      8  C   UNL d   1      -0.591   2.125  -0.982  0.00  0.00     0.019 C 
ENDBRANCH   1   7
TORSDOF 1
ENDMDL
