MODEL 1
REMARK minimizedAffinity -2.92752433
REMARK minimizedRMSD -1
REMARK  1 active torsions:
REMARK  status: ('A' for Active; 'I' for Inactive)
REMARK    1  A    between atoms: C1_2  and  C2_3 
ROOT
ATOM      1  C2  UNL d   1      -1.754  -1.806  -0.219  0.00  0.00    -0.077 A 
ATOM      2  C3  UNL d   1      -2.021  -0.447  -0.006  0.00  0.00     0.002 A 
ATOM      3  C4  UNL d   1      -0.987   0.434   0.318  0.00  0.00     0.002 A 
ATOM      4  C5  UNL d   1       0.321  -0.034   0.427  0.00  0.00    -0.004 A 
ATOM      5  C6  UNL d   1       0.596  -1.384   0.219  0.00  0.00     0.002 A 
ATOM      6  C7  UNL d   1      -0.436  -2.267  -0.104  0.00  0.00     0.002 A 
ENDROOT
BRANCH   1   7
ATOM      7  C1  UNL d   1      -2.860  -2.749  -0.616  0.00  0.00     0.055 C 
ATOM      8  C   UNL d   1      -2.552  -4.176  -0.186  0.00  0.00     0.019 C 
ENDBRANCH   1   7
TORSDOF 1
ENDMDL
