MODEL 1
REMARK minimizedAffinity 0.240340516
REMARK minimizedRMSD -1
REMARK  1 active torsions:
REMARK  status: ('A' for Active; 'I' for Inactive)
REMARK    1  A    between atoms: C1_2  and  C2_3 
ROOT
ATOM      1  C2  UNL d   1      -2.891  -1.349   2.068  0.00  0.00    -0.077 A 
ATOM      2  C3  UNL d   1      -3.278  -2.030   3.231  0.00  0.00     0.002 A 
ATOM      3  C4  UNL d   1      -2.793  -1.630   4.478  0.00  0.00     0.002 A 
ATOM      4  C5  UNL d   1      -1.923  -0.546   4.573  0.00  0.00    -0.004 A 
ATOM      5  C6  UNL d   1      -1.531   0.136   3.422  0.00  0.00     0.002 A 
ATOM      6  C7  UNL d   1      -2.013  -0.263   2.175  0.00  0.00     0.002 A 
ENDROOT
BRANCH   1   7
ATOM      7  C1  UNL d   1      -3.451  -1.748   0.728  0.00  0.00     0.055 C 
ATOM      8  C   UNL d   1      -2.380  -1.713  -0.353  0.00  0.00     0.019 C 
ENDBRANCH   1   7
TORSDOF 1
ENDMDL
