MODEL 1
REMARK minimizedAffinity -0.0724570975
REMARK minimizedRMSD -1
REMARK  1 active torsions:
REMARK  status: ('A' for Active; 'I' for Inactive)
REMARK    1  A    between atoms: C1_2  and  C2_3 
ROOT
ATOM      1  C2  UNL d   1       4.552   3.086   4.108  0.00  0.00    -0.077 A 
ATOM      2  C3  UNL d   1       3.993   3.731   2.996  0.00  0.00     0.002 A 
ATOM      3  C4  UNL d   1       4.435   5.002   2.620  0.00  0.00     0.002 A 
ATOM      4  C5  UNL d   1       5.438   5.636   3.349  0.00  0.00    -0.004 A 
ATOM      5  C6  UNL d   1       5.999   5.003   4.458  0.00  0.00     0.002 A 
ATOM      6  C7  UNL d   1       5.558   3.734   4.836  0.00  0.00     0.002 A 
ENDROOT
BRANCH   1   7
ATOM      7  C1  UNL d   1       4.112   1.695   4.485  0.00  0.00     0.055 C 
ATOM      8  C   UNL d   1       5.111   1.034   5.424  0.00  0.00     0.019 C 
ENDBRANCH   1   7
TORSDOF 1
ENDMDL
