MODEL 1
REMARK minimizedAffinity -1.58350241
REMARK minimizedRMSD -1
REMARK  1 active torsions:
REMARK  status: ('A' for Active; 'I' for Inactive)
REMARK    1  A    between atoms: C1_2  and  C2_3 
ROOT
ATOM      1  C2  UNL d   1       5.260   3.546   2.852  0.00  0.00    -0.077 A 
ATOM      2  C3  UNL d   1       4.965   4.905   3.026  0.00  0.00     0.002 A 
ATOM      3  C4  UNL d   1       4.335   5.627   2.010  0.00  0.00     0.002 A 
ATOM      4  C5  UNL d   1       3.991   4.997   0.816  0.00  0.00    -0.004 A 
ATOM      5  C6  UNL d   1       4.281   3.646   0.633  0.00  0.00     0.002 A 
ATOM      6  C7  UNL d   1       4.912   2.923   1.647  0.00  0.00     0.002 A 
ENDROOT
BRANCH   1   7
ATOM      7  C1  UNL d   1       5.895   2.754   3.965  0.00  0.00     0.055 C 
ATOM      8  C   UNL d   1       5.135   1.461   4.228  0.00  0.00     0.019 C 
ENDBRANCH   1   7
TORSDOF 1
ENDMDL
