MODEL 1
REMARK minimizedAffinity -1.50203454
REMARK minimizedRMSD -1
REMARK  1 active torsions:
REMARK  status: ('A' for Active; 'I' for Inactive)
REMARK    1  A    between atoms: C1_2  and  C2_3 
ROOT
ATOM      1  C2  UNL d   1       5.716  -1.020   4.520  0.00  0.00    -0.077 A 
ATOM      2  C3  UNL d   1       5.414  -0.154   3.459  0.00  0.00     0.002 A 
ATOM      3  C4  UNL d   1       5.369   1.226   3.665  0.00  0.00     0.002 A 
ATOM      4  C5  UNL d   1       5.627   1.753   4.929  0.00  0.00    -0.004 A 
ATOM      5  C6  UNL d   1       5.926   0.900   5.991  0.00  0.00     0.002 A 
ATOM      6  C7  UNL d   1       5.971  -0.480   5.787  0.00  0.00     0.002 A 
ENDROOT
BRANCH   1   7
ATOM      7  C1  UNL d   1       5.814  -2.505   4.289  0.00  0.00     0.055 C 
ATOM      8  C   UNL d   1       6.000  -3.258   5.599  0.00  0.00     0.019 C 
ENDBRANCH   1   7
TORSDOF 1
ENDMDL
