MODEL 1
REMARK minimizedAffinity -5.12126064
REMARK minimizedRMSD -1
REMARK  1 active torsions:
REMARK  status: ('A' for Active; 'I' for Inactive)
REMARK    1  A    between atoms: C1_2  and  C2_3 
ROOT
ATOM      1  C2  UNL d   1       2.734   0.279  -0.968  0.00  0.00    -0.076 A 
ATOM      2  C3  UNL d   1       3.598   1.349  -1.260  0.00  0.00     0.004 A 
ATOM      3  C4  UNL d   1       3.761   2.404  -0.365  0.00  0.00    -0.003 A 
ATOM      4  C5  UNL d   1       3.064   2.407   0.838  0.00  0.00     0.000 A 
ATOM      5  C6  UNL d   1       2.216   1.345   1.153  0.00  0.00     0.000 A 
ATOM      6  C7  UNL d   1       2.053   0.265   0.268  0.00  0.00    -0.073 A 
ATOM      7  C8  UNL d   1       1.122  -0.851   0.656  0.00  0.00     0.078 C 
ENDROOT
BRANCH   1   8
ATOM      8  C1  UNL d   1       2.577  -0.825  -1.989  0.00  0.00     0.053 C 
ATOM      9  C   UNL d   1       2.272  -0.292  -3.381  0.00  0.00     0.018 C 
ENDBRANCH   1   8
TORSDOF 1
ENDMDL
