MODEL 1
REMARK minimizedAffinity -1.62341237
REMARK minimizedRMSD -1
REMARK  1 active torsions:
REMARK  status: ('A' for Active; 'I' for Inactive)
REMARK    1  A    between atoms: C1_2  and  C2_3 
ROOT
ATOM      1  C2  UNL d   1      -1.279  -0.330  -0.846  0.00  0.00    -0.076 A 
ATOM      2  C3  UNL d   1       0.105  -0.117  -0.723  0.00  0.00     0.004 A 
ATOM      3  C4  UNL d   1       0.738  -0.212   0.515  0.00  0.00    -0.003 A 
ATOM      4  C5  UNL d   1      -0.002  -0.521   1.650  0.00  0.00     0.000 A 
ATOM      5  C6  UNL d   1      -1.373  -0.752   1.544  0.00  0.00     0.000 A 
ATOM      6  C7  UNL d   1      -2.025  -0.676   0.301  0.00  0.00    -0.073 A 
ATOM      7  C8  UNL d   1      -3.506  -0.929   0.246  0.00  0.00     0.078 C 
ENDROOT
BRANCH   1   8
ATOM      8  C1  UNL d   1      -1.916  -0.187  -2.210  0.00  0.00     0.053 C 
ATOM      9  C   UNL d   1      -2.374  -1.520  -2.781  0.00  0.00     0.018 C 
ENDBRANCH   1   8
TORSDOF 1
ENDMDL
