MODEL 1
REMARK minimizedAffinity -4.3659687
REMARK minimizedRMSD -1
REMARK  1 active torsions:
REMARK  status: ('A' for Active; 'I' for Inactive)
REMARK    1  A    between atoms: C1_2  and  C2_3 
ROOT
ATOM      1  C2  UNL d   1       2.981   1.407   2.706  0.00  0.00    -0.076 A 
ATOM      2  C3  UNL d   1       3.105   2.801   2.573  0.00  0.00     0.004 A 
ATOM      3  C4  UNL d   1       2.520   3.475   1.502  0.00  0.00    -0.003 A 
ATOM      4  C5  UNL d   1       1.800   2.765   0.547  0.00  0.00     0.000 A 
ATOM      5  C6  UNL d   1       1.652   1.385   0.672  0.00  0.00     0.000 A 
ATOM      6  C7  UNL d   1       2.222   0.692   1.754  0.00  0.00    -0.073 A 
ATOM      7  C8  UNL d   1       2.036  -0.798   1.837  0.00  0.00     0.078 C 
ENDROOT
BRANCH   1   8
ATOM      8  C1  UNL d   1       3.660   0.728   3.873  0.00  0.00     0.053 C 
ATOM      9  C   UNL d   1       5.080   1.225   4.091  0.00  0.00     0.018 C 
ENDBRANCH   1   8
TORSDOF 1
ENDMDL
