MODEL 1
REMARK minimizedAffinity -0.587213516
REMARK minimizedRMSD -1
REMARK  1 active torsions:
REMARK  status: ('A' for Active; 'I' for Inactive)
REMARK    1  A    between atoms: C1_2  and  C2_3 
ROOT
ATOM      1  C2  UNL d   1       3.053   2.137   0.690  0.00  0.00    -0.076 A 
ATOM      2  C3  UNL d   1       3.740   1.951  -0.522  0.00  0.00     0.004 A 
ATOM      3  C4  UNL d   1       4.402   3.010  -1.142  0.00  0.00    -0.003 A 
ATOM      4  C5  UNL d   1       4.388   4.272  -0.558  0.00  0.00     0.000 A 
ATOM      5  C6  UNL d   1       3.727   4.471   0.653  0.00  0.00     0.000 A 
ATOM      6  C7  UNL d   1       3.068   3.410   1.299  0.00  0.00    -0.073 A 
ATOM      7  C8  UNL d   1       2.366   3.682   2.601  0.00  0.00     0.078 C 
ENDROOT
BRANCH   1   8
ATOM      8  C1  UNL d   1       2.330   0.958   1.301  0.00  0.00     0.053 C 
ATOM      9  C   UNL d   1       1.311   0.344   0.353  0.00  0.00     0.018 C 
ENDBRANCH   1   8
TORSDOF 1
ENDMDL
