MODEL 1
REMARK minimizedAffinity -3.31090093
REMARK minimizedRMSD -1
REMARK  1 active torsions:
REMARK  status: ('A' for Active; 'I' for Inactive)
REMARK    1  A    between atoms: C1_2  and  C2_3 
ROOT
ATOM      1  C2  UNL d   1       2.782   0.470  -1.092  0.00  0.00    -0.076 A 
ATOM      2  C3  UNL d   1       3.640   1.490  -1.538  0.00  0.00     0.004 A 
ATOM      3  C4  UNL d   1       3.761   2.685  -0.832  0.00  0.00    -0.003 A 
ATOM      4  C5  UNL d   1       3.027   2.880   0.333  0.00  0.00     0.000 A 
ATOM      5  C6  UNL d   1       2.184   1.871   0.800  0.00  0.00     0.000 A 
ATOM      6  C7  UNL d   1       2.062   0.654   0.108  0.00  0.00    -0.073 A 
ATOM      7  C8  UNL d   1       1.134  -0.396   0.653  0.00  0.00     0.078 C 
ENDROOT
BRANCH   1   8
ATOM      8  C1  UNL d   1       2.670  -0.794  -1.915  0.00  0.00     0.053 C 
ATOM      9  C   UNL d   1       2.308  -0.516  -3.365  0.00  0.00     0.018 C 
ENDBRANCH   1   8
TORSDOF 1
ENDMDL
