MODEL 1
REMARK minimizedAffinity -2.51919794
REMARK minimizedRMSD -1
REMARK  1 active torsions:
REMARK  status: ('A' for Active; 'I' for Inactive)
REMARK    1  A    between atoms: C1_2  and  C2_3 
ROOT
ATOM      1  C2  UNL d   1       0.518  -0.282   0.131  0.00  0.00    -0.076 A 
ATOM      2  C3  UNL d   1      -0.632   0.151  -0.552  0.00  0.00     0.004 A 
ATOM      3  C4  UNL d   1      -1.904  -0.242  -0.137  0.00  0.00    -0.003 A 
ATOM      4  C5  UNL d   1      -2.046  -1.073   0.969  0.00  0.00     0.000 A 
ATOM      5  C6  UNL d   1      -0.917  -1.498   1.669  0.00  0.00     0.000 A 
ATOM      6  C7  UNL d   1       0.371  -1.098   1.274  0.00  0.00    -0.073 A 
ATOM      7  C8  UNL d   1       1.554  -1.590   2.062  0.00  0.00     0.078 C 
ENDROOT
BRANCH   1   8
ATOM      8  C1  UNL d   1       1.872   0.154  -0.381  0.00  0.00     0.053 C 
ATOM      9  C   UNL d   1       2.222   1.575   0.034  0.00  0.00     0.018 C 
ENDBRANCH   1   8
TORSDOF 1
ENDMDL
