MODEL 1
REMARK minimizedAffinity -4.84790277
REMARK minimizedRMSD -1
REMARK  1 active torsions:
REMARK  status: ('A' for Active; 'I' for Inactive)
REMARK    1  A    between atoms: C1_2  and  C2_3 
ROOT
ATOM      1  C2  UNL d   1      -0.961  -0.385   0.341  0.00  0.00    -0.076 A 
ATOM      2  C3  UNL d   1      -0.451   0.379  -0.723  0.00  0.00     0.004 A 
ATOM      3  C4  UNL d   1       0.918   0.436  -0.974  0.00  0.00    -0.003 A 
ATOM      4  C5  UNL d   1       1.802  -0.270  -0.165  0.00  0.00     0.000 A 
ATOM      5  C6  UNL d   1       1.313  -1.047   0.884  0.00  0.00     0.000 A 
ATOM      6  C7  UNL d   1      -0.067  -1.129   1.141  0.00  0.00    -0.073 A 
ATOM      7  C8  UNL d   1      -0.538  -1.977   2.290  0.00  0.00     0.078 C 
ENDROOT
BRANCH   1   8
ATOM      8  C1  UNL d   1      -2.453  -0.387   0.582  0.00  0.00     0.053 C 
ATOM      9  C   UNL d   1      -3.218  -1.120  -0.509  0.00  0.00     0.018 C 
ENDBRANCH   1   8
TORSDOF 1
ENDMDL
