MODEL 1
REMARK minimizedAffinity -0.860389352
REMARK minimizedRMSD -1
REMARK  1 active torsions:
REMARK  status: ('A' for Active; 'I' for Inactive)
REMARK    1  A    between atoms: C1_2  and  C2_3 
ROOT
ATOM      1  C2  UNL d   1       1.631   0.402   1.029  0.00  0.00    -0.076 A 
ATOM      2  C3  UNL d   1       1.685   1.218   2.172  0.00  0.00     0.004 A 
ATOM      3  C4  UNL d   1       2.477   2.365   2.198  0.00  0.00    -0.003 A 
ATOM      4  C5  UNL d   1       3.227   2.715   1.081  0.00  0.00     0.000 A 
ATOM      5  C6  UNL d   1       3.172   1.926  -0.068  0.00  0.00     0.000 A 
ATOM      6  C7  UNL d   1       2.366   0.776  -0.117  0.00  0.00    -0.073 A 
ATOM      7  C8  UNL d   1       2.349  -0.040  -1.380  0.00  0.00     0.078 C 
ENDROOT
BRANCH   1   8
ATOM      8  C1  UNL d   1       0.775  -0.844   1.068  0.00  0.00     0.053 C 
ATOM      9  C   UNL d   1      -0.685  -0.539   1.363  0.00  0.00     0.018 C 
ENDBRANCH   1   8
TORSDOF 1
ENDMDL
