MODEL 1
REMARK minimizedAffinity 1.08700538
REMARK minimizedRMSD -1
REMARK  1 active torsions:
REMARK  status: ('A' for Active; 'I' for Inactive)
REMARK    1  A    between atoms: C1_2  and  C2_3 
ROOT
ATOM      1  C2  UNL d   1       0.876   0.334   0.884  0.00  0.00    -0.076 A 
ATOM      2  C3  UNL d   1       1.095  -0.885   1.548  0.00  0.00     0.004 A 
ATOM      3  C4  UNL d   1       0.081  -1.835   1.657  0.00  0.00    -0.003 A 
ATOM      4  C5  UNL d   1      -1.169  -1.581   1.103  0.00  0.00     0.000 A 
ATOM      5  C6  UNL d   1      -1.399  -0.384   0.426  0.00  0.00     0.000 A 
ATOM      6  C7  UNL d   1      -0.382   0.577   0.293  0.00  0.00    -0.073 A 
ATOM      7  C8  UNL d   1      -0.687   1.853  -0.443  0.00  0.00     0.078 C 
ENDROOT
BRANCH   1   8
ATOM      8  C1  UNL d   1       2.005   1.338   0.821  0.00  0.00     0.053 C 
ATOM      9  C   UNL d   1       2.184   2.097   2.127  0.00  0.00     0.018 C 
ENDBRANCH   1   8
TORSDOF 1
ENDMDL
