MODEL 1
REMARK minimizedAffinity -5.22457552
REMARK minimizedRMSD -1
REMARK  1 active torsions:
REMARK  status: ('A' for Active; 'I' for Inactive)
REMARK    1  A    between atoms: C1_2  and  C2_3 
ROOT
ATOM      1  C2  UNL d   1       1.943   0.851  -0.160  0.00  0.00    -0.076 A 
ATOM      2  C3  UNL d   1       1.826   2.066   0.536  0.00  0.00     0.004 A 
ATOM      3  C4  UNL d   1       2.490   3.211   0.099  0.00  0.00    -0.003 A 
ATOM      4  C5  UNL d   1       3.282   3.160  -1.042  0.00  0.00     0.000 A 
ATOM      5  C6  UNL d   1       3.395   1.967  -1.756  0.00  0.00     0.000 A 
ATOM      6  C7  UNL d   1       2.719   0.808  -1.338  0.00  0.00    -0.073 A 
ATOM      7  C8  UNL d   1       2.882  -0.453  -2.143  0.00  0.00     0.078 C 
ENDROOT
BRANCH   1   8
ATOM      8  C1  UNL d   1       1.221  -0.364   0.376  0.00  0.00     0.053 C 
ATOM      9  C   UNL d   1      -0.291  -0.221   0.309  0.00  0.00     0.018 C 
ENDBRANCH   1   8
TORSDOF 1
ENDMDL
