MODEL 1
REMARK minimizedAffinity -5.15642118
REMARK minimizedRMSD -1
REMARK  1 active torsions:
REMARK  status: ('A' for Active; 'I' for Inactive)
REMARK    1  A    between atoms: C1_2  and  C2_3 
ROOT
ATOM      1  C2  UNL d   1      -0.566  -0.153  -0.158  0.00  0.00    -0.076 A 
ATOM      2  C3  UNL d   1      -1.258  -0.713   0.930  0.00  0.00     0.004 A 
ATOM      3  C4  UNL d   1      -2.416  -1.463   0.735  0.00  0.00    -0.003 A 
ATOM      4  C5  UNL d   1      -2.902  -1.666  -0.552  0.00  0.00     0.000 A 
ATOM      5  C6  UNL d   1      -2.219  -1.133  -1.645  0.00  0.00     0.000 A 
ATOM      6  C7  UNL d   1      -1.041  -0.388  -1.467  0.00  0.00    -0.073 A 
ATOM      7  C8  UNL d   1      -0.348   0.169  -2.680  0.00  0.00     0.078 C 
ENDROOT
BRANCH   1   8
ATOM      8  C1  UNL d   1       0.669   0.674   0.117  0.00  0.00     0.053 C 
ATOM      9  C   UNL d   1       1.955  -0.110  -0.101  0.00  0.00     0.018 C 
ENDBRANCH   1   8
TORSDOF 1
ENDMDL
