MODEL 1
REMARK minimizedAffinity -0.0529240295
REMARK minimizedRMSD -1
REMARK  1 active torsions:
REMARK  status: ('A' for Active; 'I' for Inactive)
REMARK    1  A    between atoms: C1_2  and  C2_3 
ROOT
ATOM      1  C2  UNL d   1       1.457  -0.384  -2.940  0.00  0.00    -0.076 A 
ATOM      2  C3  UNL d   1       0.115  -0.049  -2.687  0.00  0.00     0.004 A 
ATOM      3  C4  UNL d   1      -0.311   0.287  -1.403  0.00  0.00    -0.003 A 
ATOM      4  C5  UNL d   1       0.598   0.293  -0.351  0.00  0.00     0.000 A 
ATOM      5  C6  UNL d   1       1.937  -0.019  -0.587  0.00  0.00     0.000 A 
ATOM      6  C7  UNL d   1       2.386  -0.344  -1.878  0.00  0.00    -0.073 A 
ATOM      7  C8  UNL d   1       3.839  -0.678  -2.074  0.00  0.00     0.078 C 
ENDROOT
BRANCH   1   8
ATOM      8  C1  UNL d   1       1.855  -0.765  -4.348  0.00  0.00     0.053 C 
ATOM      9  C   UNL d   1       1.641   0.367  -5.341  0.00  0.00     0.018 C 
ENDBRANCH   1   8
TORSDOF 1
ENDMDL
