MODEL 1
REMARK minimizedAffinity -0.617169917
REMARK minimizedRMSD -1
REMARK  1 active torsions:
REMARK  status: ('A' for Active; 'I' for Inactive)
REMARK    1  A    between atoms: C1_2  and  C2_3 
ROOT
ATOM      1  C2  UNL d   1      -0.561  -0.280  -1.653  0.00  0.00    -0.076 A 
ATOM      2  C3  UNL d   1      -0.046   0.230  -0.449  0.00  0.00     0.004 A 
ATOM      3  C4  UNL d   1      -0.653  -0.061   0.772  0.00  0.00    -0.003 A 
ATOM      4  C5  UNL d   1      -1.785  -0.867   0.808  0.00  0.00     0.000 A 
ATOM      5  C6  UNL d   1      -2.300  -1.396  -0.375  0.00  0.00     0.000 A 
ATOM      6  C7  UNL d   1      -1.690  -1.126  -1.612  0.00  0.00    -0.073 A 
ATOM      7  C8  UNL d   1      -2.292  -1.717  -2.858  0.00  0.00     0.078 C 
ENDROOT
BRANCH   1   8
ATOM      8  C1  UNL d   1       0.123   0.092  -2.949  0.00  0.00     0.053 C 
ATOM      9  C   UNL d   1       1.524  -0.491  -3.056  0.00  0.00     0.018 C 
ENDBRANCH   1   8
TORSDOF 1
ENDMDL
