MODEL 1
REMARK minimizedAffinity -1.84841466
REMARK minimizedRMSD -1
REMARK  1 active torsions:
REMARK  status: ('A' for Active; 'I' for Inactive)
REMARK    1  A    between atoms: C1_2  and  C2_3 
ROOT
ATOM      1  C2  UNL d   1       0.626  -0.053  -0.242  0.00  0.00    -0.076 A 
ATOM      2  C3  UNL d   1       0.107   0.629  -1.356  0.00  0.00     0.004 A 
ATOM      3  C4  UNL d   1      -1.184   0.374  -1.816  0.00  0.00    -0.003 A 
ATOM      4  C5  UNL d   1      -1.977  -0.566  -1.168  0.00  0.00     0.000 A 
ATOM      5  C6  UNL d   1      -1.485  -1.239  -0.050  0.00  0.00     0.000 A 
ATOM      6  C7  UNL d   1      -0.191  -0.983   0.436  0.00  0.00    -0.073 A 
ATOM      7  C8  UNL d   1       0.291  -1.742   1.641  0.00  0.00     0.078 C 
ENDROOT
BRANCH   1   8
ATOM      8  C1  UNL d   1       2.043   0.245   0.195  0.00  0.00     0.053 C 
ATOM      9  C   UNL d   1       2.244   1.707   0.563  0.00  0.00     0.018 C 
ENDBRANCH   1   8
TORSDOF 1
ENDMDL
