MODEL 1
REMARK minimizedAffinity -4.1014204
REMARK minimizedRMSD -1
REMARK  0 active torsions:
REMARK  status: ('A' for Active; 'I' for Inactive)
ROOT
ATOM      1  C   UNL d   1      -0.974  -1.057  -4.692  0.00  0.00     0.078 C 
ATOM      2  C1  UNL d   1       0.034  -0.500  -3.731  0.00  0.00    -0.077 A 
ATOM      3  C2  UNL d   1       0.923   0.508  -4.123  0.00  0.00    -0.001 A 
ATOM      4  C3  UNL d   1       1.863   1.010  -3.221  0.00  0.00     0.003 A 
ATOM      5  C4  UNL d   1       1.923   0.509  -1.922  0.00  0.00    -0.005 A 
ATOM      6  C5  UNL d   1       1.044  -0.495  -1.524  0.00  0.00     0.003 A 
ATOM      7  C6  UNL d   1       0.103  -0.999  -2.424  0.00  0.00    -0.001 A 
ENDROOT
TORSDOF 0
ENDMDL
