MODEL 1
REMARK minimizedAffinity -4.56949997
REMARK minimizedRMSD -1
REMARK  0 active torsions:
REMARK  status: ('A' for Active; 'I' for Inactive)
ROOT
ATOM      1  C   UNL d   1       0.432   0.044  -1.730  0.00  0.00     0.078 C 
ATOM      2  C1  UNL d   1      -0.334   0.126  -0.443  0.00  0.00    -0.077 A 
ATOM      3  C2  UNL d   1       0.277   0.580   0.732  0.00  0.00    -0.001 A 
ATOM      4  C3  UNL d   1      -0.445   0.642   1.925  0.00  0.00     0.003 A 
ATOM      5  C4  UNL d   1      -1.781   0.249   1.955  0.00  0.00    -0.005 A 
ATOM      6  C5  UNL d   1      -2.398  -0.206   0.791  0.00  0.00     0.003 A 
ATOM      7  C6  UNL d   1      -1.677  -0.268  -0.403  0.00  0.00    -0.001 A 
ENDROOT
TORSDOF 0
ENDMDL
