MODEL 1
REMARK minimizedAffinity -2.91266537
REMARK minimizedRMSD -1
REMARK  0 active torsions:
REMARK  status: ('A' for Active; 'I' for Inactive)
ROOT
ATOM      1  C   UNL d   1      -2.826  -0.238  -0.589  0.00  0.00     0.078 C 
ATOM      2  C1  UNL d   1      -2.242   0.392   0.641  0.00  0.00    -0.077 A 
ATOM      3  C2  UNL d   1      -1.474   1.560   0.558  0.00  0.00    -0.001 A 
ATOM      4  C3  UNL d   1      -0.929   2.129   1.710  0.00  0.00     0.003 A 
ATOM      5  C4  UNL d   1      -1.146   1.538   2.953  0.00  0.00    -0.005 A 
ATOM      6  C5  UNL d   1      -1.907   0.374   3.045  0.00  0.00     0.003 A 
ATOM      7  C6  UNL d   1      -2.453  -0.197   1.894  0.00  0.00    -0.001 A 
ENDROOT
TORSDOF 0
ENDMDL
