MODEL 1
REMARK minimizedAffinity -5.2215066
REMARK minimizedRMSD -1
REMARK  0 active torsions:
REMARK  status: ('A' for Active; 'I' for Inactive)
ROOT
ATOM      1  C   UNL d   1      -0.213  -0.323  -1.110  0.00  0.00     0.078 C 
ATOM      2  C1  UNL d   1      -0.406   0.142   0.303  0.00  0.00    -0.077 A 
ATOM      3  C2  UNL d   1      -1.492  -0.302   1.067  0.00  0.00    -0.001 A 
ATOM      4  C3  UNL d   1      -1.664   0.147   2.377  0.00  0.00     0.003 A 
ATOM      5  C4  UNL d   1      -0.754   1.043   2.935  0.00  0.00    -0.005 A 
ATOM      6  C5  UNL d   1       0.329   1.492   2.182  0.00  0.00     0.003 A 
ATOM      7  C6  UNL d   1       0.502   1.045   0.871  0.00  0.00    -0.001 A 
ENDROOT
TORSDOF 0
ENDMDL
