MODEL 1
REMARK minimizedAffinity -4.45894909
REMARK minimizedRMSD -1
REMARK  0 active torsions:
REMARK  status: ('A' for Active; 'I' for Inactive)
ROOT
ATOM      1  C1  BNZ d   1      -2.813   3.765  -1.169  0.00  0.00     0.000 A 
ATOM      2  C2  BNZ d   1      -2.219   3.787   0.065  0.00  0.00     0.000 A 
ATOM      3  C3  BNZ d   1      -0.895   3.480   0.210  0.00  0.00     0.000 A 
ATOM      4  C4  BNZ d   1      -0.177   3.115  -0.871  0.00  0.00     0.000 A 
ATOM      5  C5  BNZ d   1      -0.763   3.079  -2.121  0.00  0.00     0.000 A 
ATOM      6  C6  BNZ d   1      -2.086   3.426  -2.269  0.00  0.00     0.000 A 
ENDROOT
TORSDOF 0
ENDMDL
