MODEL 1
REMARK minimizedAffinity 2.94952607
REMARK minimizedRMSD -1
REMARK  0 active torsions:
REMARK  status: ('A' for Active; 'I' for Inactive)
ROOT
ATOM      1  C1  BNZ d   1      -0.723   1.977   3.143  0.00  0.00     0.000 A 
ATOM      2  C2  BNZ d   1      -0.134   2.524   2.034  0.00  0.00     0.000 A 
ATOM      3  C3  BNZ d   1       0.861   1.860   1.372  0.00  0.00     0.000 A 
ATOM      4  C4  BNZ d   1       1.292   0.672   1.841  0.00  0.00     0.000 A 
ATOM      5  C5  BNZ d   1       0.714   0.112   2.963  0.00  0.00     0.000 A 
ATOM      6  C6  BNZ d   1      -0.314   0.765   3.605  0.00  0.00     0.000 A 
ENDROOT
TORSDOF 0
ENDMDL
