MODEL 1
REMARK minimizedAffinity 2.50517154
REMARK minimizedRMSD -1
REMARK  0 active torsions:
REMARK  status: ('A' for Active; 'I' for Inactive)
ROOT
ATOM      1  C1  BNZ d   1       0.209   1.751  -0.465  0.00  0.00     0.000 A 
ATOM      2  C2  BNZ d   1       0.406   0.513  -1.016  0.00  0.00     0.000 A 
ATOM      3  C3  BNZ d   1      -0.055   0.224  -2.271  0.00  0.00     0.000 A 
ATOM      4  C4  BNZ d   1      -0.746   1.159  -2.955  0.00  0.00     0.000 A 
ATOM      5  C5  BNZ d   1      -0.961   2.408  -2.409  0.00  0.00     0.000 A 
ATOM      6  C6  BNZ d   1      -0.462   2.708  -1.162  0.00  0.00     0.000 A 
ENDROOT
TORSDOF 0
ENDMDL
