MODEL 1
REMARK minimizedAffinity 5.59760523
REMARK minimizedRMSD -1
REMARK  0 active torsions:
REMARK  status: ('A' for Active; 'I' for Inactive)
ROOT
ATOM      1  C1  BNZ d   1      -2.290  -0.260  -2.095  0.00  0.00     0.000 A 
ATOM      2  C2  BNZ d   1      -1.046  -0.284  -2.668  0.00  0.00     0.000 A 
ATOM      3  C3  BNZ d   1      -0.259   0.834  -2.678  0.00  0.00     0.000 A 
ATOM      4  C4  BNZ d   1      -0.732   1.982  -2.153  0.00  0.00     0.000 A 
ATOM      5  C5  BNZ d   1      -1.988   2.025  -1.581  0.00  0.00     0.000 A 
ATOM      6  C6  BNZ d   1      -2.762   0.888  -1.537  0.00  0.00     0.000 A 
ENDROOT
TORSDOF 0
ENDMDL
