MODEL 1
REMARK minimizedAffinity 0.413559884
REMARK minimizedRMSD -1
REMARK  0 active torsions:
REMARK  status: ('A' for Active; 'I' for Inactive)
ROOT
ATOM      1  C1  BNZ d   1      -2.119   1.643   2.275  0.00  0.00     0.000 A 
ATOM      2  C2  BNZ d   1      -1.190   0.809   2.838  0.00  0.00     0.000 A 
ATOM      3  C3  BNZ d   1       0.131   1.157   2.876  0.00  0.00     0.000 A 
ATOM      4  C4  BNZ d   1       0.528   2.318   2.315  0.00  0.00     0.000 A 
ATOM      5  C5  BNZ d   1      -0.395   3.165   1.735  0.00  0.00     0.000 A 
ATOM      6  C6  BNZ d   1      -1.730   2.830   1.734  0.00  0.00     0.000 A 
ENDROOT
TORSDOF 0
ENDMDL
