MODEL 1
REMARK minimizedAffinity -0.0680571049
REMARK minimizedRMSD -1
REMARK  0 active torsions:
REMARK  status: ('A' for Active; 'I' for Inactive)
ROOT
ATOM      1  C1  BNZ d   1       4.764  -5.213  -2.900  0.00  0.00     0.000 A 
ATOM      2  C2  BNZ d   1       3.911  -4.143  -2.850  0.00  0.00     0.000 A 
ATOM      3  C3  BNZ d   1       3.936  -3.277  -1.793  0.00  0.00     0.000 A 
ATOM      4  C4  BNZ d   1       4.785  -3.503  -0.770  0.00  0.00     0.000 A 
ATOM      5  C5  BNZ d   1       5.646  -4.583  -0.802  0.00  0.00     0.000 A 
ATOM      6  C6  BNZ d   1       5.644  -5.431  -1.885  0.00  0.00     0.000 A 
ENDROOT
TORSDOF 0
ENDMDL
