MODEL 1
REMARK minimizedAffinity 1.01808202
REMARK minimizedRMSD -1
REMARK  0 active torsions:
REMARK  status: ('A' for Active; 'I' for Inactive)
ROOT
ATOM      1  C1  BNZ d   1      -0.788  -0.666  -3.090  0.00  0.00     0.000 A 
ATOM      2  C2  BNZ d   1      -1.320  -0.302  -1.881  0.00  0.00     0.000 A 
ATOM      3  C3  BNZ d   1      -2.669  -0.145  -1.730  0.00  0.00     0.000 A 
ATOM      4  C4  BNZ d   1      -3.480  -0.312  -2.795  0.00  0.00     0.000 A 
ATOM      5  C5  BNZ d   1      -2.958  -0.670  -4.021  0.00  0.00     0.000 A 
ATOM      6  C6  BNZ d   1      -1.603  -0.865  -4.161  0.00  0.00     0.000 A 
ENDROOT
TORSDOF 0
ENDMDL
