MODEL 1
REMARK minimizedAffinity 4.76223993
REMARK minimizedRMSD -1
REMARK  0 active torsions:
REMARK  status: ('A' for Active; 'I' for Inactive)
ROOT
ATOM      1  C1  BNZ d   1      -5.999  -1.377   4.430  0.00  0.00     0.000 A 
ATOM      2  C2  BNZ d   1      -5.999  -0.536   3.349  0.00  0.00     0.000 A 
ATOM      3  C3  BNZ d   1      -4.886  -0.400   2.567  0.00  0.00     0.000 A 
ATOM      4  C4  BNZ d   1      -3.763  -1.074   2.890  0.00  0.00     0.000 A 
ATOM      5  C5  BNZ d   1      -3.744  -1.918   3.982  0.00  0.00     0.000 A 
ATOM      6  C6  BNZ d   1      -4.878  -2.082   4.744  0.00  0.00     0.000 A 
ENDROOT
TORSDOF 0
ENDMDL
