MODEL 1
REMARK minimizedAffinity 0.0191780236
REMARK minimizedRMSD -1
REMARK  0 active torsions:
REMARK  status: ('A' for Active; 'I' for Inactive)
ROOT
ATOM      1  C1  BNZ d   1       0.444   2.405   2.662  0.00  0.00     0.000 A 
ATOM      2  C2  BNZ d   1       0.401   1.076   2.992  0.00  0.00     0.000 A 
ATOM      3  C3  BNZ d   1       0.298   0.117   2.024  0.00  0.00     0.000 A 
ATOM      4  C4  BNZ d   1       0.197   0.488   0.731  0.00  0.00     0.000 A 
ATOM      5  C5  BNZ d   1       0.230   1.823   0.383  0.00  0.00     0.000 A 
ATOM      6  C6  BNZ d   1       0.374   2.785   1.357  0.00  0.00     0.000 A 
ENDROOT
TORSDOF 0
ENDMDL
