MODEL 1
REMARK minimizedAffinity 10.5236301
REMARK minimizedRMSD -1
REMARK  0 active torsions:
REMARK  status: ('A' for Active; 'I' for Inactive)
ROOT
ATOM      1  C   UNL d   1       2.383  -2.162   4.619  0.00  0.00     0.020 A 
ATOM      2  C1  UNL d   1       1.620  -1.314   3.817  0.00  0.00     0.020 A 
ATOM      3  C2  UNL d   1       2.188  -0.725   2.686  0.00  0.00     0.034 A 
ATOM      4  C3  UNL d   1       3.523  -0.982   2.353  0.00  0.00     0.017 A 
ATOM      5  C4  UNL d   1       4.288  -1.833   3.158  0.00  0.00     0.017 A 
ATOM      6  C5  UNL d   1       3.715  -2.421   4.290  0.00  0.00     0.034 A 
ATOM      7 Cl   UNL d   1       5.941  -2.199   2.811  0.00  0.00    -0.070 Cl
ATOM      8 Cl1  UNL d   1       4.159  -0.220   0.939  0.00  0.00    -0.070 Cl
ENDROOT
TORSDOF 0
ENDMDL
