MODEL 1
REMARK minimizedAffinity 9.52118206
REMARK minimizedRMSD -1
REMARK  0 active torsions:
REMARK  status: ('A' for Active; 'I' for Inactive)
ROOT
ATOM      1  C   UNL d   1      -5.943   0.039  -5.863  0.00  0.00     0.020 A 
ATOM      2  C1  UNL d   1      -5.941   1.431  -5.937  0.00  0.00     0.020 A 
ATOM      3  C2  UNL d   1      -5.958   2.192  -4.766  0.00  0.00     0.034 A 
ATOM      4  C3  UNL d   1      -5.976   1.561  -3.516  0.00  0.00     0.017 A 
ATOM      5  C4  UNL d   1      -5.977   0.163  -3.444  0.00  0.00     0.017 A 
ATOM      6  C5  UNL d   1      -5.961  -0.594  -4.619  0.00  0.00     0.034 A 
ATOM      7 Cl   UNL d   1      -5.999  -0.687  -1.939  0.00  0.00    -0.070 Cl
ATOM      8 Cl1  UNL d   1      -5.995   2.564  -2.110  0.00  0.00    -0.070 Cl
ENDROOT
TORSDOF 0
ENDMDL
