MODEL 1
REMARK minimizedAffinity 3.56986117
REMARK minimizedRMSD -1
REMARK  0 active torsions:
REMARK  status: ('A' for Active; 'I' for Inactive)
ROOT
ATOM      1  C   UNL d   1       6.000  -2.407   4.878  0.00  0.00     0.020 A 
ATOM      2  C1  UNL d   1       5.354  -2.996   5.965  0.00  0.00     0.020 A 
ATOM      3  C2  UNL d   1       3.959  -3.055   6.000  0.00  0.00     0.034 A 
ATOM      4  C3  UNL d   1       3.205  -2.526   4.946  0.00  0.00     0.017 A 
ATOM      5  C4  UNL d   1       3.854  -1.935   3.856  0.00  0.00     0.017 A 
ATOM      6  C5  UNL d   1       5.251  -1.878   3.826  0.00  0.00     0.034 A 
ATOM      7 Cl   UNL d   1       2.992  -1.260   2.519  0.00  0.00    -0.070 Cl
ATOM      8 Cl1  UNL d   1       1.484  -2.634   5.056  0.00  0.00    -0.070 Cl
ENDROOT
TORSDOF 0
ENDMDL
