MODEL 1
REMARK minimizedAffinity 6.01675129
REMARK minimizedRMSD -1
REMARK  0 active torsions:
REMARK  status: ('A' for Active; 'I' for Inactive)
ROOT
ATOM      1  C   UNL d   1       2.205  -1.755   3.781  0.00  0.00     0.020 A 
ATOM      2  C1  UNL d   1       2.205  -1.919   5.165  0.00  0.00     0.020 A 
ATOM      3  C2  UNL d   1       3.387  -2.255   5.829  0.00  0.00     0.034 A 
ATOM      4  C3  UNL d   1       4.574  -2.427   5.108  0.00  0.00     0.017 A 
ATOM      5  C4  UNL d   1       4.573  -2.262   3.718  0.00  0.00     0.017 A 
ATOM      6  C5  UNL d   1       3.387  -1.926   3.059  0.00  0.00     0.034 A 
ATOM      7 Cl   UNL d   1       5.999  -2.459   2.761  0.00  0.00    -0.070 Cl
ATOM      8 Cl1  UNL d   1       5.999  -2.842   5.993  0.00  0.00    -0.070 Cl
ENDROOT
TORSDOF 0
ENDMDL
