MODEL 1
REMARK minimizedAffinity 11.0127316
REMARK minimizedRMSD -1
REMARK  0 active torsions:
REMARK  status: ('A' for Active; 'I' for Inactive)
ROOT
ATOM      1  C   UNL d   1       2.734  -4.073   4.416  0.00  0.00     0.020 A 
ATOM      2  C1  UNL d   1       1.825  -3.292   3.702  0.00  0.00     0.020 A 
ATOM      3  C2  UNL d   1       2.087  -1.938   3.487  0.00  0.00     0.034 A 
ATOM      4  C3  UNL d   1       3.259  -1.359   3.987  0.00  0.00     0.017 A 
ATOM      5  C4  UNL d   1       4.171  -2.144   4.703  0.00  0.00     0.017 A 
ATOM      6  C5  UNL d   1       3.904  -3.500   4.915  0.00  0.00     0.034 A 
ATOM      7 Cl   UNL d   1       5.639  -1.501   5.350  0.00  0.00    -0.070 Cl
ATOM      8 Cl1  UNL d   1       3.518   0.322   3.684  0.00  0.00    -0.070 Cl
ENDROOT
TORSDOF 0
ENDMDL
