MODEL 1
REMARK minimizedAffinity 1.90562689
REMARK minimizedRMSD -1
REMARK  0 active torsions:
REMARK  status: ('A' for Active; 'I' for Inactive)
ROOT
ATOM      1  C   UNL d   1       2.123  -2.237   5.423  0.00  0.00     0.020 A 
ATOM      2  C1  UNL d   1       2.084  -1.697   4.138  0.00  0.00     0.020 A 
ATOM      3  C2  UNL d   1       3.265  -1.549   3.407  0.00  0.00     0.034 A 
ATOM      4  C3  UNL d   1       4.489  -1.941   3.960  0.00  0.00     0.017 A 
ATOM      5  C4  UNL d   1       4.527  -2.483   5.250  0.00  0.00     0.017 A 
ATOM      6  C5  UNL d   1       3.342  -2.629   5.978  0.00  0.00     0.034 A 
ATOM      7 Cl   UNL d   1       6.000  -2.989   5.999  0.00  0.00    -0.070 Cl
ATOM      8 Cl1  UNL d   1       5.909  -1.729   2.999  0.00  0.00    -0.070 Cl
ENDROOT
TORSDOF 0
ENDMDL
