MODEL 1
REMARK minimizedAffinity 16.4985161
REMARK minimizedRMSD -1
REMARK  0 active torsions:
REMARK  status: ('A' for Active; 'I' for Inactive)
ROOT
ATOM      1  C   UNL d   1      -1.179   0.825   0.500  0.00  0.00     0.020 A 
ATOM      2  C1  UNL d   1      -1.428  -0.018  -0.582  0.00  0.00     0.020 A 
ATOM      3  C2  UNL d   1      -0.454  -0.930  -0.995  0.00  0.00     0.034 A 
ATOM      4  C3  UNL d   1       0.773  -1.000  -0.325  0.00  0.00     0.017 A 
ATOM      5  C4  UNL d   1       1.022  -0.153   0.761  0.00  0.00     0.017 A 
ATOM      6  C5  UNL d   1       0.043   0.758   1.170  0.00  0.00     0.034 A 
ATOM      7 Cl   UNL d   1       2.512  -0.182   1.637  0.00  0.00    -0.070 Cl
ATOM      8 Cl1  UNL d   1       1.932  -2.151  -0.889  0.00  0.00    -0.070 Cl
ENDROOT
TORSDOF 0
ENDMDL
