MODEL 1
REMARK minimizedAffinity 7.47707796
REMARK minimizedRMSD -1
REMARK  0 active torsions:
REMARK  status: ('A' for Active; 'I' for Inactive)
ROOT
ATOM      1  C   UNL d   1       1.856  -1.406   3.233  0.00  0.00     0.020 A 
ATOM      2  C1  UNL d   1       2.573  -2.454   3.808  0.00  0.00     0.020 A 
ATOM      3  C2  UNL d   1       2.878  -3.588   3.053  0.00  0.00     0.034 A 
ATOM      4  C3  UNL d   1       2.464  -3.678   1.719  0.00  0.00     0.017 A 
ATOM      5  C4  UNL d   1       1.744  -2.625   1.142  0.00  0.00     0.017 A 
ATOM      6  C5  UNL d   1       1.442  -1.491   1.903  0.00  0.00     0.034 A 
ATOM      7 Cl   UNL d   1       1.200  -2.663  -0.498  0.00  0.00    -0.070 Cl
ATOM      8 Cl1  UNL d   1       2.876  -5.110   0.845  0.00  0.00    -0.070 Cl
ENDROOT
TORSDOF 0
ENDMDL
