MODEL 1
REMARK minimizedAffinity 3.25987458
REMARK minimizedRMSD -1
REMARK  0 active torsions:
REMARK  status: ('A' for Active; 'I' for Inactive)
ROOT
ATOM      1  C   UNL d   1       2.066  -1.110   3.593  0.00  0.00     0.020 A 
ATOM      2  C1  UNL d   1       2.382  -1.048   2.236  0.00  0.00     0.020 A 
ATOM      3  C2  UNL d   1       2.711  -2.214   1.542  0.00  0.00     0.034 A 
ATOM      4  C3  UNL d   1       2.724  -3.448   2.203  0.00  0.00     0.017 A 
ATOM      5  C4  UNL d   1       2.406  -3.509   3.565  0.00  0.00     0.017 A 
ATOM      6  C5  UNL d   1       2.078  -2.338   4.255  0.00  0.00     0.034 A 
ATOM      7 Cl   UNL d   1       2.401  -4.994   4.449  0.00  0.00    -0.070 Cl
ATOM      8 Cl1  UNL d   1       3.139  -4.849   1.282  0.00  0.00    -0.070 Cl
ENDROOT
TORSDOF 0
ENDMDL
