MODEL 1
REMARK minimizedAffinity 24.6708298
REMARK minimizedRMSD -1
REMARK  2 active torsions:
REMARK  status: ('A' for Active; 'I' for Inactive)
REMARK    1  A    between atoms: C2'_3  and  C1'_4 
REMARK    2  A    between atoms: C1'_4  and  C1_5 
ROOT
ATOM      1  C1  I4B d   1       1.228  -0.794   3.523  0.00  0.00    -0.075 A 
ATOM      2  C2  I4B d   1       0.528  -0.801   2.342  0.00  0.00     0.003 A 
ATOM      3  C3  I4B d   1      -0.123   0.373   1.892  0.00  0.00     0.002 A 
ATOM      4  C4  I4B d   1      -0.091   1.510   2.674  0.00  0.00    -0.004 A 
ATOM      5  C5  I4B d   1       0.638   1.522   3.860  0.00  0.00     0.002 A 
ATOM      6  C6  I4B d   1       1.312   0.367   4.281  0.00  0.00     0.003 A 
ENDROOT
BRANCH   1   7
ATOM      7  C1' I4B d   1       1.876  -2.061   3.984  0.00  0.00     0.060 C 
BRANCH   7   8
ATOM      8  C2' I4B d   1       1.829  -2.084   5.499  0.00  0.00    -0.013 C 
ATOM      9  C4' I4B d   1       0.856  -3.119   5.998  0.00  0.00     0.013 C 
ATOM     10  C3' I4B d   1       3.216  -2.358   6.000  0.00  0.00     0.013 C 
ENDBRANCH   7   8
ENDBRANCH   1   7
TORSDOF 2
ENDMDL
