MODEL 1
REMARK minimizedAffinity 23.2517452
REMARK minimizedRMSD -1
REMARK  2 active torsions:
REMARK  status: ('A' for Active; 'I' for Inactive)
REMARK    1  A    between atoms: C2'_3  and  C1'_4 
REMARK    2  A    between atoms: C1'_4  and  C1_5 
ROOT
ATOM      1  C1  I4B d   1      -0.333  -1.852  -2.670  0.00  0.00    -0.075 A 
ATOM      2  C2  I4B d   1       0.786  -2.468  -3.173  0.00  0.00     0.003 A 
ATOM      3  C3  I4B d   1       1.549  -1.841  -4.188  0.00  0.00     0.002 A 
ATOM      4  C4  I4B d   1       1.132  -0.630  -4.703  0.00  0.00    -0.004 A 
ATOM      5  C5  I4B d   1       0.010   0.003  -4.176  0.00  0.00     0.002 A 
ATOM      6  C6  I4B d   1      -0.721  -0.605  -3.145  0.00  0.00     0.003 A 
ENDROOT
BRANCH   1   7
ATOM      7  C1' I4B d   1      -1.135  -2.557  -1.623  0.00  0.00     0.060 C 
BRANCH   7   8
ATOM      8  C2' I4B d   1      -1.729  -1.508  -0.705  0.00  0.00    -0.013 C 
ATOM      9  C4' I4B d   1      -3.087  -1.927  -0.206  0.00  0.00     0.013 C 
ATOM     10  C3' I4B d   1      -0.776  -1.294   0.433  0.00  0.00     0.013 C 
ENDBRANCH   7   8
ENDBRANCH   1   7
TORSDOF 2
ENDMDL
