MODEL 1
REMARK minimizedAffinity 3.26023841
REMARK minimizedRMSD -1
REMARK  2 active torsions:
REMARK  status: ('A' for Active; 'I' for Inactive)
REMARK    1  A    between atoms: C2'_3  and  C1'_4 
REMARK    2  A    between atoms: C1'_4  and  C1_5 
ROOT
ATOM      1  C1  I4B d   1       1.875  -0.202   4.199  0.00  0.00    -0.075 A 
ATOM      2  C2  I4B d   1       1.438  -1.471   4.485  0.00  0.00     0.003 A 
ATOM      3  C3  I4B d   1       2.142  -2.275   5.414  0.00  0.00     0.002 A 
ATOM      4  C4  I4B d   1       3.298  -1.791   5.993  0.00  0.00    -0.004 A 
ATOM      5  C5  I4B d   1       3.726  -0.496   5.720  0.00  0.00     0.002 A 
ATOM      6  C6  I4B d   1       3.004   0.309   4.827  0.00  0.00     0.003 A 
ENDROOT
BRANCH   1   7
ATOM      7  C1' I4B d   1       1.127   0.608   3.188  0.00  0.00     0.060 C 
BRANCH   7   8
ATOM      8  C2' I4B d   1       0.031  -0.265   2.610  0.00  0.00    -0.013 C 
ATOM      9  C4' I4B d   1      -1.285   0.467   2.570  0.00  0.00     0.013 C 
ATOM     10  C3' I4B d   1       0.456  -0.692   1.237  0.00  0.00     0.013 C 
ENDBRANCH   7   8
ENDBRANCH   1   7
TORSDOF 2
ENDMDL
