MODEL 1
REMARK minimizedAffinity 0.060602963
REMARK minimizedRMSD -1
REMARK  0 active torsions:
REMARK  status: ('A' for Active; 'I' for Inactive)
ROOT
ATOM      1  C4' PXY d   1      -4.258   5.999  -3.061  0.00  0.00     0.077 C 
ATOM      2  C1' PXY d   1       1.260   5.979  -4.781  0.00  0.00     0.077 C 
ATOM      3  C1  PXY d   1      -0.190   5.990  -4.342  0.00  0.00    -0.082 A 
ATOM      4  C2  PXY d   1      -0.483   5.999  -3.051  0.00  0.00     0.003 A 
ATOM      5  C3  PXY d   1      -1.790   5.976  -2.636  0.00  0.00     0.003 A 
ATOM      6  C4  PXY d   1      -2.808   5.998  -3.551  0.00  0.00    -0.082 A 
ATOM      7  C5  PXY d   1      -2.518   6.000  -4.869  0.00  0.00     0.003 A 
ATOM      8  C6  PXY d   1      -1.185   5.981  -5.270  0.00  0.00     0.003 A 
ENDROOT
TORSDOF 0
ENDMDL
