MODEL 1
REMARK minimizedAffinity 2.87766576
REMARK minimizedRMSD -1
REMARK  0 active torsions:
REMARK  status: ('A' for Active; 'I' for Inactive)
ROOT
ATOM      1  C4' PXY d   1      -2.857  -1.317  -4.435  0.00  0.00     0.077 C 
ATOM      2  C1' PXY d   1       2.903  -1.433  -4.916  0.00  0.00     0.077 C 
ATOM      3  C1  PXY d   1       1.392  -1.390  -4.794  0.00  0.00    -0.082 A 
ATOM      4  C2  PXY d   1       0.778  -2.231  -3.978  0.00  0.00     0.003 A 
ATOM      5  C3  PXY d   1      -0.590  -2.228  -3.879  0.00  0.00     0.003 A 
ATOM      6  C4  PXY d   1      -1.333  -1.318  -4.583  0.00  0.00    -0.082 A 
ATOM      7  C5  PXY d   1      -0.713  -0.450  -5.410  0.00  0.00     0.003 A 
ATOM      8  C6  PXY d   1       0.673  -0.497  -5.527  0.00  0.00     0.003 A 
ENDROOT
TORSDOF 0
ENDMDL
