MODEL 1
REMARK minimizedAffinity 1.07126522
REMARK minimizedRMSD -1
REMARK  0 active torsions:
REMARK  status: ('A' for Active; 'I' for Inactive)
ROOT
ATOM      1  C4' PXY d   1       4.821   5.982  -4.999  0.00  0.00     0.077 C 
ATOM      2  C1' PXY d   1      -0.948   5.971  -4.639  0.00  0.00     0.077 C 
ATOM      3  C1  PXY d   1       0.566   5.979  -4.721  0.00  0.00    -0.082 A 
ATOM      4  C2  PXY d   1       1.156   5.997  -5.905  0.00  0.00     0.003 A 
ATOM      5  C3  PXY d   1       2.524   5.972  -5.999  0.00  0.00     0.003 A 
ATOM      6  C4  PXY d   1       3.296   5.983  -4.868  0.00  0.00    -0.082 A 
ATOM      7  C5  PXY d   1       2.701   5.975  -3.656  0.00  0.00     0.003 A 
ATOM      8  C6  PXY d   1       1.311   5.959  -3.583  0.00  0.00     0.003 A 
ENDROOT
TORSDOF 0
ENDMDL
