MODEL 1
REMARK minimizedAffinity -1.66615999
REMARK minimizedRMSD -1
REMARK  0 active torsions:
REMARK  status: ('A' for Active; 'I' for Inactive)
ROOT
ATOM      1  C4' PXY d   1       0.904   5.997  -5.926  0.00  0.00     0.077 C 
ATOM      2  C1' PXY d   1       5.926   3.827  -4.061  0.00  0.00     0.077 C 
ATOM      3  C1  PXY d   1       4.615   4.407  -4.553  0.00  0.00    -0.082 A 
ATOM      4  C2  PXY d   1       3.472   3.880  -4.144  0.00  0.00     0.003 A 
ATOM      5  C3  PXY d   1       2.278   4.372  -4.604  0.00  0.00     0.003 A 
ATOM      6  C4  PXY d   1       2.251   5.449  -5.449  0.00  0.00    -0.082 A 
ATOM      7  C5  PXY d   1       3.413   5.999  -5.862  0.00  0.00     0.003 A 
ATOM      8  C6  PXY d   1       4.616   5.459  -5.416  0.00  0.00     0.003 A 
ENDROOT
TORSDOF 0
ENDMDL
