MODEL 1
REMARK minimizedAffinity -2.09531736
REMARK minimizedRMSD -1
REMARK  0 active torsions:
REMARK  status: ('A' for Active; 'I' for Inactive)
ROOT
ATOM      1  C4' PXY d   1      -3.863   6.000  -2.146  0.00  0.00     0.077 C 
ATOM      2  C1' PXY d   1       0.701   5.981  -5.694  0.00  0.00     0.077 C 
ATOM      3  C1  PXY d   1      -0.503   5.991  -4.773  0.00  0.00    -0.082 A 
ATOM      4  C2  PXY d   1      -0.324   6.000  -3.462  0.00  0.00     0.003 A 
ATOM      5  C3  PXY d   1      -1.401   5.977  -2.614  0.00  0.00     0.003 A 
ATOM      6  C4  PXY d   1      -2.676   5.999  -3.114  0.00  0.00    -0.082 A 
ATOM      7  C5  PXY d   1      -2.867   6.000  -4.450  0.00  0.00     0.003 A 
ATOM      8  C6  PXY d   1      -1.760   5.982  -5.293  0.00  0.00     0.003 A 
ENDROOT
TORSDOF 0
ENDMDL
