MODEL 1
REMARK minimizedAffinity -2.47766542
REMARK minimizedRMSD -1
REMARK  0 active torsions:
REMARK  status: ('A' for Active; 'I' for Inactive)
ROOT
ATOM      1  C4' PXY d   1       3.032  -1.521  -5.141  0.00  0.00     0.077 C 
ATOM      2  C1' PXY d   1      -2.657  -2.027  -4.251  0.00  0.00     0.077 C 
ATOM      3  C1  PXY d   1      -1.163  -1.898  -4.473  0.00  0.00    -0.082 A 
ATOM      4  C2  PXY d   1      -0.706  -1.045  -5.375  0.00  0.00     0.003 A 
ATOM      5  C3  PXY d   1       0.641  -0.940  -5.610  0.00  0.00     0.003 A 
ATOM      6  C4  PXY d   1       1.532  -1.677  -4.877  0.00  0.00    -0.082 A 
ATOM      7  C5  PXY d   1       1.074  -2.541  -3.947  0.00  0.00     0.003 A 
ATOM      8  C6  PXY d   1      -0.298  -2.664  -3.752  0.00  0.00     0.003 A 
ENDROOT
TORSDOF 0
ENDMDL
