MODEL 1
REMARK minimizedAffinity -2.39011192
REMARK minimizedRMSD -1
REMARK  0 active torsions:
REMARK  status: ('A' for Active; 'I' for Inactive)
ROOT
ATOM      1  C4' PXY d   1       4.268   5.833  -4.867  0.00  0.00     0.077 C 
ATOM      2  C1' PXY d   1      -1.507   5.995  -4.675  0.00  0.00     0.077 C 
ATOM      3  C1  PXY d   1       0.007   5.946  -4.737  0.00  0.00    -0.082 A 
ATOM      4  C2  PXY d   1       0.709   5.995  -3.617  0.00  0.00     0.003 A 
ATOM      5  C3  PXY d   1       2.080   5.985  -3.656  0.00  0.00     0.003 A 
ATOM      6  C4  PXY d   1       2.737   5.869  -4.852  0.00  0.00    -0.082 A 
ATOM      7  C5  PXY d   1       2.028   5.808  -5.998  0.00  0.00     0.003 A 
ATOM      8  C6  PXY d   1       0.638   5.862  -5.939  0.00  0.00     0.003 A 
ENDROOT
TORSDOF 0
ENDMDL
