MODEL 1
REMARK minimizedAffinity 0.499731481
REMARK minimizedRMSD -1
REMARK  0 active torsions:
REMARK  status: ('A' for Active; 'I' for Inactive)
ROOT
ATOM      1  C4' PXY d   1       1.732   5.971  -4.313  0.00  0.00     0.077 C 
ATOM      2  C1' PXY d   1      -3.722   6.000  -2.399  0.00  0.00     0.077 C 
ATOM      3  C1  PXY d   1      -2.296   5.987  -2.912  0.00  0.00    -0.082 A 
ATOM      4  C2  PXY d   1      -1.291   5.979  -2.052  0.00  0.00     0.003 A 
ATOM      5  C3  PXY d   1       0.005   6.000  -2.498  0.00  0.00     0.003 A 
ATOM      6  C4  PXY d   1       0.276   5.974  -3.840  0.00  0.00    -0.082 A 
ATOM      7  C5  PXY d   1      -0.744   5.971  -4.725  0.00  0.00     0.003 A 
ATOM      8  C6  PXY d   1      -2.052   5.992  -4.251  0.00  0.00     0.003 A 
ENDROOT
TORSDOF 0
ENDMDL
