MODEL 1
REMARK minimizedAffinity 8.44284821
REMARK minimizedRMSD -1
REMARK  0 active torsions:
REMARK  status: ('A' for Active; 'I' for Inactive)
ROOT
ATOM      1  C4' PXY d   1      -2.391  -1.768  -4.296  0.00  0.00     0.077 C 
ATOM      2  C1' PXY d   1      -5.662  -3.252   0.233  0.00  0.00     0.077 C 
ATOM      3  C1  PXY d   1      -4.803  -2.851  -0.950  0.00  0.00    -0.082 A 
ATOM      4  C2  PXY d   1      -4.864  -3.552  -2.070  0.00  0.00     0.003 A 
ATOM      5  C3  PXY d   1      -4.071  -3.223  -3.139  0.00  0.00     0.003 A 
ATOM      6  C4  PXY d   1      -3.247  -2.131  -3.079  0.00  0.00    -0.082 A 
ATOM      7  C5  PXY d   1      -3.187  -1.404  -1.944  0.00  0.00     0.003 A 
ATOM      8  C6  PXY d   1      -3.969  -1.780  -0.856  0.00  0.00     0.003 A 
ENDROOT
TORSDOF 0
ENDMDL
