MODEL 1
REMARK minimizedAffinity 4.80301619
REMARK minimizedRMSD -1
REMARK  0 active torsions:
REMARK  status: ('A' for Active; 'I' for Inactive)
ROOT
ATOM      1  C4' PXY d   1       4.623   5.799  -5.798  0.00  0.00     0.077 C 
ATOM      2  C1' PXY d   1      -0.539   5.855  -3.196  0.00  0.00     0.077 C 
ATOM      3  C1  PXY d   1       0.809   5.836  -3.889  0.00  0.00    -0.082 A 
ATOM      4  C2  PXY d   1       1.912   5.689  -3.173  0.00  0.00     0.003 A 
ATOM      5  C3  PXY d   1       3.141   5.702  -3.780  0.00  0.00     0.003 A 
ATOM      6  C4  PXY d   1       3.240   5.814  -5.141  0.00  0.00    -0.082 A 
ATOM      7  C5  PXY d   1       2.119   5.954  -5.880  0.00  0.00     0.003 A 
ATOM      8  C6  PXY d   1       0.883   5.980  -5.240  0.00  0.00     0.003 A 
ENDROOT
TORSDOF 0
ENDMDL
