MODEL 1
REMARK minimizedAffinity 2.45114994
REMARK minimizedRMSD -1
REMARK  0 active torsions:
REMARK  status: ('A' for Active; 'I' for Inactive)
ROOT
ATOM      1  C4' PXY d   1       1.663   5.987  -4.496  0.00  0.00     0.077 C 
ATOM      2  C1' PXY d   1      -3.702   5.988  -2.344  0.00  0.00     0.077 C 
ATOM      3  C1  PXY d   1      -2.299   5.982  -2.919  0.00  0.00    -0.082 A 
ATOM      4  C2  PXY d   1      -1.257   5.969  -2.104  0.00  0.00     0.003 A 
ATOM      5  C3  PXY d   1       0.018   5.997  -2.607  0.00  0.00     0.003 A 
ATOM      6  C4  PXY d   1       0.229   5.983  -3.960  0.00  0.00    -0.082 A 
ATOM      7  C5  PXY d   1      -0.828   5.986  -4.798  0.00  0.00     0.003 A 
ATOM      8  C6  PXY d   1      -2.115   6.000  -4.267  0.00  0.00     0.003 A 
ENDROOT
TORSDOF 0
ENDMDL
