MODEL 1
REMARK minimizedAffinity -2.29245734
REMARK minimizedRMSD -1
REMARK  0 active torsions:
REMARK  status: ('A' for Active; 'I' for Inactive)
ROOT
ATOM      1  C4' PXY d   1       0.216   5.270  -4.904  0.00  0.00     0.077 C 
ATOM      2  C1' PXY d   1       5.988   5.573  -4.955  0.00  0.00     0.077 C 
ATOM      3  C1  PXY d   1       4.474   5.503  -4.950  0.00  0.00    -0.082 A 
ATOM      4  C2  PXY d   1       3.848   4.951  -3.923  0.00  0.00     0.003 A 
ATOM      5  C3  PXY d   1       2.480   4.851  -3.917  0.00  0.00     0.003 A 
ATOM      6  C4  PXY d   1       1.743   5.370  -4.947  0.00  0.00    -0.082 A 
ATOM      7  C5  PXY d   1       2.374   5.945  -5.993  0.00  0.00     0.003 A 
ATOM      8  C6  PXY d   1       3.765   6.000  -5.999  0.00  0.00     0.003 A 
ENDROOT
TORSDOF 0
ENDMDL
