MODEL 1
REMARK minimizedAffinity -1.76404953
REMARK minimizedRMSD -1
REMARK  0 active torsions:
REMARK  status: ('A' for Active; 'I' for Inactive)
ROOT
ATOM      1  C4' PXY d   1      -1.092   5.931  -3.365  0.00  0.00     0.077 C 
ATOM      2  C1' PXY d   1       4.067   6.000  -5.971  0.00  0.00     0.077 C 
ATOM      3  C1  PXY d   1       2.719   5.976  -5.277  0.00  0.00    -0.082 A 
ATOM      4  C2  PXY d   1       1.611   5.983  -6.000  0.00  0.00     0.003 A 
ATOM      5  C3  PXY d   1       0.384   5.994  -5.388  0.00  0.00     0.003 A 
ATOM      6  C4  PXY d   1       0.290   5.944  -4.023  0.00  0.00    -0.082 A 
ATOM      7  C5  PXY d   1       1.416   5.926  -3.279  0.00  0.00     0.003 A 
ATOM      8  C6  PXY d   1       2.652   5.957  -3.918  0.00  0.00     0.003 A 
ENDROOT
TORSDOF 0
ENDMDL
