MODEL 1
REMARK minimizedAffinity 4.38968277
REMARK minimizedRMSD -1
REMARK  0 active torsions:
REMARK  status: ('A' for Active; 'I' for Inactive)
ROOT
ATOM      1  C4' PXY d   1       2.436   2.762  -2.398  0.00  0.00     0.077 C 
ATOM      2  C1' PXY d   1      -0.130   0.901   2.436  0.00  0.00     0.077 C 
ATOM      3  C1  PXY d   1       0.537   1.401   1.170  0.00  0.00    -0.082 A 
ATOM      4  C2  PXY d   1       0.903   0.536   0.238  0.00  0.00     0.003 A 
ATOM      5  C3  PXY d   1       1.537   0.968  -0.899  0.00  0.00     0.003 A 
ATOM      6  C4  PXY d   1       1.750   2.304  -1.108  0.00  0.00    -0.082 A 
ATOM      7  C5  PXY d   1       1.371   3.194  -0.166  0.00  0.00     0.003 A 
ATOM      8  C6  PXY d   1       0.766   2.732   0.999  0.00  0.00     0.003 A 
ENDROOT
TORSDOF 0
ENDMDL
