MODEL 1
REMARK minimizedAffinity 5.57760525
REMARK minimizedRMSD -1
REMARK  0 active torsions:
REMARK  status: ('A' for Active; 'I' for Inactive)
ROOT
ATOM      1  C4' PXY d   1      -0.578  -1.747   1.477  0.00  0.00     0.077 C 
ATOM      2  C1' PXY d   1       2.369   3.016   0.045  0.00  0.00     0.077 C 
ATOM      3  C1  PXY d   1       1.589   1.768   0.410  0.00  0.00    -0.082 A 
ATOM      4  C2  PXY d   1       1.529   1.380   1.673  0.00  0.00     0.003 A 
ATOM      5  C3  PXY d   1       0.854   0.236   2.017  0.00  0.00     0.003 A 
ATOM      6  C4  PXY d   1       0.190  -0.488   1.064  0.00  0.00    -0.082 A 
ATOM      7  C5  PXY d   1       0.237  -0.093  -0.226  0.00  0.00     0.003 A 
ATOM      8  C6  PXY d   1       0.961   1.048  -0.559  0.00  0.00     0.003 A 
ENDROOT
TORSDOF 0
ENDMDL
