MODEL 1
REMARK minimizedAffinity -0.931399763
REMARK minimizedRMSD -1
REMARK  0 active torsions:
REMARK  status: ('A' for Active; 'I' for Inactive)
ROOT
ATOM      1  C4' PXY d   1      -3.748   5.991  -3.699  0.00  0.00     0.077 C 
ATOM      2  C1' PXY d   1       1.808   5.985  -5.297  0.00  0.00     0.077 C 
ATOM      3  C1  PXY d   1       0.354   5.982  -4.867  0.00  0.00    -0.082 A 
ATOM      4  C2  PXY d   1      -0.600   5.971  -5.784  0.00  0.00     0.003 A 
ATOM      5  C3  PXY d   1      -1.919   6.000  -5.412  0.00  0.00     0.003 A 
ATOM      6  C4  PXY d   1      -2.267   5.985  -4.088  0.00  0.00    -0.082 A 
ATOM      7  C5  PXY d   1      -1.299   5.985  -3.146  0.00  0.00     0.003 A 
ATOM      8  C6  PXY d   1       0.034   5.998  -3.544  0.00  0.00     0.003 A 
ENDROOT
TORSDOF 0
ENDMDL
