MODEL 1
REMARK minimizedAffinity 2.23712564
REMARK minimizedRMSD -1
REMARK  0 active torsions:
REMARK  status: ('A' for Active; 'I' for Inactive)
ROOT
ATOM      1  C4' PXY d   1       3.634   3.157   0.305  0.00  0.00     0.077 C 
ATOM      2  C1' PXY d   1      -0.727  -0.596   0.857  0.00  0.00     0.077 C 
ATOM      3  C1  PXY d   1       0.416   0.387   0.699  0.00  0.00    -0.082 A 
ATOM      4  C2  PXY d   1       1.275   0.556   1.692  0.00  0.00     0.003 A 
ATOM      5  C3  PXY d   1       2.295   1.465   1.578  0.00  0.00     0.003 A 
ATOM      6  C4  PXY d   1       2.470   2.168   0.417  0.00  0.00    -0.082 A 
ATOM      7  C5  PXY d   1       1.605   1.993  -0.604  0.00  0.00     0.003 A 
ATOM      8  C6  PXY d   1       0.551   1.097  -0.454  0.00  0.00     0.003 A 
ENDROOT
TORSDOF 0
ENDMDL
