MODEL 1
REMARK minimizedAffinity -2.37767768
REMARK minimizedRMSD -1
REMARK  0 active torsions:
REMARK  status: ('A' for Active; 'I' for Inactive)
ROOT
ATOM      1  C4' PXY d   1       2.748   5.978  -5.064  0.00  0.00     0.077 C 
ATOM      2  C1' PXY d   1      -2.958   5.991  -4.134  0.00  0.00     0.077 C 
ATOM      3  C1  PXY d   1      -1.463   5.983  -4.389  0.00  0.00    -0.082 A 
ATOM      4  C2  PXY d   1      -0.625   5.973  -3.366  0.00  0.00     0.003 A 
ATOM      5  C3  PXY d   1       0.730   5.997  -3.579  0.00  0.00     0.003 A 
ATOM      6  C4  PXY d   1       1.231   5.978  -4.853  0.00  0.00    -0.082 A 
ATOM      7  C5  PXY d   1       0.382   5.977  -5.902  0.00  0.00     0.003 A 
ATOM      8  C6  PXY d   1      -0.989   5.994  -5.665  0.00  0.00     0.003 A 
ENDROOT
TORSDOF 0
ENDMDL
