MODEL 1
REMARK minimizedAffinity 5.76207829
REMARK minimizedRMSD -1
REMARK  0 active torsions:
REMARK  status: ('A' for Active; 'I' for Inactive)
ROOT
ATOM      1  C4' PXY d   1       1.324   3.236   0.233  0.00  0.00     0.077 C 
ATOM      2  C1' PXY d   1      -0.799  -2.030   1.318  0.00  0.00     0.077 C 
ATOM      3  C1  PXY d   1      -0.247  -0.645   1.044  0.00  0.00    -0.082 A 
ATOM      4  C2  PXY d   1       0.035  -0.287  -0.198  0.00  0.00     0.003 A 
ATOM      5  C3  PXY d   1       0.565   0.951  -0.459  0.00  0.00     0.003 A 
ATOM      6  C4  PXY d   1       0.757   1.851   0.555  0.00  0.00    -0.082 A 
ATOM      7  C5  PXY d   1       0.461   1.497   1.823  0.00  0.00     0.003 A 
ATOM      8  C6  PXY d   1      -0.037   0.221   2.073  0.00  0.00     0.003 A 
ENDROOT
TORSDOF 0
ENDMDL
