MODEL 1
REMARK minimizedAffinity -0.642581761
REMARK minimizedRMSD -1
REMARK  0 active torsions:
REMARK  status: ('A' for Active; 'I' for Inactive)
ROOT
ATOM      1  C4' PXY d   1      -1.122   5.968  -6.000  0.00  0.00     0.077 C 
ATOM      2  C1' PXY d   1      -2.627   5.021  -0.500  0.00  0.00     0.077 C 
ATOM      3  C1  PXY d   1      -2.245   5.268  -1.946  0.00  0.00    -0.082 A 
ATOM      4  C2  PXY d   1      -1.017   4.992  -2.354  0.00  0.00     0.003 A 
ATOM      5  C3  PXY d   1      -0.645   5.240  -3.651  0.00  0.00     0.003 A 
ATOM      6  C4  PXY d   1      -1.555   5.725  -4.551  0.00  0.00    -0.082 A 
ATOM      7  C5  PXY d   1      -2.813   6.000  -4.145  0.00  0.00     0.003 A 
ATOM      8  C6  PXY d   1      -3.158   5.780  -2.815  0.00  0.00     0.003 A 
ENDROOT
TORSDOF 0
ENDMDL
