MODEL 1
REMARK minimizedAffinity -6.56896448
REMARK minimizedRMSD -1
REMARK  1 active torsions:
REMARK  status: ('A' for Active; 'I' for Inactive)
REMARK    1  A    between atoms: C1_2  and  C2_3 
ROOT
ATOM      1  C2  UNL d   1      -1.340   3.717  -0.028  0.00  0.00    -0.076 A 
ATOM      2  C3  UNL d   1      -2.178   3.462  -1.128  0.00  0.00     0.004 A 
ATOM      3  C4  UNL d   1      -3.061   4.433  -1.598  0.00  0.00    -0.003 A 
ATOM      4  C5  UNL d   1      -3.120   5.675  -0.975  0.00  0.00     0.000 A 
ATOM      5  C6  UNL d   1      -2.284   5.952   0.106  0.00  0.00     0.000 A 
ATOM      6  C7  UNL d   1      -1.376   4.989   0.582  0.00  0.00    -0.073 A 
ATOM      7  C8  UNL d   1      -0.502   5.339   1.755  0.00  0.00     0.078 C 
ENDROOT
BRANCH   1   8
ATOM      8  C1  UNL d   1      -0.423   2.616   0.454  0.00  0.00     0.053 C 
ATOM      9  C   UNL d   1      -1.168   1.323   0.747  0.00  0.00     0.018 C 
ENDBRANCH   1   8
TORSDOF 1
ENDMDL
