MODEL 1
REMARK minimizedAffinity -6.04012156
REMARK minimizedRMSD -1
REMARK  1 active torsions:
REMARK  status: ('A' for Active; 'I' for Inactive)
REMARK    1  A    between atoms: C1_2  and  C2_3 
ROOT
ATOM      1  C2  UNL d   1       0.263   4.386   1.798  0.00  0.00    -0.076 A 
ATOM      2  C3  UNL d   1       1.171   5.447   1.643  0.00  0.00     0.004 A 
ATOM      3  C4  UNL d   1       2.469   5.220   1.188  0.00  0.00    -0.003 A 
ATOM      4  C5  UNL d   1       2.879   3.927   0.880  0.00  0.00     0.000 A 
ATOM      5  C6  UNL d   1       1.986   2.865   1.011  0.00  0.00     0.000 A 
ATOM      6  C7  UNL d   1       0.669   3.079   1.453  0.00  0.00    -0.073 A 
ATOM      7  C8  UNL d   1      -0.251   1.896   1.581  0.00  0.00     0.078 C 
ENDROOT
BRANCH   1   8
ATOM      8  C1  UNL d   1      -1.123   4.689   2.320  0.00  0.00     0.053 C 
ATOM      9  C   UNL d   1      -2.020   5.317   1.265  0.00  0.00     0.018 C 
ENDBRANCH   1   8
TORSDOF 1
ENDMDL
