MODEL 1
REMARK minimizedAffinity -3.08676124
REMARK minimizedRMSD -1
REMARK  1 active torsions:
REMARK  status: ('A' for Active; 'I' for Inactive)
REMARK    1  A    between atoms: C1_2  and  C2_3 
ROOT
ATOM      1  C2  UNL d   1       0.699   1.653   0.092  0.00  0.00    -0.076 A 
ATOM      2  C3  UNL d   1       0.990   0.896   1.240  0.00  0.00     0.004 A 
ATOM      3  C4  UNL d   1       0.500  -0.401   1.387  0.00  0.00    -0.003 A 
ATOM      4  C5  UNL d   1      -0.288  -0.962   0.387  0.00  0.00     0.000 A 
ATOM      5  C6  UNL d   1      -0.571  -0.231  -0.766  0.00  0.00     0.000 A 
ATOM      6  C7  UNL d   1      -0.072   1.071  -0.937  0.00  0.00    -0.073 A 
ATOM      7  C8  UNL d   1      -0.414   1.816  -2.199  0.00  0.00     0.078 C 
ENDROOT
BRANCH   1   8
ATOM      8  C1  UNL d   1       1.235   3.064  -0.000  0.00  0.00     0.053 C 
ATOM      9  C   UNL d   1       2.266   3.367   1.076  0.00  0.00     0.018 C 
ENDBRANCH   1   8
TORSDOF 1
ENDMDL
