MODEL 1
REMARK minimizedAffinity -4.64170742
REMARK minimizedRMSD -1
REMARK  1 active torsions:
REMARK  status: ('A' for Active; 'I' for Inactive)
REMARK    1  A    between atoms: C1_2  and  C2_3 
ROOT
ATOM      1  C2  UNL d   1       0.411   2.248  -0.306  0.00  0.00    -0.076 A 
ATOM      2  C3  UNL d   1       0.739   0.918  -0.620  0.00  0.00     0.004 A 
ATOM      3  C4  UNL d   1      -0.070  -0.138  -0.204  0.00  0.00    -0.003 A 
ATOM      4  C5  UNL d   1      -1.223   0.119   0.530  0.00  0.00     0.000 A 
ATOM      5  C6  UNL d   1      -1.573   1.434   0.835  0.00  0.00     0.000 A 
ATOM      6  C7  UNL d   1      -0.776   2.511   0.410  0.00  0.00    -0.073 A 
ATOM      7  C8  UNL d   1      -1.199   3.909   0.772  0.00  0.00     0.078 C 
ENDROOT
BRANCH   1   8
ATOM      8  C1  UNL d   1       1.342   3.350  -0.760  0.00  0.00     0.053 C 
ATOM      9  C   UNL d   1       2.638   3.381   0.034  0.00  0.00     0.018 C 
ENDBRANCH   1   8
TORSDOF 1
ENDMDL
