MODEL 1
REMARK minimizedAffinity -4.9053297
REMARK minimizedRMSD -1
REMARK  1 active torsions:
REMARK  status: ('A' for Active; 'I' for Inactive)
REMARK    1  A    between atoms: C1_2  and  C2_3 
ROOT
ATOM      1  C2  UNL d   1      -1.284   2.053  -0.237  0.00  0.00    -0.076 A 
ATOM      2  C3  UNL d   1      -1.840   0.933   0.406  0.00  0.00     0.004 A 
ATOM      3  C4  UNL d   1      -1.326  -0.345   0.194  0.00  0.00    -0.003 A 
ATOM      4  C5  UNL d   1      -0.247  -0.525  -0.664  0.00  0.00     0.000 A 
ATOM      5  C6  UNL d   1       0.328   0.577  -1.297  0.00  0.00     0.000 A 
ATOM      6  C7  UNL d   1      -0.167   1.874  -1.081  0.00  0.00    -0.073 A 
ATOM      7  C8  UNL d   1       0.488   3.025  -1.795  0.00  0.00     0.078 C 
ENDROOT
BRANCH   1   8
ATOM      8  C1  UNL d   1      -1.901   3.411   0.010  0.00  0.00     0.053 C 
ATOM      9  C   UNL d   1      -1.401   4.052   1.296  0.00  0.00     0.018 C 
ENDBRANCH   1   8
TORSDOF 1
ENDMDL
