MODEL 1
REMARK minimizedAffinity 0.0517663397
REMARK minimizedRMSD -1
REMARK  1 active torsions:
REMARK  status: ('A' for Active; 'I' for Inactive)
REMARK    1  A    between atoms: C1_2  and  C2_3 
ROOT
ATOM      1  C2  UNL d   1      -0.826   1.188  -0.278  0.00  0.00    -0.076 A 
ATOM      2  C3  UNL d   1      -0.230   1.157  -1.551  0.00  0.00     0.004 A 
ATOM      3  C4  UNL d   1       0.245  -0.036  -2.092  0.00  0.00    -0.003 A 
ATOM      4  C5  UNL d   1       0.130  -1.219  -1.369  0.00  0.00     0.000 A 
ATOM      5  C6  UNL d   1      -0.474  -1.210  -0.113  0.00  0.00     0.000 A 
ATOM      6  C7  UNL d   1      -0.973  -0.018   0.441  0.00  0.00    -0.073 A 
ATOM      7  C8  UNL d   1      -1.610  -0.065   1.802  0.00  0.00     0.078 C 
ENDROOT
BRANCH   1   8
ATOM      8  C1  UNL d   1      -1.298   2.517   0.269  0.00  0.00     0.053 C 
ATOM      9  C   UNL d   1      -0.156   3.365   0.806  0.00  0.00     0.018 C 
ENDBRANCH   1   8
TORSDOF 1
ENDMDL
