MODEL 1
REMARK minimizedAffinity -5.250597
REMARK minimizedRMSD -1
REMARK  1 active torsions:
REMARK  status: ('A' for Active; 'I' for Inactive)
REMARK    1  A    between atoms: C1_2  and  C2_3 
ROOT
ATOM      1  C2  UNL d   1      -0.958  -1.073  -0.282  0.00  0.00    -0.076 A 
ATOM      2  C3  UNL d   1      -0.193  -1.101  -1.461  0.00  0.00     0.004 A 
ATOM      3  C4  UNL d   1       0.286   0.076  -2.034  0.00  0.00    -0.003 A 
ATOM      4  C5  UNL d   1       0.008   1.301  -1.436  0.00  0.00     0.000 A 
ATOM      5  C6  UNL d   1      -0.734   1.345  -0.256  0.00  0.00     0.000 A 
ATOM      6  C7  UNL d   1      -1.211   0.167   0.343  0.00  0.00    -0.073 A 
ATOM      7  C8  UNL d   1      -2.011   0.274   1.612  0.00  0.00     0.078 C 
ENDROOT
BRANCH   1   8
ATOM      8  C1  UNL d   1      -1.474  -2.380   0.278  0.00  0.00     0.053 C 
ATOM      9  C   UNL d   1      -0.408  -3.465   0.300  0.00  0.00     0.018 C 
ENDBRANCH   1   8
TORSDOF 1
ENDMDL
