MODEL 1
REMARK minimizedAffinity -3.10434437
REMARK minimizedRMSD -1
REMARK  1 active torsions:
REMARK  status: ('A' for Active; 'I' for Inactive)
REMARK    1  A    between atoms: C1_2  and  C2_3 
ROOT
ATOM      1  C2  UNL d   1      -1.262   1.735  -0.076  0.00  0.00    -0.076 A 
ATOM      2  C3  UNL d   1      -0.323   2.001  -1.088  0.00  0.00     0.004 A 
ATOM      3  C4  UNL d   1       0.439   0.977  -1.647  0.00  0.00    -0.003 A 
ATOM      4  C5  UNL d   1       0.275  -0.330  -1.203  0.00  0.00     0.000 A 
ATOM      5  C6  UNL d   1      -0.664  -0.616  -0.213  0.00  0.00     0.000 A 
ATOM      6  C7  UNL d   1      -1.452   0.403   0.350  0.00  0.00    -0.073 A 
ATOM      7  C8  UNL d   1      -2.446   0.039   1.419  0.00  0.00     0.078 C 
ENDROOT
BRANCH   1   8
ATOM      8  C1  UNL d   1      -2.041   2.890   0.511  0.00  0.00     0.053 C 
ATOM      9  C   UNL d   1      -1.150   4.065   0.882  0.00  0.00     0.018 C 
ENDBRANCH   1   8
TORSDOF 1
ENDMDL
