MODEL 1
REMARK minimizedAffinity -4.54972696
REMARK minimizedRMSD -1
REMARK  1 active torsions:
REMARK  status: ('A' for Active; 'I' for Inactive)
REMARK    1  A    between atoms: C1_2  and  C2_3 
ROOT
ATOM      1  C2  UNL d   1      -0.476  -0.691   0.011  0.00  0.00    -0.076 A 
ATOM      2  C3  UNL d   1      -0.989   0.227   0.943  0.00  0.00     0.004 A 
ATOM      3  C4  UNL d   1      -1.099   1.581   0.631  0.00  0.00    -0.003 A 
ATOM      4  C5  UNL d   1      -0.698   2.039  -0.619  0.00  0.00     0.000 A 
ATOM      5  C6  UNL d   1      -0.203   1.139  -1.562  0.00  0.00     0.000 A 
ATOM      6  C7  UNL d   1      -0.100  -0.232  -1.270  0.00  0.00    -0.073 A 
ATOM      7  C8  UNL d   1       0.446  -1.156  -2.323  0.00  0.00     0.078 C 
ENDROOT
BRANCH   1   8
ATOM      8  C1  UNL d   1      -0.355  -2.143   0.415  0.00  0.00     0.053 C 
ATOM      9  C   UNL d   1      -1.709  -2.813   0.596  0.00  0.00     0.018 C 
ENDBRANCH   1   8
TORSDOF 1
ENDMDL
