MODEL 1
REMARK minimizedAffinity -4.77530289
REMARK minimizedRMSD -1
REMARK  1 active torsions:
REMARK  status: ('A' for Active; 'I' for Inactive)
REMARK    1  A    between atoms: C1_2  and  C2_3 
ROOT
ATOM      1  C2  UNL d   1       1.203   3.649   0.910  0.00  0.00    -0.076 A 
ATOM      2  C3  UNL d   1       1.071   4.597   1.940  0.00  0.00     0.004 A 
ATOM      3  C4  UNL d   1      -0.186   4.983   2.403  0.00  0.00    -0.003 A 
ATOM      4  C5  UNL d   1      -1.331   4.426   1.844  0.00  0.00     0.000 A 
ATOM      5  C6  UNL d   1      -1.219   3.472   0.834  0.00  0.00     0.000 A 
ATOM      6  C7  UNL d   1       0.041   3.060   0.367  0.00  0.00    -0.073 A 
ATOM      7  C8  UNL d   1       0.104   2.031  -0.729  0.00  0.00     0.078 C 
ENDROOT
BRANCH   1   8
ATOM      8  C1  UNL d   1       2.591   3.289   0.430  0.00  0.00     0.053 C 
ATOM      9  C   UNL d   1       3.547   3.000   1.576  0.00  0.00     0.018 C 
ENDBRANCH   1   8
TORSDOF 1
ENDMDL
