MODEL 1
REMARK minimizedAffinity -2.13047957
REMARK minimizedRMSD -1
REMARK  1 active torsions:
REMARK  status: ('A' for Active; 'I' for Inactive)
REMARK    1  A    between atoms: C1_2  and  C2_3 
ROOT
ATOM      1  C2  UNL d   1      -0.616  -1.332   0.143  0.00  0.00    -0.076 A 
ATOM      2  C3  UNL d   1       0.103  -1.252  -1.062  0.00  0.00     0.004 A 
ATOM      3  C4  UNL d   1       0.108  -0.082  -1.819  0.00  0.00    -0.003 A 
ATOM      4  C5  UNL d   1      -0.606   1.028  -1.382  0.00  0.00     0.000 A 
ATOM      5  C6  UNL d   1      -1.311   0.973  -0.180  0.00  0.00     0.000 A 
ATOM      6  C7  UNL d   1      -1.313  -0.194   0.603  0.00  0.00    -0.073 A 
ATOM      7  C8  UNL d   1      -2.095  -0.200   1.888  0.00  0.00     0.078 C 
ENDROOT
BRANCH   1   8
ATOM      8  C1  UNL d   1      -0.606  -2.636   0.908  0.00  0.00     0.053 C 
ATOM      9  C   UNL d   1      -1.793  -3.523   0.563  0.00  0.00     0.018 C 
ENDBRANCH   1   8
TORSDOF 1
ENDMDL
