MODEL 1
REMARK minimizedAffinity -4.66801119
REMARK minimizedRMSD -1
REMARK  1 active torsions:
REMARK  status: ('A' for Active; 'I' for Inactive)
REMARK    1  A    between atoms: C1_2  and  C2_3 
ROOT
ATOM      1  C2  UNL d   1       0.045   3.236   0.352  0.00  0.00    -0.076 A 
ATOM      2  C3  UNL d   1      -1.222   3.831   0.487  0.00  0.00     0.004 A 
ATOM      3  C4  UNL d   1      -1.391   4.996   1.233  0.00  0.00    -0.003 A 
ATOM      4  C5  UNL d   1      -0.296   5.586   1.854  0.00  0.00     0.000 A 
ATOM      5  C6  UNL d   1       0.971   5.020   1.716  0.00  0.00     0.000 A 
ATOM      6  C7  UNL d   1       1.161   3.854   0.955  0.00  0.00    -0.073 A 
ATOM      7  C8  UNL d   1       2.548   3.282   0.844  0.00  0.00     0.078 C 
ENDROOT
BRANCH   1   8
ATOM      8  C1  UNL d   1       0.163   1.957  -0.446  0.00  0.00     0.053 C 
ATOM      9  C   UNL d   1      -1.041   1.045  -0.266  0.00  0.00     0.018 C 
ENDBRANCH   1   8
TORSDOF 1
ENDMDL
