MODEL 1
REMARK minimizedAffinity -3.46782827
REMARK minimizedRMSD -1
REMARK  0 active torsions:
REMARK  status: ('A' for Active; 'I' for Inactive)
ROOT
ATOM      1  C1  BNZ d   1      -0.516  -0.038  -1.583  0.00  0.00     0.000 A 
ATOM      2  C2  BNZ d   1       0.250  -0.269  -0.471  0.00  0.00     0.000 A 
ATOM      3  C3  BNZ d   1      -0.247  -0.978   0.586  0.00  0.00     0.000 A 
ATOM      4  C4  BNZ d   1      -1.521  -1.420   0.548  0.00  0.00     0.000 A 
ATOM      5  C5  BNZ d   1      -2.309  -1.186  -0.562  0.00  0.00     0.000 A 
ATOM      6  C6  BNZ d   1      -1.792  -0.506  -1.640  0.00  0.00     0.000 A 
ENDROOT
TORSDOF 0
ENDMDL
