MODEL 1
REMARK minimizedAffinity -3.95287728
REMARK minimizedRMSD -1
REMARK  0 active torsions:
REMARK  status: ('A' for Active; 'I' for Inactive)
ROOT
ATOM      1  C1  BNZ d   1       0.217  -1.271   0.301  0.00  0.00     0.000 A 
ATOM      2  C2  BNZ d   1      -0.897  -1.959  -0.099  0.00  0.00     0.000 A 
ATOM      3  C3  BNZ d   1      -1.800  -1.393  -0.954  0.00  0.00     0.000 A 
ATOM      4  C4  BNZ d   1      -1.609  -0.127  -1.378  0.00  0.00     0.000 A 
ATOM      5  C5  BNZ d   1      -0.496   0.584  -0.976  0.00  0.00     0.000 A 
ATOM      6  C6  BNZ d   1       0.431  -0.003  -0.146  0.00  0.00     0.000 A 
ENDROOT
TORSDOF 0
ENDMDL
