MODEL 1
REMARK minimizedAffinity -2.64366412
REMARK minimizedRMSD -1
REMARK  0 active torsions:
REMARK  status: ('A' for Active; 'I' for Inactive)
ROOT
ATOM      1  C1  BNZ d   1      -2.301  -0.071  -1.453  0.00  0.00     0.000 A 
ATOM      2  C2  BNZ d   1      -1.252   0.791  -1.274  0.00  0.00     0.000 A 
ATOM      3  C3  BNZ d   1      -0.230   0.482  -0.421  0.00  0.00     0.000 A 
ATOM      4  C4  BNZ d   1      -0.278  -0.668   0.282  0.00  0.00     0.000 A 
ATOM      5  C5  BNZ d   1      -1.333  -1.544   0.119  0.00  0.00     0.000 A 
ATOM      6  C6  BNZ d   1      -2.341  -1.247  -0.770  0.00  0.00     0.000 A 
ENDROOT
TORSDOF 0
ENDMDL
