MODEL 1
REMARK minimizedAffinity -2.29949784
REMARK minimizedRMSD -1
REMARK  0 active torsions:
REMARK  status: ('A' for Active; 'I' for Inactive)
ROOT
ATOM      1  C1  BNZ d   1      -2.202  -0.141  -1.622  0.00  0.00     0.000 A 
ATOM      2  C2  BNZ d   1      -1.508   1.032  -1.491  0.00  0.00     0.000 A 
ATOM      3  C3  BNZ d   1      -0.475   1.139  -0.602  0.00  0.00     0.000 A 
ATOM      4  C4  BNZ d   1      -0.165   0.087   0.183  0.00  0.00     0.000 A 
ATOM      5  C5  BNZ d   1      -0.862  -1.099   0.070  0.00  0.00     0.000 A 
ATOM      6  C6  BNZ d   1      -1.876  -1.216  -0.853  0.00  0.00     0.000 A 
ENDROOT
TORSDOF 0
ENDMDL
