MODEL 1
REMARK minimizedAffinity -3.11680579
REMARK minimizedRMSD -1
REMARK  0 active torsions:
REMARK  status: ('A' for Active; 'I' for Inactive)
ROOT
ATOM      1  C1  BNZ d   1       2.604   0.454   0.581  0.00  0.00     0.000 A 
ATOM      2  C2  BNZ d   1       1.646  -0.386   0.080  0.00  0.00     0.000 A 
ATOM      3  C3  BNZ d   1       0.328  -0.024   0.079  0.00  0.00     0.000 A 
ATOM      4  C4  BNZ d   1      -0.034   1.160   0.614  0.00  0.00     0.000 A 
ATOM      5  C5  BNZ d   1       0.919   2.014   1.131  0.00  0.00     0.000 A 
ATOM      6  C6  BNZ d   1       2.249   1.663   1.096  0.00  0.00     0.000 A 
ENDROOT
TORSDOF 0
ENDMDL
