MODEL 1
REMARK minimizedAffinity -2.69576859
REMARK minimizedRMSD -1
REMARK  0 active torsions:
REMARK  status: ('A' for Active; 'I' for Inactive)
ROOT
ATOM      1  C1  BNZ d   1       0.109   1.312  -0.233  0.00  0.00     0.000 A 
ATOM      2  C2  BNZ d   1      -1.121   1.638  -0.738  0.00  0.00     0.000 A 
ATOM      3  C3  BNZ d   1      -1.702   0.875  -1.713  0.00  0.00     0.000 A 
ATOM      4  C4  BNZ d   1      -1.036  -0.187  -2.208  0.00  0.00     0.000 A 
ATOM      5  C5  BNZ d   1       0.210  -0.523  -1.716  0.00  0.00     0.000 A 
ATOM      6  C6  BNZ d   1       0.775   0.224  -0.708  0.00  0.00     0.000 A 
ENDROOT
TORSDOF 0
ENDMDL
