MODEL 1
REMARK minimizedAffinity -3.06602526
REMARK minimizedRMSD -1
REMARK  0 active torsions:
REMARK  status: ('A' for Active; 'I' for Inactive)
ROOT
ATOM      1  C1  BNZ d   1      -0.492  -0.839  -0.514  0.00  0.00     0.000 A 
ATOM      2  C2  BNZ d   1      -0.927  -0.008  -1.511  0.00  0.00     0.000 A 
ATOM      3  C3  BNZ d   1      -0.435   1.261  -1.629  0.00  0.00     0.000 A 
ATOM      4  C4  BNZ d   1       0.462   1.711  -0.728  0.00  0.00     0.000 A 
ATOM      5  C5  BNZ d   1       0.904   0.888   0.288  0.00  0.00     0.000 A 
ATOM      6  C6  BNZ d   1       0.435  -0.402   0.381  0.00  0.00     0.000 A 
ENDROOT
TORSDOF 0
ENDMDL
