MODEL 1
REMARK minimizedAffinity -2.69012904
REMARK minimizedRMSD -1
REMARK  0 active torsions:
REMARK  status: ('A' for Active; 'I' for Inactive)
ROOT
ATOM      1  C1  BNZ d   1       0.144  -1.024   0.059  0.00  0.00     0.000 A 
ATOM      2  C2  BNZ d   1       0.094   0.248  -0.445  0.00  0.00     0.000 A 
ATOM      3  C3  BNZ d   1      -1.014   0.694  -1.111  0.00  0.00     0.000 A 
ATOM      4  C4  BNZ d   1      -2.052  -0.144  -1.305  0.00  0.00     0.000 A 
ATOM      5  C5  BNZ d   1      -2.013  -1.432  -0.811  0.00  0.00     0.000 A 
ATOM      6  C6  BNZ d   1      -0.912  -1.865  -0.108  0.00  0.00     0.000 A 
ENDROOT
TORSDOF 0
ENDMDL
