MODEL 1
REMARK minimizedAffinity -3.24613881
REMARK minimizedRMSD -1
REMARK  0 active torsions:
REMARK  status: ('A' for Active; 'I' for Inactive)
ROOT
ATOM      1  C1  BNZ d   1      -1.006   1.128  -0.370  0.00  0.00     0.000 A 
ATOM      2  C2  BNZ d   1       0.023   1.516   0.446  0.00  0.00     0.000 A 
ATOM      3  C3  BNZ d   1       1.275   0.991   0.292  0.00  0.00     0.000 A 
ATOM      4  C4  BNZ d   1       1.488   0.051  -0.651  0.00  0.00     0.000 A 
ATOM      5  C5  BNZ d   1       0.459  -0.358  -1.476  0.00  0.00     0.000 A 
ATOM      6  C6  BNZ d   1      -0.791   0.201  -1.343  0.00  0.00     0.000 A 
ENDROOT
TORSDOF 0
ENDMDL
