MODEL 1
REMARK minimizedAffinity -2.51634026
REMARK minimizedRMSD -1
REMARK  0 active torsions:
REMARK  status: ('A' for Active; 'I' for Inactive)
ROOT
ATOM      1  C1  BNZ d   1      -0.881   1.195  -0.013  0.00  0.00     0.000 A 
ATOM      2  C2  BNZ d   1       0.148   1.336   0.880  0.00  0.00     0.000 A 
ATOM      3  C3  BNZ d   1       1.316   0.645   0.715  0.00  0.00     0.000 A 
ATOM      4  C4  BNZ d   1       1.438  -0.215  -0.317  0.00  0.00     0.000 A 
ATOM      5  C5  BNZ d   1       0.405  -0.375  -1.219  0.00  0.00     0.000 A 
ATOM      6  C6  BNZ d   1      -0.754   0.352  -1.073  0.00  0.00     0.000 A 
ENDROOT
TORSDOF 0
ENDMDL
