MODEL 1
REMARK minimizedAffinity -1.25586069
REMARK minimizedRMSD -1
REMARK  0 active torsions:
REMARK  status: ('A' for Active; 'I' for Inactive)
ROOT
ATOM      1  C1  BNZ d   1       1.192   0.229   0.013  0.00  0.00     0.000 A 
ATOM      2  C2  BNZ d   1       0.528   0.833  -1.021  0.00  0.00     0.000 A 
ATOM      3  C3  BNZ d   1      -0.805   0.606  -1.224  0.00  0.00     0.000 A 
ATOM      4  C4  BNZ d   1      -1.461  -0.253  -0.419  0.00  0.00     0.000 A 
ATOM      5  C5  BNZ d   1      -0.804  -0.877   0.622  0.00  0.00     0.000 A 
ATOM      6  C6  BNZ d   1       0.529  -0.617   0.847  0.00  0.00     0.000 A 
ENDROOT
TORSDOF 0
ENDMDL
