MODEL 1
REMARK minimizedAffinity -1.54472792
REMARK minimizedRMSD -1
REMARK  0 active torsions:
REMARK  status: ('A' for Active; 'I' for Inactive)
ROOT
ATOM      1  C1  BNZ d   1       0.238  -0.082  -0.062  0.00  0.00     0.000 A 
ATOM      2  C2  BNZ d   1      -0.668  -1.107  -0.020  0.00  0.00     0.000 A 
ATOM      3  C3  BNZ d   1      -1.878  -0.998  -0.647  0.00  0.00     0.000 A 
ATOM      4  C4  BNZ d   1      -2.196   0.149  -1.280  0.00  0.00     0.000 A 
ATOM      5  C5  BNZ d   1      -1.296   1.196  -1.323  0.00  0.00     0.000 A 
ATOM      6  C6  BNZ d   1      -0.064   1.068  -0.724  0.00  0.00     0.000 A 
ENDROOT
TORSDOF 0
ENDMDL
