MODEL 1
REMARK minimizedAffinity -1.87679589
REMARK minimizedRMSD -1
REMARK  0 active torsions:
REMARK  status: ('A' for Active; 'I' for Inactive)
ROOT
ATOM      1  C1  BNZ d   1      -2.487  -1.902  -0.636  0.00  0.00     0.000 A 
ATOM      2  C2  BNZ d   1      -2.064  -0.795  -1.322  0.00  0.00     0.000 A 
ATOM      3  C3  BNZ d   1      -0.951  -0.109  -0.925  0.00  0.00     0.000 A 
ATOM      4  C4  BNZ d   1      -0.286  -0.506   0.179  0.00  0.00     0.000 A 
ATOM      5  C5  BNZ d   1      -0.705  -1.614   0.887  0.00  0.00     0.000 A 
ATOM      6  C6  BNZ d   1      -1.804  -2.326   0.462  0.00  0.00     0.000 A 
ENDROOT
TORSDOF 0
ENDMDL
