MODEL 1
REMARK minimizedAffinity -3.90313125
REMARK minimizedRMSD -1
REMARK  0 active torsions:
REMARK  status: ('A' for Active; 'I' for Inactive)
ROOT
ATOM      1  C1  BNZ d   1       1.040   1.031   0.494  0.00  0.00     0.000 A 
ATOM      2  C2  BNZ d   1       0.699  -0.128  -0.150  0.00  0.00     0.000 A 
ATOM      3  C3  BNZ d   1      -0.409  -0.185  -0.949  0.00  0.00     0.000 A 
ATOM      4  C4  BNZ d   1      -1.195   0.904  -1.071  0.00  0.00     0.000 A 
ATOM      5  C5  BNZ d   1      -0.870   2.077  -0.421  0.00  0.00     0.000 A 
ATOM      6  C6  BNZ d   1       0.267   2.143   0.352  0.00  0.00     0.000 A 
ENDROOT
TORSDOF 0
ENDMDL
