MODEL 1
REMARK minimizedAffinity -3.17417765
REMARK minimizedRMSD -1
REMARK  0 active torsions:
REMARK  status: ('A' for Active; 'I' for Inactive)
ROOT
ATOM      1  C1  BNZ d   1       1.505   0.112   0.272  0.00  0.00     0.000 A 
ATOM      2  C2  BNZ d   1       0.356  -0.201  -0.404  0.00  0.00     0.000 A 
ATOM      3  C3  BNZ d   1      -0.587   0.754  -0.662  0.00  0.00     0.000 A 
ATOM      4  C4  BNZ d   1      -0.399   2.011  -0.209  0.00  0.00     0.000 A 
ATOM      5  C5  BNZ d   1       0.750   2.340   0.482  0.00  0.00     0.000 A 
ATOM      6  C6  BNZ d   1       1.715   1.385   0.706  0.00  0.00     0.000 A 
ENDROOT
TORSDOF 0
ENDMDL
