MODEL 1
REMARK minimizedAffinity -2.29814506
REMARK minimizedRMSD -1
REMARK  0 active torsions:
REMARK  status: ('A' for Active; 'I' for Inactive)
ROOT
ATOM      1  C1  BNZ d   1       1.732   0.049  -0.352  0.00  0.00     0.000 A 
ATOM      2  C2  BNZ d   1       0.680  -0.410  -1.100  0.00  0.00     0.000 A 
ATOM      3  C3  BNZ d   1      -0.547   0.187  -1.022  0.00  0.00     0.000 A 
ATOM      4  C4  BNZ d   1      -0.731   1.215  -0.168  0.00  0.00     0.000 A 
ATOM      5  C5  BNZ d   1       0.317   1.683   0.599  0.00  0.00     0.000 A 
ATOM      6  C6  BNZ d   1       1.561   1.104   0.489  0.00  0.00     0.000 A 
ENDROOT
TORSDOF 0
ENDMDL
