MODEL 1
REMARK minimizedAffinity -0.874721467
REMARK minimizedRMSD -1
REMARK  0 active torsions:
REMARK  status: ('A' for Active; 'I' for Inactive)
ROOT
ATOM      1  C1  BNZ d   1      -0.161   0.199  -1.993  0.00  0.00     0.000 A 
ATOM      2  C2  BNZ d   1      -1.076  -0.791  -2.238  0.00  0.00     0.000 A 
ATOM      3  C3  BNZ d   1      -2.022  -1.115  -1.306  0.00  0.00     0.000 A 
ATOM      4  C4  BNZ d   1      -2.027  -0.479  -0.117  0.00  0.00     0.000 A 
ATOM      5  C5  BNZ d   1      -1.106   0.514   0.148  0.00  0.00     0.000 A 
ATOM      6  C6  BNZ d   1      -0.180   0.865  -0.807  0.00  0.00     0.000 A 
ENDROOT
TORSDOF 0
ENDMDL
