MODEL 1
REMARK minimizedAffinity -4.05950785
REMARK minimizedRMSD -1
REMARK  1 active torsions:
REMARK  status: ('A' for Active; 'I' for Inactive)
REMARK    1  A    between atoms: C1_2  and  C2_3 
ROOT
ATOM      1  C2  UNL d   1      -1.243   0.310  -1.273  0.00  0.00    -0.076 A 
ATOM      2  C3  UNL d   1      -0.699  -0.912  -1.703  0.00  0.00     0.004 A 
ATOM      3  C4  UNL d   1       0.516  -1.374  -1.199  0.00  0.00    -0.003 A 
ATOM      4  C5  UNL d   1       1.206  -0.621  -0.255  0.00  0.00     0.000 A 
ATOM      5  C6  UNL d   1       0.672   0.586   0.196  0.00  0.00     0.000 A 
ATOM      6  C7  UNL d   1      -0.560   1.058  -0.290  0.00  0.00    -0.073 A 
ATOM      7  C8  UNL d   1      -1.086   2.369   0.227  0.00  0.00     0.078 C 
ENDROOT
BRANCH   1   8
ATOM      8  C1  UNL d   1      -2.550   0.773  -1.876  0.00  0.00     0.053 C 
ATOM      9  C   UNL d   1      -2.348   1.657  -3.097  0.00  0.00     0.018 C 
ENDBRANCH   1   8
TORSDOF 1
ENDMDL
