MODEL 1
REMARK minimizedAffinity 0.93164289
REMARK minimizedRMSD -1
REMARK  1 active torsions:
REMARK  status: ('A' for Active; 'I' for Inactive)
REMARK    1  A    between atoms: C1_2  and  C2_3 
ROOT
ATOM      1  C2  UNL d   1      -0.041  -1.102   0.612  0.00  0.00    -0.076 A 
ATOM      2  C3  UNL d   1      -0.096   0.232   0.171  0.00  0.00     0.004 A 
ATOM      3  C4  UNL d   1       1.012   0.839  -0.416  0.00  0.00    -0.003 A 
ATOM      4  C5  UNL d   1       2.194   0.123  -0.572  0.00  0.00     0.000 A 
ATOM      5  C6  UNL d   1       2.261  -1.206  -0.156  0.00  0.00     0.000 A 
ATOM      6  C7  UNL d   1       1.147  -1.839   0.423  0.00  0.00    -0.073 A 
ATOM      7  C8  UNL d   1       1.277  -3.272   0.859  0.00  0.00     0.078 C 
ENDROOT
BRANCH   1   8
ATOM      8  C1  UNL d   1      -1.267  -1.699   1.266  0.00  0.00     0.053 C 
ATOM      9  C   UNL d   1      -1.829  -0.814   2.368  0.00  0.00     0.018 C 
ENDBRANCH   1   8
TORSDOF 1
ENDMDL
