MODEL 1
REMARK minimizedAffinity -2.54517841
REMARK minimizedRMSD -1
REMARK  1 active torsions:
REMARK  status: ('A' for Active; 'I' for Inactive)
REMARK    1  A    between atoms: C1_2  and  C2_3 
ROOT
ATOM      1  C2  UNL d   1       0.850  -0.861   0.385  0.00  0.00    -0.076 A 
ATOM      2  C3  UNL d   1      -0.470  -1.324   0.520  0.00  0.00     0.004 A 
ATOM      3  C4  UNL d   1      -1.542  -0.594   0.011  0.00  0.00    -0.003 A 
ATOM      4  C5  UNL d   1      -1.312   0.612  -0.643  0.00  0.00     0.000 A 
ATOM      5  C6  UNL d   1      -0.007   1.078  -0.801  0.00  0.00     0.000 A 
ATOM      6  C7  UNL d   1       1.087   0.346  -0.308  0.00  0.00    -0.073 A 
ATOM      7  C8  UNL d   1       2.472   0.899  -0.502  0.00  0.00     0.078 C 
ENDROOT
BRANCH   1   8
ATOM      8  C1  UNL d   1       1.971  -1.682   0.982  0.00  0.00     0.053 C 
ATOM      9  C   UNL d   1       1.626  -3.161   1.070  0.00  0.00     0.018 C 
ENDBRANCH   1   8
TORSDOF 1
ENDMDL
