MODEL 1
REMARK minimizedAffinity -2.71729636
REMARK minimizedRMSD -1
REMARK  1 active torsions:
REMARK  status: ('A' for Active; 'I' for Inactive)
REMARK    1  A    between atoms: C1_2  and  C2_3 
ROOT
ATOM      1  C2  UNL d   1       1.962  -0.870   0.678  0.00  0.00    -0.076 A 
ATOM      2  C3  UNL d   1       1.634   0.290  -0.046  0.00  0.00     0.004 A 
ATOM      3  C4  UNL d   1       0.397   0.417  -0.676  0.00  0.00    -0.003 A 
ATOM      4  C5  UNL d   1      -0.532  -0.614  -0.593  0.00  0.00     0.000 A 
ATOM      5  C6  UNL d   1      -0.231  -1.764   0.135  0.00  0.00     0.000 A 
ATOM      6  C7  UNL d   1       1.005  -1.902   0.790  0.00  0.00    -0.073 A 
ATOM      7  C8  UNL d   1       1.279  -3.167   1.557  0.00  0.00     0.078 C 
ENDROOT
BRANCH   1   8
ATOM      8  C1  UNL d   1       3.328  -0.963   1.318  0.00  0.00     0.053 C 
ATOM      9  C   UNL d   1       3.330  -0.482   2.760  0.00  0.00     0.018 C 
ENDBRANCH   1   8
TORSDOF 1
ENDMDL
