MODEL 1
REMARK minimizedAffinity -2.10020542
REMARK minimizedRMSD -1
REMARK  1 active torsions:
REMARK  status: ('A' for Active; 'I' for Inactive)
REMARK    1  A    between atoms: C1_2  and  C2_3 
ROOT
ATOM      1  C2  UNL d   1      -0.048  -0.051  -0.280  0.00  0.00    -0.076 A 
ATOM      2  C3  UNL d   1      -0.761  -0.672   0.760  0.00  0.00     0.004 A 
ATOM      3  C4  UNL d   1      -0.193  -1.707   1.500  0.00  0.00    -0.003 A 
ATOM      4  C5  UNL d   1       1.098  -2.137   1.214  0.00  0.00     0.000 A 
ATOM      5  C6  UNL d   1       1.826  -1.520   0.197  0.00  0.00     0.000 A 
ATOM      6  C7  UNL d   1       1.274  -0.464  -0.548  0.00  0.00    -0.073 A 
ATOM      7  C8  UNL d   1       2.103   0.161  -1.637  0.00  0.00     0.078 C 
ENDROOT
BRANCH   1   8
ATOM      8  C1  UNL d   1      -0.726   1.048  -1.067  0.00  0.00     0.053 C 
ATOM      9  C   UNL d   1      -2.137   0.674  -1.494  0.00  0.00     0.018 C 
ENDBRANCH   1   8
TORSDOF 1
ENDMDL
