MODEL 1
REMARK minimizedAffinity -3.80116963
REMARK minimizedRMSD -1
REMARK  1 active torsions:
REMARK  status: ('A' for Active; 'I' for Inactive)
REMARK    1  A    between atoms: C1_2  and  C2_3 
ROOT
ATOM      1  C2  UNL d   1      -1.840   2.064  -2.287  0.00  0.00    -0.076 A 
ATOM      2  C3  UNL d   1      -3.072   1.566  -1.826  0.00  0.00     0.004 A 
ATOM      3  C4  UNL d   1      -4.063   1.165  -2.720  0.00  0.00    -0.003 A 
ATOM      4  C5  UNL d   1      -3.839   1.253  -4.089  0.00  0.00     0.000 A 
ATOM      5  C6  UNL d   1      -2.617   1.728  -4.564  0.00  0.00     0.000 A 
ATOM      6  C7  UNL d   1      -1.601   2.122  -3.677  0.00  0.00    -0.073 A 
ATOM      7  C8  UNL d   1      -0.304   2.633  -4.244  0.00  0.00     0.078 C 
ENDROOT
BRANCH   1   8
ATOM      8  C1  UNL d   1      -0.814   2.511  -1.271  0.00  0.00     0.053 C 
ATOM      9  C   UNL d   1      -0.640   1.509  -0.140  0.00  0.00     0.018 C 
ENDBRANCH   1   8
TORSDOF 1
ENDMDL
