MODEL 1
REMARK minimizedAffinity -1.8357749
REMARK minimizedRMSD -1
REMARK  1 active torsions:
REMARK  status: ('A' for Active; 'I' for Inactive)
REMARK    1  A    between atoms: C1_2  and  C2_3 
ROOT
ATOM      1  C2  UNL d   1      -0.232  -0.204  -0.280  0.00  0.00    -0.076 A 
ATOM      2  C3  UNL d   1       0.684  -0.493  -1.306  0.00  0.00     0.004 A 
ATOM      3  C4  UNL d   1       1.644  -1.492  -1.151  0.00  0.00    -0.003 A 
ATOM      4  C5  UNL d   1       1.702  -2.219   0.034  0.00  0.00     0.000 A 
ATOM      5  C6  UNL d   1       0.790  -1.957   1.055  0.00  0.00     0.000 A 
ATOM      6  C7  UNL d   1      -0.194  -0.964   0.908  0.00  0.00    -0.073 A 
ATOM      7  C8  UNL d   1      -1.148  -0.720   2.045  0.00  0.00     0.078 C 
ENDROOT
BRANCH   1   8
ATOM      8  C1  UNL d   1      -1.232   0.909  -0.495  0.00  0.00     0.053 C 
ATOM      9  C   UNL d   1      -1.891   0.844  -1.864  0.00  0.00     0.018 C 
ENDBRANCH   1   8
TORSDOF 1
ENDMDL
