MODEL 1
REMARK minimizedAffinity -2.96761394
REMARK minimizedRMSD -1
REMARK  1 active torsions:
REMARK  status: ('A' for Active; 'I' for Inactive)
REMARK    1  A    between atoms: C1_2  and  C2_3 
ROOT
ATOM      1  C2  UNL d   1       0.699  -0.637  -0.037  0.00  0.00    -0.076 A 
ATOM      2  C3  UNL d   1       0.075   0.198   0.907  0.00  0.00     0.004 A 
ATOM      3  C4  UNL d   1      -0.843   1.168   0.510  0.00  0.00    -0.003 A 
ATOM      4  C5  UNL d   1      -1.153   1.319  -0.837  0.00  0.00     0.000 A 
ATOM      5  C6  UNL d   1      -0.558   0.488  -1.785  0.00  0.00     0.000 A 
ATOM      6  C7  UNL d   1       0.358  -0.506  -1.400  0.00  0.00    -0.073 A 
ATOM      7  C8  UNL d   1       0.975  -1.371  -2.465  0.00  0.00     0.078 C 
ENDROOT
BRANCH   1   8
ATOM      8  C1  UNL d   1       1.707  -1.653   0.450  0.00  0.00     0.053 C 
ATOM      9  C   UNL d   1       2.813  -1.024   1.283  0.00  0.00     0.018 C 
ENDBRANCH   1   8
TORSDOF 1
ENDMDL
