MODEL 1
REMARK minimizedAffinity -3.15614438
REMARK minimizedRMSD -1
REMARK  1 active torsions:
REMARK  status: ('A' for Active; 'I' for Inactive)
REMARK    1  A    between atoms: C1_2  and  C2_3 
ROOT
ATOM      1  C2  UNL d   1       0.122  -0.031   0.003  0.00  0.00    -0.076 A 
ATOM      2  C3  UNL d   1      -0.517  -1.052   0.729  0.00  0.00     0.004 A 
ATOM      3  C4  UNL d   1       0.169  -2.209   1.094  0.00  0.00    -0.003 A 
ATOM      4  C5  UNL d   1       1.505  -2.364   0.740  0.00  0.00     0.000 A 
ATOM      5  C6  UNL d   1       2.159  -1.354   0.035  0.00  0.00     0.000 A 
ATOM      6  C7  UNL d   1       1.487  -0.174  -0.327  0.00  0.00    -0.073 A 
ATOM      7  C8  UNL d   1       2.239   0.880  -1.092  0.00  0.00     0.078 C 
ENDROOT
BRANCH   1   8
ATOM      8  C1  UNL d   1      -0.680   1.189  -0.389  0.00  0.00     0.053 C 
ATOM      9  C   UNL d   1      -1.568   0.940  -1.598  0.00  0.00     0.018 C 
ENDBRANCH   1   8
TORSDOF 1
ENDMDL
