MODEL 1
REMARK minimizedAffinity -4.74669838
REMARK minimizedRMSD -1
REMARK  1 active torsions:
REMARK  status: ('A' for Active; 'I' for Inactive)
REMARK    1  A    between atoms: C1_2  and  C2_3 
ROOT
ATOM      1  C2  UNL d   1       0.175  -0.845   0.424  0.00  0.00    -0.076 A 
ATOM      2  C3  UNL d   1      -0.592  -0.524   1.558  0.00  0.00     0.004 A 
ATOM      3  C4  UNL d   1      -1.527   0.509   1.521  0.00  0.00    -0.003 A 
ATOM      4  C5  UNL d   1      -1.711   1.237   0.351  0.00  0.00     0.000 A 
ATOM      5  C6  UNL d   1      -0.972   0.920  -0.788  0.00  0.00     0.000 A 
ATOM      6  C7  UNL d   1      -0.036  -0.129  -0.773  0.00  0.00    -0.073 A 
ATOM      7  C8  UNL d   1       0.739  -0.423  -2.028  0.00  0.00     0.078 C 
ENDROOT
BRANCH   1   8
ATOM      8  C1  UNL d   1       1.194  -1.957   0.531  0.00  0.00     0.053 C 
ATOM      9  C   UNL d   1       2.591  -1.440   0.840  0.00  0.00     0.018 C 
ENDBRANCH   1   8
TORSDOF 1
ENDMDL
