MODEL 1
REMARK minimizedAffinity -3.83734965
REMARK minimizedRMSD -1
REMARK  1 active torsions:
REMARK  status: ('A' for Active; 'I' for Inactive)
REMARK    1  A    between atoms: C1_2  and  C2_3 
ROOT
ATOM      1  C2  UNL d   1      -0.084  -1.265   0.808  0.00  0.00    -0.076 A 
ATOM      2  C3  UNL d   1       0.737  -0.831  -0.247  0.00  0.00     0.004 A 
ATOM      3  C4  UNL d   1       0.468   0.356  -0.925  0.00  0.00    -0.003 A 
ATOM      4  C5  UNL d   1      -0.628   1.131  -0.558  0.00  0.00     0.000 A 
ATOM      5  C6  UNL d   1      -1.443   0.725   0.498  0.00  0.00     0.000 A 
ATOM      6  C7  UNL d   1      -1.176  -0.461   1.202  0.00  0.00    -0.073 A 
ATOM      7  C8  UNL d   1      -2.092  -0.854   2.329  0.00  0.00     0.078 C 
ENDROOT
BRANCH   1   8
ATOM      8  C1  UNL d   1       0.242  -2.575   1.489  0.00  0.00     0.053 C 
ATOM      9  C   UNL d   1       1.698  -2.663   1.916  0.00  0.00     0.018 C 
ENDBRANCH   1   8
TORSDOF 1
ENDMDL
