MODEL 1
REMARK minimizedAffinity -4.425488
REMARK minimizedRMSD -1
REMARK  1 active torsions:
REMARK  status: ('A' for Active; 'I' for Inactive)
REMARK    1  A    between atoms: C1_2  and  C2_3 
ROOT
ATOM      1  C2  UNL d   1      -0.101  -0.103   0.140  0.00  0.00    -0.076 A 
ATOM      2  C3  UNL d   1       1.000  -0.148  -0.733  0.00  0.00     0.004 A 
ATOM      3  C4  UNL d   1       1.914  -1.199  -0.682  0.00  0.00    -0.003 A 
ATOM      4  C5  UNL d   1       1.741  -2.223   0.242  0.00  0.00     0.000 A 
ATOM      5  C6  UNL d   1       0.644  -2.204   1.104  0.00  0.00     0.000 A 
ATOM      6  C7  UNL d   1      -0.295  -1.160   1.055  0.00  0.00    -0.073 A 
ATOM      7  C8  UNL d   1      -1.455  -1.187   2.011  0.00  0.00     0.078 C 
ENDROOT
BRANCH   1   8
ATOM      8  C1  UNL d   1      -1.044   1.076   0.057  0.00  0.00     0.053 C 
ATOM      9  C   UNL d   1      -1.279   1.535  -1.374  0.00  0.00     0.018 C 
ENDBRANCH   1   8
TORSDOF 1
ENDMDL
