MODEL 1
REMARK minimizedAffinity 0.775758386
REMARK minimizedRMSD -1
REMARK  1 active torsions:
REMARK  status: ('A' for Active; 'I' for Inactive)
REMARK    1  A    between atoms: C1_2  and  C2_3 
ROOT
ATOM      1  C2  UNL d   1       0.179  -1.025   0.619  0.00  0.00    -0.076 A 
ATOM      2  C3  UNL d   1       0.667  -0.220  -0.425  0.00  0.00     0.004 A 
ATOM      3  C4  UNL d   1       0.104   1.027  -0.692  0.00  0.00    -0.003 A 
ATOM      4  C5  UNL d   1      -0.955   1.490   0.081  0.00  0.00     0.000 A 
ATOM      5  C6  UNL d   1      -1.440   0.712   1.131  0.00  0.00     0.000 A 
ATOM      6  C7  UNL d   1      -0.874  -0.541   1.424  0.00  0.00    -0.073 A 
ATOM      7  C8  UNL d   1      -1.440  -1.340   2.565  0.00  0.00     0.078 C 
ENDROOT
BRANCH   1   8
ATOM      8  C1  UNL d   1       0.811  -2.380   0.844  0.00  0.00     0.053 C 
ATOM      9  C   UNL d   1       2.171  -2.284   1.518  0.00  0.00     0.018 C 
ENDBRANCH   1   8
TORSDOF 1
ENDMDL
