MODEL 1
REMARK minimizedAffinity -4.87221432
REMARK minimizedRMSD -1
REMARK  1 active torsions:
REMARK  status: ('A' for Active; 'I' for Inactive)
REMARK    1  A    between atoms: C1_2  and  C2_3 
ROOT
ATOM      1  C2  UNL d   1      -0.651  -0.645  -0.882  0.00  0.00    -0.076 A 
ATOM      2  C3  UNL d   1      -1.920  -0.803  -1.465  0.00  0.00     0.004 A 
ATOM      3  C4  UNL d   1      -2.370   0.070  -2.453  0.00  0.00    -0.003 A 
ATOM      4  C5  UNL d   1      -1.557   1.116  -2.876  0.00  0.00     0.000 A 
ATOM      5  C6  UNL d   1      -0.287   1.278  -2.321  0.00  0.00     0.000 A 
ATOM      6  C7  UNL d   1       0.187   0.396  -1.335  0.00  0.00    -0.073 A 
ATOM      7  C8  UNL d   1       1.562   0.621  -0.767  0.00  0.00     0.078 C 
ENDROOT
BRANCH   1   8
ATOM      8  C1  UNL d   1      -0.228  -1.607   0.206  0.00  0.00     0.053 C 
ATOM      9  C   UNL d   1      -1.034  -1.432   1.484  0.00  0.00     0.018 C 
ENDBRANCH   1   8
TORSDOF 1
ENDMDL
