MODEL 1
REMARK minimizedAffinity 9.29144764
REMARK minimizedRMSD -1
REMARK  2 active torsions:
REMARK  status: ('A' for Active; 'I' for Inactive)
REMARK    1  A    between atoms: C1_2  and  C2_3 
REMARK    2  A    between atoms: C2_3  and  C3_4 
ROOT
ATOM      1  C3  UNL d   1       2.100  -2.271   3.174  0.00  0.00    -0.075 A 
ATOM      2  C4  UNL d   1       1.567  -3.533   3.472  0.00  0.00     0.002 A 
ATOM      3  C5  UNL d   1       2.371  -4.529   4.027  0.00  0.00     0.002 A 
ATOM      4  C6  UNL d   1       3.718  -4.279   4.281  0.00  0.00    -0.004 A 
ATOM      5  C7  UNL d   1       4.262  -3.034   3.973  0.00  0.00     0.002 A 
ATOM      6  C8  UNL d   1       3.459  -2.035   3.422  0.00  0.00     0.002 A 
ENDROOT
BRANCH   1   7
ATOM      7  C2  UNL d   1       1.228  -1.180   2.600  0.00  0.00     0.056 C 
BRANCH   7   8
ATOM      8  C1  UNL d   1       1.989  -0.152   1.756  0.00  0.00     0.007 C 
ATOM      9  C   UNL d   1       2.435  -0.696   0.405  0.00  0.00     0.009 C 
ENDBRANCH   7   8
ENDBRANCH   1   7
TORSDOF 2
ENDMDL
