MODEL 1
REMARK minimizedAffinity -0.374946594
REMARK minimizedRMSD -1
REMARK  2 active torsions:
REMARK  status: ('A' for Active; 'I' for Inactive)
REMARK    1  A    between atoms: C1_2  and  C2_3 
REMARK    2  A    between atoms: C2_3  and  C3_4 
ROOT
ATOM      1  C3  UNL d   1       1.805  -4.026   3.991  0.00  0.00    -0.075 A 
ATOM      2  C4  UNL d   1       3.027  -3.884   3.318  0.00  0.00     0.002 A 
ATOM      3  C5  UNL d   1       3.389  -2.659   2.756  0.00  0.00     0.002 A 
ATOM      4  C6  UNL d   1       2.530  -1.566   2.851  0.00  0.00    -0.004 A 
ATOM      5  C7  UNL d   1       1.306  -1.700   3.502  0.00  0.00     0.002 A 
ATOM      6  C8  UNL d   1       0.944  -2.923   4.069  0.00  0.00     0.002 A 
ENDROOT
BRANCH   1   7
ATOM      7  C2  UNL d   1       1.421  -5.341   4.627  0.00  0.00     0.056 C 
BRANCH   7   8
ATOM      8  C1  UNL d   1       0.719  -5.197   5.981  0.00  0.00     0.007 C 
ATOM      9  C   UNL d   1      -0.678  -5.803   6.000  0.00  0.00     0.009 C 
ENDBRANCH   7   8
ENDBRANCH   1   7
TORSDOF 2
ENDMDL
