MODEL 1
REMARK minimizedAffinity 2.54609275
REMARK minimizedRMSD -1
REMARK  2 active torsions:
REMARK  status: ('A' for Active; 'I' for Inactive)
REMARK    1  A    between atoms: C1_2  and  C2_3 
REMARK    2  A    between atoms: C2_3  and  C3_4 
ROOT
ATOM      1  C3  UNL d   1       1.607  -2.270   2.982  0.00  0.00    -0.075 A 
ATOM      2  C4  UNL d   1       1.314  -2.153   4.349  0.00  0.00     0.002 A 
ATOM      3  C5  UNL d   1       1.389  -3.265   5.187  0.00  0.00     0.002 A 
ATOM      4  C6  UNL d   1       1.746  -4.508   4.670  0.00  0.00    -0.004 A 
ATOM      5  C7  UNL d   1       2.023  -4.640   3.311  0.00  0.00     0.002 A 
ATOM      6  C8  UNL d   1       1.953  -3.528   2.471  0.00  0.00     0.002 A 
ENDROOT
BRANCH   1   7
ATOM      7  C2  UNL d   1       1.556  -1.064   2.075  0.00  0.00     0.056 C 
BRANCH   7   8
ATOM      8  C1  UNL d   1       2.801  -0.890   1.198  0.00  0.00     0.007 C 
ATOM      9  C   UNL d   1       3.046   0.554   0.783  0.00  0.00     0.009 C 
ENDBRANCH   7   8
ENDBRANCH   1   7
TORSDOF 2
ENDMDL
