MODEL 1
REMARK minimizedAffinity 1.43513906
REMARK minimizedRMSD -1
REMARK  2 active torsions:
REMARK  status: ('A' for Active; 'I' for Inactive)
REMARK    1  A    between atoms: C1_2  and  C2_3 
REMARK    2  A    between atoms: C2_3  and  C3_4 
ROOT
ATOM      1  C3  UNL d   1       1.756  -2.714   3.481  0.00  0.00    -0.075 A 
ATOM      2  C4  UNL d   1       1.119  -1.601   4.049  0.00  0.00     0.002 A 
ATOM      3  C5  UNL d   1       1.317  -0.325   3.521  0.00  0.00     0.002 A 
ATOM      4  C6  UNL d   1       2.159  -0.144   2.426  0.00  0.00    -0.004 A 
ATOM      5  C7  UNL d   1       2.810  -1.239   1.864  0.00  0.00     0.002 A 
ATOM      6  C8  UNL d   1       2.611  -2.518   2.388  0.00  0.00     0.002 A 
ENDROOT
BRANCH   1   7
ATOM      7  C2  UNL d   1       1.524  -4.101   4.029  0.00  0.00     0.056 C 
BRANCH   7   8
ATOM      8  C1  UNL d   1       1.138  -4.129   5.512  0.00  0.00     0.007 C 
ATOM      9  C   UNL d   1       0.726  -5.512   5.999  0.00  0.00     0.009 C 
ENDBRANCH   7   8
ENDBRANCH   1   7
TORSDOF 2
ENDMDL
