MODEL 1
REMARK minimizedAffinity 16.4126263
REMARK minimizedRMSD -1
REMARK  2 active torsions:
REMARK  status: ('A' for Active; 'I' for Inactive)
REMARK    1  A    between atoms: C1_2  and  C2_3 
REMARK    2  A    between atoms: C2_3  and  C3_4 
ROOT
ATOM      1  C3  UNL d   1       2.295  -0.045   2.531  0.00  0.00    -0.075 A 
ATOM      2  C4  UNL d   1       2.884  -0.151   1.263  0.00  0.00     0.002 A 
ATOM      3  C5  UNL d   1       3.344   0.986   0.598  0.00  0.00     0.002 A 
ATOM      4  C6  UNL d   1       3.212   2.242   1.187  0.00  0.00    -0.004 A 
ATOM      5  C7  UNL d   1       2.613   2.361   2.439  0.00  0.00     0.002 A 
ATOM      6  C8  UNL d   1       2.156   1.225   3.108  0.00  0.00     0.002 A 
ENDROOT
BRANCH   1   7
ATOM      7  C2  UNL d   1       1.821  -1.274   3.269  0.00  0.00     0.056 C 
BRANCH   7   8
ATOM      8  C1  UNL d   1       1.356  -2.411   2.352  0.00  0.00     0.007 C 
ATOM      9  C   UNL d   1       1.385  -3.776   3.027  0.00  0.00     0.009 C 
ENDBRANCH   7   8
ENDBRANCH   1   7
TORSDOF 2
ENDMDL
