MODEL 1
REMARK minimizedAffinity -2.28031921
REMARK minimizedRMSD -1
REMARK  0 active torsions:
REMARK  status: ('A' for Active; 'I' for Inactive)
ROOT
ATOM      1  C1  BNZ d   1       4.090   5.647  -3.855  0.00  0.00     0.000 A 
ATOM      2  C2  BNZ d   1       4.119   5.790  -5.216  0.00  0.00     0.000 A 
ATOM      3  C3  BNZ d   1       5.063   5.148  -5.968  0.00  0.00     0.000 A 
ATOM      4  C4  BNZ d   1       6.000   4.396  -5.355  0.00  0.00     0.000 A 
ATOM      5  C5  BNZ d   1       5.990   4.249  -3.982  0.00  0.00     0.000 A 
ATOM      6  C6  BNZ d   1       5.015   4.866  -3.232  0.00  0.00     0.000 A 
ENDROOT
TORSDOF 0
ENDMDL
