MODEL 1
REMARK minimizedAffinity -2.63010645
REMARK minimizedRMSD -1
REMARK  0 active torsions:
REMARK  status: ('A' for Active; 'I' for Inactive)
ROOT
ATOM      1  C1  BNZ d   1       4.490   4.850  -1.809  0.00  0.00     0.000 A 
ATOM      2  C2  BNZ d   1       3.748   4.497  -2.905  0.00  0.00     0.000 A 
ATOM      3  C3  BNZ d   1       4.139   4.864  -4.162  0.00  0.00     0.000 A 
ATOM      4  C4  BNZ d   1       5.246   5.617  -4.319  0.00  0.00     0.000 A 
ATOM      5  C5  BNZ d   1       6.000   5.990  -3.223  0.00  0.00     0.000 A 
ATOM      6  C6  BNZ d   1       5.625   5.585  -1.962  0.00  0.00     0.000 A 
ENDROOT
TORSDOF 0
ENDMDL
