MODEL 1
REMARK minimizedAffinity -1.90052617
REMARK minimizedRMSD -1
REMARK  0 active torsions:
REMARK  status: ('A' for Active; 'I' for Inactive)
ROOT
ATOM      1  C1  BNZ d   1       4.120   4.024  -5.764  0.00  0.00     0.000 A 
ATOM      2  C2  BNZ d   1       4.126   4.865  -4.683  0.00  0.00     0.000 A 
ATOM      3  C3  BNZ d   1       5.079   4.748  -3.710  0.00  0.00     0.000 A 
ATOM      4  C4  BNZ d   1       5.999   3.766  -3.798  0.00  0.00     0.000 A 
ATOM      5  C5  BNZ d   1       6.000   2.904  -4.876  0.00  0.00     0.000 A 
ATOM      6  C6  BNZ d   1       5.063   3.049  -5.874  0.00  0.00     0.000 A 
ENDROOT
TORSDOF 0
ENDMDL
