MODEL 1
REMARK minimizedAffinity -3.56619239
REMARK minimizedRMSD -1
REMARK  0 active torsions:
REMARK  status: ('A' for Active; 'I' for Inactive)
ROOT
ATOM      1  C1  BNZ d   1       3.638   4.865  -3.130  0.00  0.00     0.000 A 
ATOM      2  C2  BNZ d   1       3.655   3.912  -4.113  0.00  0.00     0.000 A 
ATOM      3  C3  BNZ d   1       4.837   3.415  -4.586  0.00  0.00     0.000 A 
ATOM      4  C4  BNZ d   1       6.000   3.900  -4.106  0.00  0.00     0.000 A 
ATOM      5  C5  BNZ d   1       6.000   4.868  -3.121  0.00  0.00     0.000 A 
ATOM      6  C6  BNZ d   1       4.808   5.338  -2.620  0.00  0.00     0.000 A 
ENDROOT
TORSDOF 0
ENDMDL
