MODEL 1
REMARK minimizedAffinity -4.14484262
REMARK minimizedRMSD -1
REMARK  0 active torsions:
REMARK  status: ('A' for Active; 'I' for Inactive)
ROOT
ATOM      1  C1  BNZ d   1       4.789   3.218  -5.400  0.00  0.00     0.000 A 
ATOM      2  C2  BNZ d   1       3.639   3.744  -4.874  0.00  0.00     0.000 A 
ATOM      3  C3  BNZ d   1       3.665   4.460  -3.711  0.00  0.00     0.000 A 
ATOM      4  C4  BNZ d   1       4.833   4.616  -3.054  0.00  0.00     0.000 A 
ATOM      5  C5  BNZ d   1       5.999   4.085  -3.567  0.00  0.00     0.000 A 
ATOM      6  C6  BNZ d   1       5.976   3.398  -4.759  0.00  0.00     0.000 A 
ENDROOT
TORSDOF 0
ENDMDL
