MODEL 1
REMARK minimizedAffinity -2.84800959
REMARK minimizedRMSD -1
REMARK  0 active torsions:
REMARK  status: ('A' for Active; 'I' for Inactive)
ROOT
ATOM      1  C1  BNZ d   1       5.990   3.093  -5.116  0.00  0.00     0.000 A 
ATOM      2  C2  BNZ d   1       5.999   3.471  -3.800  0.00  0.00     0.000 A 
ATOM      3  C3  BNZ d   1       5.176   4.467  -3.353  0.00  0.00     0.000 A 
ATOM      4  C4  BNZ d   1       4.377   5.110  -4.228  0.00  0.00     0.000 A 
ATOM      5  C5  BNZ d   1       4.363   4.746  -5.560  0.00  0.00     0.000 A 
ATOM      6  C6  BNZ d   1       5.164   3.717  -5.999  0.00  0.00     0.000 A 
ENDROOT
TORSDOF 0
ENDMDL
