MODEL 1
REMARK minimizedAffinity -2.04936385
REMARK minimizedRMSD -1
REMARK  0 active torsions:
REMARK  status: ('A' for Active; 'I' for Inactive)
ROOT
ATOM      1  C1  BNZ d   1       5.325   5.749  -3.816  0.00  0.00     0.000 A 
ATOM      2  C2  BNZ d   1       5.999   5.995  -2.650  0.00  0.00     0.000 A 
ATOM      3  C3  BNZ d   1       5.663   5.344  -1.496  0.00  0.00     0.000 A 
ATOM      4  C4  BNZ d   1       4.628   4.480  -1.500  0.00  0.00     0.000 A 
ATOM      5  C5  BNZ d   1       3.932   4.228  -2.666  0.00  0.00     0.000 A 
ATOM      6  C6  BNZ d   1       4.298   4.856  -3.834  0.00  0.00     0.000 A 
ENDROOT
TORSDOF 0
ENDMDL
