MODEL 1
REMARK minimizedAffinity -1.64193773
REMARK minimizedRMSD -1
REMARK  0 active torsions:
REMARK  status: ('A' for Active; 'I' for Inactive)
ROOT
ATOM      1  C1  BNZ d   1       6.000   5.984  -2.828  0.00  0.00     0.000 A 
ATOM      2  C2  BNZ d   1       5.980   6.000  -4.197  0.00  0.00     0.000 A 
ATOM      3  C3  BNZ d   1       4.928   5.465  -4.888  0.00  0.00     0.000 A 
ATOM      4  C4  BNZ d   1       3.919   4.880  -4.211  0.00  0.00     0.000 A 
ATOM      5  C5  BNZ d   1       3.930   4.848  -2.830  0.00  0.00     0.000 A 
ATOM      6  C6  BNZ d   1       4.971   5.422  -2.138  0.00  0.00     0.000 A 
ENDROOT
TORSDOF 0
ENDMDL
