MODEL 1
REMARK minimizedAffinity -3.14316821
REMARK minimizedRMSD -1
REMARK  0 active torsions:
REMARK  status: ('A' for Active; 'I' for Inactive)
ROOT
ATOM      1  C1  BNZ d   1       4.207   5.225  -5.293  0.00  0.00     0.000 A 
ATOM      2  C2  BNZ d   1       4.202   5.173  -3.925  0.00  0.00     0.000 A 
ATOM      3  C3  BNZ d   1       5.108   4.402  -3.251  0.00  0.00     0.000 A 
ATOM      4  C4  BNZ d   1       5.988   3.654  -3.945  0.00  0.00     0.000 A 
ATOM      5  C5  BNZ d   1       5.999   3.687  -5.326  0.00  0.00     0.000 A 
ATOM      6  C6  BNZ d   1       5.112   4.495  -6.000  0.00  0.00     0.000 A 
ENDROOT
TORSDOF 0
ENDMDL
