MODEL 1
REMARK minimizedAffinity -2.74600601
REMARK minimizedRMSD -1
REMARK  0 active torsions:
REMARK  status: ('A' for Active; 'I' for Inactive)
ROOT
ATOM      1  C1  BNZ d   1       3.758   5.996  -5.040  0.00  0.00     0.000 A 
ATOM      2  C2  BNZ d   1       3.470   5.363  -3.861  0.00  0.00     0.000 A 
ATOM      3  C3  BNZ d   1       4.408   4.592  -3.233  0.00  0.00     0.000 A 
ATOM      4  C4  BNZ d   1       5.618   4.423  -3.805  0.00  0.00     0.000 A 
ATOM      5  C5  BNZ d   1       5.920   5.047  -4.999  0.00  0.00     0.000 A 
ATOM      6  C6  BNZ d   1       4.986   5.854  -5.608  0.00  0.00     0.000 A 
ENDROOT
TORSDOF 0
ENDMDL
