MODEL 1
REMARK minimizedAffinity -1.60490417
REMARK minimizedRMSD -1
REMARK  0 active torsions:
REMARK  status: ('A' for Active; 'I' for Inactive)
ROOT
ATOM      1  C1  BNZ d   1       3.801   4.125  -3.052  0.00  0.00     0.000 A 
ATOM      2  C2  BNZ d   1       4.908   4.125  -2.246  0.00  0.00     0.000 A 
ATOM      3  C3  BNZ d   1       6.000   4.887  -2.557  0.00  0.00     0.000 A 
ATOM      4  C4  BNZ d   1       5.998   5.616  -3.691  0.00  0.00     0.000 A 
ATOM      5  C5  BNZ d   1       4.893   5.620  -4.518  0.00  0.00     0.000 A 
ATOM      6  C6  BNZ d   1       3.781   4.882  -4.183  0.00  0.00     0.000 A 
ENDROOT
TORSDOF 0
ENDMDL
