MODEL 1
REMARK minimizedAffinity -3.18445826
REMARK minimizedRMSD -1
REMARK  0 active torsions:
REMARK  status: ('A' for Active; 'I' for Inactive)
ROOT
ATOM      1  C1  BNZ d   1       4.115   5.998  -3.784  0.00  0.00     0.000 A 
ATOM      2  C2  BNZ d   1       5.045   5.270  -3.092  0.00  0.00     0.000 A 
ATOM      3  C3  BNZ d   1       6.000   4.547  -3.751  0.00  0.00     0.000 A 
ATOM      4  C4  BNZ d   1       5.999   4.521  -5.099  0.00  0.00     0.000 A 
ATOM      5  C5  BNZ d   1       5.061   5.242  -5.811  0.00  0.00     0.000 A 
ATOM      6  C6  BNZ d   1       4.126   6.000  -5.145  0.00  0.00     0.000 A 
ENDROOT
TORSDOF 0
ENDMDL
