MODEL 1
REMARK minimizedAffinity -1.21694076
REMARK minimizedRMSD -1
REMARK  0 active torsions:
REMARK  status: ('A' for Active; 'I' for Inactive)
ROOT
ATOM      1  C1  BNZ d   1       2.901   5.039  -4.024  0.00  0.00     0.000 A 
ATOM      2  C2  BNZ d   1       3.879   5.998  -4.049  0.00  0.00     0.000 A 
ATOM      3  C3  BNZ d   1       4.907   5.972  -3.149  0.00  0.00     0.000 A 
ATOM      4  C4  BNZ d   1       4.935   5.013  -2.201  0.00  0.00     0.000 A 
ATOM      5  C5  BNZ d   1       3.952   4.046  -2.157  0.00  0.00     0.000 A 
ATOM      6  C6  BNZ d   1       2.939   4.052  -3.088  0.00  0.00     0.000 A 
ENDROOT
TORSDOF 0
ENDMDL
