MODEL 1
REMARK minimizedAffinity -1.9862988
REMARK minimizedRMSD -1
REMARK  0 active torsions:
REMARK  status: ('A' for Active; 'I' for Inactive)
ROOT
ATOM      1  C1  BNZ d   1       5.248  -2.937  -1.164  0.00  0.00     0.000 A 
ATOM      2  C2  BNZ d   1       4.530  -2.536  -2.258  0.00  0.00     0.000 A 
ATOM      3  C3  BNZ d   1       4.522  -3.284  -3.403  0.00  0.00     0.000 A 
ATOM      4  C4  BNZ d   1       5.263  -4.409  -3.465  0.00  0.00     0.000 A 
ATOM      5  C5  BNZ d   1       6.000  -4.822  -2.373  0.00  0.00     0.000 A 
ATOM      6  C6  BNZ d   1       5.975  -4.087  -1.210  0.00  0.00     0.000 A 
ENDROOT
TORSDOF 0
ENDMDL
