MODEL 1
REMARK minimizedAffinity -1.73393273
REMARK minimizedRMSD -1
REMARK  0 active torsions:
REMARK  status: ('A' for Active; 'I' for Inactive)
ROOT
ATOM      1  C1  BNZ d   1       4.430   3.671  -3.762  0.00  0.00     0.000 A 
ATOM      2  C2  BNZ d   1       5.558   3.685  -2.984  0.00  0.00     0.000 A 
ATOM      3  C3  BNZ d   1       6.000   4.845  -2.413  0.00  0.00     0.000 A 
ATOM      4  C4  BNZ d   1       5.338   5.996  -2.651  0.00  0.00     0.000 A 
ATOM      5  C5  BNZ d   1       4.205   6.000  -3.440  0.00  0.00     0.000 A 
ATOM      6  C6  BNZ d   1       3.741   4.823  -3.982  0.00  0.00     0.000 A 
ENDROOT
TORSDOF 0
ENDMDL
