MODEL 1
REMARK minimizedAffinity -1.25101602
REMARK minimizedRMSD -1
REMARK  0 active torsions:
REMARK  status: ('A' for Active; 'I' for Inactive)
ROOT
ATOM      1  C   UNL d   1      -0.846   1.715  -0.642  0.00  0.00     0.124 A 
ATOM      2  C1  UNL d   1       0.068   0.697  -0.878  0.00  0.00     0.062 A 
ATOM      3  C2  UNL d   1       0.299  -0.274   0.092  0.00  0.00     0.162 A 
ATOM      4  C3  UNL d   1      -0.385  -0.234   1.306  0.00  0.00    -0.034 A 
ATOM      5  C4  UNL d   1      -1.302   0.794   1.537  0.00  0.00     0.162 A 
ATOM      6  C5  UNL d   1      -1.529   1.763   0.565  0.00  0.00     0.062 A 
ATOM      7  F   UNL d   1      -2.412   2.745   0.795  0.00  0.00    -0.097 F 
ATOM      8  F1  UNL d   1      -1.977   0.863   2.694  0.00  0.00    -0.096 F 
ATOM      9  I   UNL d   1      -0.042  -1.685   2.758  0.00  0.00    -0.060 I 
ATOM     10  F2  UNL d   1       1.188  -1.246  -0.164  0.00  0.00    -0.096 F 
ATOM     11  F3  UNL d   1       0.731   0.650  -2.042  0.00  0.00    -0.097 F 
ATOM     12  F4  UNL d   1      -1.066   2.649  -1.576  0.00  0.00    -0.092 F 
ENDROOT
TORSDOF 0
ENDMDL
