MODEL 1
REMARK minimizedAffinity -4.37428713
REMARK minimizedRMSD -1
REMARK  0 active torsions:
REMARK  status: ('A' for Active; 'I' for Inactive)
ROOT
ATOM      1  C   UNL d   1      -0.766   1.129   0.983  0.00  0.00     0.124 A 
ATOM      2  C1  UNL d   1       0.036   1.062  -0.148  0.00  0.00     0.062 A 
ATOM      3  C2  UNL d   1       0.358  -0.172  -0.706  0.00  0.00     0.162 A 
ATOM      4  C3  UNL d   1      -0.123  -1.350  -0.134  0.00  0.00    -0.034 A 
ATOM      5  C4  UNL d   1      -0.928  -1.275   1.004  0.00  0.00     0.162 A 
ATOM      6  C5  UNL d   1      -1.247  -0.039   1.558  0.00  0.00     0.062 A 
ATOM      7  F   UNL d   1      -2.022   0.023   2.650  0.00  0.00    -0.097 F 
ATOM      8  F1  UNL d   1      -1.408  -2.388   1.578  0.00  0.00    -0.096 F 
ATOM      9  I   UNL d   1       0.356  -3.197  -0.966  0.00  0.00    -0.060 I 
ATOM     10  F2  UNL d   1       1.135  -0.206  -1.799  0.00  0.00    -0.096 F 
ATOM     11  F3  UNL d   1       0.503   2.189  -0.704  0.00  0.00    -0.097 F 
ATOM     12  F4  UNL d   1      -1.073   2.317   1.519  0.00  0.00    -0.092 F 
ENDROOT
TORSDOF 0
ENDMDL
