MODEL 1
REMARK minimizedAffinity 0.311807752
REMARK minimizedRMSD -1
REMARK  0 active torsions:
REMARK  status: ('A' for Active; 'I' for Inactive)
ROOT
ATOM      1  C   UNL d   1      -0.901   1.138   1.685  0.00  0.00     0.124 A 
ATOM      2  C1  UNL d   1       0.258   0.381   1.586  0.00  0.00     0.062 A 
ATOM      3  C2  UNL d   1       0.514  -0.361   0.437  0.00  0.00     0.162 A 
ATOM      4  C3  UNL d   1      -0.391  -0.349  -0.625  0.00  0.00    -0.034 A 
ATOM      5  C4  UNL d   1      -1.555   0.415  -0.518  0.00  0.00     0.162 A 
ATOM      6  C5  UNL d   1      -1.806   1.154   0.633  0.00  0.00     0.062 A 
ATOM      7  F   UNL d   1      -2.927   1.885   0.727  0.00  0.00    -0.097 F 
ATOM      8  F1  UNL d   1      -2.446   0.449  -1.519  0.00  0.00    -0.096 F 
ATOM      9  I   UNL d   1      -0.012  -1.456  -2.345  0.00  0.00    -0.060 I 
ATOM     10  F2  UNL d   1       1.642  -1.083   0.369  0.00  0.00    -0.096 F 
ATOM     11  F3  UNL d   1       1.134   0.363   2.602  0.00  0.00    -0.097 F 
ATOM     12  F4  UNL d   1      -1.145   1.850   2.793  0.00  0.00    -0.092 F 
ENDROOT
TORSDOF 0
ENDMDL
