MODEL 1
REMARK minimizedAffinity -2.40673757
REMARK minimizedRMSD -1
REMARK  0 active torsions:
REMARK  status: ('A' for Active; 'I' for Inactive)
ROOT
ATOM      1  C   UNL d   1      -1.369   1.623   1.010  0.00  0.00     0.124 A 
ATOM      2  C1  UNL d   1      -1.261   0.505   1.825  0.00  0.00     0.062 A 
ATOM      3  C2  UNL d   1      -0.584  -0.626   1.377  0.00  0.00     0.162 A 
ATOM      4  C3  UNL d   1      -0.009  -0.643   0.106  0.00  0.00    -0.034 A 
ATOM      5  C4  UNL d   1      -0.122   0.485  -0.708  0.00  0.00     0.162 A 
ATOM      6  C5  UNL d   1      -0.800   1.612  -0.255  0.00  0.00     0.062 A 
ATOM      7  F   UNL d   1      -0.903   2.692  -1.044  0.00  0.00    -0.097 F 
ATOM      8  F1  UNL d   1       0.419   0.502  -1.935  0.00  0.00    -0.096 F 
ATOM      9  I   UNL d   1       1.004  -2.332  -0.568  0.00  0.00    -0.060 I 
ATOM     10  F2  UNL d   1      -0.496  -1.692   2.186  0.00  0.00    -0.096 F 
ATOM     11  F3  UNL d   1      -1.811   0.513   3.048  0.00  0.00    -0.097 F 
ATOM     12  F4  UNL d   1      -2.022   2.709   1.444  0.00  0.00    -0.092 F 
ENDROOT
TORSDOF 0
ENDMDL
