MODEL 1
REMARK minimizedAffinity -4.86858797
REMARK minimizedRMSD -1
REMARK  0 active torsions:
REMARK  status: ('A' for Active; 'I' for Inactive)
ROOT
ATOM      1  C   UNL d   1      -1.399   2.166   0.492  0.00  0.00     0.124 A 
ATOM      2  C1  UNL d   1      -1.809   1.015   1.150  0.00  0.00     0.062 A 
ATOM      3  C2  UNL d   1      -1.136  -0.187   0.944  0.00  0.00     0.162 A 
ATOM      4  C3  UNL d   1      -0.046  -0.243   0.077  0.00  0.00    -0.034 A 
ATOM      5  C4  UNL d   1       0.360   0.919  -0.582  0.00  0.00     0.162 A 
ATOM      6  C5  UNL d   1      -0.315   2.117  -0.373  0.00  0.00     0.062 A 
ATOM      7  F   UNL d   1       0.082   3.228  -1.010  0.00  0.00    -0.097 F 
ATOM      8  F1  UNL d   1       1.405   0.901  -1.423  0.00  0.00    -0.096 F 
ATOM      9  I   UNL d   1       0.963  -2.037  -0.234  0.00  0.00    -0.060 I 
ATOM     10  F2  UNL d   1      -1.554  -1.283   1.594  0.00  0.00    -0.096 F 
ATOM     11  F3  UNL d   1      -2.856   1.059   1.986  0.00  0.00    -0.097 F 
ATOM     12  F4  UNL d   1      -2.048   3.320   0.691  0.00  0.00    -0.092 F 
ENDROOT
TORSDOF 0
ENDMDL
