MODEL 1
REMARK minimizedAffinity -1.22235858
REMARK minimizedRMSD -1
REMARK  0 active torsions:
REMARK  status: ('A' for Active; 'I' for Inactive)
ROOT
ATOM      1  C   UNL d   1      -1.132   0.873   1.233  0.00  0.00     0.124 A 
ATOM      2  C1  UNL d   1      -1.969   0.894   0.126  0.00  0.00     0.062 A 
ATOM      3  C2  UNL d   1      -1.700   0.079  -0.970  0.00  0.00     0.162 A 
ATOM      4  C3  UNL d   1      -0.590  -0.766  -0.963  0.00  0.00    -0.034 A 
ATOM      5  C4  UNL d   1       0.247  -0.780   0.153  0.00  0.00     0.162 A 
ATOM      6  C5  UNL d   1      -0.025   0.036   1.246  0.00  0.00     0.062 A 
ATOM      7  F   UNL d   1       0.785   0.015   2.315  0.00  0.00    -0.097 F 
ATOM      8  F1  UNL d   1       1.323  -1.580   0.193  0.00  0.00    -0.096 F 
ATOM      9  I   UNL d   1      -0.185  -1.986  -2.600  0.00  0.00    -0.060 I 
ATOM     10  F2  UNL d   1      -2.526   0.120  -2.026  0.00  0.00    -0.096 F 
ATOM     11  F3  UNL d   1      -3.038   1.703   0.111  0.00  0.00    -0.097 F 
ATOM     12  F4  UNL d   1      -1.392   1.660   2.286  0.00  0.00    -0.092 F 
ENDROOT
TORSDOF 0
ENDMDL
