MODEL 1
REMARK minimizedAffinity -2.69752049
REMARK minimizedRMSD -1
REMARK  0 active torsions:
REMARK  status: ('A' for Active; 'I' for Inactive)
ROOT
ATOM      1  C   UNL d   1      -0.979   1.732   0.619  0.00  0.00     0.124 A 
ATOM      2  C1  UNL d   1      -0.293   1.717  -0.588  0.00  0.00     0.062 A 
ATOM      3  C2  UNL d   1       0.307   0.545  -1.038  0.00  0.00     0.162 A 
ATOM      4  C3  UNL d   1       0.224  -0.624  -0.280  0.00  0.00    -0.034 A 
ATOM      5  C4  UNL d   1      -0.466  -0.601   0.933  0.00  0.00     0.162 A 
ATOM      6  C5  UNL d   1      -1.064   0.574   1.378  0.00  0.00     0.062 A 
ATOM      7  F   UNL d   1      -1.726   0.586   2.545  0.00  0.00    -0.097 F 
ATOM      8  F1  UNL d   1      -0.565  -1.706   1.687  0.00  0.00    -0.096 F 
ATOM      9  I   UNL d   1       1.120  -2.379  -0.949  0.00  0.00    -0.060 I 
ATOM     10  F2  UNL d   1       0.962   0.559  -2.208  0.00  0.00    -0.096 F 
ATOM     11  F3  UNL d   1      -0.208   2.836  -1.323  0.00  0.00    -0.097 F 
ATOM     12  F4  UNL d   1      -1.554   2.862   1.050  0.00  0.00    -0.092 F 
ENDROOT
TORSDOF 0
ENDMDL
