MODEL 1
REMARK minimizedAffinity -1.88449728
REMARK minimizedRMSD -1
REMARK  0 active torsions:
REMARK  status: ('A' for Active; 'I' for Inactive)
ROOT
ATOM      1  C   UNL d   1      -1.978   2.002   1.708  0.00  0.00     0.124 A 
ATOM      2  C1  UNL d   1      -1.256   1.007   2.352  0.00  0.00     0.062 A 
ATOM      3  C2  UNL d   1      -0.393   0.188   1.629  0.00  0.00     0.162 A 
ATOM      4  C3  UNL d   1      -0.246   0.362   0.253  0.00  0.00    -0.034 A 
ATOM      5  C4  UNL d   1      -0.976   1.364  -0.389  0.00  0.00     0.162 A 
ATOM      6  C5  UNL d   1      -1.838   2.179   0.339  0.00  0.00     0.062 A 
ATOM      7  F   UNL d   1      -2.535   3.140  -0.286  0.00  0.00    -0.097 F 
ATOM      8  F1  UNL d   1      -0.859   1.558  -1.711  0.00  0.00    -0.096 F 
ATOM      9  I   UNL d   1       1.043  -0.860  -0.832  0.00  0.00    -0.060 I 
ATOM     10  F2  UNL d   1       0.293  -0.765   2.277  0.00  0.00    -0.096 F 
ATOM     11  F3  UNL d   1      -1.390   0.832   3.675  0.00  0.00    -0.097 F 
ATOM     12  F4  UNL d   1      -2.808   2.787   2.406  0.00  0.00    -0.092 F 
ENDROOT
TORSDOF 0
ENDMDL
