MODEL 1
REMARK minimizedAffinity 0.37018615
REMARK minimizedRMSD -1
REMARK  0 active torsions:
REMARK  status: ('A' for Active; 'I' for Inactive)
ROOT
ATOM      1  C   UNL d   1      -0.051  -0.901  -1.541  0.00  0.00     0.124 A 
ATOM      2  C1  UNL d   1       0.659  -1.347  -0.435  0.00  0.00     0.062 A 
ATOM      3  C2  UNL d   1       0.525  -0.700   0.790  0.00  0.00     0.162 A 
ATOM      4  C3  UNL d   1      -0.323   0.400   0.915  0.00  0.00    -0.034 A 
ATOM      5  C4  UNL d   1      -1.033   0.844  -0.202  0.00  0.00     0.162 A 
ATOM      6  C5  UNL d   1      -0.895   0.194  -1.424  0.00  0.00     0.062 A 
ATOM      7  F   UNL d   1      -1.582   0.626  -2.492  0.00  0.00    -0.097 F 
ATOM      8  F1  UNL d   1      -1.857   1.899  -0.116  0.00  0.00    -0.096 F 
ATOM      9  I   UNL d   1      -0.526   1.371   2.745  0.00  0.00    -0.060 I 
ATOM     10  F2  UNL d   1       1.223  -1.152   1.842  0.00  0.00    -0.096 F 
ATOM     11  F3  UNL d   1       1.477  -2.404  -0.546  0.00  0.00    -0.097 F 
ATOM     12  F4  UNL d   1       0.081  -1.525  -2.719  0.00  0.00    -0.092 F 
ENDROOT
TORSDOF 0
ENDMDL
