MODEL 1
REMARK minimizedAffinity -2.97589731
REMARK minimizedRMSD -1
REMARK  0 active torsions:
REMARK  status: ('A' for Active; 'I' for Inactive)
ROOT
ATOM      1  C   UNL d   1      -1.328   1.810   1.080  0.00  0.00     0.124 A 
ATOM      2  C1  UNL d   1      -1.230   0.639   1.818  0.00  0.00     0.062 A 
ATOM      3  C2  UNL d   1      -0.553  -0.461   1.300  0.00  0.00     0.162 A 
ATOM      4  C3  UNL d   1       0.032  -0.395   0.035  0.00  0.00    -0.034 A 
ATOM      5  C4  UNL d   1      -0.072   0.785  -0.702  0.00  0.00     0.162 A 
ATOM      6  C5  UNL d   1      -0.749   1.882  -0.179  0.00  0.00     0.062 A 
ATOM      7  F   UNL d   1      -0.843   3.013  -0.895  0.00  0.00    -0.097 F 
ATOM      8  F1  UNL d   1       0.480   0.883  -1.921  0.00  0.00    -0.096 F 
ATOM      9  I   UNL d   1       1.045  -2.038  -0.744  0.00  0.00    -0.060 I 
ATOM     10  F2  UNL d   1      -0.474  -1.580   2.036  0.00  0.00    -0.096 F 
ATOM     11  F3  UNL d   1      -1.790   0.566   3.035  0.00  0.00    -0.097 F 
ATOM     12  F4  UNL d   1      -1.981   2.866   1.581  0.00  0.00    -0.092 F 
ENDROOT
TORSDOF 0
ENDMDL
