MODEL 1
REMARK minimizedAffinity 0.616013229
REMARK minimizedRMSD -1
REMARK  0 active torsions:
REMARK  status: ('A' for Active; 'I' for Inactive)
ROOT
ATOM      1  C   UNL d   1      -1.180   1.585   0.335  0.00  0.00     0.124 A 
ATOM      2  C1  UNL d   1      -0.036   1.561  -0.450  0.00  0.00     0.062 A 
ATOM      3  C2  UNL d   1       0.543   0.346  -0.806  0.00  0.00     0.162 A 
ATOM      4  C3  UNL d   1      -0.022  -0.855  -0.377  0.00  0.00    -0.034 A 
ATOM      5  C4  UNL d   1      -1.172  -0.822   0.413  0.00  0.00     0.162 A 
ATOM      6  C5  UNL d   1      -1.747   0.394   0.766  0.00  0.00     0.062 A 
ATOM      7  F   UNL d   1      -2.852   0.416   1.525  0.00  0.00    -0.097 F 
ATOM      8  F1  UNL d   1      -1.741  -1.959   0.843  0.00  0.00    -0.096 F 
ATOM      9  I   UNL d   1       0.841  -2.674  -0.907  0.00  0.00    -0.060 I 
ATOM     10  F2  UNL d   1       1.648   0.352  -1.566  0.00  0.00    -0.096 F 
ATOM     11  F3  UNL d   1       0.514   2.710  -0.867  0.00  0.00    -0.097 F 
ATOM     12  F4  UNL d   1      -1.735   2.755   0.677  0.00  0.00    -0.092 F 
ENDROOT
TORSDOF 0
ENDMDL
