MODEL 1
REMARK minimizedAffinity -1.22319925
REMARK minimizedRMSD -1
REMARK  0 active torsions:
REMARK  status: ('A' for Active; 'I' for Inactive)
ROOT
ATOM      1  C   UNL d   1       1.432  -0.845  -1.739  0.00  0.00     0.124 A 
ATOM      2  C1  UNL d   1       1.627   0.519  -1.574  0.00  0.00     0.062 A 
ATOM      3  C2  UNL d   1       0.926   1.213  -0.592  0.00  0.00     0.162 A 
ATOM      4  C3  UNL d   1       0.022   0.544   0.233  0.00  0.00    -0.034 A 
ATOM      5  C4  UNL d   1      -0.170  -0.828   0.061  0.00  0.00     0.162 A 
ATOM      6  C5  UNL d   1       0.534  -1.517  -0.922  0.00  0.00     0.062 A 
ATOM      7  F   UNL d   1       0.344  -2.835  -1.080  0.00  0.00    -0.097 F 
ATOM      8  F1  UNL d   1      -1.031  -1.503   0.837  0.00  0.00    -0.096 F 
ATOM      9  I   UNL d   1      -1.029   1.578   1.702  0.00  0.00    -0.060 I 
ATOM     10  F2  UNL d   1       1.134   2.531  -0.455  0.00  0.00    -0.096 F 
ATOM     11  F3  UNL d   1       2.494   1.171  -2.363  0.00  0.00    -0.097 F 
ATOM     12  F4  UNL d   1       2.108  -1.510  -2.685  0.00  0.00    -0.092 F 
ENDROOT
TORSDOF 0
ENDMDL
