MODEL 1
REMARK minimizedAffinity -1.77350879
REMARK minimizedRMSD -1
REMARK  0 active torsions:
REMARK  status: ('A' for Active; 'I' for Inactive)
ROOT
ATOM      1  C   UNL d   1       1.264  -0.780  -1.584  0.00  0.00     0.124 A 
ATOM      2  C1  UNL d   1       1.425   0.590  -1.431  0.00  0.00     0.062 A 
ATOM      3  C2  UNL d   1       0.674   1.282  -0.484  0.00  0.00     0.162 A 
ATOM      4  C3  UNL d   1      -0.243   0.603   0.318  0.00  0.00    -0.034 A 
ATOM      5  C4  UNL d   1      -0.400  -0.775   0.158  0.00  0.00     0.162 A 
ATOM      6  C5  UNL d   1       0.353  -1.461  -0.790  0.00  0.00     0.062 A 
ATOM      7  F   UNL d   1       0.196  -2.785  -0.936  0.00  0.00    -0.097 F 
ATOM      8  F1  UNL d   1      -1.273  -1.458   0.913  0.00  0.00    -0.096 F 
ATOM      9  I   UNL d   1      -1.367   1.633   1.735  0.00  0.00    -0.060 I 
ATOM     10  F2  UNL d   1       0.850   2.605  -0.358  0.00  0.00    -0.096 F 
ATOM     11  F3  UNL d   1       2.304   1.251  -2.198  0.00  0.00    -0.097 F 
ATOM     12  F4  UNL d   1       1.987  -1.442  -2.496  0.00  0.00    -0.092 F 
ENDROOT
TORSDOF 0
ENDMDL
