MODEL 1
REMARK minimizedAffinity 2.85120082
REMARK minimizedRMSD -1
REMARK  1 active torsions:
REMARK  status: ('A' for Active; 'I' for Inactive)
REMARK    1  A    between atoms: C1_2  and  C2_3 
ROOT
ATOM      1  C2  UNL d   1       0.397  -1.862   3.432  0.00  0.00    -0.073 A 
ATOM      2  C3  UNL d   1       1.558  -1.140   3.130  0.00  0.00    -0.002 A 
ATOM      3  C4  UNL d   1       1.545  -0.174   2.123  0.00  0.00     0.004 A 
ATOM      4  C5  UNL d   1       0.372   0.085   1.414  0.00  0.00    -0.004 A 
ATOM      5  C6  UNL d   1      -0.801  -0.617   1.709  0.00  0.00    -0.075 A 
ATOM      6  C7  UNL d   1      -2.070  -0.352   0.953  0.00  0.00     0.076 C 
ATOM      7  C8  UNL d   1      -0.779  -1.588   2.719  0.00  0.00     0.001 A 
ENDROOT
BRANCH   1   8
ATOM      8  C1  UNL d   1       0.405  -2.902   4.522  0.00  0.00     0.053 C 
ATOM      9  C   UNL d   1       1.725  -2.928   5.276  0.00  0.00     0.018 C 
ENDBRANCH   1   8
TORSDOF 1
ENDMDL
