MODEL 1
REMARK minimizedAffinity -1.74991179
REMARK minimizedRMSD -1
REMARK  1 active torsions:
REMARK  status: ('A' for Active; 'I' for Inactive)
REMARK    1  A    between atoms: C1_2  and  C2_3 
ROOT
ATOM      1  C2  UNL d   1      -0.672  -0.533   2.017  0.00  0.00    -0.073 A 
ATOM      2  C3  UNL d   1       0.584  -0.100   1.579  0.00  0.00    -0.002 A 
ATOM      3  C4  UNL d   1       1.740  -0.490   2.256  0.00  0.00     0.004 A 
ATOM      4  C5  UNL d   1       1.653  -1.323   3.372  0.00  0.00    -0.004 A 
ATOM      5  C6  UNL d   1       0.408  -1.776   3.818  0.00  0.00    -0.075 A 
ATOM      6  C7  UNL d   1       0.296  -2.670   5.018  0.00  0.00     0.076 C 
ATOM      7  C8  UNL d   1      -0.749  -1.377   3.134  0.00  0.00     0.001 A 
ENDROOT
BRANCH   1   8
ATOM      8  C1  UNL d   1      -1.923  -0.119   1.286  0.00  0.00     0.053 C 
ATOM      9  C   UNL d   1      -1.831  -0.401  -0.205  0.00  0.00     0.018 C 
ENDBRANCH   1   8
TORSDOF 1
ENDMDL
