MODEL 1
REMARK minimizedAffinity -2.62285757
REMARK minimizedRMSD -1
REMARK  1 active torsions:
REMARK  status: ('A' for Active; 'I' for Inactive)
REMARK    1  A    between atoms: C1_2  and  C2_3 
ROOT
ATOM      1  C2  UNL d   1       1.232  -0.749   3.494  0.00  0.00    -0.073 A 
ATOM      2  C3  UNL d   1       0.785  -2.068   3.629  0.00  0.00    -0.002 A 
ATOM      3  C4  UNL d   1       1.463  -2.960   4.462  0.00  0.00     0.004 A 
ATOM      4  C5  UNL d   1       2.588  -2.540   5.172  0.00  0.00    -0.004 A 
ATOM      5  C6  UNL d   1       3.042  -1.222   5.059  0.00  0.00    -0.075 A 
ATOM      6  C7  UNL d   1       4.251  -0.755   5.815  0.00  0.00     0.076 C 
ATOM      7  C8  UNL d   1       2.358  -0.334   4.219  0.00  0.00     0.001 A 
ENDROOT
BRANCH   1   8
ATOM      8  C1  UNL d   1       0.499   0.219   2.600  0.00  0.00     0.053 C 
ATOM      9  C   UNL d   1      -0.797  -0.369   2.065  0.00  0.00     0.018 C 
ENDBRANCH   1   8
TORSDOF 1
ENDMDL
