MODEL 1
REMARK minimizedAffinity 3.69856715
REMARK minimizedRMSD -1
REMARK  1 active torsions:
REMARK  status: ('A' for Active; 'I' for Inactive)
REMARK    1  A    between atoms: C1_2  and  C2_3 
ROOT
ATOM      1  C2  UNL d   1       1.428  -1.650   3.709  0.00  0.00    -0.073 A 
ATOM      2  C3  UNL d   1       2.500  -0.985   3.102  0.00  0.00    -0.002 A 
ATOM      3  C4  UNL d   1       2.266  -0.007   2.135  0.00  0.00     0.004 A 
ATOM      4  C5  UNL d   1       0.960   0.321   1.770  0.00  0.00    -0.004 A 
ATOM      5  C6  UNL d   1      -0.124  -0.324   2.374  0.00  0.00    -0.075 A 
ATOM      6  C7  UNL d   1      -1.535   0.016   1.991  0.00  0.00     0.076 C 
ATOM      7  C8  UNL d   1       0.119  -1.307   3.343  0.00  0.00     0.001 A 
ENDROOT
BRANCH   1   8
ATOM      8  C1  UNL d   1       1.676  -2.702   4.759  0.00  0.00     0.053 C 
ATOM      9  C   UNL d   1       3.160  -2.925   5.004  0.00  0.00     0.018 C 
ENDBRANCH   1   8
TORSDOF 1
ENDMDL
