MODEL 1
REMARK minimizedAffinity 2.95488429
REMARK minimizedRMSD -1
REMARK  0 active torsions:
REMARK  status: ('A' for Active; 'I' for Inactive)
ROOT
ATOM      1  N1  IND d   1      -3.131   3.836   2.234  0.00  0.00    -0.196 N 
ATOM      2  C2  IND d   1      -3.401   2.754   1.444  0.00  0.00     0.054 A 
ATOM      3  C3  IND d   1      -3.092   1.609   2.094  0.00  0.00    -0.031 A 
ATOM      4  C4  IND d   1      -2.229   1.273   4.496  0.00  0.00     0.051 A 
ATOM      5  C5  IND d   1      -1.797   1.965   5.592  0.00  0.00    -0.031 A 
ATOM      6  C6  IND d   1      -1.790   3.345   5.626  0.00  0.00     0.015 A 
ATOM      7  C7  IND d   1      -2.228   4.086   4.566  0.00  0.00    -0.016 A 
ATOM      8  C8  IND d   1      -2.660   3.386   3.448  0.00  0.00    -0.047 A 
ATOM      9  C9  IND d   1      -2.630   1.987   3.391  0.00  0.00    -0.096 A 
ATOM     10  HN1 IND d   1      -3.238   4.660   2.011  0.00  0.00     0.298 HD
ENDROOT
TORSDOF 0
ENDMDL
