MODEL 1
REMARK minimizedAffinity -3.09677553
REMARK minimizedRMSD -1
REMARK  0 active torsions:
REMARK  status: ('A' for Active; 'I' for Inactive)
ROOT
ATOM      1  N1  IND d   1       1.216   4.156  -1.575  0.00  0.00    -0.196 N 
ATOM      2  C2  IND d   1       1.144   4.951  -0.465  0.00  0.00     0.054 A 
ATOM      3  C3  IND d   1       1.161   4.197   0.656  0.00  0.00    -0.031 A 
ATOM      4  C4  IND d   1       1.403   1.646   0.908  0.00  0.00     0.051 A 
ATOM      5  C5  IND d   1       1.465   0.493   0.178  0.00  0.00    -0.031 A 
ATOM      6  C6  IND d   1       1.449   0.501  -1.202  0.00  0.00     0.015 A 
ATOM      7  C7  IND d   1       1.382   1.670  -1.906  0.00  0.00    -0.016 A 
ATOM      8  C8  IND d   1       1.313   2.843  -1.168  0.00  0.00    -0.047 A 
ATOM      9  C9  IND d   1       1.285   2.838   0.233  0.00  0.00    -0.096 A 
ATOM     10  HN1 IND d   1       1.204   4.429  -2.390  0.00  0.00     0.298 HD
ENDROOT
TORSDOF 0
ENDMDL
