MODEL 1
REMARK minimizedAffinity -2.55165076
REMARK minimizedRMSD -1
REMARK  0 active torsions:
REMARK  status: ('A' for Active; 'I' for Inactive)
ROOT
ATOM      1  N1  IND d   1       0.958   1.368  -2.137  0.00  0.00    -0.196 N 
ATOM      2  C2  IND d   1       1.047   0.068  -1.724  0.00  0.00     0.054 A 
ATOM      3  C3  IND d   1       1.283   0.012  -0.394  0.00  0.00    -0.031 A 
ATOM      4  C4  IND d   1       1.460   1.926   1.318  0.00  0.00     0.051 A 
ATOM      5  C5  IND d   1       1.483   3.290   1.411  0.00  0.00    -0.031 A 
ATOM      6  C6  IND d   1       1.325   4.099   0.304  0.00  0.00     0.015 A 
ATOM      7  C7  IND d   1       1.128   3.572  -0.941  0.00  0.00    -0.016 A 
ATOM      8  C8  IND d   1       1.111   2.188  -1.040  0.00  0.00    -0.047 A 
ATOM      9  C9  IND d   1       1.313   1.362   0.073  0.00  0.00    -0.096 A 
ATOM     10  HN1 IND d   1       0.828   1.630  -2.945  0.00  0.00     0.298 HD
ENDROOT
TORSDOF 0
ENDMDL
