MODEL 1
REMARK minimizedAffinity 6.94881964
REMARK minimizedRMSD -1
REMARK  0 active torsions:
REMARK  status: ('A' for Active; 'I' for Inactive)
ROOT
ATOM      1  N1  IND d   1       1.915  -0.412  -0.238  0.00  0.00    -0.196 N 
ATOM      2  C2  IND d   1       1.759  -0.776  -1.546  0.00  0.00     0.054 A 
ATOM      3  C3  IND d   1       1.349   0.281  -2.283  0.00  0.00    -0.031 A 
ATOM      4  C4  IND d   1       0.968   2.725  -1.566  0.00  0.00     0.051 A 
ATOM      5  C5  IND d   1       0.948   3.533  -0.465  0.00  0.00    -0.031 A 
ATOM      6  C6  IND d   1       1.258   3.060   0.794  0.00  0.00     0.015 A 
ATOM      7  C7  IND d   1       1.612   1.756   0.997  0.00  0.00    -0.016 A 
ATOM      8  C8  IND d   1       1.627   0.930  -0.118  0.00  0.00    -0.047 A 
ATOM      9  C9  IND d   1       1.272   1.395  -1.391  0.00  0.00    -0.096 A 
ATOM     10  HN1 IND d   1       2.153  -0.934   0.403  0.00  0.00     0.298 HD
ENDROOT
TORSDOF 0
ENDMDL
