MODEL 1
REMARK minimizedAffinity 1.32279015
REMARK minimizedRMSD -1
REMARK  0 active torsions:
REMARK  status: ('A' for Active; 'I' for Inactive)
ROOT
ATOM      1  N1  IND d   1       3.091   0.388   0.700  0.00  0.00    -0.196 N 
ATOM      2  C2  IND d   1       3.806   1.360   1.342  0.00  0.00     0.054 A 
ATOM      3  C3  IND d   1       3.688   2.539   0.691  0.00  0.00    -0.031 A 
ATOM      4  C4  IND d   1       2.290   3.125  -1.389  0.00  0.00     0.051 A 
ATOM      5  C5  IND d   1       1.497   2.560  -2.349  0.00  0.00    -0.031 A 
ATOM      6  C6  IND d   1       1.186   1.216  -2.339  0.00  0.00     0.015 A 
ATOM      7  C7  IND d   1       1.650   0.385  -1.358  0.00  0.00    -0.016 A 
ATOM      8  C8  IND d   1       2.461   0.953  -0.387  0.00  0.00    -0.047 A 
ATOM      9  C9  IND d   1       2.814   2.309  -0.416  0.00  0.00    -0.096 A 
ATOM     10  HN1 IND d   1       3.042  -0.437   0.936  0.00  0.00     0.298 HD
ENDROOT
TORSDOF 0
ENDMDL
