MODEL 1
REMARK minimizedAffinity 6.33855391
REMARK minimizedRMSD -1
REMARK  0 active torsions:
REMARK  status: ('A' for Active; 'I' for Inactive)
ROOT
ATOM      1  N1  IND d   1       0.933   3.366  -1.860  0.00  0.00    -0.196 N 
ATOM      2  C2  IND d   1       1.066   4.348  -0.918  0.00  0.00     0.054 A 
ATOM      3  C3  IND d   1       1.347   3.807   0.289  0.00  0.00    -0.031 A 
ATOM      4  C4  IND d   1       1.735   1.344   0.927  0.00  0.00     0.051 A 
ATOM      5  C5  IND d   1       1.686   0.078   0.415  0.00  0.00    -0.031 A 
ATOM      6  C6  IND d   1       1.379  -0.162  -0.909  0.00  0.00     0.015 A 
ATOM      7  C7  IND d   1       1.121   0.861  -1.777  0.00  0.00    -0.016 A 
ATOM      8  C8  IND d   1       1.163   2.148  -1.258  0.00  0.00    -0.047 A 
ATOM      9  C9  IND d   1       1.432   2.395   0.094  0.00  0.00    -0.096 A 
ATOM     10  HN1 IND d   1       0.738   3.488  -2.688  0.00  0.00     0.298 HD
ENDROOT
TORSDOF 0
ENDMDL
