MODEL 1
REMARK minimizedAffinity 3.71682096
REMARK minimizedRMSD -1
REMARK  0 active torsions:
REMARK  status: ('A' for Active; 'I' for Inactive)
ROOT
ATOM      1  N1  IND d   1       1.043   4.055  -1.724  0.00  0.00    -0.196 N 
ATOM      2  C2  IND d   1       1.186   4.922  -0.677  0.00  0.00     0.054 A 
ATOM      3  C3  IND d   1       1.478   4.246   0.457  0.00  0.00    -0.031 A 
ATOM      4  C4  IND d   1       1.869   1.725   0.803  0.00  0.00     0.051 A 
ATOM      5  C5  IND d   1       1.812   0.527   0.149  0.00  0.00    -0.031 A 
ATOM      6  C6  IND d   1       1.493   0.441  -1.191  0.00  0.00     0.015 A 
ATOM      7  C7  IND d   1       1.228   1.558  -1.932  0.00  0.00    -0.016 A 
ATOM      8  C8  IND d   1       1.277   2.776  -1.270  0.00  0.00    -0.047 A 
ATOM      9  C9  IND d   1       1.559   2.865   0.100  0.00  0.00    -0.096 A 
ATOM     10  HN1 IND d   1       0.841   4.273  -2.531  0.00  0.00     0.298 HD
ENDROOT
TORSDOF 0
ENDMDL
