MODEL 1
REMARK minimizedAffinity 1.03521335
REMARK minimizedRMSD -1
REMARK  0 active torsions:
REMARK  status: ('A' for Active; 'I' for Inactive)
ROOT
ATOM      1  N1  IND d   1       1.154   3.174   1.390  0.00  0.00    -0.196 N 
ATOM      2  C2  IND d   1       1.157   4.158   0.440  0.00  0.00     0.054 A 
ATOM      3  C3  IND d   1       1.129   3.617  -0.798  0.00  0.00    -0.031 A 
ATOM      4  C4  IND d   1       0.972   1.145  -1.499  0.00  0.00     0.051 A 
ATOM      5  C5  IND d   1       0.980  -0.123  -0.988  0.00  0.00    -0.031 A 
ATOM      6  C6  IND d   1       1.044  -0.361   0.370  0.00  0.00     0.015 A 
ATOM      7  C7  IND d   1       1.093   0.665   1.271  0.00  0.00    -0.016 A 
ATOM      8  C8  IND d   1       1.092   1.953   0.755  0.00  0.00    -0.047 A 
ATOM      9  C9  IND d   1       1.070   2.200  -0.624  0.00  0.00    -0.096 A 
ATOM     10  HN1 IND d   1       1.185   3.297   2.240  0.00  0.00     0.298 HD
ENDROOT
TORSDOF 0
ENDMDL
