MODEL 1
REMARK minimizedAffinity 7.76339769
REMARK minimizedRMSD -1
REMARK  0 active torsions:
REMARK  status: ('A' for Active; 'I' for Inactive)
ROOT
ATOM      1  N1  IND d   1       0.019   1.131  -0.610  0.00  0.00    -0.196 N 
ATOM      2  C2  IND d   1      -0.080   2.376  -0.054  0.00  0.00     0.054 A 
ATOM      3  C3  IND d   1       1.020   2.650   0.683  0.00  0.00    -0.031 A 
ATOM      4  C4  IND d   1       3.148   1.244   1.033  0.00  0.00     0.051 A 
ATOM      5  C5  IND d   1       3.687   0.019   0.756  0.00  0.00    -0.031 A 
ATOM      6  C6  IND d   1       3.019  -0.916  -0.008  0.00  0.00     0.015 A 
ATOM      7  C7  IND d   1       1.785  -0.655  -0.536  0.00  0.00    -0.016 A 
ATOM      8  C8  IND d   1       1.232   0.585  -0.250  0.00  0.00    -0.047 A 
ATOM      9  C9  IND d   1       1.887   1.521   0.560  0.00  0.00    -0.096 A 
ATOM     10  HN1 IND d   1      -0.577   0.752  -1.101  0.00  0.00     0.298 HD
ENDROOT
TORSDOF 0
ENDMDL
