MODEL 1
REMARK minimizedAffinity -0.0423317179
REMARK minimizedRMSD -1
REMARK  0 active torsions:
REMARK  status: ('A' for Active; 'I' for Inactive)
ROOT
ATOM      1  N1  IND d   1       1.384   3.060   1.259  0.00  0.00    -0.196 N 
ATOM      2  C2  IND d   1       1.476   1.912   1.995  0.00  0.00     0.054 A 
ATOM      3  C3  IND d   1       1.381   0.829   1.192  0.00  0.00    -0.031 A 
ATOM      4  C4  IND d   1       1.175   0.707  -1.371  0.00  0.00     0.051 A 
ATOM      5  C5  IND d   1       1.017   1.493  -2.478  0.00  0.00    -0.031 A 
ATOM      6  C6  IND d   1       0.975   2.870  -2.394  0.00  0.00     0.015 A 
ATOM      7  C7  IND d   1       1.102   3.515  -1.197  0.00  0.00    -0.016 A 
ATOM      8  C8  IND d   1       1.255   2.719  -0.070  0.00  0.00    -0.047 A 
ATOM      9  C9  IND d   1       1.256   1.320  -0.144  0.00  0.00    -0.096 A 
ATOM     10  HN1 IND d   1       1.403   3.860   1.572  0.00  0.00     0.298 HD
ENDROOT
TORSDOF 0
ENDMDL
