MODEL 1
REMARK minimizedAffinity -2.99189949
REMARK minimizedRMSD -1
REMARK  0 active torsions:
REMARK  status: ('A' for Active; 'I' for Inactive)
ROOT
ATOM      1  N1  IND d   1       1.229   0.807  -2.471  0.00  0.00    -0.196 N 
ATOM      2  C2  IND d   1       1.340  -0.343  -1.740  0.00  0.00     0.054 A 
ATOM      3  C3  IND d   1       1.267  -0.070  -0.418  0.00  0.00    -0.031 A 
ATOM      4  C4  IND d   1       0.865   2.180   0.767  0.00  0.00     0.051 A 
ATOM      5  C5  IND d   1       0.740   3.519   0.522  0.00  0.00    -0.031 A 
ATOM      6  C6  IND d   1       0.768   4.032  -0.758  0.00  0.00     0.015 A 
ATOM      7  C7  IND d   1       0.913   3.221  -1.848  0.00  0.00    -0.016 A 
ATOM      8  C8  IND d   1       1.048   1.861  -1.603  0.00  0.00    -0.047 A 
ATOM      9  C9  IND d   1       1.063   1.339  -0.303  0.00  0.00    -0.096 A 
ATOM     10  HN1 IND d   1       1.266   0.862  -3.328  0.00  0.00     0.298 HD
ENDROOT
TORSDOF 0
ENDMDL
