MODEL 1
REMARK minimizedAffinity 3.98882985
REMARK minimizedRMSD -1
REMARK  0 active torsions:
REMARK  status: ('A' for Active; 'I' for Inactive)
ROOT
ATOM      1  N1  IND d   1       0.997   3.374  -0.713  0.00  0.00    -0.196 N 
ATOM      2  C2  IND d   1       0.621   3.585  -2.010  0.00  0.00     0.054 A 
ATOM      3  C3  IND d   1       0.489   2.407  -2.660  0.00  0.00    -0.031 A 
ATOM      4  C4  IND d   1       0.739   0.007  -1.762  0.00  0.00     0.051 A 
ATOM      5  C5  IND d   1       1.107  -0.693  -0.648  0.00  0.00    -0.031 A 
ATOM      6  C6  IND d   1       1.462  -0.061   0.526  0.00  0.00     0.015 A 
ATOM      7  C7  IND d   1       1.451   1.301   0.634  0.00  0.00    -0.016 A 
ATOM      8  C8  IND d   1       1.084   2.016  -0.498  0.00  0.00    -0.047 A 
ATOM      9  C9  IND d   1       0.764   1.381  -1.705  0.00  0.00    -0.096 A 
ATOM     10  HN1 IND d   1       1.153   3.986  -0.130  0.00  0.00     0.298 HD
ENDROOT
TORSDOF 0
ENDMDL
