MODEL 1
REMARK minimizedAffinity 2.34434772
REMARK minimizedRMSD -1
REMARK  0 active torsions:
REMARK  status: ('A' for Active; 'I' for Inactive)
ROOT
ATOM      1  N1  IND d   1       1.869   1.219  -2.442  0.00  0.00    -0.196 N 
ATOM      2  C2  IND d   1       2.043  -0.055  -1.980  0.00  0.00     0.054 A 
ATOM      3  C3  IND d   1       1.876  -0.096  -0.639  0.00  0.00    -0.031 A 
ATOM      4  C4  IND d   1       1.215   1.790   0.985  0.00  0.00     0.051 A 
ATOM      5  C5  IND d   1       0.984   3.136   1.036  0.00  0.00    -0.031 A 
ATOM      6  C6  IND d   1       1.034   3.927  -0.093  0.00  0.00     0.015 A 
ATOM      7  C7  IND d   1       1.308   3.398  -1.323  0.00  0.00    -0.016 A 
ATOM      8  C8  IND d   1       1.550   2.033  -1.377  0.00  0.00    -0.047 A 
ATOM      9  C9  IND d   1       1.542   1.231  -0.228  0.00  0.00    -0.096 A 
ATOM     10  HN1 IND d   1       1.946   1.471  -3.261  0.00  0.00     0.298 HD
ENDROOT
TORSDOF 0
ENDMDL
