MODEL 1
REMARK minimizedAffinity 7.50856686
REMARK minimizedRMSD -1
REMARK  0 active torsions:
REMARK  status: ('A' for Active; 'I' for Inactive)
ROOT
ATOM      1  N1  IND d   1       0.523   3.514  -1.190  0.00  0.00    -0.196 N 
ATOM      2  C2  IND d   1       0.496   3.398  -2.551  0.00  0.00     0.054 A 
ATOM      3  C3  IND d   1       0.785   2.130  -2.921  0.00  0.00    -0.031 A 
ATOM      4  C4  IND d   1       1.234   0.061  -1.455  0.00  0.00     0.051 A 
ATOM      5  C5  IND d   1       1.401  -0.321  -0.154  0.00  0.00    -0.031 A 
ATOM      6  C6  IND d   1       1.279   0.573   0.890  0.00  0.00     0.015 A 
ATOM      7  C7  IND d   1       0.973   1.886   0.671  0.00  0.00    -0.016 A 
ATOM      8  C8  IND d   1       0.809   2.280  -0.650  0.00  0.00    -0.047 A 
ATOM      9  C9  IND d   1       0.974   1.386  -1.716  0.00  0.00    -0.096 A 
ATOM     10  HN1 IND d   1       0.385   4.237  -0.745  0.00  0.00     0.298 HD
ENDROOT
TORSDOF 0
ENDMDL
