MODEL 1
REMARK minimizedAffinity 8.41499329
REMARK minimizedRMSD -1
REMARK  0 active torsions:
REMARK  status: ('A' for Active; 'I' for Inactive)
ROOT
ATOM      1  N1  IND d   1       1.578   3.437  -1.135  0.00  0.00    -0.196 N 
ATOM      2  C2  IND d   1       0.783   3.911  -2.141  0.00  0.00     0.054 A 
ATOM      3  C3  IND d   1       0.206   2.885  -2.807  0.00  0.00    -0.031 A 
ATOM      4  C4  IND d   1       0.345   0.355  -2.352  0.00  0.00     0.051 A 
ATOM      5  C5  IND d   1       0.977  -0.564  -1.563  0.00  0.00    -0.031 A 
ATOM      6  C6  IND d   1       1.857  -0.189  -0.568  0.00  0.00     0.015 A 
ATOM      7  C7  IND d   1       2.131   1.126  -0.318  0.00  0.00    -0.016 A 
ATOM      8  C8  IND d   1       1.496   2.062  -1.122  0.00  0.00    -0.047 A 
ATOM      9  C9  IND d   1       0.635   1.686  -2.161  0.00  0.00    -0.096 A 
ATOM     10  HN1 IND d   1       2.050   3.917  -0.600  0.00  0.00     0.298 HD
ENDROOT
TORSDOF 0
ENDMDL
