MODEL 1
REMARK minimizedAffinity 4.06273699
REMARK minimizedRMSD -1
REMARK  0 active torsions:
REMARK  status: ('A' for Active; 'I' for Inactive)
ROOT
ATOM      1  N1  IND d   1       1.312   3.414  -0.805  0.00  0.00    -0.196 N 
ATOM      2  C2  IND d   1       0.823   3.492   0.469  0.00  0.00     0.054 A 
ATOM      3  C3  IND d   1       0.689   2.256   0.998  0.00  0.00    -0.031 A 
ATOM      4  C4  IND d   1       1.307  -0.031  -0.010  0.00  0.00     0.051 A 
ATOM      5  C5  IND d   1       1.754  -0.615  -1.162  0.00  0.00    -0.031 A 
ATOM      6  C6  IND d   1       2.086   0.129  -2.275  0.00  0.00     0.015 A 
ATOM      7  C7  IND d   1       1.993   1.492  -2.275  0.00  0.00    -0.016 A 
ATOM      8  C8  IND d   1       1.533   2.088  -1.109  0.00  0.00    -0.047 A 
ATOM      9  C9  IND d   1       1.155   1.335   0.010  0.00  0.00    -0.096 A 
ATOM     10  HN1 IND d   1       1.457   4.080  -1.329  0.00  0.00     0.298 HD
ENDROOT
TORSDOF 0
ENDMDL
