MODEL 1
REMARK minimizedAffinity 3.24464703
REMARK minimizedRMSD -1
REMARK  0 active torsions:
REMARK  status: ('A' for Active; 'I' for Inactive)
ROOT
ATOM      1  N1  IND d   1       0.848   3.673  -0.912  0.00  0.00    -0.196 N 
ATOM      2  C2  IND d   1       0.774   3.698  -2.277  0.00  0.00     0.054 A 
ATOM      3  C3  IND d   1       0.905   2.449  -2.778  0.00  0.00    -0.031 A 
ATOM      4  C4  IND d   1       1.149   0.206  -1.538  0.00  0.00     0.051 A 
ATOM      5  C5  IND d   1       1.302  -0.322  -0.287  0.00  0.00    -0.031 A 
ATOM      6  C6  IND d   1       1.309   0.471   0.843  0.00  0.00     0.015 A 
ATOM      7  C7  IND d   1       1.151   1.825   0.764  0.00  0.00    -0.016 A 
ATOM      8  C8  IND d   1       1.002   2.366  -0.505  0.00  0.00    -0.047 A 
ATOM      9  C9  IND d   1       1.037   1.571  -1.659  0.00  0.00    -0.096 A 
ATOM     10  HN1 IND d   1       0.805   4.358  -0.395  0.00  0.00     0.298 HD
ENDROOT
TORSDOF 0
ENDMDL
