MODEL 1
REMARK minimizedAffinity -2.00090289
REMARK minimizedRMSD -1
REMARK  2 active torsions:
REMARK  status: ('A' for Active; 'I' for Inactive)
REMARK    1  A    between atoms: C1_2  and  C2_3 
REMARK    2  A    between atoms: C2_3  and  C3_4 
ROOT
ATOM      1  C3  UNL d   1      -0.487   2.583  -0.362  0.00  0.00    -0.075 A 
ATOM      2  C4  UNL d   1      -0.840   1.890   0.804  0.00  0.00     0.002 A 
ATOM      3  C5  UNL d   1      -1.915   2.317   1.584  0.00  0.00     0.002 A 
ATOM      4  C6  UNL d   1      -2.642   3.447   1.215  0.00  0.00    -0.004 A 
ATOM      5  C7  UNL d   1      -2.289   4.153   0.067  0.00  0.00     0.002 A 
ATOM      6  C8  UNL d   1      -1.217   3.725  -0.718  0.00  0.00     0.002 A 
ENDROOT
BRANCH   1   7
ATOM      7  C2  UNL d   1       0.657   2.109  -1.227  0.00  0.00     0.056 C 
BRANCH   7   8
ATOM      8  C1  UNL d   1       1.047   0.645  -0.996  0.00  0.00     0.007 C 
ATOM      9  C   UNL d   1       0.448  -0.305  -2.025  0.00  0.00     0.009 C 
ENDBRANCH   7   8
ENDBRANCH   1   7
TORSDOF 2
ENDMDL
