MODEL 1
REMARK minimizedAffinity -1.35924852
REMARK minimizedRMSD -1
REMARK  2 active torsions:
REMARK  status: ('A' for Active; 'I' for Inactive)
REMARK    1  A    between atoms: C1_2  and  C2_3 
REMARK    2  A    between atoms: C2_3  and  C3_4 
ROOT
ATOM      1  C3  UNL d   1      -2.210   2.591   0.323  0.00  0.00    -0.075 A 
ATOM      2  C4  UNL d   1      -2.261   3.956   0.004  0.00  0.00     0.002 A 
ATOM      3  C5  UNL d   1      -1.132   4.611  -0.490  0.00  0.00     0.002 A 
ATOM      4  C6  UNL d   1       0.062   3.914  -0.662  0.00  0.00    -0.004 A 
ATOM      5  C7  UNL d   1       0.128   2.562  -0.333  0.00  0.00     0.002 A 
ATOM      6  C8  UNL d   1      -1.001   1.903   0.157  0.00  0.00     0.002 A 
ENDROOT
BRANCH   1   7
ATOM      7  C2  UNL d   1      -3.436   1.870   0.830  0.00  0.00     0.056 C 
BRANCH   7   8
ATOM      8  C1  UNL d   1      -4.085   0.942  -0.202  0.00  0.00     0.007 C 
ATOM      9  C   UNL d   1      -5.401   0.343   0.275  0.00  0.00     0.009 C 
ENDBRANCH   7   8
ENDBRANCH   1   7
TORSDOF 2
ENDMDL
