MODEL 1
REMARK minimizedAffinity 0.688003659
REMARK minimizedRMSD -1
REMARK  2 active torsions:
REMARK  status: ('A' for Active; 'I' for Inactive)
REMARK    1  A    between atoms: C1_2  and  C2_3 
REMARK    2  A    between atoms: C2_3  and  C3_4 
ROOT
ATOM      1  C3  UNL d   1       0.046   1.758  -0.572  0.00  0.00    -0.075 A 
ATOM      2  C4  UNL d   1       0.363   3.071  -0.950  0.00  0.00     0.002 A 
ATOM      3  C5  UNL d   1       0.076   4.141  -0.102  0.00  0.00     0.002 A 
ATOM      4  C6  UNL d   1      -0.539   3.914   1.127  0.00  0.00    -0.004 A 
ATOM      5  C7  UNL d   1      -0.873   2.616   1.506  0.00  0.00     0.002 A 
ATOM      6  C8  UNL d   1      -0.583   1.543   0.661  0.00  0.00     0.002 A 
ENDROOT
BRANCH   1   7
ATOM      7  C2  UNL d   1       0.381   0.593  -1.472  0.00  0.00     0.056 C 
BRANCH   7   8
ATOM      8  C1  UNL d   1      -0.844  -0.090  -2.089  0.00  0.00     0.007 C 
ATOM      9  C   UNL d   1      -0.482  -1.178  -3.093  0.00  0.00     0.009 C 
ENDBRANCH   7   8
ENDBRANCH   1   7
TORSDOF 2
ENDMDL
