MODEL 1
REMARK minimizedAffinity -3.58951187
REMARK minimizedRMSD -1
REMARK  2 active torsions:
REMARK  status: ('A' for Active; 'I' for Inactive)
REMARK    1  A    between atoms: C1_2  and  C2_3 
REMARK    2  A    between atoms: C2_3  and  C3_4 
ROOT
ATOM      1  C3  UNL d   1      -0.114   1.884  -0.992  0.00  0.00    -0.075 A 
ATOM      2  C4  UNL d   1      -0.573   1.892   0.333  0.00  0.00     0.002 A 
ATOM      3  C5  UNL d   1      -1.342   2.954   0.809  0.00  0.00     0.002 A 
ATOM      4  C6  UNL d   1      -1.653   4.023  -0.028  0.00  0.00    -0.004 A 
ATOM      5  C7  UNL d   1      -1.189   4.033  -1.341  0.00  0.00     0.002 A 
ATOM      6  C8  UNL d   1      -0.422   2.970  -1.822  0.00  0.00     0.002 A 
ENDROOT
BRANCH   1   7
ATOM      7  C2  UNL d   1       0.694   0.724  -1.522  0.00  0.00     0.056 C 
BRANCH   7   8
ATOM      8  C1  UNL d   1       0.055   0.013  -2.720  0.00  0.00     0.007 C 
ATOM      9  C   UNL d   1      -1.269  -0.659  -2.382  0.00  0.00     0.009 C 
ENDBRANCH   7   8
ENDBRANCH   1   7
TORSDOF 2
ENDMDL
