MODEL 1
REMARK minimizedAffinity 4.18087435
REMARK minimizedRMSD -1
REMARK  2 active torsions:
REMARK  status: ('A' for Active; 'I' for Inactive)
REMARK    1  A    between atoms: C1_2  and  C2_3 
REMARK    2  A    between atoms: C2_3  and  C3_4 
ROOT
ATOM      1  C3  UNL d   1       0.722   1.213  -1.100  0.00  0.00    -0.075 A 
ATOM      2  C4  UNL d   1       0.920   2.075  -2.189  0.00  0.00     0.002 A 
ATOM      3  C5  UNL d   1       0.379   3.361  -2.181  0.00  0.00     0.002 A 
ATOM      4  C6  UNL d   1      -0.374   3.797  -1.093  0.00  0.00    -0.004 A 
ATOM      5  C7  UNL d   1      -0.591   2.943  -0.014  0.00  0.00     0.002 A 
ATOM      6  C8  UNL d   1      -0.047   1.657  -0.017  0.00  0.00     0.002 A 
ENDROOT
BRANCH   1   7
ATOM      7  C2  UNL d   1       1.329  -0.170  -1.090  0.00  0.00     0.056 C 
BRANCH   7   8
ATOM      8  C1  UNL d   1       1.944  -0.571   0.256  0.00  0.00     0.007 C 
ATOM      9  C   UNL d   1       3.356  -1.128   0.128  0.00  0.00     0.009 C 
ENDBRANCH   7   8
ENDBRANCH   1   7
TORSDOF 2
ENDMDL
