MODEL 1
REMARK minimizedAffinity 2.59029317
REMARK minimizedRMSD -1
REMARK  2 active torsions:
REMARK  status: ('A' for Active; 'I' for Inactive)
REMARK    1  A    between atoms: C1_2  and  C2_3 
REMARK    2  A    between atoms: C2_3  and  C3_4 
ROOT
ATOM      1  C3  UNL d   1      -0.248   1.343  -1.014  0.00  0.00    -0.075 A 
ATOM      2  C4  UNL d   1       0.952   0.624  -0.906  0.00  0.00     0.002 A 
ATOM      3  C5  UNL d   1       1.074  -0.641  -1.481  0.00  0.00     0.002 A 
ATOM      4  C6  UNL d   1      -0.002  -1.208  -2.161  0.00  0.00    -0.004 A 
ATOM      5  C7  UNL d   1      -1.204  -0.510  -2.260  0.00  0.00     0.002 A 
ATOM      6  C8  UNL d   1      -1.328   0.758  -1.689  0.00  0.00     0.002 A 
ENDROOT
BRANCH   1   7
ATOM      7  C2  UNL d   1      -0.377   2.725  -0.419  0.00  0.00     0.056 C 
BRANCH   7   8
ATOM      8  C1  UNL d   1      -1.414   2.826   0.704  0.00  0.00     0.007 C 
ATOM      9  C   UNL d   1      -1.148   1.866   1.855  0.00  0.00     0.009 C 
ENDBRANCH   7   8
ENDBRANCH   1   7
TORSDOF 2
ENDMDL
