MODEL 1
REMARK minimizedAffinity -0.502804041
REMARK minimizedRMSD -1
REMARK  2 active torsions:
REMARK  status: ('A' for Active; 'I' for Inactive)
REMARK    1  A    between atoms: C1_2  and  C2_3 
REMARK    2  A    between atoms: C2_3  and  C3_4 
ROOT
ATOM      1  C3  UNL d   1       0.180   2.213  -0.354  0.00  0.00    -0.075 A 
ATOM      2  C4  UNL d   1       0.291   3.597  -0.158  0.00  0.00     0.002 A 
ATOM      3  C5  UNL d   1      -0.260   4.198   0.974  0.00  0.00     0.002 A 
ATOM      4  C6  UNL d   1      -0.936   3.427   1.917  0.00  0.00    -0.004 A 
ATOM      5  C7  UNL d   1      -1.067   2.054   1.723  0.00  0.00     0.002 A 
ATOM      6  C8  UNL d   1      -0.513   1.449   0.594  0.00  0.00     0.002 A 
ENDROOT
BRANCH   1   7
ATOM      7  C2  UNL d   1       0.800   1.552  -1.562  0.00  0.00     0.056 C 
BRANCH   7   8
ATOM      8  C1  UNL d   1       0.835   0.022  -1.487  0.00  0.00     0.007 C 
ATOM      9  C   UNL d   1      -0.026  -0.652  -2.547  0.00  0.00     0.009 C 
ENDBRANCH   7   8
ENDBRANCH   1   7
TORSDOF 2
ENDMDL
