MODEL 1
REMARK minimizedAffinity 1.7970264
REMARK minimizedRMSD -1
REMARK  2 active torsions:
REMARK  status: ('A' for Active; 'I' for Inactive)
REMARK    1  A    between atoms: C1_2  and  C2_3 
REMARK    2  A    between atoms: C2_3  and  C3_4 
ROOT
ATOM      1  C3  UNL d   1      -0.098   3.071  -0.871  0.00  0.00    -0.075 A 
ATOM      2  C4  UNL d   1       0.341   3.773  -2.003  0.00  0.00     0.002 A 
ATOM      3  C5  UNL d   1       0.818   5.079  -1.886  0.00  0.00     0.002 A 
ATOM      4  C6  UNL d   1       0.853   5.702  -0.640  0.00  0.00    -0.004 A 
ATOM      5  C7  UNL d   1       0.404   5.020   0.489  0.00  0.00     0.002 A 
ATOM      6  C8  UNL d   1      -0.070   3.712   0.375  0.00  0.00     0.002 A 
ENDROOT
BRANCH   1   7
ATOM      7  C2  UNL d   1      -0.588   1.647  -0.986  0.00  0.00     0.056 C 
BRANCH   7   8
ATOM      8  C1  UNL d   1       0.440   0.680  -1.582  0.00  0.00     0.007 C 
ATOM      9  C   UNL d   1      -0.192  -0.443  -2.393  0.00  0.00     0.009 C 
ENDBRANCH   7   8
ENDBRANCH   1   7
TORSDOF 2
ENDMDL
