MODEL 1
REMARK minimizedAffinity -1.80835283
REMARK minimizedRMSD -1
REMARK  2 active torsions:
REMARK  status: ('A' for Active; 'I' for Inactive)
REMARK    1  A    between atoms: C1_2  and  C2_3 
REMARK    2  A    between atoms: C2_3  and  C3_4 
ROOT
ATOM      1  C3  UNL d   1      -1.164   2.576   0.491  0.00  0.00    -0.075 A 
ATOM      2  C4  UNL d   1      -0.649   3.864   0.283  0.00  0.00     0.002 A 
ATOM      3  C5  UNL d   1       0.075   4.159  -0.872  0.00  0.00     0.002 A 
ATOM      4  C6  UNL d   1       0.302   3.171  -1.828  0.00  0.00    -0.004 A 
ATOM      5  C7  UNL d   1      -0.191   1.884  -1.624  0.00  0.00     0.002 A 
ATOM      6  C8  UNL d   1      -0.919   1.586  -0.471  0.00  0.00     0.002 A 
ENDROOT
BRANCH   1   7
ATOM      7  C2  UNL d   1      -1.974   2.257   1.725  0.00  0.00     0.056 C 
BRANCH   7   8
ATOM      8  C1  UNL d   1      -1.144   1.708   2.891  0.00  0.00     0.007 C 
ATOM      9  C   UNL d   1      -0.731   0.254   2.701  0.00  0.00     0.009 C 
ENDBRANCH   7   8
ENDBRANCH   1   7
TORSDOF 2
ENDMDL
