MODEL 1
REMARK minimizedAffinity 2.39148021
REMARK minimizedRMSD -1
REMARK  2 active torsions:
REMARK  status: ('A' for Active; 'I' for Inactive)
REMARK    1  A    between atoms: C1_2  and  C2_3 
REMARK    2  A    between atoms: C2_3  and  C3_4 
ROOT
ATOM      1  C3  UNL d   1       0.088   2.151  -0.603  0.00  0.00    -0.075 A 
ATOM      2  C4  UNL d   1      -0.314   3.492  -0.687  0.00  0.00     0.002 A 
ATOM      3  C5  UNL d   1      -1.227   4.016   0.228  0.00  0.00     0.002 A 
ATOM      4  C6  UNL d   1      -1.756   3.207   1.231  0.00  0.00    -0.004 A 
ATOM      5  C7  UNL d   1      -1.376   1.869   1.313  0.00  0.00     0.002 A 
ATOM      6  C8  UNL d   1      -0.460   1.342   0.401  0.00  0.00     0.002 A 
ENDROOT
BRANCH   1   7
ATOM      7  C2  UNL d   1       1.098   1.585  -1.573  0.00  0.00     0.056 C 
BRANCH   7   8
ATOM      8  C1  UNL d   1       1.512   0.141  -1.271  0.00  0.00     0.007 C 
ATOM      9  C   UNL d   1       0.797  -0.883  -2.142  0.00  0.00     0.009 C 
ENDBRANCH   7   8
ENDBRANCH   1   7
TORSDOF 2
ENDMDL
