MODEL 1
REMARK minimizedAffinity 7.10464573
REMARK minimizedRMSD -1
REMARK  2 active torsions:
REMARK  status: ('A' for Active; 'I' for Inactive)
REMARK    1  A    between atoms: C1_2  and  C2_3 
REMARK    2  A    between atoms: C2_3  and  C3_4 
ROOT
ATOM      1  C3  UNL d   1      -0.576   2.222   0.821  0.00  0.00    -0.075 A 
ATOM      2  C4  UNL d   1      -0.251   3.584   0.753  0.00  0.00     0.002 A 
ATOM      3  C5  UNL d   1       0.185   4.150  -0.446  0.00  0.00     0.002 A 
ATOM      4  C6  UNL d   1       0.311   3.360  -1.586  0.00  0.00    -0.004 A 
ATOM      5  C7  UNL d   1       0.008   2.002  -1.526  0.00  0.00     0.002 A 
ATOM      6  C8  UNL d   1      -0.433   1.434  -0.330  0.00  0.00     0.002 A 
ENDROOT
BRANCH   1   7
ATOM      7  C2  UNL d   1      -1.077   1.610   2.107  0.00  0.00     0.056 C 
BRANCH   7   8
ATOM      8  C1  UNL d   1       0.024   0.983   2.969  0.00  0.00     0.007 C 
ATOM      9  C   UNL d   1       0.510   1.900   4.083  0.00  0.00     0.009 C 
ENDBRANCH   7   8
ENDBRANCH   1   7
TORSDOF 2
ENDMDL
