MODEL 1
REMARK minimizedAffinity 3.21764708
REMARK minimizedRMSD -1
REMARK  2 active torsions:
REMARK  status: ('A' for Active; 'I' for Inactive)
REMARK    1  A    between atoms: C1_2  and  C2_3 
REMARK    2  A    between atoms: C2_3  and  C3_4 
ROOT
ATOM      1  C3  UNL d   1       0.277   1.414  -0.666  0.00  0.00    -0.075 A 
ATOM      2  C4  UNL d   1      -0.366   1.399   0.580  0.00  0.00     0.002 A 
ATOM      3  C5  UNL d   1      -0.982   2.550   1.073  0.00  0.00     0.002 A 
ATOM      4  C6  UNL d   1      -0.955   3.730   0.333  0.00  0.00    -0.004 A 
ATOM      5  C7  UNL d   1      -0.305   3.760  -0.899  0.00  0.00     0.002 A 
ATOM      6  C8  UNL d   1       0.309   2.609  -1.397  0.00  0.00     0.002 A 
ENDROOT
BRANCH   1   7
ATOM      7  C2  UNL d   1       0.920   0.165  -1.219  0.00  0.00     0.056 C 
BRANCH   7   8
ATOM      8  C1  UNL d   1       0.671  -0.057  -2.714  0.00  0.00     0.007 C 
ATOM      9  C   UNL d   1      -0.373  -1.129  -2.997  0.00  0.00     0.009 C 
ENDBRANCH   7   8
ENDBRANCH   1   7
TORSDOF 2
ENDMDL
