MODEL 1
REMARK minimizedAffinity 7.72937202
REMARK minimizedRMSD -1
REMARK  2 active torsions:
REMARK  status: ('A' for Active; 'I' for Inactive)
REMARK    1  A    between atoms: C1_2  and  C2_3 
REMARK    2  A    between atoms: C2_3  and  C3_4 
ROOT
ATOM      1  C3  UNL d   1      -0.782   1.844   0.739  0.00  0.00    -0.075 A 
ATOM      2  C4  UNL d   1      -0.700   3.228   0.528  0.00  0.00     0.002 A 
ATOM      3  C5  UNL d   1      -0.112   3.734  -0.632  0.00  0.00     0.002 A 
ATOM      4  C6  UNL d   1       0.409   2.866  -1.588  0.00  0.00    -0.004 A 
ATOM      5  C7  UNL d   1       0.348   1.489  -1.382  0.00  0.00     0.002 A 
ATOM      6  C8  UNL d   1      -0.243   0.980  -0.224  0.00  0.00     0.002 A 
ENDROOT
BRANCH   1   7
ATOM      7  C2  UNL d   1      -1.443   1.289   1.978  0.00  0.00     0.056 C 
BRANCH   7   8
ATOM      8  C1  UNL d   1      -0.760   0.039   2.543  0.00  0.00     0.007 C 
ATOM      9  C   UNL d   1      -1.740  -0.963   3.139  0.00  0.00     0.009 C 
ENDBRANCH   7   8
ENDBRANCH   1   7
TORSDOF 2
ENDMDL
