MODEL 1
REMARK minimizedAffinity 11.0201254
REMARK minimizedRMSD -1
REMARK  0 active torsions:
REMARK  status: ('A' for Active; 'I' for Inactive)
ROOT
ATOM      1  C4' PXY d   1      -5.770  -6.000  -5.997  0.00  0.00     0.077 C 
ATOM      2  C1' PXY d   1      -4.865  -0.826  -3.583  0.00  0.00     0.077 C 
ATOM      3  C1  PXY d   1      -5.112  -2.178  -4.222  0.00  0.00    -0.082 A 
ATOM      4  C2  PXY d   1      -4.685  -3.275  -3.619  0.00  0.00     0.003 A 
ATOM      5  C3  PXY d   1      -4.872  -4.503  -4.199  0.00  0.00     0.003 A 
ATOM      6  C4  PXY d   1      -5.551  -4.614  -5.384  0.00  0.00    -0.082 A 
ATOM      7  C5  PXY d   1      -5.999  -3.500  -6.000  0.00  0.00     0.003 A 
ATOM      8  C6  PXY d   1      -5.763  -2.259  -5.415  0.00  0.00     0.003 A 
ENDROOT
TORSDOF 0
ENDMDL
