MODEL 1
REMARK minimizedAffinity 6.46855164
REMARK minimizedRMSD -1
REMARK  0 active torsions:
REMARK  status: ('A' for Active; 'I' for Inactive)
ROOT
ATOM      1  C4' PXY d   1       1.712  -1.852   1.952  0.00  0.00     0.077 C 
ATOM      2  C1' PXY d   1       1.135  -4.717  -3.036  0.00  0.00     0.077 C 
ATOM      3  C1  PXY d   1       1.278  -3.975  -1.722  0.00  0.00    -0.082 A 
ATOM      4  C2  PXY d   1       1.554  -2.681  -1.728  0.00  0.00     0.003 A 
ATOM      5  C3  PXY d   1       1.720  -2.001  -0.549  0.00  0.00     0.003 A 
ATOM      6  C4  PXY d   1       1.548  -2.640   0.649  0.00  0.00    -0.082 A 
ATOM      7  C5  PXY d   1       1.256  -3.958   0.664  0.00  0.00     0.003 A 
ATOM      8  C6  PXY d   1       1.133  -4.639  -0.543  0.00  0.00     0.003 A 
ENDROOT
TORSDOF 0
ENDMDL
