MODEL 1
REMARK minimizedAffinity -3.20529509
REMARK minimizedRMSD -1
REMARK  0 active torsions:
REMARK  status: ('A' for Active; 'I' for Inactive)
ROOT
ATOM      1  C4' PXY d   1       0.923  -5.962   3.442  0.00  0.00     0.077 C 
ATOM      2  C1' PXY d   1       1.103  -0.512   1.522  0.00  0.00     0.077 C 
ATOM      3  C1  PXY d   1       1.061  -1.946   2.014  0.00  0.00    -0.082 A 
ATOM      4  C2  PXY d   1       0.184  -2.293   2.942  0.00  0.00     0.003 A 
ATOM      5  C3  PXY d   1       0.155  -3.577   3.422  0.00  0.00     0.003 A 
ATOM      6  C4  PXY d   1       0.995  -4.528   2.908  0.00  0.00    -0.082 A 
ATOM      7  C5  PXY d   1       1.885  -4.184   1.953  0.00  0.00     0.003 A 
ATOM      8  C6  PXY d   1       1.927  -2.866   1.509  0.00  0.00     0.003 A 
ENDROOT
TORSDOF 0
ENDMDL
