MODEL 1
REMARK minimizedAffinity 2.48560452
REMARK minimizedRMSD -1
REMARK  0 active torsions:
REMARK  status: ('A' for Active; 'I' for Inactive)
ROOT
ATOM      1  C4' PXY d   1      -5.992  -5.992  -5.994  0.00  0.00     0.077 C 
ATOM      2  C1' PXY d   1      -4.791  -1.221  -2.961  0.00  0.00     0.077 C 
ATOM      3  C1  PXY d   1      -5.115  -2.465  -3.763  0.00  0.00    -0.082 A 
ATOM      4  C2  PXY d   1      -4.826  -3.657  -3.266  0.00  0.00     0.003 A 
ATOM      5  C3  PXY d   1      -5.083  -4.792  -3.992  0.00  0.00     0.003 A 
ATOM      6  C4  PXY d   1      -5.691  -4.709  -5.216  0.00  0.00    -0.082 A 
ATOM      7  C5  PXY d   1      -5.999  -3.497  -5.725  0.00  0.00     0.003 A 
ATOM      8  C6  PXY d   1      -5.692  -2.355  -4.990  0.00  0.00     0.003 A 
ENDROOT
TORSDOF 0
ENDMDL
