MODEL 1
REMARK minimizedAffinity -1.18809652
REMARK minimizedRMSD -1
REMARK  0 active torsions:
REMARK  status: ('A' for Active; 'I' for Inactive)
ROOT
ATOM      1  C4' PXY d   1      -5.500   0.756   2.427  0.00  0.00     0.077 C 
ATOM      2  C1' PXY d   1      -4.087   1.823  -3.076  0.00  0.00     0.077 C 
ATOM      3  C1  PXY d   1      -4.445   1.542  -1.630  0.00  0.00    -0.082 A 
ATOM      4  C2  PXY d   1      -5.649   1.081  -1.332  0.00  0.00     0.003 A 
ATOM      5  C3  PXY d   1      -6.000   0.851  -0.027  0.00  0.00     0.003 A 
ATOM      6  C4  PXY d   1      -5.092   1.045   0.979  0.00  0.00    -0.082 A 
ATOM      7  C5  PXY d   1      -3.858   1.505   0.682  0.00  0.00     0.003 A 
ATOM      8  C6  PXY d   1      -3.535   1.771  -0.645  0.00  0.00     0.003 A 
ENDROOT
TORSDOF 0
ENDMDL
