MODEL 1
REMARK minimizedAffinity 6.11029053
REMARK minimizedRMSD -1
REMARK  0 active torsions:
REMARK  status: ('A' for Active; 'I' for Inactive)
ROOT
ATOM      1  C4' PXY d   1      -6.000   4.497   0.755  0.00  0.00     0.077 C 
ATOM      2  C1' PXY d   1      -0.925   1.730   0.818  0.00  0.00     0.077 C 
ATOM      3  C1  PXY d   1      -2.260   2.449   0.813  0.00  0.00    -0.082 A 
ATOM      4  C2  PXY d   1      -2.732   2.942  -0.321  0.00  0.00     0.003 A 
ATOM      5  C3  PXY d   1      -3.922   3.623  -0.338  0.00  0.00     0.003 A 
ATOM      6  C4  PXY d   1      -4.662   3.755   0.807  0.00  0.00    -0.082 A 
ATOM      7  C5  PXY d   1      -4.191   3.246   1.965  0.00  0.00     0.003 A 
ATOM      8  C6  PXY d   1      -2.962   2.594   1.969  0.00  0.00     0.003 A 
ENDROOT
TORSDOF 0
ENDMDL
