MODEL 1
REMARK minimizedAffinity 12.6300049
REMARK minimizedRMSD -1
REMARK  0 active torsions:
REMARK  status: ('A' for Active; 'I' for Inactive)
ROOT
ATOM      1  C4' PXY d   1       1.130  -5.137  -0.393  0.00  0.00     0.077 C 
ATOM      2  C1' PXY d   1       1.321  -2.056   4.494  0.00  0.00     0.077 C 
ATOM      3  C1  PXY d   1       1.281  -2.871   3.216  0.00  0.00    -0.082 A 
ATOM      4  C2  PXY d   1       0.714  -2.363   2.134  0.00  0.00     0.003 A 
ATOM      5  C3  PXY d   1       0.641  -3.099   0.979  0.00  0.00     0.003 A 
ATOM      6  C4  PXY d   1       1.201  -4.347   0.916  0.00  0.00    -0.082 A 
ATOM      7  C5  PXY d   1       1.791  -4.868   2.013  0.00  0.00     0.003 A 
ATOM      8  C6  PXY d   1       1.818  -4.121   3.187  0.00  0.00     0.003 A 
ENDROOT
TORSDOF 0
ENDMDL
