MODEL 1
REMARK minimizedAffinity 4.92815304
REMARK minimizedRMSD -1
REMARK  0 active torsions:
REMARK  status: ('A' for Active; 'I' for Inactive)
ROOT
ATOM      1  C4' PXY d   1       1.430   5.520  -1.123  0.00  0.00     0.077 C 
ATOM      2  C1' PXY d   1       5.999   6.000  -4.631  0.00  0.00     0.077 C 
ATOM      3  C1  PXY d   1       4.808   5.870  -3.702  0.00  0.00    -0.082 A 
ATOM      4  C2  PXY d   1       3.598   5.699  -4.208  0.00  0.00     0.003 A 
ATOM      5  C3  PXY d   1       2.506   5.612  -3.383  0.00  0.00     0.003 A 
ATOM      6  C4  PXY d   1       2.662   5.646  -2.023  0.00  0.00    -0.082 A 
ATOM      7  C5  PXY d   1       3.894   5.809  -1.498  0.00  0.00     0.003 A 
ATOM      8  C6  PXY d   1       4.984   5.937  -2.354  0.00  0.00     0.003 A 
ENDROOT
TORSDOF 0
ENDMDL
