MODEL 1
REMARK minimizedAffinity 12.3904648
REMARK minimizedRMSD -1
REMARK  0 active torsions:
REMARK  status: ('A' for Active; 'I' for Inactive)
ROOT
ATOM      1  C4' PXY d   1      -5.682  -6.000  -6.000  0.00  0.00     0.077 C 
ATOM      2  C1' PXY d   1      -3.608  -0.873  -4.316  0.00  0.00     0.077 C 
ATOM      3  C1  PXY d   1      -4.141  -2.223  -4.754  0.00  0.00    -0.082 A 
ATOM      4  C2  PXY d   1      -5.142  -2.282  -5.617  0.00  0.00     0.003 A 
ATOM      5  C3  PXY d   1      -5.657  -3.494  -6.000  0.00  0.00     0.003 A 
ATOM      6  C4  PXY d   1      -5.106  -4.659  -5.536  0.00  0.00    -0.082 A 
ATOM      7  C5  PXY d   1      -4.077  -4.607  -4.664  0.00  0.00     0.003 A 
ATOM      8  C6  PXY d   1      -3.596  -3.366  -4.256  0.00  0.00     0.003 A 
ENDROOT
TORSDOF 0
ENDMDL
