MODEL 1
REMARK minimizedAffinity 5.96033621
REMARK minimizedRMSD -1
REMARK  0 active torsions:
REMARK  status: ('A' for Active; 'I' for Inactive)
ROOT
ATOM      1  C4' PXY d   1       3.810   0.560  -4.500  0.00  0.00     0.077 C 
ATOM      2  C1' PXY d   1       5.938   5.721  -6.000  0.00  0.00     0.077 C 
ATOM      3  C1  PXY d   1       5.373   4.373  -5.596  0.00  0.00    -0.082 A 
ATOM      4  C2  PXY d   1       6.000   3.266  -5.961  0.00  0.00     0.003 A 
ATOM      5  C3  PXY d   1       5.486   2.038  -5.632  0.00  0.00     0.003 A 
ATOM      6  C4  PXY d   1       4.348   1.943  -4.876  0.00  0.00    -0.082 A 
ATOM      7  C5  PXY d   1       3.709   3.068  -4.492  0.00  0.00     0.003 A 
ATOM      8  C6  PXY d   1       4.224   4.304  -4.871  0.00  0.00     0.003 A 
ENDROOT
TORSDOF 0
ENDMDL
