MODEL 1
REMARK minimizedAffinity 10.3208771
REMARK minimizedRMSD -1
REMARK  0 active torsions:
REMARK  status: ('A' for Active; 'I' for Inactive)
ROOT
ATOM      1  C4' PXY d   1      -5.031  -6.000  -6.000  0.00  0.00     0.077 C 
ATOM      2  C1' PXY d   1      -4.808  -0.969  -3.163  0.00  0.00     0.077 C 
ATOM      3  C1  PXY d   1      -4.855  -2.291  -3.903  0.00  0.00    -0.082 A 
ATOM      4  C2  PXY d   1      -5.688  -2.443  -4.919  0.00  0.00     0.003 A 
ATOM      5  C3  PXY d   1      -5.766  -3.642  -5.579  0.00  0.00     0.003 A 
ATOM      6  C4  PXY d   1      -4.944  -4.680  -5.230  0.00  0.00    -0.082 A 
ATOM      7  C5  PXY d   1      -4.083  -4.529  -4.201  0.00  0.00     0.003 A 
ATOM      8  C6  PXY d   1      -4.049  -3.317  -3.517  0.00  0.00     0.003 A 
ENDROOT
TORSDOF 0
ENDMDL
