MODEL 1
REMARK minimizedAffinity -6.3593688
REMARK minimizedRMSD -1
REMARK  0 active torsions:
REMARK  status: ('A' for Active; 'I' for Inactive)
ROOT
ATOM      1  O1  BZF d   1      -1.509   1.202   2.561  0.00  0.00    -0.204 OA
ATOM      2  C2  BZF d   1      -0.569   1.507   3.526  0.00  0.00     0.174 A 
ATOM      3  C3  BZF d   1       0.644   1.029   3.181  0.00  0.00    -0.012 A 
ATOM      4  C3A BZF d   1       0.469   0.466   1.877  0.00  0.00    -0.107 A 
ATOM      5  C4  BZF d   1       1.316  -0.147   0.998  0.00  0.00     0.055 A 
ATOM      6  C5  BZF d   1       0.815  -0.648  -0.161  0.00  0.00    -0.016 A 
ATOM      7  C6  BZF d   1      -0.527  -0.557  -0.472  0.00  0.00     0.022 A 
ATOM      8  C7  BZF d   1      -1.404   0.047   0.366  0.00  0.00     0.029 A 
ATOM      9  C7A BZF d   1      -0.895   0.583   1.524  0.00  0.00     0.058 A 
ENDROOT
TORSDOF 0
ENDMDL
