MODEL 1
REMARK minimizedAffinity 0.0788718462
REMARK minimizedRMSD -1
REMARK  0 active torsions:
REMARK  status: ('A' for Active; 'I' for Inactive)
ROOT
ATOM      1  O1  BZF d   1       1.388  -1.530  -0.962  0.00  0.00    -0.204 OA
ATOM      2  C2  BZF d   1       0.398  -1.132  -1.840  0.00  0.00     0.174 A 
ATOM      3  C3  BZF d   1      -0.339  -0.135  -1.310  0.00  0.00    -0.012 A 
ATOM      4  C3A BZF d   1       0.283   0.168  -0.058  0.00  0.00    -0.107 A 
ATOM      5  C4  BZF d   1       0.020   1.079   0.925  0.00  0.00     0.055 A 
ATOM      6  C5  BZF d   1       0.773   1.067   2.056  0.00  0.00    -0.016 A 
ATOM      7  C6  BZF d   1       1.793   0.156   2.239  0.00  0.00     0.022 A 
ATOM      8  C7  BZF d   1       2.094  -0.764   1.291  0.00  0.00     0.029 A 
ATOM      9  C7A BZF d   1       1.356  -0.733   0.133  0.00  0.00     0.058 A 
ENDROOT
TORSDOF 0
ENDMDL
