MODEL 1
REMARK minimizedAffinity -1.85695374
REMARK minimizedRMSD -1
REMARK  0 active torsions:
REMARK  status: ('A' for Active; 'I' for Inactive)
ROOT
ATOM      1  O1  BZF d   1       0.752   1.153   2.089  0.00  0.00    -0.204 OA
ATOM      2  C2  BZF d   1      -0.416   1.847   1.838  0.00  0.00     0.174 A 
ATOM      3  C3  BZF d   1      -0.921   1.511   0.633  0.00  0.00    -0.012 A 
ATOM      4  C3A BZF d   1      -0.062   0.479   0.139  0.00  0.00    -0.107 A 
ATOM      5  C4  BZF d   1      -0.055  -0.269  -1.003  0.00  0.00     0.055 A 
ATOM      6  C5  BZF d   1       0.965  -1.142  -1.215  0.00  0.00    -0.016 A 
ATOM      7  C6  BZF d   1       1.995  -1.288  -0.309  0.00  0.00     0.022 A 
ATOM      8  C7  BZF d   1       2.028  -0.571   0.841  0.00  0.00     0.029 A 
ATOM      9  C7A BZF d   1       0.982   0.288   1.073  0.00  0.00     0.058 A 
ENDROOT
TORSDOF 0
ENDMDL
