MODEL 1
REMARK minimizedAffinity -1.0433358
REMARK minimizedRMSD -1
REMARK  0 active torsions:
REMARK  status: ('A' for Active; 'I' for Inactive)
ROOT
ATOM      1  O1  BZF d   1       0.232  -0.496  -1.218  0.00  0.00    -0.204 OA
ATOM      2  C2  BZF d   1      -1.028  -0.676  -1.755  0.00  0.00     0.174 A 
ATOM      3  C3  BZF d   1      -1.981  -0.396  -0.843  0.00  0.00    -0.012 A 
ATOM      4  C3A BZF d   1      -1.274   0.072   0.309  0.00  0.00    -0.107 A 
ATOM      5  C4  BZF d   1      -1.671   0.518   1.538  0.00  0.00     0.055 A 
ATOM      6  C5  BZF d   1      -0.727   0.831   2.463  0.00  0.00    -0.016 A 
ATOM      7  C6  BZF d   1       0.621   0.706   2.197  0.00  0.00     0.022 A 
ATOM      8  C7  BZF d   1       1.063   0.273   0.991  0.00  0.00     0.029 A 
ATOM      9  C7A BZF d   1       0.112  -0.013   0.043  0.00  0.00     0.058 A 
ENDROOT
TORSDOF 0
ENDMDL
