MODEL 1
REMARK minimizedAffinity -3.83799529
REMARK minimizedRMSD -1
REMARK  0 active torsions:
REMARK  status: ('A' for Active; 'I' for Inactive)
ROOT
ATOM      1  O1  BZF d   1      -1.263  -0.682  -0.545  0.00  0.00    -0.204 OA
ATOM      2  C2  BZF d   1      -0.024  -0.843  -1.135  0.00  0.00     0.174 A 
ATOM      3  C3  BZF d   1       0.926  -0.187  -0.438  0.00  0.00    -0.012 A 
ATOM      4  C3A BZF d   1       0.253   0.345   0.707  0.00  0.00    -0.107 A 
ATOM      5  C4  BZF d   1       0.666   1.082   1.781  0.00  0.00     0.055 A 
ATOM      6  C5  BZF d   1      -0.256   1.503   2.686  0.00  0.00    -0.016 A 
ATOM      7  C6  BZF d   1      -1.597   1.211   2.547  0.00  0.00     0.022 A 
ATOM      8  C7  BZF d   1      -2.053   0.479   1.501  0.00  0.00     0.029 A 
ATOM      9  C7A BZF d   1      -1.120   0.024   0.602  0.00  0.00     0.058 A 
ENDROOT
TORSDOF 0
ENDMDL
