MODEL 1
REMARK minimizedAffinity -2.8800602
REMARK minimizedRMSD -1
REMARK  0 active torsions:
REMARK  status: ('A' for Active; 'I' for Inactive)
ROOT
ATOM      1  O1  BZF d   1      -0.994   1.034   0.571  0.00  0.00    -0.204 OA
ATOM      2  C2  BZF d   1      -0.703   1.604   1.795  0.00  0.00     0.174 A 
ATOM      3  C3  BZF d   1       0.424   1.076   2.314  0.00  0.00    -0.012 A 
ATOM      4  C3A BZF d   1       0.916   0.181   1.311  0.00  0.00    -0.107 A 
ATOM      5  C4  BZF d   1       2.012  -0.629   1.233  0.00  0.00     0.055 A 
ATOM      6  C5  BZF d   1       2.164  -1.432   0.147  0.00  0.00    -0.016 A 
ATOM      7  C6  BZF d   1       1.237  -1.454  -0.875  0.00  0.00     0.022 A 
ATOM      8  C7  BZF d   1       0.136  -0.665  -0.844  0.00  0.00     0.029 A 
ATOM      9  C7A BZF d   1      -0.003   0.172   0.237  0.00  0.00     0.058 A 
ENDROOT
TORSDOF 0
ENDMDL
