MODEL 1
REMARK minimizedAffinity -1.89191091
REMARK minimizedRMSD -1
REMARK  0 active torsions:
REMARK  status: ('A' for Active; 'I' for Inactive)
ROOT
ATOM      1  O1  BZF d   1       1.837  -0.058  -0.002  0.00  0.00    -0.204 OA
ATOM      2  C2  BZF d   1       1.607  -0.657  -1.226  0.00  0.00     0.174 A 
ATOM      3  C3  BZF d   1       0.287  -0.851  -1.423  0.00  0.00    -0.012 A 
ATOM      4  C3A BZF d   1      -0.354  -0.257  -0.291  0.00  0.00    -0.107 A 
ATOM      5  C4  BZF d   1      -1.660  -0.113   0.081  0.00  0.00     0.055 A 
ATOM      6  C5  BZF d   1      -1.947   0.451   1.283  0.00  0.00    -0.016 A 
ATOM      7  C6  BZF d   1      -0.954   0.877   2.141  0.00  0.00     0.022 A 
ATOM      8  C7  BZF d   1       0.356   0.761   1.814  0.00  0.00     0.029 A 
ATOM      9  C7A BZF d   1       0.648   0.221   0.585  0.00  0.00     0.058 A 
ENDROOT
TORSDOF 0
ENDMDL
