MODEL 1
REMARK minimizedAffinity -2.44634795
REMARK minimizedRMSD -1
REMARK  0 active torsions:
REMARK  status: ('A' for Active; 'I' for Inactive)
ROOT
ATOM      1  O1  BZF d   1      -2.394  -0.265   0.767  0.00  0.00    -0.204 OA
ATOM      2  C2  BZF d   1      -2.112  -0.963  -0.392  0.00  0.00     0.174 A 
ATOM      3  C3  BZF d   1      -0.884  -0.650  -0.852  0.00  0.00    -0.012 A 
ATOM      4  C3A BZF d   1      -0.329   0.235   0.127  0.00  0.00    -0.107 A 
ATOM      5  C4  BZF d   1       0.871   0.876   0.240  0.00  0.00     0.055 A 
ATOM      6  C5  BZF d   1       1.070   1.726   1.281  0.00  0.00    -0.016 A 
ATOM      7  C6  BZF d   1       0.090   1.963   2.222  0.00  0.00     0.022 A 
ATOM      8  C7  BZF d   1      -1.115   1.347   2.155  0.00  0.00     0.029 A 
ATOM      9  C7A BZF d   1      -1.307   0.462   1.122  0.00  0.00     0.058 A 
ENDROOT
TORSDOF 0
ENDMDL
