MODEL 1
REMARK minimizedAffinity -2.30973434
REMARK minimizedRMSD -1
REMARK  0 active torsions:
REMARK  status: ('A' for Active; 'I' for Inactive)
ROOT
ATOM      1  O1  BZF d   1      -2.679   0.684   1.950  0.00  0.00    -0.204 OA
ATOM      2  C2  BZF d   1      -2.891   0.177   0.682  0.00  0.00     0.174 A 
ATOM      3  C3  BZF d   1      -1.720  -0.115   0.081  0.00  0.00    -0.012 A 
ATOM      4  C3A BZF d   1      -0.716   0.144   1.067  0.00  0.00    -0.107 A 
ATOM      5  C4  BZF d   1       0.645   0.029   1.075  0.00  0.00     0.055 A 
ATOM      6  C5  BZF d   1       1.336   0.434   2.172  0.00  0.00    -0.016 A 
ATOM      7  C6  BZF d   1       0.700   0.963   3.276  0.00  0.00     0.022 A 
ATOM      8  C7  BZF d   1      -0.648   1.092   3.318  0.00  0.00     0.029 A 
ATOM      9  C7A BZF d   1      -1.352   0.653   2.223  0.00  0.00     0.058 A 
ENDROOT
TORSDOF 0
ENDMDL
