MODEL 1
REMARK minimizedAffinity 6.37080622
REMARK minimizedRMSD -1
REMARK  0 active torsions:
REMARK  status: ('A' for Active; 'I' for Inactive)
ROOT
ATOM      1  O1  BZF d   1      -2.419   0.710   2.060  0.00  0.00    -0.204 OA
ATOM      2  C2  BZF d   1      -1.623   0.551   3.179  0.00  0.00     0.174 A 
ATOM      3  C3  BZF d   1      -0.435   0.007   2.847  0.00  0.00    -0.012 A 
ATOM      4  C3A BZF d   1      -0.455  -0.101   1.421  0.00  0.00    -0.107 A 
ATOM      5  C4  BZF d   1       0.447  -0.552   0.501  0.00  0.00     0.055 A 
ATOM      6  C5  BZF d   1       0.091  -0.591  -0.810  0.00  0.00    -0.016 A 
ATOM      7  C6  BZF d   1      -1.160  -0.192  -1.234  0.00  0.00     0.022 A 
ATOM      8  C7  BZF d   1      -2.087   0.268  -0.359  0.00  0.00     0.029 A 
ATOM      9  C7A BZF d   1      -1.718   0.340   0.962  0.00  0.00     0.058 A 
ENDROOT
TORSDOF 0
ENDMDL
