MODEL 1
REMARK minimizedAffinity -2.89824533
REMARK minimizedRMSD -1
REMARK  0 active torsions:
REMARK  status: ('A' for Active; 'I' for Inactive)
ROOT
ATOM      1  O1  BZF d   1      -1.684   0.166   2.259  0.00  0.00    -0.204 OA
ATOM      2  C2  BZF d   1      -0.970   1.116   2.963  0.00  0.00     0.174 A 
ATOM      3  C3  BZF d   1       0.098   1.535   2.255  0.00  0.00    -0.012 A 
ATOM      4  C3A BZF d   1      -0.003   0.868   0.993  0.00  0.00    -0.107 A 
ATOM      5  C4  BZF d   1       0.756   0.888  -0.142  0.00  0.00     0.055 A 
ATOM      6  C5  BZF d   1       0.426   0.065  -1.172  0.00  0.00    -0.016 A 
ATOM      7  C6  BZF d   1      -0.652  -0.793  -1.099  0.00  0.00     0.022 A 
ATOM      8  C7  BZF d   1      -1.438  -0.844   0.005  0.00  0.00     0.029 A 
ATOM      9  C7A BZF d   1      -1.126   0.010   1.034  0.00  0.00     0.058 A 
ENDROOT
TORSDOF 0
ENDMDL
