MODEL 1
REMARK minimizedAffinity 9.07711697
REMARK minimizedRMSD -1
REMARK  0 active torsions:
REMARK  status: ('A' for Active; 'I' for Inactive)
ROOT
ATOM      1  O1  BZF d   1       3.849  -1.797  -1.051  0.00  0.00    -0.204 OA
ATOM      2  C2  BZF d   1       2.773  -2.002  -0.209  0.00  0.00     0.174 A 
ATOM      3  C3  BZF d   1       1.715  -1.260  -0.594  0.00  0.00    -0.012 A 
ATOM      4  C3A BZF d   1       2.128  -0.616  -1.803  0.00  0.00    -0.107 A 
ATOM      5  C4  BZF d   1       1.510   0.240  -2.669  0.00  0.00     0.055 A 
ATOM      6  C5  BZF d   1       2.215   0.744  -3.716  0.00  0.00    -0.016 A 
ATOM      7  C6  BZF d   1       3.539   0.418  -3.923  0.00  0.00     0.022 A 
ATOM      8  C7  BZF d   1       4.194  -0.430  -3.094  0.00  0.00     0.029 A 
ATOM      9  C7A BZF d   1       3.475  -0.967  -2.054  0.00  0.00     0.058 A 
ENDROOT
TORSDOF 0
ENDMDL
