MODEL 1
REMARK minimizedAffinity -4.94879723
REMARK minimizedRMSD -1
REMARK  0 active torsions:
REMARK  status: ('A' for Active; 'I' for Inactive)
ROOT
ATOM      1  C1  DEN d   1      -3.651   0.726   2.174  0.00  0.00     0.130 A 
ATOM      2  C2  DEN d   1      -3.915   1.987   1.487  0.00  0.00    -0.031 A 
ATOM      3  C3  DEN d   1      -2.814   2.225   0.532  0.00  0.00     0.027 A 
ATOM      4  C4  DEN d   1      -0.742   0.768   0.049  0.00  0.00     0.027 A 
ATOM      5  C5  DEN d   1      -0.079  -0.390   0.392  0.00  0.00    -0.003 A 
ATOM      6  C6  DEN d   1      -0.538  -1.233   1.369  0.00  0.00     0.001 A 
ATOM      7  C7  DEN d   1      -1.718  -0.953   2.006  0.00  0.00     0.017 A 
ATOM      8  C8  DEN d   1      -2.389   0.216   1.671  0.00  0.00    -0.094 A 
ATOM      9  C9  DEN d   1      -1.914   1.049   0.672  0.00  0.00    -0.072 A 
ENDROOT
TORSDOF 0
ENDMDL
