MODEL 1
REMARK minimizedAffinity -2.46315026
REMARK minimizedRMSD -1
REMARK  0 active torsions:
REMARK  status: ('A' for Active; 'I' for Inactive)
ROOT
ATOM      1  C1  DEN d   1      -0.090  -0.264   1.842  0.00  0.00     0.130 A 
ATOM      2  C2  DEN d   1      -0.774  -1.368   1.174  0.00  0.00    -0.031 A 
ATOM      3  C3  DEN d   1      -1.045  -0.961  -0.219  0.00  0.00     0.027 A 
ATOM      4  C4  DEN d   1      -0.471   1.259  -1.401  0.00  0.00     0.027 A 
ATOM      5  C5  DEN d   1       0.098   2.502  -1.239  0.00  0.00    -0.003 A 
ATOM      6  C6  DEN d   1       0.610   2.920  -0.040  0.00  0.00     0.001 A 
ATOM      7  C7  DEN d   1       0.603   2.070   1.035  0.00  0.00     0.017 A 
ATOM      8  C8  DEN d   1       0.024   0.817   0.881  0.00  0.00    -0.094 A 
ATOM      9  C9  DEN d   1      -0.477   0.409  -0.343  0.00  0.00    -0.072 A 
ENDROOT
TORSDOF 0
ENDMDL
