MODEL 1
REMARK minimizedAffinity -5.61419439
REMARK minimizedRMSD -1
REMARK  0 active torsions:
REMARK  status: ('A' for Active; 'I' for Inactive)
ROOT
ATOM      1  C1  DEN d   1      -4.104   0.795   1.679  0.00  0.00     0.130 A 
ATOM      2  C2  DEN d   1      -4.407   1.902   0.775  0.00  0.00    -0.031 A 
ATOM      3  C3  DEN d   1      -3.243   2.098  -0.112  0.00  0.00     0.027 A 
ATOM      4  C4  DEN d   1      -1.015   0.799  -0.177  0.00  0.00     0.027 A 
ATOM      5  C5  DEN d   1      -0.292  -0.219   0.405  0.00  0.00    -0.003 A 
ATOM      6  C6  DEN d   1      -0.771  -0.941   1.465  0.00  0.00     0.001 A 
ATOM      7  C7  DEN d   1      -2.027  -0.686   1.948  0.00  0.00     0.017 A 
ATOM      8  C8  DEN d   1      -2.759   0.343   1.372  0.00  0.00    -0.094 A 
ATOM      9  C9  DEN d   1      -2.263   1.054   0.292  0.00  0.00    -0.072 A 
ENDROOT
TORSDOF 0
ENDMDL
