MODEL 1
REMARK minimizedAffinity -2.6099267
REMARK minimizedRMSD -1
REMARK  0 active torsions:
REMARK  status: ('A' for Active; 'I' for Inactive)
ROOT
ATOM      1  C1  DEN d   1      -0.434   0.864   0.027  0.00  0.00     0.130 A 
ATOM      2  C2  DEN d   1       0.403   0.466  -1.101  0.00  0.00    -0.031 A 
ATOM      3  C3  DEN d   1       0.456  -1.010  -1.132  0.00  0.00     0.027 A 
ATOM      4  C4  DEN d   1      -0.677  -2.707   0.445  0.00  0.00     0.027 A 
ATOM      5  C5  DEN d   1      -1.478  -2.845   1.557  0.00  0.00    -0.003 A 
ATOM      6  C6  DEN d   1      -1.956  -1.766   2.251  0.00  0.00     0.001 A 
ATOM      7  C7  DEN d   1      -1.673  -0.499   1.814  0.00  0.00     0.017 A 
ATOM      8  C8  DEN d   1      -0.860  -0.351   0.698  0.00  0.00    -0.094 A 
ATOM      9  C9  DEN d   1      -0.397  -1.455   0.002  0.00  0.00    -0.072 A 
ENDROOT
TORSDOF 0
ENDMDL
