MODEL 1
REMARK minimizedAffinity -5.36149311
REMARK minimizedRMSD -1
REMARK  0 active torsions:
REMARK  status: ('A' for Active; 'I' for Inactive)
ROOT
ATOM      1  C1  DEN d   1       0.994  -1.941   0.540  0.00  0.00     0.130 A 
ATOM      2  C2  DEN d   1      -0.169  -2.796   0.763  0.00  0.00    -0.031 A 
ATOM      3  C3  DEN d   1      -1.374  -1.943   0.744  0.00  0.00     0.027 A 
ATOM      4  C4  DEN d   1      -1.552   0.605   0.387  0.00  0.00     0.027 A 
ATOM      5  C5  DEN d   1      -0.835   1.761   0.170  0.00  0.00    -0.003 A 
ATOM      6  C6  DEN d   1       0.533   1.769   0.096  0.00  0.00     0.001 A 
ATOM      7  C7  DEN d   1       1.225   0.591   0.194  0.00  0.00     0.017 A 
ATOM      8  C8  DEN d   1       0.509  -0.578   0.421  0.00  0.00    -0.094 A 
ATOM      9  C9  DEN d   1      -0.874  -0.567   0.481  0.00  0.00    -0.072 A 
ENDROOT
TORSDOF 0
ENDMDL
