MODEL 1
REMARK minimizedAffinity -4.40244389
REMARK minimizedRMSD -1
REMARK  0 active torsions:
REMARK  status: ('A' for Active; 'I' for Inactive)
ROOT
ATOM      1  C1  DEN d   1      -0.399   0.672   0.715  0.00  0.00     0.130 A 
ATOM      2  C2  DEN d   1       0.346   1.166  -0.440  0.00  0.00    -0.031 A 
ATOM      3  C3  DEN d   1       0.847  -0.001  -1.193  0.00  0.00     0.027 A 
ATOM      4  C4  DEN d   1       0.540  -2.512  -0.688  0.00  0.00     0.027 A 
ATOM      5  C5  DEN d   1      -0.007  -3.422   0.190  0.00  0.00    -0.003 A 
ATOM      6  C6  DEN d   1      -0.688  -3.034   1.313  0.00  0.00     0.001 A 
ATOM      7  C7  DEN d   1      -0.879  -1.701   1.565  0.00  0.00     0.017 A 
ATOM      8  C8  DEN d   1      -0.324  -0.778   0.688  0.00  0.00    -0.094 A 
ATOM      9  C9  DEN d   1       0.350  -1.190  -0.448  0.00  0.00    -0.072 A 
ENDROOT
TORSDOF 0
ENDMDL
