MODEL 1
REMARK minimizedAffinity -0.773025155
REMARK minimizedRMSD -1
REMARK  0 active torsions:
REMARK  status: ('A' for Active; 'I' for Inactive)
ROOT
ATOM      1  C1  DEN d   1       0.848   1.951   1.511  0.00  0.00     0.130 A 
ATOM      2  C2  DEN d   1       1.698   2.476   0.446  0.00  0.00    -0.031 A 
ATOM      3  C3  DEN d   1       1.734   1.478  -0.642  0.00  0.00     0.027 A 
ATOM      4  C4  DEN d   1       0.559  -0.814  -0.782  0.00  0.00     0.027 A 
ATOM      5  C5  DEN d   1      -0.261  -1.698  -0.115  0.00  0.00    -0.003 A 
ATOM      6  C6  DEN d   1      -0.737  -1.444   1.144  0.00  0.00     0.001 A 
ATOM      7  C7  DEN d   1      -0.433  -0.258   1.758  0.00  0.00     0.017 A 
ATOM      8  C8  DEN d   1       0.398   0.635   1.096  0.00  0.00    -0.094 A 
ATOM      9  C9  DEN d   1       0.860   0.366  -0.182  0.00  0.00    -0.072 A 
ENDROOT
TORSDOF 0
ENDMDL
