MODEL 1
REMARK minimizedAffinity -2.97570109
REMARK minimizedRMSD -1
REMARK  0 active torsions:
REMARK  status: ('A' for Active; 'I' for Inactive)
ROOT
ATOM      1  C1  DEN d   1      -0.547  -0.289  -1.309  0.00  0.00     0.130 A 
ATOM      2  C2  DEN d   1       0.832  -0.133  -1.764  0.00  0.00    -0.031 A 
ATOM      3  C3  DEN d   1       1.698  -0.938  -0.880  0.00  0.00     0.027 A 
ATOM      4  C4  DEN d   1       1.041  -2.407   1.136  0.00  0.00     0.027 A 
ATOM      5  C5  DEN d   1      -0.010  -2.844   1.911  0.00  0.00    -0.003 A 
ATOM      6  C6  DEN d   1      -1.299  -2.436   1.690  0.00  0.00     0.001 A 
ATOM      7  C7  DEN d   1      -1.576  -1.601   0.641  0.00  0.00     0.017 A 
ATOM      8  C8  DEN d   1      -0.520  -1.150  -0.141  0.00  0.00    -0.094 A 
ATOM      9  C9  DEN d   1       0.774  -1.584   0.090  0.00  0.00    -0.072 A 
ENDROOT
TORSDOF 0
ENDMDL
