MODEL 1
REMARK minimizedAffinity -3.5299046
REMARK minimizedRMSD -1
REMARK  0 active torsions:
REMARK  status: ('A' for Active; 'I' for Inactive)
ROOT
ATOM      1  C1  DEN d   1       0.709  -0.842   0.959  0.00  0.00     0.130 A 
ATOM      2  C2  DEN d   1      -0.033  -1.626  -0.024  0.00  0.00    -0.031 A 
ATOM      3  C3  DEN d   1      -0.451  -0.717  -1.111  0.00  0.00     0.027 A 
ATOM      4  C4  DEN d   1      -0.017   1.813  -1.367  0.00  0.00     0.027 A 
ATOM      5  C5  DEN d   1       0.558   2.918  -0.780  0.00  0.00    -0.003 A 
ATOM      6  C6  DEN d   1       1.189   2.855   0.434  0.00  0.00     0.001 A 
ATOM      7  C7  DEN d   1       1.300   1.652   1.080  0.00  0.00     0.017 A 
ATOM      8  C8  DEN d   1       0.716   0.534   0.498  0.00  0.00    -0.094 A 
ATOM      9  C9  DEN d   1       0.093   0.616  -0.736  0.00  0.00    -0.072 A 
ENDROOT
TORSDOF 0
ENDMDL
