MODEL 1
REMARK minimizedAffinity 0.408008933
REMARK minimizedRMSD -1
REMARK  0 active torsions:
REMARK  status: ('A' for Active; 'I' for Inactive)
ROOT
ATOM      1  C1  DEN d   1       2.320   2.948   1.103  0.00  0.00     0.130 A 
ATOM      2  C2  DEN d   1       2.788   3.827   0.035  0.00  0.00    -0.031 A 
ATOM      3  C3  DEN d   1       2.033   3.499  -1.191  0.00  0.00     0.027 A 
ATOM      4  C4  DEN d   1       0.191   1.726  -1.536  0.00  0.00     0.027 A 
ATOM      5  C5  DEN d   1      -0.537   0.730  -0.924  0.00  0.00    -0.003 A 
ATOM      6  C6  DEN d   1      -0.342   0.383   0.387  0.00  0.00     0.001 A 
ATOM      7  C7  DEN d   1       0.573   1.069   1.141  0.00  0.00     0.017 A 
ATOM      8  C8  DEN d   1       1.316   2.070   0.529  0.00  0.00    -0.094 A 
ATOM      9  C9  DEN d   1       1.096   2.414  -0.794  0.00  0.00    -0.072 A 
ENDROOT
TORSDOF 0
ENDMDL
