MODEL 1
REMARK minimizedAffinity -3.94078803
REMARK minimizedRMSD -1
REMARK  0 active torsions:
REMARK  status: ('A' for Active; 'I' for Inactive)
ROOT
ATOM      1  C1  DEN d   1      -0.643   0.804   0.803  0.00  0.00     0.130 A 
ATOM      2  C2  DEN d   1       0.779   1.112   0.672  0.00  0.00    -0.031 A 
ATOM      3  C3  DEN d   1       1.513  -0.164   0.545  0.00  0.00     0.027 A 
ATOM      4  C4  DEN d   1       0.590  -2.572   0.535  0.00  0.00     0.027 A 
ATOM      5  C5  DEN d   1      -0.551  -3.338   0.630  0.00  0.00    -0.003 A 
ATOM      6  C6  DEN d   1      -1.788  -2.783   0.823  0.00  0.00     0.001 A 
ATOM      7  C7  DEN d   1      -1.920  -1.420   0.880  0.00  0.00     0.017 A 
ATOM      8  C8  DEN d   1      -0.773  -0.642   0.792  0.00  0.00    -0.094 A 
ATOM      9  C9  DEN d   1       0.468  -1.222   0.586  0.00  0.00    -0.072 A 
ENDROOT
TORSDOF 0
ENDMDL
