MODEL 1
REMARK minimizedAffinity -4.48599148
REMARK minimizedRMSD -1
REMARK  0 active torsions:
REMARK  status: ('A' for Active; 'I' for Inactive)
ROOT
ATOM      1  C1  DEN d   1      -0.299  -1.800   1.816  0.00  0.00     0.130 A 
ATOM      2  C2  DEN d   1       0.039  -3.145   1.359  0.00  0.00    -0.031 A 
ATOM      3  C3  DEN d   1       0.368  -3.070  -0.078  0.00  0.00     0.027 A 
ATOM      4  C4  DEN d   1       0.392  -1.011  -1.632  0.00  0.00     0.027 A 
ATOM      5  C5  DEN d   1       0.166   0.346  -1.701  0.00  0.00    -0.003 A 
ATOM      6  C6  DEN d   1      -0.261   1.071  -0.620  0.00  0.00     0.001 A 
ATOM      7  C7  DEN d   1      -0.431   0.450   0.589  0.00  0.00     0.017 A 
ATOM      8  C8  DEN d   1      -0.212  -0.919   0.665  0.00  0.00    -0.094 A 
ATOM      9  C9  DEN d   1       0.231  -1.633  -0.436  0.00  0.00    -0.072 A 
ENDROOT
TORSDOF 0
ENDMDL
