MODEL 1
REMARK minimizedAffinity -3.72230601
REMARK minimizedRMSD -1
REMARK  0 active torsions:
REMARK  status: ('A' for Active; 'I' for Inactive)
ROOT
ATOM      1  C1  DEN d   1       0.182   0.335  -0.706  0.00  0.00     0.130 A 
ATOM      2  C2  DEN d   1       0.724  -0.442  -1.817  0.00  0.00    -0.031 A 
ATOM      3  C3  DEN d   1       0.376  -1.860  -1.594  0.00  0.00     0.027 A 
ATOM      4  C4  DEN d   1      -0.945  -2.921   0.350  0.00  0.00     0.027 A 
ATOM      5  C5  DEN d   1      -1.598  -2.664   1.536  0.00  0.00    -0.003 A 
ATOM      6  C6  DEN d   1      -1.673  -1.405   2.070  0.00  0.00     0.001 A 
ATOM      7  C7  DEN d   1      -1.124  -0.347   1.395  0.00  0.00     0.017 A 
ATOM      8  C8  DEN d   1      -0.458  -0.599   0.202  0.00  0.00    -0.094 A 
ATOM      9  C9  DEN d   1      -0.404  -1.877  -0.328  0.00  0.00    -0.072 A 
ENDROOT
TORSDOF 0
ENDMDL
