MODEL 1
REMARK minimizedAffinity 13.0288925
REMARK minimizedRMSD -1
REMARK  0 active torsions:
REMARK  status: ('A' for Active; 'I' for Inactive)
ROOT
ATOM      1  C1  DEN d   1       1.310   5.831   2.792  0.00  0.00     0.130 A 
ATOM      2  C2  DEN d   1      -0.104   5.544   3.017  0.00  0.00    -0.031 A 
ATOM      3  C3  DEN d   1      -0.498   4.448   2.109  0.00  0.00     0.027 A 
ATOM      4  C4  DEN d   1       0.938   3.171   0.389  0.00  0.00     0.027 A 
ATOM      5  C5  DEN d   1       2.193   3.067  -0.169  0.00  0.00    -0.003 A 
ATOM      6  C6  DEN d   1       3.225   3.892   0.194  0.00  0.00     0.001 A 
ATOM      7  C7  DEN d   1       3.031   4.830   1.174  0.00  0.00     0.017 A 
ATOM      8  C8  DEN d   1       1.766   4.946   1.736  0.00  0.00    -0.094 A 
ATOM      9  C9  DEN d   1       0.740   4.094   1.364  0.00  0.00    -0.072 A 
ENDROOT
TORSDOF 0
ENDMDL
