MODEL 1
REMARK minimizedAffinity 7.55717421
REMARK minimizedRMSD -1
REMARK  0 active torsions:
REMARK  status: ('A' for Active; 'I' for Inactive)
ROOT
ATOM      1  C1  DEN d   1       1.245   3.610   0.771  0.00  0.00     0.130 A 
ATOM      2  C2  DEN d   1       1.911   4.424   1.784  0.00  0.00    -0.031 A 
ATOM      3  C3  DEN d   1       3.279   4.714   1.309  0.00  0.00     0.027 A 
ATOM      4  C4  DEN d   1       4.422   3.988  -0.887  0.00  0.00     0.027 A 
ATOM      5  C5  DEN d   1       4.259   3.277  -2.056  0.00  0.00    -0.003 A 
ATOM      6  C6  DEN d   1       3.102   2.605  -2.346  0.00  0.00     0.001 A 
ATOM      7  C7  DEN d   1       2.044   2.667  -1.477  0.00  0.00     0.017 A 
ATOM      8  C8  DEN d   1       2.204   3.375  -0.293  0.00  0.00    -0.094 A 
ATOM      9  C9  DEN d   1       3.377   4.058  -0.023  0.00  0.00    -0.072 A 
ENDROOT
TORSDOF 0
ENDMDL
