MODEL 1
REMARK minimizedAffinity 17.499321
REMARK minimizedRMSD -1
REMARK  0 active torsions:
REMARK  status: ('A' for Active; 'I' for Inactive)
ROOT
ATOM      1  C2' OXE d   1      -5.620  -2.510  -4.124  0.00  0.00     0.078 C 
ATOM      2  C1' OXE d   1      -2.917  -2.620  -3.374  0.00  0.00     0.078 C 
ATOM      3  C1  OXE d   1      -3.811  -3.759  -2.952  0.00  0.00    -0.078 A 
ATOM      4  C2  OXE d   1      -5.142  -3.674  -3.283  0.00  0.00    -0.078 A 
ATOM      5  C3  OXE d   1      -6.000  -4.723  -2.965  0.00  0.00     0.003 A 
ATOM      6  C4  OXE d   1      -5.552  -5.791  -2.178  0.00  0.00    -0.002 A 
ATOM      7  C5  OXE d   1      -4.209  -5.877  -1.796  0.00  0.00    -0.002 A 
ATOM      8  C6  OXE d   1      -3.318  -4.893  -2.210  0.00  0.00     0.003 A 
ENDROOT
TORSDOF 0
ENDMDL
