MODEL 1
REMARK minimizedAffinity 14.7235327
REMARK minimizedRMSD -1
REMARK  0 active torsions:
REMARK  status: ('A' for Active; 'I' for Inactive)
ROOT
ATOM      1  C2' OXE d   1      -0.418  -2.371   1.359  0.00  0.00     0.078 C 
ATOM      2  C1' OXE d   1      -2.944  -2.346   0.135  0.00  0.00     0.078 C 
ATOM      3  C1  OXE d   1      -2.479  -3.636   0.763  0.00  0.00    -0.078 A 
ATOM      4  C2  OXE d   1      -1.222  -3.652   1.318  0.00  0.00    -0.078 A 
ATOM      5  C3  OXE d   1      -0.767  -4.801   1.959  0.00  0.00     0.003 A 
ATOM      6  C4  OXE d   1      -1.513  -5.984   1.909  0.00  0.00    -0.002 A 
ATOM      7  C5  OXE d   1      -2.779  -6.000   1.313  0.00  0.00    -0.002 A 
ATOM      8  C6  OXE d   1      -3.294  -4.826   0.775  0.00  0.00     0.003 A 
ENDROOT
TORSDOF 0
ENDMDL
