MODEL 1
REMARK minimizedAffinity 6.48641109
REMARK minimizedRMSD -1
REMARK  0 active torsions:
REMARK  status: ('A' for Active; 'I' for Inactive)
ROOT
ATOM      1  C2' OXE d   1       0.610  -0.066   4.527  0.00  0.00     0.078 C 
ATOM      2  C1' OXE d   1       0.972   1.244   2.071  0.00  0.00     0.078 C 
ATOM      3  C1  OXE d   1       0.115   0.004   2.087  0.00  0.00    -0.078 A 
ATOM      4  C2  OXE d   1      -0.019  -0.658   3.284  0.00  0.00    -0.078 A 
ATOM      5  C3  OXE d   1      -0.843  -1.776   3.366  0.00  0.00     0.003 A 
ATOM      6  C4  OXE d   1      -1.413  -2.323   2.209  0.00  0.00    -0.002 A 
ATOM      7  C5  OXE d   1      -1.257  -1.687   0.973  0.00  0.00    -0.002 A 
ATOM      8  C6  OXE d   1      -0.533  -0.502   0.902  0.00  0.00     0.003 A 
ENDROOT
TORSDOF 0
ENDMDL
