MODEL 1
REMARK minimizedAffinity 18.0244427
REMARK minimizedRMSD -1
REMARK  0 active torsions:
REMARK  status: ('A' for Active; 'I' for Inactive)
ROOT
ATOM      1  C2' OXE d   1       1.001   0.374   1.483  0.00  0.00     0.078 C 
ATOM      2  C1' OXE d   1      -0.930  -1.594   0.957  0.00  0.00     0.078 C 
ATOM      3  C1  OXE d   1      -0.693  -1.208   2.395  0.00  0.00    -0.078 A 
ATOM      4  C2  OXE d   1       0.287  -0.278   2.647  0.00  0.00    -0.078 A 
ATOM      5  C3  OXE d   1       0.509   0.153   3.951  0.00  0.00     0.003 A 
ATOM      6  C4  OXE d   1      -0.149  -0.462   5.023  0.00  0.00    -0.002 A 
ATOM      7  C5  OXE d   1      -1.122  -1.440   4.792  0.00  0.00    -0.002 A 
ATOM      8  C6  OXE d   1      -1.436  -1.793   3.484  0.00  0.00     0.003 A 
ENDROOT
TORSDOF 0
ENDMDL
