MODEL 1
REMARK minimizedAffinity 16.5714645
REMARK minimizedRMSD -1
REMARK  0 active torsions:
REMARK  status: ('A' for Active; 'I' for Inactive)
ROOT
ATOM      1  C2' OXE d   1       0.930   5.947  -5.990  0.00  0.00     0.078 C 
ATOM      2  C1' OXE d   1       3.736   5.999  -5.996  0.00  0.00     0.078 C 
ATOM      3  C1  OXE d   1       3.052   5.083  -5.013  0.00  0.00    -0.078 A 
ATOM      4  C2  OXE d   1       1.678   5.099  -4.985  0.00  0.00    -0.078 A 
ATOM      5  C3  OXE d   1       0.996   4.233  -4.134  0.00  0.00     0.003 A 
ATOM      6  C4  OXE d   1       1.695   3.459  -3.201  0.00  0.00    -0.002 A 
ATOM      7  C5  OXE d   1       3.094   3.458  -3.185  0.00  0.00    -0.002 A 
ATOM      8  C6  OXE d   1       3.786   4.230  -4.111  0.00  0.00     0.003 A 
ENDROOT
TORSDOF 0
ENDMDL
