MODEL 1
REMARK minimizedAffinity 9.99738121
REMARK minimizedRMSD -1
REMARK  0 active torsions:
REMARK  status: ('A' for Active; 'I' for Inactive)
ROOT
ATOM      1  C2' OXE d   1      -3.368  -3.045  -1.924  0.00  0.00     0.078 C 
ATOM      2  C1' OXE d   1      -4.840  -5.435  -1.964  0.00  0.00     0.078 C 
ATOM      3  C1  OXE d   1      -4.032  -5.127  -0.728  0.00  0.00    -0.078 A 
ATOM      4  C2  OXE d   1      -3.278  -3.978  -0.736  0.00  0.00    -0.078 A 
ATOM      5  C3  OXE d   1      -2.558  -3.619   0.399  0.00  0.00     0.003 A 
ATOM      6  C4  OXE d   1      -2.472  -4.492   1.490  0.00  0.00    -0.002 A 
ATOM      7  C5  OXE d   1      -3.200  -5.687   1.502  0.00  0.00    -0.002 A 
ATOM      8  C6  OXE d   1      -4.017  -5.998   0.421  0.00  0.00     0.003 A 
ENDROOT
TORSDOF 0
ENDMDL
