MODEL 1
REMARK minimizedAffinity 10.0765886
REMARK minimizedRMSD -1
REMARK  0 active torsions:
REMARK  status: ('A' for Active; 'I' for Inactive)
ROOT
ATOM      1  C2' OXE d   1       0.979  -1.245   3.700  0.00  0.00     0.078 C 
ATOM      2  C1' OXE d   1       1.065  -0.465   1.005  0.00  0.00     0.078 C 
ATOM      3  C1  OXE d   1       2.364  -0.853   1.667  0.00  0.00    -0.078 A 
ATOM      4  C2  OXE d   1       2.319  -1.188   2.999  0.00  0.00    -0.078 A 
ATOM      5  C3  OXE d   1       3.479  -1.606   3.644  0.00  0.00     0.003 A 
ATOM      6  C4  OXE d   1       4.716  -1.541   2.991  0.00  0.00    -0.002 A 
ATOM      7  C5  OXE d   1       4.789  -1.165   1.645  0.00  0.00    -0.002 A 
ATOM      8  C6  OXE d   1       3.620  -0.859   0.958  0.00  0.00     0.003 A 
ENDROOT
TORSDOF 0
ENDMDL
