MODEL 1
REMARK minimizedAffinity 10.9632425
REMARK minimizedRMSD -1
REMARK  0 active torsions:
REMARK  status: ('A' for Active; 'I' for Inactive)
ROOT
ATOM      1  C2' OXE d   1      -1.022  -2.242   1.069  0.00  0.00     0.078 C 
ATOM      2  C1' OXE d   1      -3.579  -1.867  -0.026  0.00  0.00     0.078 C 
ATOM      3  C1  OXE d   1      -2.459  -2.237  -0.965  0.00  0.00    -0.078 A 
ATOM      4  C2  OXE d   1      -1.202  -2.373  -0.428  0.00  0.00    -0.078 A 
ATOM      5  C3  OXE d   1      -0.143  -2.766  -1.241  0.00  0.00     0.003 A 
ATOM      6  C4  OXE d   1      -0.316  -2.876  -2.626  0.00  0.00    -0.002 A 
ATOM      7  C5  OXE d   1      -1.580  -2.703  -3.200  0.00  0.00    -0.002 A 
ATOM      8  C6  OXE d   1      -2.668  -2.426  -2.380  0.00  0.00     0.003 A 
ENDROOT
TORSDOF 0
ENDMDL
