MODEL 1
REMARK minimizedAffinity 8.16124344
REMARK minimizedRMSD -1
REMARK  0 active torsions:
REMARK  status: ('A' for Active; 'I' for Inactive)
ROOT
ATOM      1  C2' OXE d   1      -2.819  -2.726   0.784  0.00  0.00     0.078 C 
ATOM      2  C1' OXE d   1      -0.559  -1.304  -0.082  0.00  0.00     0.078 C 
ATOM      3  C1  OXE d   1      -1.459  -1.903  -1.134  0.00  0.00    -0.078 A 
ATOM      4  C2  OXE d   1      -2.537  -2.637  -0.700  0.00  0.00    -0.078 A 
ATOM      5  C3  OXE d   1      -3.430  -3.166  -1.628  0.00  0.00     0.003 A 
ATOM      6  C4  OXE d   1      -3.156  -3.087  -2.999  0.00  0.00    -0.002 A 
ATOM      7  C5  OXE d   1      -2.042  -2.378  -3.461  0.00  0.00    -0.002 A 
ATOM      8  C6  OXE d   1      -1.209  -1.746  -2.545  0.00  0.00     0.003 A 
ENDROOT
TORSDOF 0
ENDMDL
