MODEL 1
REMARK minimizedAffinity 4.64071703
REMARK minimizedRMSD -1
REMARK  0 active torsions:
REMARK  status: ('A' for Active; 'I' for Inactive)
ROOT
ATOM      1  C2' OXE d   1       3.874  -0.334   2.264  0.00  0.00     0.078 C 
ATOM      2  C1' OXE d   1       6.000  -1.164   0.630  0.00  0.00     0.078 C 
ATOM      3  C1  OXE d   1       5.443   0.220   0.411  0.00  0.00    -0.078 A 
ATOM      4  C2  OXE d   1       4.373   0.601   1.184  0.00  0.00    -0.078 A 
ATOM      5  C3  OXE d   1       3.856   1.887   1.060  0.00  0.00     0.003 A 
ATOM      6  C4  OXE d   1       4.316   2.742   0.051  0.00  0.00    -0.002 A 
ATOM      7  C5  OXE d   1       5.379   2.360  -0.773  0.00  0.00    -0.002 A 
ATOM      8  C6  OXE d   1       5.981   1.121  -0.579  0.00  0.00     0.003 A 
ENDROOT
TORSDOF 0
ENDMDL
