MODEL 1
REMARK minimizedAffinity 10.5650253
REMARK minimizedRMSD -1
REMARK  0 active torsions:
REMARK  status: ('A' for Active; 'I' for Inactive)
ROOT
ATOM      1  C2' OXE d   1       5.749  -1.504  -5.225  0.00  0.00     0.078 C 
ATOM      2  C1' OXE d   1       3.076  -0.746  -5.627  0.00  0.00     0.078 C 
ATOM      3  C1  OXE d   1       3.893   0.051  -4.641  0.00  0.00    -0.078 A 
ATOM      4  C2  OXE d   1       5.186  -0.356  -4.416  0.00  0.00    -0.078 A 
ATOM      5  C3  OXE d   1       6.000   0.377  -3.557  0.00  0.00     0.003 A 
ATOM      6  C4  OXE d   1       5.468   1.432  -2.805  0.00  0.00    -0.002 A 
ATOM      7  C5  OXE d   1       4.142   1.838  -2.989  0.00  0.00    -0.002 A 
ATOM      8  C6  OXE d   1       3.355   1.186  -3.932  0.00  0.00     0.003 A 
ENDROOT
TORSDOF 0
ENDMDL
