MODEL 1
REMARK minimizedAffinity 5.05371666
REMARK minimizedRMSD -1
REMARK  0 active torsions:
REMARK  status: ('A' for Active; 'I' for Inactive)
ROOT
ATOM      1  C2' OXE d   1       2.020   2.492   0.999  0.00  0.00     0.078 C 
ATOM      2  C1' OXE d   1       1.172   0.651   2.942  0.00  0.00     0.078 C 
ATOM      3  C1  OXE d   1       2.553   0.475   2.361  0.00  0.00    -0.078 A 
ATOM      4  C2  OXE d   1       2.942   1.353   1.378  0.00  0.00    -0.078 A 
ATOM      5  C3  OXE d   1       4.226   1.269   0.847  0.00  0.00     0.003 A 
ATOM      6  C4  OXE d   1       5.069   0.206   1.195  0.00  0.00    -0.002 A 
ATOM      7  C5  OXE d   1       4.677  -0.722   2.166  0.00  0.00    -0.002 A 
ATOM      8  C6  OXE d   1       3.442  -0.577   2.788  0.00  0.00     0.003 A 
ENDROOT
TORSDOF 0
ENDMDL
