MODEL 1
REMARK minimizedAffinity 5.85336018
REMARK minimizedRMSD -1
REMARK  0 active torsions:
REMARK  status: ('A' for Active; 'I' for Inactive)
ROOT
ATOM      1  C2' OXE d   1       5.998  -0.603   0.396  0.00  0.00     0.078 C 
ATOM      2  C1' OXE d   1       6.000   1.559  -1.394  0.00  0.00     0.078 C 
ATOM      3  C1  OXE d   1       4.948   1.541  -0.314  0.00  0.00    -0.078 A 
ATOM      4  C2  OXE d   1       4.925   0.456   0.529  0.00  0.00    -0.078 A 
ATOM      5  C3  OXE d   1       4.010   0.416   1.577  0.00  0.00     0.003 A 
ATOM      6  C4  OXE d   1       3.015   1.395   1.687  0.00  0.00    -0.002 A 
ATOM      7  C5  OXE d   1       2.996   2.489   0.815  0.00  0.00    -0.002 A 
ATOM      8  C6  OXE d   1       3.979   2.598  -0.162  0.00  0.00     0.003 A 
ENDROOT
TORSDOF 0
ENDMDL
