MODEL 1
REMARK minimizedAffinity 14.9703569
REMARK minimizedRMSD -1
REMARK  0 active torsions:
REMARK  status: ('A' for Active; 'I' for Inactive)
ROOT
ATOM      1  C2' OXE d   1      -1.168  -2.693  -5.606  0.00  0.00     0.078 C 
ATOM      2  C1' OXE d   1      -0.739  -5.021  -4.097  0.00  0.00     0.078 C 
ATOM      3  C1  OXE d   1      -1.582  -3.931  -3.484  0.00  0.00    -0.078 A 
ATOM      4  C2  OXE d   1      -1.748  -2.776  -4.210  0.00  0.00    -0.078 A 
ATOM      5  C3  OXE d   1      -2.561  -1.761  -3.715  0.00  0.00     0.003 A 
ATOM      6  C4  OXE d   1      -3.085  -1.842  -2.419  0.00  0.00    -0.002 A 
ATOM      7  C5  OXE d   1      -2.895  -2.992  -1.646  0.00  0.00    -0.002 A 
ATOM      8  C6  OXE d   1      -2.183  -4.061  -2.180  0.00  0.00     0.003 A 
ENDROOT
TORSDOF 0
ENDMDL
