MODEL 1
REMARK minimizedAffinity 17.1976929
REMARK minimizedRMSD -1
REMARK  0 active torsions:
REMARK  status: ('A' for Active; 'I' for Inactive)
ROOT
ATOM      1  C2' OXE d   1       2.187   1.601   0.689  0.00  0.00     0.078 C 
ATOM      2  C1' OXE d   1       0.079   3.231   1.572  0.00  0.00     0.078 C 
ATOM      3  C1  OXE d   1       0.594   2.174   2.517  0.00  0.00    -0.078 A 
ATOM      4  C2  OXE d   1       1.594   1.350   2.059  0.00  0.00    -0.078 A 
ATOM      5  C3  OXE d   1       2.143   0.394   2.909  0.00  0.00     0.003 A 
ATOM      6  C4  OXE d   1       1.582   0.162   4.170  0.00  0.00    -0.002 A 
ATOM      7  C5  OXE d   1       0.537   0.963   4.641  0.00  0.00    -0.002 A 
ATOM      8  C6  OXE d   1       0.061   1.999   3.845  0.00  0.00     0.003 A 
ENDROOT
TORSDOF 0
ENDMDL
