MODEL 1
REMARK minimizedAffinity 17.0940056
REMARK minimizedRMSD -1
REMARK  0 active torsions:
REMARK  status: ('A' for Active; 'I' for Inactive)
ROOT
ATOM      1  C2' OXE d   1       3.510  -0.343   0.921  0.00  0.00     0.078 C 
ATOM      2  C1' OXE d   1       1.964   1.906   0.263  0.00  0.00     0.078 C 
ATOM      3  C1  OXE d   1       1.712   1.244   1.595  0.00  0.00    -0.078 A 
ATOM      4  C2  OXE d   1       2.440   0.116   1.888  0.00  0.00    -0.078 A 
ATOM      5  C3  OXE d   1       2.286  -0.501   3.126  0.00  0.00     0.003 A 
ATOM      6  C4  OXE d   1       1.287  -0.075   4.011  0.00  0.00    -0.002 A 
ATOM      7  C5  OXE d   1       0.507   1.047   3.714  0.00  0.00    -0.002 A 
ATOM      8  C6  OXE d   1       0.735   1.742   2.531  0.00  0.00     0.003 A 
ENDROOT
TORSDOF 0
ENDMDL
