MODEL 1
REMARK minimizedAffinity 13.5549784
REMARK minimizedRMSD -1
REMARK  0 active torsions:
REMARK  status: ('A' for Active; 'I' for Inactive)
ROOT
ATOM      1  C2' OXE d   1       4.730  -0.523   0.508  0.00  0.00     0.078 C 
ATOM      2  C1' OXE d   1       4.338   1.769  -1.065  0.00  0.00     0.078 C 
ATOM      3  C1  OXE d   1       3.257   1.398  -0.081  0.00  0.00    -0.078 A 
ATOM      4  C2  OXE d   1       3.436   0.249   0.651  0.00  0.00    -0.078 A 
ATOM      5  C3  OXE d   1       2.495  -0.110   1.612  0.00  0.00     0.003 A 
ATOM      6  C4  OXE d   1       1.296   0.603   1.731  0.00  0.00    -0.002 A 
ATOM      7  C5  OXE d   1       1.076   1.754   0.966  0.00  0.00    -0.002 A 
ATOM      8  C6  OXE d   1       2.063   2.188   0.088  0.00  0.00     0.003 A 
ENDROOT
TORSDOF 0
ENDMDL
