MODEL 1
REMARK minimizedAffinity 15.0454311
REMARK minimizedRMSD -1
REMARK  0 active torsions:
REMARK  status: ('A' for Active; 'I' for Inactive)
ROOT
ATOM      1  C2' OXE d   1       2.581   2.278  -1.891  0.00  0.00     0.078 C 
ATOM      2  C1' OXE d   1       2.461   2.256  -4.696  0.00  0.00     0.078 C 
ATOM      3  C1  OXE d   1       3.712   1.725  -4.041  0.00  0.00    -0.078 A 
ATOM      4  C2  OXE d   1       3.781   1.782  -2.670  0.00  0.00    -0.078 A 
ATOM      5  C3  OXE d   1       4.889   1.256  -2.013  0.00  0.00     0.003 A 
ATOM      6  C4  OXE d   1       5.999   0.809  -2.740  0.00  0.00    -0.002 A 
ATOM      7  C5  OXE d   1       5.965   0.778  -4.139  0.00  0.00    -0.002 A 
ATOM      8  C6  OXE d   1       4.815   1.192  -4.802  0.00  0.00     0.003 A 
ENDROOT
TORSDOF 0
ENDMDL
