MODEL 1
REMARK minimizedAffinity -0.765339136
REMARK minimizedRMSD -1
REMARK  0 active torsions:
REMARK  status: ('A' for Active; 'I' for Inactive)
ROOT
ATOM      1  C2' OXE d   1       5.388   2.330  -2.571  0.00  0.00     0.078 C 
ATOM      2  C1' OXE d   1       4.675   1.576  -5.179  0.00  0.00     0.078 C 
ATOM      3  C1  OXE d   1       4.189   2.912  -4.676  0.00  0.00    -0.078 A 
ATOM      4  C2  OXE d   1       4.504   3.252  -3.382  0.00  0.00    -0.078 A 
ATOM      5  C3  OXE d   1       4.127   4.497  -2.886  0.00  0.00     0.003 A 
ATOM      6  C4  OXE d   1       3.300   5.340  -3.639  0.00  0.00    -0.002 A 
ATOM      7  C5  OXE d   1       2.936   4.995  -4.945  0.00  0.00    -0.002 A 
ATOM      8  C6  OXE d   1       3.406   3.806  -5.492  0.00  0.00     0.003 A 
ENDROOT
TORSDOF 0
ENDMDL
