MODEL 1
REMARK minimizedAffinity 5.35751724
REMARK minimizedRMSD -1
REMARK  1 active torsions:
REMARK  status: ('A' for Active; 'I' for Inactive)
REMARK    1  A    between atoms: C1_2  and  C2_3 
ROOT
ATOM      1  C2  UNL d   1       5.940  -2.799   3.563  0.00  0.00    -0.076 A 
ATOM      2  C3  UNL d   1       5.999  -2.522   4.940  0.00  0.00     0.004 A 
ATOM      3  C4  UNL d   1       5.980  -3.550   5.881  0.00  0.00    -0.003 A 
ATOM      4  C5  UNL d   1       5.902  -4.873   5.460  0.00  0.00     0.000 A 
ATOM      5  C6  UNL d   1       5.860  -5.167   4.097  0.00  0.00     0.000 A 
ATOM      6  C7  UNL d   1       5.895  -4.143   3.136  0.00  0.00    -0.073 A 
ATOM      7  C8  UNL d   1       5.841  -4.518   1.680  0.00  0.00     0.078 C 
ENDROOT
BRANCH   1   8
ATOM      8  C1  UNL d   1       5.936  -1.641   2.591  0.00  0.00     0.053 C 
ATOM      9  C   UNL d   1       5.897  -0.292   3.291  0.00  0.00     0.018 C 
ENDBRANCH   1   8
TORSDOF 1
ENDMDL
