MODEL 1
REMARK minimizedAffinity 5.75005531
REMARK minimizedRMSD -1
REMARK  1 active torsions:
REMARK  status: ('A' for Active; 'I' for Inactive)
REMARK    1  A    between atoms: C1_2  and  C2_3 
ROOT
ATOM      1  C2  UNL d   1      -1.470   1.115   2.560  0.00  0.00    -0.076 A 
ATOM      2  C3  UNL d   1      -1.186   2.415   3.013  0.00  0.00     0.004 A 
ATOM      3  C4  UNL d   1       0.126   2.820   3.252  0.00  0.00    -0.003 A 
ATOM      4  C5  UNL d   1       1.175   1.932   3.041  0.00  0.00     0.000 A 
ATOM      5  C6  UNL d   1       0.913   0.645   2.575  0.00  0.00     0.000 A 
ATOM      6  C7  UNL d   1      -0.403   0.225   2.313  0.00  0.00    -0.073 A 
ATOM      7  C8  UNL d   1      -0.629  -1.177   1.817  0.00  0.00     0.078 C 
ENDROOT
BRANCH   1   8
ATOM      8  C1  UNL d   1      -2.915   0.723   2.344  0.00  0.00     0.053 C 
ATOM      9  C   UNL d   1      -3.702   0.662   3.644  0.00  0.00     0.018 C 
ENDBRANCH   1   8
TORSDOF 1
ENDMDL
