MODEL 1
REMARK minimizedAffinity 6.08886099
REMARK minimizedRMSD -1
REMARK  1 active torsions:
REMARK  status: ('A' for Active; 'I' for Inactive)
REMARK    1  A    between atoms: C1_2  and  C2_3 
ROOT
ATOM      1  C2  UNL d   1       0.037   0.745   1.646  0.00  0.00    -0.076 A 
ATOM      2  C3  UNL d   1      -0.944   0.197   0.801  0.00  0.00     0.004 A 
ATOM      3  C4  UNL d   1      -2.275   0.602   0.891  0.00  0.00    -0.003 A 
ATOM      4  C5  UNL d   1      -2.646   1.561   1.826  0.00  0.00     0.000 A 
ATOM      5  C6  UNL d   1      -1.683   2.128   2.661  0.00  0.00     0.000 A 
ATOM      6  C7  UNL d   1      -0.335   1.743   2.572  0.00  0.00    -0.073 A 
ATOM      7  C8  UNL d   1       0.661   2.382   3.501  0.00  0.00     0.078 C 
ENDROOT
BRANCH   1   8
ATOM      8  C1  UNL d   1       1.459   0.247   1.522  0.00  0.00     0.053 C 
ATOM      9  C   UNL d   1       2.209   0.908   0.376  0.00  0.00     0.018 C 
ENDBRANCH   1   8
TORSDOF 1
ENDMDL
