MODEL 1
REMARK minimizedAffinity 7.27521324
REMARK minimizedRMSD -1
REMARK  1 active torsions:
REMARK  status: ('A' for Active; 'I' for Inactive)
REMARK    1  A    between atoms: C1_2  and  C2_3 
ROOT
ATOM      1  C2  UNL d   1       2.389   0.883  -4.365  0.00  0.00    -0.076 A 
ATOM      2  C3  UNL d   1       1.675   0.018  -5.213  0.00  0.00     0.004 A 
ATOM      3  C4  UNL d   1       1.817  -1.364  -5.113  0.00  0.00    -0.003 A 
ATOM      4  C5  UNL d   1       2.677  -1.906  -4.163  0.00  0.00     0.000 A 
ATOM      5  C6  UNL d   1       3.380  -1.064  -3.302  0.00  0.00     0.000 A 
ATOM      6  C7  UNL d   1       3.235   0.332  -3.378  0.00  0.00    -0.073 A 
ATOM      7  C8  UNL d   1       4.022   1.193  -2.429  0.00  0.00     0.078 C 
ENDROOT
BRANCH   1   8
ATOM      8  C1  UNL d   1       2.214   2.375  -4.538  0.00  0.00     0.053 C 
ATOM      9  C   UNL d   1       2.192   2.793  -6.000  0.00  0.00     0.018 C 
ENDBRANCH   1   8
TORSDOF 1
ENDMDL
