MODEL 1
REMARK minimizedAffinity 8.9965868
REMARK minimizedRMSD -1
REMARK  1 active torsions:
REMARK  status: ('A' for Active; 'I' for Inactive)
REMARK    1  A    between atoms: C1_2  and  C2_3 
ROOT
ATOM      1  C2  UNL d   1      -1.482   1.331   2.558  0.00  0.00    -0.076 A 
ATOM      2  C3  UNL d   1      -0.146   1.322   2.119  0.00  0.00     0.004 A 
ATOM      3  C4  UNL d   1       0.879   1.803   2.932  0.00  0.00    -0.003 A 
ATOM      4  C5  UNL d   1       0.585   2.300   4.197  0.00  0.00     0.000 A 
ATOM      5  C6  UNL d   1      -0.732   2.300   4.655  0.00  0.00     0.000 A 
ATOM      6  C7  UNL d   1      -1.775   1.804   3.855  0.00  0.00    -0.073 A 
ATOM      7  C8  UNL d   1      -3.178   1.834   4.396  0.00  0.00     0.078 C 
ENDROOT
BRANCH   1   8
ATOM      8  C1  UNL d   1      -2.555   0.822   1.622  0.00  0.00     0.053 C 
ATOM      9  C   UNL d   1      -1.998  -0.088   0.538  0.00  0.00     0.018 C 
ENDBRANCH   1   8
TORSDOF 1
ENDMDL
