MODEL 1
REMARK minimizedAffinity 8.63377762
REMARK minimizedRMSD -1
REMARK  1 active torsions:
REMARK  status: ('A' for Active; 'I' for Inactive)
REMARK    1  A    between atoms: C1_2  and  C2_3 
ROOT
ATOM      1  C2  UNL d   1      -1.164   1.537   2.643  0.00  0.00    -0.076 A 
ATOM      2  C3  UNL d   1      -0.065   1.750   3.493  0.00  0.00     0.004 A 
ATOM      3  C4  UNL d   1       1.155   1.119   3.259  0.00  0.00    -0.003 A 
ATOM      4  C5  UNL d   1       1.297   0.264   2.171  0.00  0.00     0.000 A 
ATOM      5  C6  UNL d   1       0.222   0.055   1.308  0.00  0.00     0.000 A 
ATOM      6  C7  UNL d   1      -1.011   0.697   1.520  0.00  0.00    -0.073 A 
ATOM      7  C8  UNL d   1      -2.138   0.430   0.560  0.00  0.00     0.078 C 
ENDROOT
BRANCH   1   8
ATOM      8  C1  UNL d   1      -2.471   2.228   2.962  0.00  0.00     0.053 C 
ATOM      9  C   UNL d   1      -3.303   1.460   3.977  0.00  0.00     0.018 C 
ENDBRANCH   1   8
TORSDOF 1
ENDMDL
