MODEL 1
REMARK minimizedAffinity 3.25512528
REMARK minimizedRMSD -1
REMARK  1 active torsions:
REMARK  status: ('A' for Active; 'I' for Inactive)
REMARK    1  A    between atoms: C1_2  and  C2_3 
ROOT
ATOM      1  C2  UNL d   1       1.062   0.660   1.996  0.00  0.00    -0.076 A 
ATOM      2  C3  UNL d   1       1.576   1.702   1.204  0.00  0.00     0.004 A 
ATOM      3  C4  UNL d   1       2.919   1.725   0.833  0.00  0.00    -0.003 A 
ATOM      4  C5  UNL d   1       3.770   0.706   1.247  0.00  0.00     0.000 A 
ATOM      5  C6  UNL d   1       3.273  -0.344   2.018  0.00  0.00     0.000 A 
ATOM      6  C7  UNL d   1       1.918  -0.391   2.388  0.00  0.00    -0.073 A 
ATOM      7  C8  UNL d   1       1.438  -1.544   3.226  0.00  0.00     0.078 C 
ENDROOT
BRANCH   1   8
ATOM      8  C1  UNL d   1      -0.397   0.703   2.391  0.00  0.00     0.053 C 
ATOM      9  C   UNL d   1      -1.299   1.128   1.242  0.00  0.00     0.018 C 
ENDBRANCH   1   8
TORSDOF 1
ENDMDL
