MODEL 1
REMARK minimizedAffinity 6.57133341
REMARK minimizedRMSD -1
REMARK  1 active torsions:
REMARK  status: ('A' for Active; 'I' for Inactive)
REMARK    1  A    between atoms: C1_2  and  C2_3 
ROOT
ATOM      1  C2  UNL d   1      -1.247   1.745   1.961  0.00  0.00    -0.076 A 
ATOM      2  C3  UNL d   1      -1.252   3.083   2.392  0.00  0.00     0.004 A 
ATOM      3  C4  UNL d   1      -0.217   3.588   3.178  0.00  0.00    -0.003 A 
ATOM      4  C5  UNL d   1       0.840   2.763   3.545  0.00  0.00     0.000 A 
ATOM      5  C6  UNL d   1       0.871   1.438   3.112  0.00  0.00     0.000 A 
ATOM      6  C7  UNL d   1      -0.156   0.917   2.306  0.00  0.00    -0.073 A 
ATOM      7  C8  UNL d   1      -0.076  -0.521   1.873  0.00  0.00     0.078 C 
ENDROOT
BRANCH   1   8
ATOM      8  C1  UNL d   1      -2.410   1.246   1.134  0.00  0.00     0.053 C 
ATOM      9  C   UNL d   1      -3.756   1.622   1.734  0.00  0.00     0.018 C 
ENDBRANCH   1   8
TORSDOF 1
ENDMDL
