MODEL 1
REMARK minimizedAffinity 7.64078522
REMARK minimizedRMSD -1
REMARK  1 active torsions:
REMARK  status: ('A' for Active; 'I' for Inactive)
REMARK    1  A    between atoms: C1_2  and  C2_3 
ROOT
ATOM      1  C2  UNL d   1      -1.249   1.131   1.908  0.00  0.00    -0.076 A 
ATOM      2  C3  UNL d   1      -0.246   0.217   1.540  0.00  0.00     0.004 A 
ATOM      3  C4  UNL d   1       0.978   0.189   2.206  0.00  0.00    -0.003 A 
ATOM      4  C5  UNL d   1       1.219   1.074   3.251  0.00  0.00     0.000 A 
ATOM      5  C6  UNL d   1       0.230   1.975   3.640  0.00  0.00     0.000 A 
ATOM      6  C7  UNL d   1      -1.016   2.006   2.990  0.00  0.00    -0.073 A 
ATOM      7  C8  UNL d   1      -2.045   3.003   3.448  0.00  0.00     0.078 C 
ENDROOT
BRANCH   1   8
ATOM      8  C1  UNL d   1      -2.547   1.134   1.132  0.00  0.00     0.053 C 
ATOM      9  C   UNL d   1      -2.434   0.398  -0.195  0.00  0.00     0.018 C 
ENDBRANCH   1   8
TORSDOF 1
ENDMDL
