MODEL 1
REMARK minimizedAffinity 5.56951237
REMARK minimizedRMSD -1
REMARK  1 active torsions:
REMARK  status: ('A' for Active; 'I' for Inactive)
REMARK    1  A    between atoms: C1_2  and  C2_3 
ROOT
ATOM      1  C2  UNL d   1       0.807   0.265   1.982  0.00  0.00    -0.076 A 
ATOM      2  C3  UNL d   1       0.404   1.607   2.098  0.00  0.00     0.004 A 
ATOM      3  C4  UNL d   1      -0.946   1.954   2.101  0.00  0.00    -0.003 A 
ATOM      4  C5  UNL d   1      -1.915   0.964   1.988  0.00  0.00     0.000 A 
ATOM      5  C6  UNL d   1      -1.535  -0.374   1.890  0.00  0.00     0.000 A 
ATOM      6  C7  UNL d   1      -0.178  -0.742   1.902  0.00  0.00    -0.073 A 
ATOM      7  C8  UNL d   1       0.176  -2.199   1.787  0.00  0.00     0.078 C 
ENDROOT
BRANCH   1   8
ATOM      8  C1  UNL d   1       2.286  -0.047   1.958  0.00  0.00     0.053 C 
ATOM      9  C   UNL d   1       3.032   0.743   0.894  0.00  0.00     0.018 C 
ENDBRANCH   1   8
TORSDOF 1
ENDMDL
