MODEL 1
REMARK minimizedAffinity 7.05402899
REMARK minimizedRMSD -1
REMARK  1 active torsions:
REMARK  status: ('A' for Active; 'I' for Inactive)
REMARK    1  A    between atoms: C1_2  and  C2_3 
ROOT
ATOM      1  C2  UNL d   1      -3.429  -0.495   0.671  0.00  0.00    -0.076 A 
ATOM      2  C3  UNL d   1      -2.176   0.071   0.380  0.00  0.00     0.004 A 
ATOM      3  C4  UNL d   1      -1.786   1.283   0.947  0.00  0.00    -0.003 A 
ATOM      4  C5  UNL d   1      -2.644   1.948   1.817  0.00  0.00     0.000 A 
ATOM      5  C6  UNL d   1      -3.883   1.393   2.131  0.00  0.00     0.000 A 
ATOM      6  C7  UNL d   1      -4.285   0.163   1.580  0.00  0.00    -0.073 A 
ATOM      7  C8  UNL d   1      -5.635  -0.387   1.949  0.00  0.00     0.078 C 
ENDROOT
BRANCH   1   8
ATOM      8  C1  UNL d   1      -3.808  -1.798   0.005  0.00  0.00     0.053 C 
ATOM      9  C   UNL d   1      -2.627  -2.747  -0.134  0.00  0.00     0.018 C 
ENDBRANCH   1   8
TORSDOF 1
ENDMDL
