MODEL 1
REMARK minimizedAffinity 4.21625853
REMARK minimizedRMSD -1
REMARK  1 active torsions:
REMARK  status: ('A' for Active; 'I' for Inactive)
REMARK    1  A    between atoms: C1_2  and  C2_3 
ROOT
ATOM      1  C2  UNL d   1      -0.218   0.715   1.443  0.00  0.00    -0.076 A 
ATOM      2  C3  UNL d   1      -1.128   0.128   0.547  0.00  0.00     0.004 A 
ATOM      3  C4  UNL d   1      -2.480   0.466   0.573  0.00  0.00    -0.003 A 
ATOM      4  C5  UNL d   1      -2.944   1.397   1.496  0.00  0.00     0.000 A 
ATOM      5  C6  UNL d   1      -2.052   2.003   2.381  0.00  0.00     0.000 A 
ATOM      6  C7  UNL d   1      -0.683   1.685   2.356  0.00  0.00    -0.073 A 
ATOM      7  C8  UNL d   1       0.233   2.364   3.337  0.00  0.00     0.078 C 
ENDROOT
BRANCH   1   8
ATOM      8  C1  UNL d   1       1.232   0.289   1.385  0.00  0.00     0.053 C 
ATOM      9  C   UNL d   1       2.008   1.012   0.295  0.00  0.00     0.018 C 
ENDBRANCH   1   8
TORSDOF 1
ENDMDL
