MODEL 1
REMARK minimizedAffinity 8.47213364
REMARK minimizedRMSD -1
REMARK  1 active torsions:
REMARK  status: ('A' for Active; 'I' for Inactive)
REMARK    1  A    between atoms: C1_2  and  C2_3 
ROOT
ATOM      1  C2  UNL d   1       0.283   0.456   1.756  0.00  0.00    -0.076 A 
ATOM      2  C3  UNL d   1      -0.719  -0.081   0.930  0.00  0.00     0.004 A 
ATOM      3  C4  UNL d   1      -2.042   0.344   1.038  0.00  0.00    -0.003 A 
ATOM      4  C5  UNL d   1      -2.385   1.313   1.974  0.00  0.00     0.000 A 
ATOM      5  C6  UNL d   1      -1.400   1.870   2.790  0.00  0.00     0.000 A 
ATOM      6  C7  UNL d   1      -0.059   1.465   2.682  0.00  0.00    -0.073 A 
ATOM      7  C8  UNL d   1       0.961   2.094   3.592  0.00  0.00     0.078 C 
ENDROOT
BRANCH   1   8
ATOM      8  C1  UNL d   1       1.696  -0.063   1.612  0.00  0.00     0.053 C 
ATOM      9  C   UNL d   1       2.455   0.617   0.484  0.00  0.00     0.018 C 
ENDBRANCH   1   8
TORSDOF 1
ENDMDL
