MODEL 1
REMARK minimizedAffinity 10.2433348
REMARK minimizedRMSD -1
REMARK  1 active torsions:
REMARK  status: ('A' for Active; 'I' for Inactive)
REMARK    1  A    between atoms: C1_2  and  C2_3 
ROOT
ATOM      1  C2  UNL d   1      -5.744  -0.129   3.446  0.00  0.00    -0.076 A 
ATOM      2  C3  UNL d   1      -5.996  -0.866   4.617  0.00  0.00     0.004 A 
ATOM      3  C4  UNL d   1      -5.754  -0.317   5.876  0.00  0.00    -0.003 A 
ATOM      4  C5  UNL d   1      -5.258   0.977   5.984  0.00  0.00     0.000 A 
ATOM      5  C6  UNL d   1      -5.020   1.729   4.834  0.00  0.00     0.000 A 
ATOM      6  C7  UNL d   1      -5.273   1.197   3.558  0.00  0.00    -0.073 A 
ATOM      7  C8  UNL d   1      -4.992   2.050   2.351  0.00  0.00     0.078 C 
ENDROOT
BRANCH   1   8
ATOM      8  C1  UNL d   1      -5.999  -0.786   2.109  0.00  0.00     0.053 C 
ATOM      9  C   UNL d   1      -5.963  -2.304   2.189  0.00  0.00     0.018 C 
ENDBRANCH   1   8
TORSDOF 1
ENDMDL
