MODEL 1
REMARK minimizedAffinity -4.73015976
REMARK minimizedRMSD -1
REMARK  0 active torsions:
REMARK  status: ('A' for Active; 'I' for Inactive)
ROOT
ATOM      1  C   UNL d   1       2.002  -0.164  -5.764  0.00  0.00     0.077 C 
ATOM      2  C1  UNL d   1       1.677  -0.262  -4.303  0.00  0.00    -0.074 A 
ATOM      3  C2  UNL d   1       2.674  -0.541  -3.362  0.00  0.00    -0.005 A 
ATOM      4  C3  UNL d   1       2.358  -0.619  -2.006  0.00  0.00     0.006 A 
ATOM      5  C4  UNL d   1       1.045  -0.420  -1.578  0.00  0.00    -0.005 A 
ATOM      6  C5  UNL d   1       0.035  -0.139  -2.504  0.00  0.00    -0.074 A 
ATOM      7  C6  UNL d   1      -1.379   0.088  -2.059  0.00  0.00     0.077 C 
ATOM      8  C7  UNL d   1       0.362  -0.055  -3.864  0.00  0.00    -0.001 A 
ENDROOT
TORSDOF 0
ENDMDL
