MODEL 1
REMARK minimizedAffinity -2.58428168
REMARK minimizedRMSD -1
REMARK  0 active torsions:
REMARK  status: ('A' for Active; 'I' for Inactive)
ROOT
ATOM      1  C   UNL d   1      -3.000  -3.229  -3.738  0.00  0.00     0.077 C 
ATOM      2  C1  UNL d   1      -2.467  -2.850  -2.388  0.00  0.00    -0.074 A 
ATOM      3  C2  UNL d   1      -2.001  -3.824  -1.499  0.00  0.00    -0.005 A 
ATOM      4  C3  UNL d   1      -1.500  -3.455  -0.251  0.00  0.00     0.006 A 
ATOM      5  C4  UNL d   1      -1.460  -2.111   0.121  0.00  0.00    -0.005 A 
ATOM      6  C5  UNL d   1      -1.921  -1.123  -0.755  0.00  0.00    -0.074 A 
ATOM      7  C6  UNL d   1      -1.875   0.328  -0.375  0.00  0.00     0.077 C 
ATOM      8  C7  UNL d   1      -2.416  -1.501  -2.010  0.00  0.00    -0.001 A 
ENDROOT
TORSDOF 0
ENDMDL
