MODEL 1
REMARK minimizedAffinity 1.25855029
REMARK minimizedRMSD -1
REMARK  0 active torsions:
REMARK  status: ('A' for Active; 'I' for Inactive)
ROOT
ATOM      1  C   UNL d   1      -0.617  -0.353   1.483  0.00  0.00     0.077 C 
ATOM      2  C1  UNL d   1      -1.023  -0.663   0.073  0.00  0.00    -0.074 A 
ATOM      3  C2  UNL d   1      -0.630   0.161  -0.986  0.00  0.00    -0.005 A 
ATOM      4  C3  UNL d   1      -1.007  -0.146  -2.293  0.00  0.00     0.006 A 
ATOM      5  C4  UNL d   1      -1.781  -1.277  -2.554  0.00  0.00    -0.005 A 
ATOM      6  C5  UNL d   1      -2.183  -2.113  -1.508  0.00  0.00    -0.074 A 
ATOM      7  C6  UNL d   1      -3.007  -3.339  -1.772  0.00  0.00     0.077 C 
ATOM      8  C7  UNL d   1      -1.794  -1.803  -0.198  0.00  0.00    -0.001 A 
ENDROOT
TORSDOF 0
ENDMDL
