MODEL 1
REMARK minimizedAffinity -4.14008713
REMARK minimizedRMSD -1
REMARK  0 active torsions:
REMARK  status: ('A' for Active; 'I' for Inactive)
ROOT
ATOM      1  C   UNL d   1      -3.030  -3.376  -4.243  0.00  0.00     0.077 C 
ATOM      2  C1  UNL d   1      -2.447  -3.037  -2.903  0.00  0.00    -0.074 A 
ATOM      3  C2  UNL d   1      -1.993  -4.042  -2.043  0.00  0.00    -0.005 A 
ATOM      4  C3  UNL d   1      -1.444  -3.711  -0.804  0.00  0.00     0.006 A 
ATOM      5  C4  UNL d   1      -1.344  -2.375  -0.413  0.00  0.00    -0.005 A 
ATOM      6  C5  UNL d   1      -1.792  -1.357  -1.261  0.00  0.00    -0.074 A 
ATOM      7  C6  UNL d   1      -1.683   0.084  -0.861  0.00  0.00     0.077 C 
ATOM      8  C7  UNL d   1      -2.336  -1.697  -2.507  0.00  0.00    -0.001 A 
ENDROOT
TORSDOF 0
ENDMDL
