MODEL 1
REMARK minimizedAffinity 4.76828909
REMARK minimizedRMSD -1
REMARK  0 active torsions:
REMARK  status: ('A' for Active; 'I' for Inactive)
ROOT
ATOM      1  C   UNL d   1      -2.303   0.708   1.846  0.00  0.00     0.077 C 
ATOM      2  C1  UNL d   1      -2.765   0.230   3.191  0.00  0.00    -0.074 A 
ATOM      3  C2  UNL d   1      -3.103   1.138   4.199  0.00  0.00    -0.005 A 
ATOM      4  C3  UNL d   1      -3.539   0.679   5.442  0.00  0.00     0.006 A 
ATOM      5  C4  UNL d   1      -3.642  -0.691   5.688  0.00  0.00    -0.005 A 
ATOM      6  C5  UNL d   1      -3.310  -1.614   4.692  0.00  0.00    -0.074 A 
ATOM      7  C6  UNL d   1      -3.424  -3.089   4.936  0.00  0.00     0.077 C 
ATOM      8  C7  UNL d   1      -2.878  -1.144   3.443  0.00  0.00    -0.001 A 
ENDROOT
TORSDOF 0
ENDMDL
