MODEL 1
REMARK minimizedAffinity 1.26981235
REMARK minimizedRMSD -1
REMARK  0 active torsions:
REMARK  status: ('A' for Active; 'I' for Inactive)
ROOT
ATOM      1  C   UNL d   1       5.434   4.129  -1.449  0.00  0.00     0.077 C 
ATOM      2  C1  UNL d   1       4.208   3.691  -0.705  0.00  0.00    -0.074 A 
ATOM      3  C2  UNL d   1       3.012   3.429  -1.380  0.00  0.00    -0.005 A 
ATOM      4  C3  UNL d   1       1.883   3.013  -0.675  0.00  0.00     0.006 A 
ATOM      5  C4  UNL d   1       1.938   2.855   0.710  0.00  0.00    -0.005 A 
ATOM      6  C5  UNL d   1       3.126   3.111   1.402  0.00  0.00    -0.074 A 
ATOM      7  C6  UNL d   1       3.205   2.937   2.890  0.00  0.00     0.077 C 
ATOM      8  C7  UNL d   1       4.258   3.522   0.686  0.00  0.00    -0.001 A 
ENDROOT
TORSDOF 0
ENDMDL
