MODEL 1
REMARK minimizedAffinity 2.38305306
REMARK minimizedRMSD -1
REMARK  0 active torsions:
REMARK  status: ('A' for Active; 'I' for Inactive)
ROOT
ATOM      1  C   UNL d   1       3.057   3.536  -0.711  0.00  0.00     0.077 C 
ATOM      2  C1  UNL d   1       3.140   3.438   0.783  0.00  0.00    -0.074 A 
ATOM      3  C2  UNL d   1       3.998   4.269   1.512  0.00  0.00    -0.005 A 
ATOM      4  C3  UNL d   1       4.058   4.172   2.902  0.00  0.00     0.006 A 
ATOM      5  C4  UNL d   1       3.262   3.246   3.577  0.00  0.00    -0.005 A 
ATOM      6  C5  UNL d   1       2.398   2.407   2.865  0.00  0.00    -0.074 A 
ATOM      7  C6  UNL d   1       1.528   1.413   3.576  0.00  0.00     0.077 C 
ATOM      8  C7  UNL d   1       2.338   2.515   1.469  0.00  0.00    -0.001 A 
ENDROOT
TORSDOF 0
ENDMDL
