MODEL 1
REMARK minimizedAffinity 2.72593331
REMARK minimizedRMSD -1
REMARK  0 active torsions:
REMARK  status: ('A' for Active; 'I' for Inactive)
ROOT
ATOM      1  C   UNL d   1      -0.893  -1.194  -0.523  0.00  0.00     0.077 C 
ATOM      2  C1  UNL d   1      -1.890  -1.964  -1.337  0.00  0.00    -0.074 A 
ATOM      3  C2  UNL d   1      -1.758  -2.068  -2.725  0.00  0.00    -0.005 A 
ATOM      4  C3  UNL d   1      -2.689  -2.795  -3.468  0.00  0.00     0.006 A 
ATOM      5  C4  UNL d   1      -3.758  -3.425  -2.831  0.00  0.00    -0.005 A 
ATOM      6  C5  UNL d   1      -3.906  -3.333  -1.443  0.00  0.00    -0.074 A 
ATOM      7  C6  UNL d   1      -5.044  -4.013  -0.742  0.00  0.00     0.077 C 
ATOM      8  C7  UNL d   1      -2.963  -2.607  -0.703  0.00  0.00    -0.001 A 
ENDROOT
TORSDOF 0
ENDMDL
