MODEL 1
REMARK minimizedAffinity 0.10938409
REMARK minimizedRMSD -1
REMARK  0 active torsions:
REMARK  status: ('A' for Active; 'I' for Inactive)
ROOT
ATOM      1  C   UNL d   1      -4.784   5.254   0.505  0.00  0.00     0.077 C 
ATOM      2  C1  UNL d   1      -4.798   5.361   2.001  0.00  0.00    -0.074 A 
ATOM      3  C2  UNL d   1      -5.893   5.915   2.672  0.00  0.00    -0.005 A 
ATOM      4  C3  UNL d   1      -5.895   5.999   4.064  0.00  0.00     0.006 A 
ATOM      5  C4  UNL d   1      -4.805   5.530   4.798  0.00  0.00    -0.005 A 
ATOM      6  C5  UNL d   1      -3.702   4.973   4.144  0.00  0.00    -0.074 A 
ATOM      7  C6  UNL d   1      -2.526   4.456   4.919  0.00  0.00     0.077 C 
ATOM      8  C7  UNL d   1      -3.710   4.885   2.746  0.00  0.00    -0.001 A 
ENDROOT
TORSDOF 0
ENDMDL
