MODEL 1
REMARK minimizedAffinity 2.27516079
REMARK minimizedRMSD -1
REMARK  0 active torsions:
REMARK  status: ('A' for Active; 'I' for Inactive)
ROOT
ATOM      1  C   UNL d   1      -2.547  -2.601  -1.870  0.00  0.00     0.077 C 
ATOM      2  C1  UNL d   1      -2.003  -1.389  -1.175  0.00  0.00    -0.074 A 
ATOM      3  C2  UNL d   1      -1.023  -0.594  -1.778  0.00  0.00    -0.005 A 
ATOM      4  C3  UNL d   1      -0.533   0.536  -1.123  0.00  0.00     0.006 A 
ATOM      5  C4  UNL d   1      -1.018   0.883   0.139  0.00  0.00    -0.005 A 
ATOM      6  C5  UNL d   1      -1.999   0.100   0.757  0.00  0.00    -0.074 A 
ATOM      7  C6  UNL d   1      -2.538   0.464   2.108  0.00  0.00     0.077 C 
ATOM      8  C7  UNL d   1      -2.491  -1.030   0.089  0.00  0.00    -0.001 A 
ENDROOT
TORSDOF 0
ENDMDL
