MODEL 1
REMARK minimizedAffinity 0.954263508
REMARK minimizedRMSD -1
REMARK  0 active torsions:
REMARK  status: ('A' for Active; 'I' for Inactive)
ROOT
ATOM      1  C   UNL d   1      -5.224   5.991   0.391  0.00  0.00     0.077 C 
ATOM      2  C1  UNL d   1      -5.234   5.413   1.774  0.00  0.00    -0.074 A 
ATOM      3  C2  UNL d   1      -5.992   6.000   2.793  0.00  0.00    -0.005 A 
ATOM      4  C3  UNL d   1      -6.000   5.445   4.073  0.00  0.00     0.006 A 
ATOM      5  C4  UNL d   1      -5.251   4.300   4.347  0.00  0.00    -0.005 A 
ATOM      6  C5  UNL d   1      -4.488   3.699   3.341  0.00  0.00    -0.074 A 
ATOM      7  C6  UNL d   1      -3.685   2.463   3.616  0.00  0.00     0.077 C 
ATOM      8  C7  UNL d   1      -4.491   4.258   2.056  0.00  0.00    -0.001 A 
ENDROOT
TORSDOF 0
ENDMDL
