MODEL 1
REMARK minimizedAffinity 2.59079099
REMARK minimizedRMSD -1
REMARK  0 active torsions:
REMARK  status: ('A' for Active; 'I' for Inactive)
ROOT
ATOM      1  C   UNL d   1       3.387   3.563   2.544  0.00  0.00     0.077 C 
ATOM      2  C1  UNL d   1       2.615   2.630   3.429  0.00  0.00    -0.074 A 
ATOM      3  C2  UNL d   1       3.175   1.426   3.867  0.00  0.00    -0.005 A 
ATOM      4  C3  UNL d   1       2.449   0.572   4.697  0.00  0.00     0.006 A 
ATOM      5  C4  UNL d   1       1.156   0.914   5.097  0.00  0.00    -0.005 A 
ATOM      6  C5  UNL d   1       0.580   2.114   4.670  0.00  0.00    -0.074 A 
ATOM      7  C6  UNL d   1      -0.804   2.501   5.100  0.00  0.00     0.077 C 
ATOM      8  C7  UNL d   1       1.319   2.970   3.842  0.00  0.00    -0.001 A 
ENDROOT
TORSDOF 0
ENDMDL
