MODEL 1
REMARK minimizedAffinity 2.74215746
REMARK minimizedRMSD -1
REMARK  0 active torsions:
REMARK  status: ('A' for Active; 'I' for Inactive)
ROOT
ATOM      1  C   UNL d   1      -1.264  -1.034  -1.066  0.00  0.00     0.077 C 
ATOM      2  C1  UNL d   1      -2.018  -1.983  -1.950  0.00  0.00    -0.074 A 
ATOM      3  C2  UNL d   1      -2.438  -3.229  -1.474  0.00  0.00    -0.005 A 
ATOM      4  C3  UNL d   1      -3.147  -4.096  -2.305  0.00  0.00     0.006 A 
ATOM      5  C4  UNL d   1      -3.442  -3.727  -3.618  0.00  0.00    -0.005 A 
ATOM      6  C5  UNL d   1      -3.031  -2.485  -4.111  0.00  0.00    -0.074 A 
ATOM      7  C6  UNL d   1      -3.348  -2.069  -5.517  0.00  0.00     0.077 C 
ATOM      8  C7  UNL d   1      -2.325  -1.616  -3.268  0.00  0.00    -0.001 A 
ENDROOT
TORSDOF 0
ENDMDL
