MODEL 1
REMARK minimizedAffinity 8.14356232
REMARK minimizedRMSD -1
REMARK  0 active torsions:
REMARK  status: ('A' for Active; 'I' for Inactive)
ROOT
ATOM      1  C   UNL d   1      -2.646  -1.308  -2.653  0.00  0.00     0.077 C 
ATOM      2  C1  UNL d   1      -1.761  -0.755  -1.576  0.00  0.00    -0.074 A 
ATOM      3  C2  UNL d   1      -1.577  -1.444  -0.372  0.00  0.00    -0.005 A 
ATOM      4  C3  UNL d   1      -0.744  -0.922   0.617  0.00  0.00     0.006 A 
ATOM      5  C4  UNL d   1      -0.086   0.292   0.412  0.00  0.00    -0.005 A 
ATOM      6  C5  UNL d   1      -0.256   0.994  -0.785  0.00  0.00    -0.074 A 
ATOM      7  C6  UNL d   1       0.451   2.295  -1.024  0.00  0.00     0.077 C 
ATOM      8  C7  UNL d   1      -1.090   0.460  -1.776  0.00  0.00    -0.001 A 
ENDROOT
TORSDOF 0
ENDMDL
