MODEL 1
REMARK minimizedAffinity 4.88455963
REMARK minimizedRMSD -1
REMARK  0 active torsions:
REMARK  status: ('A' for Active; 'I' for Inactive)
ROOT
ATOM      1  C   UNL d   1      -0.343   0.846   4.038  0.00  0.00     0.077 C 
ATOM      2  C1  UNL d   1       0.980   1.546   3.943  0.00  0.00    -0.074 A 
ATOM      3  C2  UNL d   1       1.808   1.673   5.062  0.00  0.00    -0.005 A 
ATOM      4  C3  UNL d   1       3.040   2.318   4.956  0.00  0.00     0.006 A 
ATOM      5  C4  UNL d   1       3.455   2.843   3.732  0.00  0.00    -0.005 A 
ATOM      6  C5  UNL d   1       2.641   2.725   2.601  0.00  0.00    -0.074 A 
ATOM      7  C6  UNL d   1       3.076   3.274   1.275  0.00  0.00     0.077 C 
ATOM      8  C7  UNL d   1       1.407   2.068   2.714  0.00  0.00    -0.001 A 
ENDROOT
TORSDOF 0
ENDMDL
