MODEL 1
REMARK minimizedAffinity -2.04648757
REMARK minimizedRMSD -1
REMARK  0 active torsions:
REMARK  status: ('A' for Active; 'I' for Inactive)
ROOT
ATOM      1  O1  BZF d   1       0.767   0.122   1.591  0.00  0.00    -0.204 OA
ATOM      2  C2  BZF d   1       0.480  -0.572   0.431  0.00  0.00     0.174 A 
ATOM      3  C3  BZF d   1       0.129   0.275  -0.558  0.00  0.00    -0.012 A 
ATOM      4  C3A BZF d   1       0.290   1.586  -0.006  0.00  0.00    -0.107 A 
ATOM      5  C4  BZF d   1       0.112   2.843  -0.507  0.00  0.00     0.055 A 
ATOM      6  C5  BZF d   1       0.286   3.912   0.314  0.00  0.00    -0.016 A 
ATOM      7  C6  BZF d   1       0.632   3.760   1.641  0.00  0.00     0.022 A 
ATOM      8  C7  BZF d   1       0.825   2.532   2.182  0.00  0.00     0.029 A 
ATOM      9  C7A BZF d   1       0.682   1.451   1.346  0.00  0.00     0.058 A 
ENDROOT
TORSDOF 0
ENDMDL
