MODEL 1
REMARK minimizedAffinity 4.75440979
REMARK minimizedRMSD -1
REMARK  0 active torsions:
REMARK  status: ('A' for Active; 'I' for Inactive)
ROOT
ATOM      1  O1  BZF d   1      -1.770   4.016  -0.163  0.00  0.00    -0.204 OA
ATOM      2  C2  BZF d   1      -0.881   4.247  -1.195  0.00  0.00     0.174 A 
ATOM      3  C3  BZF d   1       0.233   3.502  -1.043  0.00  0.00    -0.012 A 
ATOM      4  C3A BZF d   1      -0.012   2.690   0.109  0.00  0.00    -0.107 A 
ATOM      5  C4  BZF d   1       0.717   1.732   0.755  0.00  0.00     0.055 A 
ATOM      6  C5  BZF d   1       0.222   1.182   1.894  0.00  0.00    -0.016 A 
ATOM      7  C6  BZF d   1      -0.994   1.568   2.419  0.00  0.00     0.022 A 
ATOM      8  C7  BZF d   1      -1.755   2.511   1.811  0.00  0.00     0.029 A 
ATOM      9  C7A BZF d   1      -1.273   3.046   0.642  0.00  0.00     0.058 A 
ENDROOT
TORSDOF 0
ENDMDL
