MODEL 1
REMARK minimizedAffinity 7.51409864
REMARK minimizedRMSD -1
REMARK  0 active torsions:
REMARK  status: ('A' for Active; 'I' for Inactive)
ROOT
ATOM      1  O1  BZF d   1      -0.067   1.560  -0.573  0.00  0.00    -0.204 OA
ATOM      2  C2  BZF d   1      -0.190   2.230  -1.775  0.00  0.00     0.174 A 
ATOM      3  C3  BZF d   1      -0.935   3.344  -1.627  0.00  0.00    -0.012 A 
ATOM      4  C3A BZF d   1      -1.224   3.421  -0.228  0.00  0.00    -0.107 A 
ATOM      5  C4  BZF d   1      -1.915   4.313   0.541  0.00  0.00     0.055 A 
ATOM      6  C5  BZF d   1      -2.074   4.060   1.866  0.00  0.00    -0.016 A 
ATOM      7  C6  BZF d   1      -1.560   2.923   2.454  0.00  0.00     0.022 A 
ATOM      8  C7  BZF d   1      -0.863   2.011   1.734  0.00  0.00     0.029 A 
ATOM      9  C7A BZF d   1      -0.673   2.280   0.401  0.00  0.00     0.058 A 
ENDROOT
TORSDOF 0
ENDMDL
