MODEL 1
REMARK minimizedAffinity 4.01598883
REMARK minimizedRMSD -1
REMARK  0 active torsions:
REMARK  status: ('A' for Active; 'I' for Inactive)
ROOT
ATOM      1  O1  BZF d   1       0.562   0.267  -1.345  0.00  0.00    -0.204 OA
ATOM      2  C2  BZF d   1      -0.008   0.908  -2.428  0.00  0.00     0.174 A 
ATOM      3  C3  BZF d   1      -0.747   1.962  -2.025  0.00  0.00    -0.012 A 
ATOM      4  C3A BZF d   1      -0.557   2.036  -0.609  0.00  0.00    -0.107 A 
ATOM      5  C4  BZF d   1      -1.019   2.882   0.357  0.00  0.00     0.055 A 
ATOM      6  C5  BZF d   1      -0.705   2.637   1.656  0.00  0.00    -0.016 A 
ATOM      7  C6  BZF d   1       0.064   1.552   2.024  0.00  0.00     0.022 A 
ATOM      8  C7  BZF d   1       0.550   0.688   1.101  0.00  0.00     0.029 A 
ATOM      9  C7A BZF d   1       0.262   0.952  -0.216  0.00  0.00     0.058 A 
ENDROOT
TORSDOF 0
ENDMDL
