MODEL 1
REMARK minimizedAffinity 7.56143999
REMARK minimizedRMSD -1
REMARK  0 active torsions:
REMARK  status: ('A' for Active; 'I' for Inactive)
ROOT
ATOM      1  O1  BZF d   1       0.207   1.604  -2.656  0.00  0.00    -0.204 OA
ATOM      2  C2  BZF d   1       0.426   0.396  -2.022  0.00  0.00     0.174 A 
ATOM      3  C3  BZF d   1       0.058   0.462  -0.726  0.00  0.00    -0.012 A 
ATOM      4  C3A BZF d   1      -0.507   1.766  -0.561  0.00  0.00    -0.107 A 
ATOM      5  C4  BZF d   1      -1.065   2.420   0.500  0.00  0.00     0.055 A 
ATOM      6  C5  BZF d   1      -1.454   3.714   0.348  0.00  0.00    -0.016 A 
ATOM      7  C6  BZF d   1      -1.296   4.384  -0.847  0.00  0.00     0.022 A 
ATOM      8  C7  BZF d   1      -0.752   3.775  -1.929  0.00  0.00     0.029 A 
ATOM      9  C7A BZF d   1      -0.388   2.458  -1.789  0.00  0.00     0.058 A 
ENDROOT
TORSDOF 0
ENDMDL
