MODEL 1
REMARK minimizedAffinity 8.40999699
REMARK minimizedRMSD -1
REMARK  0 active torsions:
REMARK  status: ('A' for Active; 'I' for Inactive)
ROOT
ATOM      1  O1  BZF d   1      -1.212   1.957   3.299  0.00  0.00    -0.204 OA
ATOM      2  C2  BZF d   1      -0.419   0.860   3.023  0.00  0.00     0.174 A 
ATOM      3  C3  BZF d   1       0.014   0.891   1.746  0.00  0.00    -0.012 A 
ATOM      4  C3A BZF d   1      -0.466   2.130   1.216  0.00  0.00    -0.107 A 
ATOM      5  C4  BZF d   1      -0.347   2.740  -0.000  0.00  0.00     0.055 A 
ATOM      6  C5  BZF d   1      -0.998   3.913  -0.217  0.00  0.00    -0.016 A 
ATOM      7  C6  BZF d   1      -1.778   4.502   0.757  0.00  0.00     0.022 A 
ATOM      8  C7  BZF d   1      -1.922   3.937   1.981  0.00  0.00     0.029 A 
ATOM      9  C7A BZF d   1      -1.239   2.768   2.214  0.00  0.00     0.058 A 
ENDROOT
TORSDOF 0
ENDMDL
