MODEL 1
REMARK minimizedAffinity -0.703808665
REMARK minimizedRMSD -1
REMARK  0 active torsions:
REMARK  status: ('A' for Active; 'I' for Inactive)
ROOT
ATOM      1  O1  BZF d   1       0.711   3.198   3.303  0.00  0.00    -0.204 OA
ATOM      2  C2  BZF d   1       1.876   3.713   2.768  0.00  0.00     0.174 A 
ATOM      3  C3  BZF d   1       1.719   3.989   1.457  0.00  0.00    -0.012 A 
ATOM      4  C3A BZF d   1       0.344   3.711   1.176  0.00  0.00    -0.107 A 
ATOM      5  C4  BZF d   1      -0.421   3.805   0.049  0.00  0.00     0.055 A 
ATOM      6  C5  BZF d   1      -1.713   3.386   0.091  0.00  0.00    -0.016 A 
ATOM      7  C6  BZF d   1      -2.269   2.862   1.239  0.00  0.00     0.022 A 
ATOM      8  C7  BZF d   1      -1.551   2.754   2.383  0.00  0.00     0.029 A 
ATOM      9  C7A BZF d   1      -0.255   3.207   2.353  0.00  0.00     0.058 A 
ENDROOT
TORSDOF 0
ENDMDL
