MODEL 1
REMARK minimizedAffinity 4.02762508
REMARK minimizedRMSD -1
REMARK  0 active torsions:
REMARK  status: ('A' for Active; 'I' for Inactive)
ROOT
ATOM      1  O1  BZF d   1       4.491  -3.566  -2.191  0.00  0.00    -0.204 OA
ATOM      2  C2  BZF d   1       4.034  -4.869  -2.210  0.00  0.00     0.174 A 
ATOM      3  C3  BZF d   1       2.769  -4.940  -1.747  0.00  0.00    -0.012 A 
ATOM      4  C3A BZF d   1       2.381  -3.584  -1.504  0.00  0.00    -0.107 A 
ATOM      5  C4  BZF d   1       1.231  -3.004  -1.052  0.00  0.00     0.055 A 
ATOM      6  C5  BZF d   1       1.202  -1.659  -0.858  0.00  0.00    -0.016 A 
ATOM      7  C6  BZF d   1       2.305  -0.866  -1.101  0.00  0.00     0.022 A 
ATOM      8  C7  BZF d   1       3.466  -1.396  -1.555  0.00  0.00     0.029 A 
ATOM      9  C7A BZF d   1       3.489  -2.750  -1.784  0.00  0.00     0.058 A 
ENDROOT
TORSDOF 0
ENDMDL
