MODEL 1
REMARK minimizedAffinity 4.34810591
REMARK minimizedRMSD -1
REMARK  0 active torsions:
REMARK  status: ('A' for Active; 'I' for Inactive)
ROOT
ATOM      1  O1  BZF d   1       1.117   0.369  -1.342  0.00  0.00    -0.204 OA
ATOM      2  C2  BZF d   1       1.555  -0.940  -1.294  0.00  0.00     0.174 A 
ATOM      3  C3  BZF d   1       1.489  -1.421  -0.036  0.00  0.00    -0.012 A 
ATOM      4  C3A BZF d   1       0.891  -0.375   0.736  0.00  0.00    -0.107 A 
ATOM      5  C4  BZF d   1       0.547  -0.259   2.052  0.00  0.00     0.055 A 
ATOM      6  C5  BZF d   1       0.049   0.922   2.503  0.00  0.00    -0.016 A 
ATOM      7  C6  BZF d   1      -0.115   2.007   1.667  0.00  0.00     0.022 A 
ATOM      8  C7  BZF d   1       0.207   1.938   0.352  0.00  0.00     0.029 A 
ATOM      9  C7A BZF d   1       0.680   0.736  -0.113  0.00  0.00     0.058 A 
ENDROOT
TORSDOF 0
ENDMDL
