MODEL 1
REMARK minimizedAffinity 17.6177921
REMARK minimizedRMSD -1
REMARK  0 active torsions:
REMARK  status: ('A' for Active; 'I' for Inactive)
ROOT
ATOM      1  C2' OXE d   1       3.595   2.780   1.116  0.00  0.00     0.078 C 
ATOM      2  C1' OXE d   1       4.302   1.980   3.713  0.00  0.00     0.078 C 
ATOM      3  C1  OXE d   1       4.596   3.404   3.311  0.00  0.00    -0.078 A 
ATOM      4  C2  OXE d   1       4.289   3.773   2.023  0.00  0.00    -0.078 A 
ATOM      5  C3  OXE d   1       4.489   5.089   1.618  0.00  0.00     0.003 A 
ATOM      6  C4  OXE d   1       5.141   5.999   2.459  0.00  0.00    -0.002 A 
ATOM      7  C5  OXE d   1       5.497   5.632   3.761  0.00  0.00    -0.002 A 
ATOM      8  C6  OXE d   1       5.194   4.354   4.216  0.00  0.00     0.003 A 
ENDROOT
TORSDOF 0
ENDMDL
