MODEL 1
REMARK minimizedAffinity 16.817997
REMARK minimizedRMSD -1
REMARK  0 active torsions:
REMARK  status: ('A' for Active; 'I' for Inactive)
ROOT
ATOM      1  C2' OXE d   1       2.936   1.340   4.119  0.00  0.00     0.078 C 
ATOM      2  C1' OXE d   1       0.404   1.538   5.313  0.00  0.00     0.078 C 
ATOM      3  C1  OXE d   1       0.542   0.653   4.100  0.00  0.00    -0.078 A 
ATOM      4  C2  OXE d   1       1.774   0.598   3.494  0.00  0.00    -0.078 A 
ATOM      5  C3  OXE d   1       1.970  -0.246   2.405  0.00  0.00     0.003 A 
ATOM      6  C4  OXE d   1       0.888  -0.920   1.827  0.00  0.00    -0.002 A 
ATOM      7  C5  OXE d   1      -0.384  -0.847   2.405  0.00  0.00    -0.002 A 
ATOM      8  C6  OXE d   1      -0.565  -0.101   3.564  0.00  0.00     0.003 A 
ENDROOT
TORSDOF 0
ENDMDL
