MODEL 1
REMARK minimizedAffinity 10.0044994
REMARK minimizedRMSD -1
REMARK  0 active torsions:
REMARK  status: ('A' for Active; 'I' for Inactive)
ROOT
ATOM      1  C2' OXE d   1       4.444   1.928   4.280  0.00  0.00     0.078 C 
ATOM      2  C1' OXE d   1       4.276   1.027   1.626  0.00  0.00     0.078 C 
ATOM      3  C1  OXE d   1       4.042   2.494   1.888  0.00  0.00    -0.078 A 
ATOM      4  C2  OXE d   1       4.080   2.917   3.194  0.00  0.00    -0.078 A 
ATOM      5  C3  OXE d   1       3.926   4.270   3.486  0.00  0.00     0.003 A 
ATOM      6  C4  OXE d   1       3.580   5.177   2.477  0.00  0.00    -0.002 A 
ATOM      7  C5  OXE d   1       3.497   4.759   1.144  0.00  0.00    -0.002 A 
ATOM      8  C6  OXE d   1       3.766   3.433   0.828  0.00  0.00     0.003 A 
ENDROOT
TORSDOF 0
ENDMDL
