MODEL 1
REMARK minimizedAffinity 9.58165169
REMARK minimizedRMSD -1
REMARK  0 active torsions:
REMARK  status: ('A' for Active; 'I' for Inactive)
ROOT
ATOM      1  C2' OXE d   1      -1.726  -1.095  -3.102  0.00  0.00     0.078 C 
ATOM      2  C1' OXE d   1       0.357  -0.525  -4.896  0.00  0.00     0.078 C 
ATOM      3  C1  OXE d   1      -0.314  -1.872  -5.002  0.00  0.00    -0.078 A 
ATOM      4  C2  OXE d   1      -1.301  -2.160  -4.090  0.00  0.00    -0.078 A 
ATOM      5  C3  OXE d   1      -1.990  -3.366  -4.178  0.00  0.00     0.003 A 
ATOM      6  C4  OXE d   1      -1.584  -4.350  -5.088  0.00  0.00    -0.002 A 
ATOM      7  C5  OXE d   1      -0.555  -4.092  -5.999  0.00  0.00    -0.002 A 
ATOM      8  C6  OXE d   1       0.061  -2.845  -5.998  0.00  0.00     0.003 A 
ENDROOT
TORSDOF 0
ENDMDL
