MODEL 1
REMARK minimizedAffinity 9.01954079
REMARK minimizedRMSD -1
REMARK  0 active torsions:
REMARK  status: ('A' for Active; 'I' for Inactive)
ROOT
ATOM      1  C2' OXE d   1       3.301   5.428   5.954  0.00  0.00     0.078 C 
ATOM      2  C1' OXE d   1       5.563   6.000   4.393  0.00  0.00     0.078 C 
ATOM      3  C1  OXE d   1       5.224   4.550   4.635  0.00  0.00    -0.078 A 
ATOM      4  C2  OXE d   1       4.142   4.280   5.439  0.00  0.00    -0.078 A 
ATOM      5  C3  OXE d   1       3.752   2.961   5.649  0.00  0.00     0.003 A 
ATOM      6  C4  OXE d   1       4.542   1.905   5.178  0.00  0.00    -0.002 A 
ATOM      7  C5  OXE d   1       5.670   2.158   4.391  0.00  0.00    -0.002 A 
ATOM      8  C6  OXE d   1       6.000   3.472   4.076  0.00  0.00     0.003 A 
ENDROOT
TORSDOF 0
ENDMDL
