MODEL 1
REMARK minimizedAffinity 6.90004683
REMARK minimizedRMSD -1
REMARK  0 active torsions:
REMARK  status: ('A' for Active; 'I' for Inactive)
ROOT
ATOM      1  C2' OXE d   1       1.873  -1.932   4.536  0.00  0.00     0.078 C 
ATOM      2  C1' OXE d   1       2.434   0.814   4.690  0.00  0.00     0.078 C 
ATOM      3  C1  OXE d   1       1.259   0.383   3.849  0.00  0.00    -0.078 A 
ATOM      4  C2  OXE d   1       1.020  -0.966   3.742  0.00  0.00    -0.078 A 
ATOM      5  C3  OXE d   1      -0.084  -1.415   3.023  0.00  0.00     0.003 A 
ATOM      6  C4  OXE d   1      -0.862  -0.517   2.283  0.00  0.00    -0.002 A 
ATOM      7  C5  OXE d   1      -0.611   0.858   2.347  0.00  0.00    -0.002 A 
ATOM      8  C6  OXE d   1       0.417   1.327   3.157  0.00  0.00     0.003 A 
ENDROOT
TORSDOF 0
ENDMDL
