MODEL 1
REMARK minimizedAffinity 8.4939785
REMARK minimizedRMSD -1
REMARK  0 active torsions:
REMARK  status: ('A' for Active; 'I' for Inactive)
ROOT
ATOM      1  C2' OXE d   1       1.959   1.812   5.758  0.00  0.00     0.078 C 
ATOM      2  C1' OXE d   1       2.721   4.507   5.948  0.00  0.00     0.078 C 
ATOM      3  C1  OXE d   1       3.748   3.518   5.454  0.00  0.00    -0.078 A 
ATOM      4  C2  OXE d   1       3.381   2.195   5.408  0.00  0.00    -0.078 A 
ATOM      5  C3  OXE d   1       4.272   1.249   4.909  0.00  0.00     0.003 A 
ATOM      6  C4  OXE d   1       5.588   1.610   4.597  0.00  0.00    -0.002 A 
ATOM      7  C5  OXE d   1       5.995   2.946   4.674  0.00  0.00    -0.002 A 
ATOM      8  C6  OXE d   1       5.077   3.917   5.059  0.00  0.00     0.003 A 
ENDROOT
TORSDOF 0
ENDMDL
