MODEL 1
REMARK minimizedAffinity 9.05014324
REMARK minimizedRMSD -1
REMARK  0 active torsions:
REMARK  status: ('A' for Active; 'I' for Inactive)
ROOT
ATOM      1  C2' OXE d   1      -1.750  -0.352   2.263  0.00  0.00     0.078 C 
ATOM      2  C1' OXE d   1       0.853   0.593   1.803  0.00  0.00     0.078 C 
ATOM      3  C1  OXE d   1       0.693  -0.647   2.647  0.00  0.00    -0.078 A 
ATOM      4  C2  OXE d   1      -0.587  -1.075   2.906  0.00  0.00    -0.078 A 
ATOM      5  C3  OXE d   1      -0.788  -2.244   3.634  0.00  0.00     0.003 A 
ATOM      6  C4  OXE d   1       0.293  -2.901   4.234  0.00  0.00    -0.002 A 
ATOM      7  C5  OXE d   1       1.602  -2.459   4.016  0.00  0.00    -0.002 A 
ATOM      8  C6  OXE d   1       1.822  -1.360   3.192  0.00  0.00     0.003 A 
ENDROOT
TORSDOF 0
ENDMDL
