MODEL 1
REMARK minimizedAffinity 5.83929062
REMARK minimizedRMSD -1
REMARK  0 active torsions:
REMARK  status: ('A' for Active; 'I' for Inactive)
ROOT
ATOM      1  C2' OXE d   1      -0.083   1.268   2.569  0.00  0.00     0.078 C 
ATOM      2  C1' OXE d   1      -1.815  -0.938   2.445  0.00  0.00     0.078 C 
ATOM      3  C1  OXE d   1      -0.470  -1.136   3.097  0.00  0.00    -0.078 A 
ATOM      4  C2  OXE d   1       0.390  -0.064   3.112  0.00  0.00    -0.078 A 
ATOM      5  C3  OXE d   1       1.622  -0.176   3.749  0.00  0.00     0.003 A 
ATOM      6  C4  OXE d   1       2.056  -1.414   4.239  0.00  0.00    -0.002 A 
ATOM      7  C5  OXE d   1       1.212  -2.529   4.199  0.00  0.00    -0.002 A 
ATOM      8  C6  OXE d   1      -0.067  -2.396   3.671  0.00  0.00     0.003 A 
ENDROOT
TORSDOF 0
ENDMDL
