MODEL 1
REMARK minimizedAffinity 16.5731602
REMARK minimizedRMSD -1
REMARK  0 active torsions:
REMARK  status: ('A' for Active; 'I' for Inactive)
ROOT
ATOM      1  C2' OXE d   1      -1.520  -2.996  -2.051  0.00  0.00     0.078 C 
ATOM      2  C1' OXE d   1      -1.844  -3.727  -4.742  0.00  0.00     0.078 C 
ATOM      3  C1  OXE d   1      -1.002  -2.512  -4.439  0.00  0.00    -0.078 A 
ATOM      4  C2  OXE d   1      -0.887  -2.135  -3.123  0.00  0.00    -0.078 A 
ATOM      5  C3  OXE d   1      -0.078  -1.055  -2.784  0.00  0.00     0.003 A 
ATOM      6  C4  OXE d   1       0.496  -0.258  -3.782  0.00  0.00    -0.002 A 
ATOM      7  C5  OXE d   1       0.358  -0.601  -5.131  0.00  0.00    -0.002 A 
ATOM      8  C6  OXE d   1      -0.351  -1.747  -5.473  0.00  0.00     0.003 A 
ENDROOT
TORSDOF 0
ENDMDL
