MODEL 1
REMARK minimizedAffinity -2.93192196
REMARK minimizedRMSD -1
REMARK  0 active torsions:
REMARK  status: ('A' for Active; 'I' for Inactive)
ROOT
ATOM      1  C1  BNZ d   1      -0.815  -0.103   1.864  0.00  0.00     0.000 A 
ATOM      2  C2  BNZ d   1      -0.412  -0.762   2.995  0.00  0.00     0.000 A 
ATOM      3  C3  BNZ d   1       0.891  -1.139   3.159  0.00  0.00     0.000 A 
ATOM      4  C4  BNZ d   1       1.781  -0.893   2.176  0.00  0.00     0.000 A 
ATOM      5  C5  BNZ d   1       1.389  -0.238   1.025  0.00  0.00     0.000 A 
ATOM      6  C6  BNZ d   1       0.084   0.174   0.881  0.00  0.00     0.000 A 
ENDROOT
TORSDOF 0
ENDMDL
