MODEL 1
REMARK minimizedAffinity -3.4367528
REMARK minimizedRMSD -1
REMARK  0 active torsions:
REMARK  status: ('A' for Active; 'I' for Inactive)
ROOT
ATOM      1  C1  BNZ d   1       0.850  -0.259  -0.254  0.00  0.00     0.000 A 
ATOM      2  C2  BNZ d   1       1.785  -0.432   0.731  0.00  0.00     0.000 A 
ATOM      3  C3  BNZ d   1       1.425  -0.414   2.049  0.00  0.00     0.000 A 
ATOM      4  C4  BNZ d   1       0.139  -0.183   2.382  0.00  0.00     0.000 A 
ATOM      5  C5  BNZ d   1      -0.815   0.002   1.401  0.00  0.00     0.000 A 
ATOM      6  C6  BNZ d   1      -0.455  -0.056   0.074  0.00  0.00     0.000 A 
ENDROOT
TORSDOF 0
ENDMDL
