MODEL 1
REMARK minimizedAffinity -4.13231993
REMARK minimizedRMSD -1
REMARK  0 active torsions:
REMARK  status: ('A' for Active; 'I' for Inactive)
ROOT
ATOM      1  C1  BNZ d   1      -1.081  -0.363   1.303  0.00  0.00     0.000 A 
ATOM      2  C2  BNZ d   1      -0.190  -0.423   2.341  0.00  0.00     0.000 A 
ATOM      3  C3  BNZ d   1       1.131  -0.129   2.148  0.00  0.00     0.000 A 
ATOM      4  C4  BNZ d   1       1.566   0.186   0.911  0.00  0.00     0.000 A 
ATOM      5  C5  BNZ d   1       0.682   0.242  -0.148  0.00  0.00     0.000 A 
ATOM      6  C6  BNZ d   1      -0.654  -0.017   0.058  0.00  0.00     0.000 A 
ENDROOT
TORSDOF 0
ENDMDL
