MODEL 1
REMARK minimizedAffinity -3.49315143
REMARK minimizedRMSD -1
REMARK  0 active torsions:
REMARK  status: ('A' for Active; 'I' for Inactive)
ROOT
ATOM      1  C1  BNZ d   1      -0.859  -0.399   1.453  0.00  0.00     0.000 A 
ATOM      2  C2  BNZ d   1      -0.303  -1.003   2.549  0.00  0.00     0.000 A 
ATOM      3  C3  BNZ d   1       1.035  -0.890   2.807  0.00  0.00     0.000 A 
ATOM      4  C4  BNZ d   1       1.820  -0.208   1.949  0.00  0.00     0.000 A 
ATOM      5  C5  BNZ d   1       1.277   0.398   0.834  0.00  0.00     0.000 A 
ATOM      6  C6  BNZ d   1      -0.077   0.316   0.598  0.00  0.00     0.000 A 
ENDROOT
TORSDOF 0
ENDMDL
