MODEL 1
REMARK minimizedAffinity -2.62637758
REMARK minimizedRMSD -1
REMARK  0 active torsions:
REMARK  status: ('A' for Active; 'I' for Inactive)
ROOT
ATOM      1  C   UNL d   1       1.246   0.001  -1.156  0.00  0.00     0.078 C 
ATOM      2  C1  UNL d   1       0.447   0.155   0.104  0.00  0.00    -0.077 A 
ATOM      3  C2  UNL d   1      -0.303   1.312   0.345  0.00  0.00    -0.001 A 
ATOM      4  C3  UNL d   1      -1.034   1.445   1.527  0.00  0.00     0.003 A 
ATOM      5  C4  UNL d   1      -1.020   0.426   2.477  0.00  0.00    -0.005 A 
ATOM      6  C5  UNL d   1      -0.274  -0.728   2.247  0.00  0.00     0.003 A 
ATOM      7  C6  UNL d   1       0.457  -0.863   1.066  0.00  0.00    -0.001 A 
ENDROOT
TORSDOF 0
ENDMDL
