MODEL 1
REMARK minimizedAffinity -4.47455645
REMARK minimizedRMSD -1
REMARK  0 active torsions:
REMARK  status: ('A' for Active; 'I' for Inactive)
ROOT
ATOM      1  C   UNL d   1      -0.114   3.733   1.481  0.00  0.00     0.078 C 
ATOM      2  C1  UNL d   1      -0.287   2.245   1.558  0.00  0.00    -0.077 A 
ATOM      3  C2  UNL d   1      -1.072   1.660   2.559  0.00  0.00    -0.001 A 
ATOM      4  C3  UNL d   1      -1.216   0.274   2.623  0.00  0.00     0.003 A 
ATOM      5  C4  UNL d   1      -0.577  -0.540   1.690  0.00  0.00    -0.005 A 
ATOM      6  C5  UNL d   1       0.208   0.032   0.692  0.00  0.00     0.003 A 
ATOM      7  C6  UNL d   1       0.354   1.418   0.626  0.00  0.00    -0.001 A 
ENDROOT
TORSDOF 0
ENDMDL
