MODEL 1
REMARK minimizedAffinity -1.15478683
REMARK minimizedRMSD -1
REMARK  0 active torsions:
REMARK  status: ('A' for Active; 'I' for Inactive)
ROOT
ATOM      1  C   UNL d   1       0.727  -1.048  -0.758  0.00  0.00     0.078 C 
ATOM      2  C1  UNL d   1       0.249  -0.142   0.337  0.00  0.00    -0.077 A 
ATOM      3  C2  UNL d   1      -0.239  -0.663   1.542  0.00  0.00    -0.001 A 
ATOM      4  C3  UNL d   1      -0.690   0.192   2.549  0.00  0.00     0.003 A 
ATOM      5  C4  UNL d   1      -0.660   1.572   2.361  0.00  0.00    -0.005 A 
ATOM      6  C5  UNL d   1      -0.178   2.099   1.165  0.00  0.00     0.003 A 
ATOM      7  C6  UNL d   1       0.274   1.246   0.157  0.00  0.00    -0.001 A 
ENDROOT
TORSDOF 0
ENDMDL
