MODEL 1
REMARK minimizedAffinity -4.7349658
REMARK minimizedRMSD -1
REMARK  0 active torsions:
REMARK  status: ('A' for Active; 'I' for Inactive)
ROOT
ATOM      1  C   UNL d   1       0.548   3.454  -0.778  0.00  0.00     0.078 C 
ATOM      2  C1  UNL d   1       0.068   2.368   0.138  0.00  0.00    -0.077 A 
ATOM      3  C2  UNL d   1       0.315   1.020  -0.150  0.00  0.00    -0.001 A 
ATOM      4  C3  UNL d   1      -0.146   0.019   0.707  0.00  0.00     0.003 A 
ATOM      5  C4  UNL d   1      -0.857   0.356   1.857  0.00  0.00    -0.005 A 
ATOM      6  C5  UNL d   1      -1.109   1.694   2.151  0.00  0.00     0.003 A 
ATOM      7  C6  UNL d   1      -0.649   2.696   1.295  0.00  0.00    -0.001 A 
ENDROOT
TORSDOF 0
ENDMDL
