MODEL 1
REMARK minimizedAffinity -3.97054172
REMARK minimizedRMSD -1
REMARK  0 active torsions:
REMARK  status: ('A' for Active; 'I' for Inactive)
ROOT
ATOM      1  C   UNL d   1      -0.495  -1.248  -1.404  0.00  0.00     0.078 C 
ATOM      2  C1  UNL d   1      -0.502  -0.624  -0.041  0.00  0.00    -0.077 A 
ATOM      3  C2  UNL d   1       0.124  -1.252   1.043  0.00  0.00    -0.001 A 
ATOM      4  C3  UNL d   1       0.101  -0.664   2.309  0.00  0.00     0.003 A 
ATOM      5  C4  UNL d   1      -0.548   0.554   2.503  0.00  0.00    -0.005 A 
ATOM      6  C5  UNL d   1      -1.176   1.185   1.431  0.00  0.00     0.003 A 
ATOM      7  C6  UNL d   1      -1.154   0.598   0.165  0.00  0.00    -0.001 A 
ENDROOT
TORSDOF 0
ENDMDL
