MODEL 1
REMARK minimizedAffinity 0.864823163
REMARK minimizedRMSD -1
REMARK  0 active torsions:
REMARK  status: ('A' for Active; 'I' for Inactive)
ROOT
ATOM      1  C   UNL d   1       0.613   5.911   0.686  0.00  0.00     0.078 C 
ATOM      2  C1  UNL d   1       0.329   4.705   1.531  0.00  0.00    -0.077 A 
ATOM      3  C2  UNL d   1       0.807   4.615   2.844  0.00  0.00    -0.001 A 
ATOM      4  C3  UNL d   1       0.543   3.482   3.615  0.00  0.00     0.003 A 
ATOM      5  C4  UNL d   1      -0.198   2.429   3.081  0.00  0.00    -0.005 A 
ATOM      6  C5  UNL d   1      -0.676   2.509   1.775  0.00  0.00     0.003 A 
ATOM      7  C6  UNL d   1      -0.413   3.641   1.002  0.00  0.00    -0.001 A 
ENDROOT
TORSDOF 0
ENDMDL
