MODEL 1
REMARK minimizedAffinity -3.52876234
REMARK minimizedRMSD -1
REMARK  0 active torsions:
REMARK  status: ('A' for Active; 'I' for Inactive)
ROOT
ATOM      1  C   UNL d   1       1.192  -0.706  -1.112  0.00  0.00     0.078 C 
ATOM      2  C1  UNL d   1       0.379   0.024  -0.084  0.00  0.00    -0.077 A 
ATOM      3  C2  UNL d   1      -0.166   1.284  -0.358  0.00  0.00    -0.001 A 
ATOM      4  C3  UNL d   1      -0.912   1.956   0.612  0.00  0.00     0.003 A 
ATOM      5  C4  UNL d   1      -1.120   1.376   1.862  0.00  0.00    -0.005 A 
ATOM      6  C5  UNL d   1      -0.580   0.123   2.144  0.00  0.00     0.003 A 
ATOM      7  C6  UNL d   1       0.167  -0.550   1.176  0.00  0.00    -0.001 A 
ENDROOT
TORSDOF 0
ENDMDL
