MODEL 1
REMARK minimizedAffinity -4.82668781
REMARK minimizedRMSD -1
REMARK  0 active torsions:
REMARK  status: ('A' for Active; 'I' for Inactive)
ROOT
ATOM      1  C   UNL d   1       0.843  -1.095  -0.851  0.00  0.00     0.078 C 
ATOM      2  C1  UNL d   1       0.254  -0.405   0.343  0.00  0.00    -0.077 A 
ATOM      3  C2  UNL d   1      -0.079   0.954   0.299  0.00  0.00    -0.001 A 
ATOM      4  C3  UNL d   1      -0.618   1.586   1.420  0.00  0.00     0.003 A 
ATOM      5  C4  UNL d   1      -0.828   0.867   2.595  0.00  0.00    -0.005 A 
ATOM      6  C5  UNL d   1      -0.498  -0.486   2.649  0.00  0.00     0.003 A 
ATOM      7  C6  UNL d   1       0.041  -1.119   1.529  0.00  0.00    -0.001 A 
ENDROOT
TORSDOF 0
ENDMDL
