MODEL 1
REMARK minimizedAffinity -3.03841782
REMARK minimizedRMSD -1
REMARK  0 active torsions:
REMARK  status: ('A' for Active; 'I' for Inactive)
ROOT
ATOM      1  C   UNL d   1       0.034   3.490  -0.064  0.00  0.00     0.078 C 
ATOM      2  C1  UNL d   1      -0.120   2.069   0.389  0.00  0.00    -0.077 A 
ATOM      3  C2  UNL d   1       0.243   1.004  -0.445  0.00  0.00    -0.001 A 
ATOM      4  C3  UNL d   1       0.085  -0.315  -0.015  0.00  0.00     0.003 A 
ATOM      5  C4  UNL d   1      -0.436  -0.580   1.250  0.00  0.00    -0.005 A 
ATOM      6  C5  UNL d   1      -0.802   0.473   2.086  0.00  0.00     0.003 A 
ATOM      7  C6  UNL d   1      -0.645   1.792   1.657  0.00  0.00    -0.001 A 
ENDROOT
TORSDOF 0
ENDMDL
