MODEL 1
REMARK minimizedAffinity -3.1405828
REMARK minimizedRMSD -1
REMARK  0 active torsions:
REMARK  status: ('A' for Active; 'I' for Inactive)
ROOT
ATOM      1  C   UNL d   1       0.733   0.747  -1.694  0.00  0.00     0.078 C 
ATOM      2  C1  UNL d   1       0.622  -0.727  -1.944  0.00  0.00    -0.077 A 
ATOM      3  C2  UNL d   1       1.092  -1.655  -1.006  0.00  0.00    -0.001 A 
ATOM      4  C3  UNL d   1       0.991  -3.024  -1.256  0.00  0.00     0.003 A 
ATOM      5  C4  UNL d   1       0.422  -3.479  -2.443  0.00  0.00    -0.005 A 
ATOM      6  C5  UNL d   1      -0.047  -2.563  -3.384  0.00  0.00     0.003 A 
ATOM      7  C6  UNL d   1       0.053  -1.193  -3.136  0.00  0.00    -0.001 A 
ENDROOT
TORSDOF 0
ENDMDL
