MODEL 1
REMARK minimizedAffinity 2.49926639
REMARK minimizedRMSD -1
REMARK  0 active torsions:
REMARK  status: ('A' for Active; 'I' for Inactive)
ROOT
ATOM      1  C   UNL d   1      -0.078   0.008  -1.136  0.00  0.00     0.078 C 
ATOM      2  C1  UNL d   1      -0.126  -0.125   0.357  0.00  0.00    -0.077 A 
ATOM      3  C2  UNL d   1      -1.179   0.425   1.097  0.00  0.00    -0.001 A 
ATOM      4  C3  UNL d   1      -1.205   0.302   2.487  0.00  0.00     0.003 A 
ATOM      5  C4  UNL d   1      -0.180  -0.370   3.149  0.00  0.00    -0.005 A 
ATOM      6  C5  UNL d   1       0.874  -0.919   2.422  0.00  0.00     0.003 A 
ATOM      7  C6  UNL d   1       0.902  -0.797   1.031  0.00  0.00    -0.001 A 
ENDROOT
TORSDOF 0
ENDMDL
