MODEL 1
REMARK minimizedAffinity 1.5209161
REMARK minimizedRMSD -1
REMARK  0 active torsions:
REMARK  status: ('A' for Active; 'I' for Inactive)
ROOT
ATOM      1  C   UNL d   1      -0.409   1.446   3.053  0.00  0.00     0.078 C 
ATOM      2  C1  UNL d   1      -0.039   0.652   1.836  0.00  0.00    -0.077 A 
ATOM      3  C2  UNL d   1      -0.364  -0.706   1.734  0.00  0.00    -0.001 A 
ATOM      4  C3  UNL d   1      -0.005  -1.434   0.599  0.00  0.00     0.003 A 
ATOM      5  C4  UNL d   1       0.682  -0.814  -0.442  0.00  0.00    -0.005 A 
ATOM      6  C5  UNL d   1       1.012   0.536  -0.349  0.00  0.00     0.003 A 
ATOM      7  C6  UNL d   1       0.654   1.267   0.785  0.00  0.00    -0.001 A 
ENDROOT
TORSDOF 0
ENDMDL
