MODEL 1
REMARK minimizedAffinity -2.60941839
REMARK minimizedRMSD -1
REMARK  0 active torsions:
REMARK  status: ('A' for Active; 'I' for Inactive)
ROOT
ATOM      1  C   UNL d   1       0.206   1.706   4.340  0.00  0.00     0.078 C 
ATOM      2  C1  UNL d   1      -0.446   0.933   3.233  0.00  0.00    -0.077 A 
ATOM      3  C2  UNL d   1      -0.081  -0.391   2.965  0.00  0.00    -0.001 A 
ATOM      4  C3  UNL d   1      -0.689  -1.095   1.924  0.00  0.00     0.003 A 
ATOM      5  C4  UNL d   1      -1.667  -0.482   1.143  0.00  0.00    -0.005 A 
ATOM      6  C5  UNL d   1      -2.036   0.836   1.401  0.00  0.00     0.003 A 
ATOM      7  C6  UNL d   1      -1.428   1.542   2.440  0.00  0.00    -0.001 A 
ENDROOT
TORSDOF 0
ENDMDL
