MODEL 1
REMARK minimizedAffinity 1.72919917
REMARK minimizedRMSD -1
REMARK  1 active torsions:
REMARK  status: ('A' for Active; 'I' for Inactive)
REMARK    1  A    between atoms: N_2  and  C1_3 
ROOT
ATOM      1  C1  UNL d   1       0.221   1.675   0.208  0.00  0.00     0.143 A 
ATOM      2  C2  UNL d   1       0.619   3.011   0.088  0.00  0.00    -0.057 A 
ATOM      3  C3  UNL d   1       1.495   3.594   1.012  0.00  0.00     0.033 A 
ATOM      4  C4  UNL d   1       1.967   2.856   2.092  0.00  0.00    -0.042 A 
ATOM      5  C5  UNL d   1       1.565   1.534   2.246  0.00  0.00     0.033 A 
ATOM      6  C6  UNL d   1       0.695   0.956   1.316  0.00  0.00    -0.057 A 
ENDROOT
BRANCH   1   7
ATOM      7  N   UNL d   1      -0.725   1.068  -0.622  0.00  0.00    -0.732 N 
ATOM      8  C   UNL d   1      -2.131   1.099  -0.283  0.00  0.00     0.284 C 
ATOM      9  H3  UNL d   1      -0.531   1.221  -1.609  0.00  0.00     0.395 HD
ENDBRANCH   1   7
TORSDOF 1
ENDMDL
