MODEL 1
REMARK minimizedAffinity -0.701523185
REMARK minimizedRMSD -1
REMARK  1 active torsions:
REMARK  status: ('A' for Active; 'I' for Inactive)
REMARK    1  A    between atoms: N_2  and  C1_3 
ROOT
ATOM      1  C1  UNL d   1      -5.589   3.209   4.912  0.00  0.00     0.143 A 
ATOM      2  C2  UNL d   1      -5.474   4.084   5.998  0.00  0.00    -0.057 A 
ATOM      3  C3  UNL d   1      -5.645   5.464   5.840  0.00  0.00     0.033 A 
ATOM      4  C4  UNL d   1      -5.905   6.000   4.583  0.00  0.00    -0.042 A 
ATOM      5  C5  UNL d   1      -5.999   5.152   3.485  0.00  0.00     0.033 A 
ATOM      6  C6  UNL d   1      -5.835   3.774   3.650  0.00  0.00    -0.057 A 
ENDROOT
BRANCH   1   7
ATOM      7  N   UNL d   1      -5.334   1.838   4.987  0.00  0.00    -0.732 N 
ATOM      8  C   UNL d   1      -5.993   1.018   5.981  0.00  0.00     0.284 C 
ATOM      9  H3  UNL d   1      -5.267   1.405   4.068  0.00  0.00     0.395 HD
ENDBRANCH   1   7
TORSDOF 1
ENDMDL
