MODEL 1
REMARK minimizedAffinity 2.73343897
REMARK minimizedRMSD -1
REMARK  1 active torsions:
REMARK  status: ('A' for Active; 'I' for Inactive)
REMARK    1  A    between atoms: N_2  and  C1_3 
ROOT
ATOM      1  C1  UNL d   1       2.005  -2.289  -0.111  0.00  0.00     0.143 A 
ATOM      2  C2  UNL d   1       1.603  -3.266   0.806  0.00  0.00    -0.057 A 
ATOM      3  C3  UNL d   1       0.665  -4.246   0.459  0.00  0.00     0.033 A 
ATOM      4  C4  UNL d   1       0.090  -4.249  -0.808  0.00  0.00    -0.042 A 
ATOM      5  C5  UNL d   1       0.456  -3.273  -1.727  0.00  0.00     0.033 A 
ATOM      6  C6  UNL d   1       1.397  -2.301  -1.377  0.00  0.00    -0.057 A 
ENDROOT
BRANCH   1   7
ATOM      7  N   UNL d   1       2.858  -1.229   0.205  0.00  0.00    -0.732 N 
ATOM      8  C   UNL d   1       2.397   0.140   0.120  0.00  0.00     0.284 C 
ATOM      9  H3  UNL d   1       3.433  -1.424   1.021  0.00  0.00     0.395 HD
ENDBRANCH   1   7
TORSDOF 1
ENDMDL
