MODEL 1
REMARK minimizedAffinity -1.48242676
REMARK minimizedRMSD -1
REMARK  1 active torsions:
REMARK  status: ('A' for Active; 'I' for Inactive)
REMARK    1  A    between atoms: N_2  and  C1_3 
ROOT
ATOM      1  C1  UNL d   1      -4.339  -0.453  -0.249  0.00  0.00     0.143 A 
ATOM      2  C2  UNL d   1      -4.980   0.647  -0.831  0.00  0.00    -0.057 A 
ATOM      3  C3  UNL d   1      -4.418   1.320  -1.923  0.00  0.00     0.033 A 
ATOM      4  C4  UNL d   1      -3.188   0.921  -2.436  0.00  0.00    -0.042 A 
ATOM      5  C5  UNL d   1      -2.522  -0.153  -1.857  0.00  0.00     0.033 A 
ATOM      6  C6  UNL d   1      -3.091  -0.825  -0.771  0.00  0.00    -0.057 A 
ENDROOT
BRANCH   1   7
ATOM      7  N   UNL d   1      -4.798  -1.102   0.900  0.00  0.00    -0.732 N 
ATOM      8  C   UNL d   1      -6.000  -0.653   1.570  0.00  0.00     0.284 C 
ATOM      9  H3  UNL d   1      -4.712  -2.114   0.835  0.00  0.00     0.395 HD
ENDBRANCH   1   7
TORSDOF 1
ENDMDL
