MODEL 1
REMARK minimizedAffinity -1.7877512
REMARK minimizedRMSD -1
REMARK  1 active torsions:
REMARK  status: ('A' for Active; 'I' for Inactive)
REMARK    1  A    between atoms: N_2  and  C1_3 
ROOT
ATOM      1  C1  UNL d   1       0.401  -3.657  -1.132  0.00  0.00     0.143 A 
ATOM      2  C2  UNL d   1       1.737  -3.930  -0.821  0.00  0.00    -0.057 A 
ATOM      3  C3  UNL d   1       2.682  -2.902  -0.711  0.00  0.00     0.033 A 
ATOM      4  C4  UNL d   1       2.311  -1.581  -0.938  0.00  0.00    -0.042 A 
ATOM      5  C5  UNL d   1       0.993  -1.289  -1.273  0.00  0.00     0.033 A 
ATOM      6  C6  UNL d   1       0.053  -2.319  -1.375  0.00  0.00    -0.057 A 
ENDROOT
BRANCH   1   7
ATOM      7  N   UNL d   1      -0.564  -4.643  -1.352  0.00  0.00    -0.732 N 
ATOM      8  C   UNL d   1      -0.172  -6.000  -1.669  0.00  0.00     0.284 C 
ATOM      9  H3  UNL d   1      -1.343  -4.577  -0.702  0.00  0.00     0.395 HD
ENDBRANCH   1   7
TORSDOF 1
ENDMDL
