MODEL 1
REMARK minimizedAffinity -2.71984625
REMARK minimizedRMSD -1
REMARK  3 active torsions:
REMARK  status: ('A' for Active; 'I' for Inactive)
REMARK    1  A    between atoms: C3'_2  and  C2'_3 
REMARK    2  A    between atoms: C2'_3  and  C1'_4 
REMARK    3  A    between atoms: C1'_4  and  C1_5 
ROOT
ATOM      1  C1  N4B d   1      -0.288  -0.047   0.101  0.00  0.00    -0.075 A 
ATOM      2  C2  N4B d   1      -1.124   0.824   0.834  0.00  0.00     0.002 A 
ATOM      3  C3  N4B d   1      -2.324   0.372   1.324  0.00  0.00     0.002 A 
ATOM      4  C4  N4B d   1      -2.717  -0.935   1.079  0.00  0.00    -0.004 A 
ATOM      5  C5  N4B d   1      -1.892  -1.777   0.392  0.00  0.00     0.002 A 
ATOM      6  C6  N4B d   1      -0.681  -1.338  -0.103  0.00  0.00     0.002 A 
ENDROOT
BRANCH   1   7
ATOM      7  C1' N4B d   1       0.994   0.426  -0.528  0.00  0.00     0.057 C 
BRANCH   7   8
ATOM      8  C2' N4B d   1       0.676   1.485  -1.579  0.00  0.00     0.009 C 
BRANCH   8   9
ATOM      9  C3' N4B d   1       1.866   1.768  -2.480  0.00  0.00     0.004 C 
ATOM     10  C4' N4B d   1       1.462   2.249  -3.842  0.00  0.00     0.003 C 
ENDBRANCH   8   9
ENDBRANCH   7   8
ENDBRANCH   1   7
TORSDOF 3
ENDMDL
