MODEL 1
REMARK minimizedAffinity -2.37155533
REMARK minimizedRMSD -1
REMARK  3 active torsions:
REMARK  status: ('A' for Active; 'I' for Inactive)
REMARK    1  A    between atoms: C3'_2  and  C2'_3 
REMARK    2  A    between atoms: C2'_3  and  C1'_4 
REMARK    3  A    between atoms: C1'_4  and  C1_5 
ROOT
ATOM      1  C1  N4B d   1       0.394   1.122  -0.344  0.00  0.00    -0.075 A 
ATOM      2  C2  N4B d   1      -0.606   1.514   0.572  0.00  0.00     0.002 A 
ATOM      3  C3  N4B d   1      -1.139   0.595   1.443  0.00  0.00     0.002 A 
ATOM      4  C4  N4B d   1      -0.702  -0.721   1.402  0.00  0.00    -0.004 A 
ATOM      5  C5  N4B d   1       0.282  -1.086   0.531  0.00  0.00     0.002 A 
ATOM      6  C6  N4B d   1       0.829  -0.172  -0.347  0.00  0.00     0.002 A 
ENDROOT
BRANCH   1   7
ATOM      7  C1' N4B d   1       0.945   2.071  -1.373  0.00  0.00     0.057 C 
BRANCH   7   8
ATOM      8  C2' N4B d   1       1.821   1.295  -2.352  0.00  0.00     0.009 C 
BRANCH   8   9
ATOM      9  C3' N4B d   1       1.261   1.324  -3.764  0.00  0.00     0.004 C 
ATOM     10  C4' N4B d   1      -0.032   2.078  -3.859  0.00  0.00     0.003 C 
ENDBRANCH   8   9
ENDBRANCH   7   8
ENDBRANCH   1   7
TORSDOF 3
ENDMDL
