MODEL 1
REMARK minimizedAffinity -2.43567586
REMARK minimizedRMSD -1
REMARK  3 active torsions:
REMARK  status: ('A' for Active; 'I' for Inactive)
REMARK    1  A    between atoms: C3'_2  and  C2'_3 
REMARK    2  A    between atoms: C2'_3  and  C1'_4 
REMARK    3  A    between atoms: C1'_4  and  C1_5 
ROOT
ATOM      1  C1  N4B d   1       0.447  -0.092   0.065  0.00  0.00    -0.075 A 
ATOM      2  C2  N4B d   1      -0.923  -0.134   0.405  0.00  0.00     0.002 A 
ATOM      3  C3  N4B d   1      -1.454  -1.263   0.979  0.00  0.00     0.002 A 
ATOM      4  C4  N4B d   1      -0.641  -2.364   1.205  0.00  0.00    -0.004 A 
ATOM      5  C5  N4B d   1       0.687  -2.306   0.897  0.00  0.00     0.002 A 
ATOM      6  C6  N4B d   1       1.234  -1.176   0.323  0.00  0.00     0.002 A 
ENDROOT
BRANCH   1   7
ATOM      7  C1' N4B d   1       1.053   1.089  -0.644  0.00  0.00     0.057 C 
BRANCH   7   8
ATOM      8  C2' N4B d   1       0.164   1.476  -1.822  0.00  0.00     0.009 C 
BRANCH   8   9
ATOM      9  C3' N4B d   1       0.954   1.600  -3.113  0.00  0.00     0.004 C 
ATOM     10  C4' N4B d   1       2.183   2.447  -2.963  0.00  0.00     0.003 C 
ENDBRANCH   8   9
ENDBRANCH   7   8
ENDBRANCH   1   7
TORSDOF 3
ENDMDL
