MODEL 1
REMARK minimizedAffinity -6.26200485
REMARK minimizedRMSD -1
REMARK  3 active torsions:
REMARK  status: ('A' for Active; 'I' for Inactive)
REMARK    1  A    between atoms: C3'_2  and  C2'_3 
REMARK    2  A    between atoms: C2'_3  and  C1'_4 
REMARK    3  A    between atoms: C1'_4  and  C1_5 
ROOT
ATOM      1  C1  N4B d   1      -0.954  -0.619   0.390  0.00  0.00    -0.075 A 
ATOM      2  C2  N4B d   1      -1.716   0.417   0.974  0.00  0.00     0.002 A 
ATOM      3  C3  N4B d   1      -2.657   0.123   1.930  0.00  0.00     0.002 A 
ATOM      4  C4  N4B d   1      -2.866  -1.196   2.303  0.00  0.00    -0.004 A 
ATOM      5  C5  N4B d   1      -2.108  -2.189   1.753  0.00  0.00     0.002 A 
ATOM      6  C6  N4B d   1      -1.156  -1.907   0.794  0.00  0.00     0.002 A 
ENDROOT
BRANCH   1   7
ATOM      7  C1' N4B d   1       0.026  -0.355  -0.720  0.00  0.00     0.057 C 
BRANCH   7   8
ATOM      8  C2' N4B d   1       0.404   1.123  -0.714  0.00  0.00     0.009 C 
BRANCH   8   9
ATOM      9  C3' N4B d   1       0.593   1.667  -2.120  0.00  0.00     0.004 C 
ATOM     10  C4' N4B d   1       2.020   2.018  -2.420  0.00  0.00     0.003 C 
ENDBRANCH   8   9
ENDBRANCH   7   8
ENDBRANCH   1   7
TORSDOF 3
ENDMDL
