MODEL 1
REMARK minimizedAffinity -4.45475578
REMARK minimizedRMSD -1
REMARK  3 active torsions:
REMARK  status: ('A' for Active; 'I' for Inactive)
REMARK    1  A    between atoms: C3'_2  and  C2'_3 
REMARK    2  A    between atoms: C2'_3  and  C1'_4 
REMARK    3  A    between atoms: C1'_4  and  C1_5 
ROOT
ATOM      1  C1  N4B d   1      -0.250  -1.716   0.169  0.00  0.00    -0.075 A 
ATOM      2  C2  N4B d   1       0.694  -1.856   1.210  0.00  0.00     0.002 A 
ATOM      3  C3  N4B d   1       0.347  -2.506   2.369  0.00  0.00     0.002 A 
ATOM      4  C4  N4B d   1      -0.938  -3.006   2.516  0.00  0.00    -0.004 A 
ATOM      5  C5  N4B d   1      -1.836  -2.889   1.496  0.00  0.00     0.002 A 
ATOM      6  C6  N4B d   1      -1.500  -2.242   0.324  0.00  0.00     0.002 A 
ENDROOT
BRANCH   1   7
ATOM      7  C1' N4B d   1       0.057  -0.939  -1.081  0.00  0.00     0.057 C 
BRANCH   7   8
ATOM      8  C2' N4B d   1      -0.525   0.466  -0.953  0.00  0.00     0.009 C 
BRANCH   8   9
ATOM      9  C3' N4B d   1      -0.221   1.085   0.401  0.00  0.00     0.004 C 
ATOM     10  C4' N4B d   1      -1.460   1.404   1.184  0.00  0.00     0.003 C 
ENDBRANCH   8   9
ENDBRANCH   7   8
ENDBRANCH   1   7
TORSDOF 3
ENDMDL
