MODEL 1
REMARK minimizedAffinity -4.50756836
REMARK minimizedRMSD -1
REMARK  3 active torsions:
REMARK  status: ('A' for Active; 'I' for Inactive)
REMARK    1  A    between atoms: C3'_2  and  C2'_3 
REMARK    2  A    between atoms: C2'_3  and  C1'_4 
REMARK    3  A    between atoms: C1'_4  and  C1_5 
ROOT
ATOM      1  C1  N4B d   1      -0.141  -0.214   0.023  0.00  0.00    -0.075 A 
ATOM      2  C2  N4B d   1       0.575  -1.192   0.749  0.00  0.00     0.002 A 
ATOM      3  C3  N4B d   1      -0.068  -2.320   1.199  0.00  0.00     0.002 A 
ATOM      4  C4  N4B d   1      -1.423  -2.481   0.953  0.00  0.00    -0.004 A 
ATOM      5  C5  N4B d   1      -2.101  -1.544   0.229  0.00  0.00     0.002 A 
ATOM      6  C6  N4B d   1      -1.468  -0.408  -0.232  0.00  0.00     0.002 A 
ENDROOT
BRANCH   1   7
ATOM      7  C1' N4B d   1       0.498   1.075  -0.415  0.00  0.00     0.057 C 
BRANCH   7   8
ATOM      8  C2' N4B d   1       0.164   1.326  -1.882  0.00  0.00     0.009 C 
BRANCH   8   9
ATOM      9  C3' N4B d   1       1.272   2.081  -2.596  0.00  0.00     0.004 C 
ATOM     10  C4' N4B d   1       1.782   1.357  -3.806  0.00  0.00     0.003 C 
ENDBRANCH   8   9
ENDBRANCH   7   8
ENDBRANCH   1   7
TORSDOF 3
ENDMDL
