MODEL 1
REMARK minimizedAffinity -5.4539814
REMARK minimizedRMSD -1
REMARK  3 active torsions:
REMARK  status: ('A' for Active; 'I' for Inactive)
REMARK    1  A    between atoms: C3'_2  and  C2'_3 
REMARK    2  A    between atoms: C2'_3  and  C1'_4 
REMARK    3  A    between atoms: C1'_4  and  C1_5 
ROOT
ATOM      1  C1  N4B d   1       0.107  -0.016  -0.225  0.00  0.00    -0.075 A 
ATOM      2  C2  N4B d   1      -1.282  -0.186  -0.035  0.00  0.00     0.002 A 
ATOM      3  C3  N4B d   1      -1.765  -1.362   0.484  0.00  0.00     0.002 A 
ATOM      4  C4  N4B d   1      -0.884  -2.385   0.801  0.00  0.00    -0.004 A 
ATOM      5  C5  N4B d   1       0.459  -2.203   0.638  0.00  0.00     0.002 A 
ATOM      6  C6  N4B d   1       0.958  -1.025   0.121  0.00  0.00     0.002 A 
ENDROOT
BRANCH   1   7
ATOM      7  C1' N4B d   1       0.675   1.220  -0.868  0.00  0.00     0.057 C 
BRANCH   7   8
ATOM      8  C2' N4B d   1       0.005   1.432  -2.223  0.00  0.00     0.009 C 
BRANCH   8   9
ATOM      9  C3' N4B d   1       0.823   2.339  -3.126  0.00  0.00     0.004 C 
ATOM     10  C4' N4B d   1       1.440   1.607  -4.279  0.00  0.00     0.003 C 
ENDBRANCH   8   9
ENDBRANCH   7   8
ENDBRANCH   1   7
TORSDOF 3
ENDMDL
