MODEL 1
REMARK minimizedAffinity -4.1188221
REMARK minimizedRMSD -1
REMARK  3 active torsions:
REMARK  status: ('A' for Active; 'I' for Inactive)
REMARK    1  A    between atoms: C3'_2  and  C2'_3 
REMARK    2  A    between atoms: C2'_3  and  C1'_4 
REMARK    3  A    between atoms: C1'_4  and  C1_5 
ROOT
ATOM      1  C1  N4B d   1      -0.174   0.062   0.243  0.00  0.00    -0.075 A 
ATOM      2  C2  N4B d   1      -1.546  -0.098  -0.052  0.00  0.00     0.002 A 
ATOM      3  C3  N4B d   1      -2.150  -1.318   0.131  0.00  0.00     0.002 A 
ATOM      4  C4  N4B d   1      -1.401  -2.392   0.587  0.00  0.00    -0.004 A 
ATOM      5  C5  N4B d   1      -0.082  -2.223   0.893  0.00  0.00     0.002 A 
ATOM      6  C6  N4B d   1       0.537  -1.001   0.718  0.00  0.00     0.002 A 
ENDROOT
BRANCH   1   7
ATOM      7  C1' N4B d   1       0.549   1.354  -0.023  0.00  0.00     0.057 C 
BRANCH   7   8
ATOM      8  C2' N4B d   1       0.088   1.921  -1.362  0.00  0.00     0.009 C 
BRANCH   8   9
ATOM      9  C3' N4B d   1       1.211   1.948  -2.384  0.00  0.00     0.004 C 
ATOM     10  C4' N4B d   1       0.742   2.344  -3.753  0.00  0.00     0.003 C 
ENDBRANCH   8   9
ENDBRANCH   7   8
ENDBRANCH   1   7
TORSDOF 3
ENDMDL
