MODEL 1
REMARK minimizedAffinity -1.58754826
REMARK minimizedRMSD -1
REMARK  3 active torsions:
REMARK  status: ('A' for Active; 'I' for Inactive)
REMARK    1  A    between atoms: C3'_2  and  C2'_3 
REMARK    2  A    between atoms: C2'_3  and  C1'_4 
REMARK    3  A    between atoms: C1'_4  and  C1_5 
ROOT
ATOM      1  C1  N4B d   1       0.383  -0.515   0.181  0.00  0.00    -0.075 A 
ATOM      2  C2  N4B d   1      -0.982  -0.600  -0.173  0.00  0.00     0.002 A 
ATOM      3  C3  N4B d   1      -1.810  -1.471   0.491  0.00  0.00     0.002 A 
ATOM      4  C4  N4B d   1      -1.294  -2.279   1.493  0.00  0.00    -0.004 A 
ATOM      5  C5  N4B d   1       0.019  -2.173   1.846  0.00  0.00     0.002 A 
ATOM      6  C6  N4B d   1       0.862  -1.298   1.191  0.00  0.00     0.002 A 
ENDROOT
BRANCH   1   7
ATOM      7  C1' N4B d   1       1.346   0.361  -0.573  0.00  0.00     0.057 C 
BRANCH   7   8
ATOM      8  C2' N4B d   1       0.699   0.806  -1.881  0.00  0.00     0.009 C 
BRANCH   8   9
ATOM      9  C3' N4B d   1       1.604   1.730  -2.678  0.00  0.00     0.004 C 
ATOM     10  C4' N4B d   1       0.843   2.638  -3.597  0.00  0.00     0.003 C 
ENDBRANCH   8   9
ENDBRANCH   7   8
ENDBRANCH   1   7
TORSDOF 3
ENDMDL
