MODEL 1
REMARK minimizedAffinity -4.04032183
REMARK minimizedRMSD -1
REMARK  3 active torsions:
REMARK  status: ('A' for Active; 'I' for Inactive)
REMARK    1  A    between atoms: C3'_2  and  C2'_3 
REMARK    2  A    between atoms: C2'_3  and  C1'_4 
REMARK    3  A    between atoms: C1'_4  and  C1_5 
ROOT
ATOM      1  C1  N4B d   1      -0.179   0.147   0.031  0.00  0.00    -0.075 A 
ATOM      2  C2  N4B d   1       0.445  -0.990  -0.529  0.00  0.00     0.002 A 
ATOM      3  C3  N4B d   1       0.235  -2.230   0.023  0.00  0.00     0.002 A 
ATOM      4  C4  N4B d   1      -0.576  -2.355   1.141  0.00  0.00    -0.004 A 
ATOM      5  C5  N4B d   1      -1.195  -1.255   1.660  0.00  0.00     0.002 A 
ATOM      6  C6  N4B d   1      -0.996  -0.003   1.113  0.00  0.00     0.002 A 
ENDROOT
BRANCH   1   7
ATOM      7  C1' N4B d   1       0.089   1.534  -0.485  0.00  0.00     0.057 C 
BRANCH   7   8
ATOM      8  C2' N4B d   1       1.563   1.653  -0.861  0.00  0.00     0.009 C 
BRANCH   8   9
ATOM      9  C3' N4B d   1       1.749   2.016  -2.324  0.00  0.00     0.004 C 
ATOM     10  C4' N4B d   1       0.455   2.330  -3.014  0.00  0.00     0.003 C 
ENDBRANCH   8   9
ENDBRANCH   7   8
ENDBRANCH   1   7
TORSDOF 3
ENDMDL
