MODEL 1
REMARK minimizedAffinity -2.9916203
REMARK minimizedRMSD -1
REMARK  3 active torsions:
REMARK  status: ('A' for Active; 'I' for Inactive)
REMARK    1  A    between atoms: C3'_2  and  C2'_3 
REMARK    2  A    between atoms: C2'_3  and  C1'_4 
REMARK    3  A    between atoms: C1'_4  and  C1_5 
ROOT
ATOM      1  C1  N4B d   1       0.409  -0.019   0.177  0.00  0.00    -0.075 A 
ATOM      2  C2  N4B d   1       1.377  -1.046   0.212  0.00  0.00     0.002 A 
ATOM      3  C3  N4B d   1       1.033  -2.299   0.655  0.00  0.00     0.002 A 
ATOM      4  C4  N4B d   1      -0.263  -2.543   1.083  0.00  0.00    -0.004 A 
ATOM      5  C5  N4B d   1      -1.199  -1.553   1.023  0.00  0.00     0.002 A 
ATOM      6  C6  N4B d   1      -0.868  -0.289   0.576  0.00  0.00     0.002 A 
ENDROOT
BRANCH   1   7
ATOM      7  C1' N4B d   1       0.759   1.390  -0.218  0.00  0.00     0.057 C 
BRANCH   7   8
ATOM      8  C2' N4B d   1       0.490   1.574  -1.709  0.00  0.00     0.009 C 
BRANCH   8   9
ATOM      9  C3' N4B d   1       1.755   1.917  -2.476  0.00  0.00     0.004 C 
ATOM     10  C4' N4B d   1       1.557   1.896  -3.963  0.00  0.00     0.003 C 
ENDBRANCH   8   9
ENDBRANCH   7   8
ENDBRANCH   1   7
TORSDOF 3
ENDMDL
