MODEL 1
REMARK minimizedAffinity 11.8872223
REMARK minimizedRMSD -1
REMARK  3 active torsions:
REMARK  status: ('A' for Active; 'I' for Inactive)
REMARK    1  A    between atoms: C3'_2  and  C2'_3 
REMARK    2  A    between atoms: C2'_3  and  C1'_4 
REMARK    3  A    between atoms: C1'_4  and  C1_5 
ROOT
ATOM      1  C1  N4B d   1      -0.033  -1.932  -5.318  0.00  0.00    -0.075 A 
ATOM      2  C2  N4B d   1       1.016  -1.916  -4.372  0.00  0.00     0.002 A 
ATOM      3  C3  N4B d   1       1.558  -0.720  -3.969  0.00  0.00     0.002 A 
ATOM      4  C4  N4B d   1       1.082   0.466  -4.509  0.00  0.00    -0.004 A 
ATOM      5  C5  N4B d   1       0.052   0.442  -5.403  0.00  0.00     0.002 A 
ATOM      6  C6  N4B d   1      -0.505  -0.752  -5.814  0.00  0.00     0.002 A 
ENDROOT
BRANCH   1   7
ATOM      7  C1' N4B d   1      -0.599  -3.219  -5.853  0.00  0.00     0.057 C 
BRANCH   7   8
ATOM      8  C2' N4B d   1      -2.111  -3.078  -6.000  0.00  0.00     0.009 C 
BRANCH   8   9
ATOM      9  C3' N4B d   1      -2.810  -4.427  -5.994  0.00  0.00     0.004 C 
ATOM     10  C4' N4B d   1      -4.298  -4.309  -5.850  0.00  0.00     0.003 C 
ENDBRANCH   8   9
ENDBRANCH   7   8
ENDBRANCH   1   7
TORSDOF 3
ENDMDL
