MODEL 1
REMARK minimizedAffinity 5.83762693
REMARK minimizedRMSD -1
REMARK  3 active torsions:
REMARK  status: ('A' for Active; 'I' for Inactive)
REMARK    1  A    between atoms: C3'_2  and  C2'_3 
REMARK    2  A    between atoms: C2'_3  and  C1'_4 
REMARK    3  A    between atoms: C1'_4  and  C1_5 
ROOT
ATOM      1  C1  N4B d   1      -1.674  -0.212   2.369  0.00  0.00    -0.075 A 
ATOM      2  C2  N4B d   1      -2.808  -0.894   1.876  0.00  0.00     0.002 A 
ATOM      3  C3  N4B d   1      -3.801  -0.199   1.231  0.00  0.00     0.002 A 
ATOM      4  C4  N4B d   1      -3.692   1.175   1.084  0.00  0.00    -0.004 A 
ATOM      5  C5  N4B d   1      -2.582   1.824   1.540  0.00  0.00     0.002 A 
ATOM      6  C6  N4B d   1      -1.574   1.137   2.187  0.00  0.00     0.002 A 
ENDROOT
BRANCH   1   7
ATOM      7  C1' N4B d   1      -0.603  -0.916   3.156  0.00  0.00     0.057 C 
BRANCH   7   8
ATOM      8  C2' N4B d   1      -1.231  -1.567   4.384  0.00  0.00     0.009 C 
BRANCH   8   9
ATOM      9  C3' N4B d   1      -2.612  -1.009   4.680  0.00  0.00     0.004 C 
ATOM     10  C4' N4B d   1      -3.157  -1.475   5.997  0.00  0.00     0.003 C 
ENDBRANCH   8   9
ENDBRANCH   7   8
ENDBRANCH   1   7
TORSDOF 3
ENDMDL
