MODEL 1
REMARK minimizedAffinity 14.2779007
REMARK minimizedRMSD -1
REMARK  3 active torsions:
REMARK  status: ('A' for Active; 'I' for Inactive)
REMARK    1  A    between atoms: C3'_2  and  C2'_3 
REMARK    2  A    between atoms: C2'_3  and  C1'_4 
REMARK    3  A    between atoms: C1'_4  and  C1_5 
ROOT
ATOM      1  C1  N4B d   1      -4.225  -1.071   0.493  0.00  0.00    -0.075 A 
ATOM      2  C2  N4B d   1      -3.208  -2.047   0.396  0.00  0.00     0.002 A 
ATOM      3  C3  N4B d   1      -3.535  -3.381   0.384  0.00  0.00     0.002 A 
ATOM      4  C4  N4B d   1      -4.865  -3.762   0.485  0.00  0.00    -0.004 A 
ATOM      5  C5  N4B d   1      -5.843  -2.813   0.552  0.00  0.00     0.002 A 
ATOM      6  C6  N4B d   1      -5.529  -1.468   0.562  0.00  0.00     0.002 A 
ENDROOT
BRANCH   1   7
ATOM      7  C1' N4B d   1      -3.910   0.396   0.596  0.00  0.00     0.057 C 
BRANCH   7   8
ATOM      8  C2' N4B d   1      -2.501   0.568   1.157  0.00  0.00     0.009 C 
BRANCH   8   9
ATOM      9  C3' N4B d   1      -2.244   1.991   1.620  0.00  0.00     0.004 C 
ATOM     10  C4' N4B d   1      -3.462   2.861   1.530  0.00  0.00     0.003 C 
ENDBRANCH   8   9
ENDBRANCH   7   8
ENDBRANCH   1   7
TORSDOF 3
ENDMDL
