MODEL 1
REMARK minimizedAffinity 12.3332539
REMARK minimizedRMSD -1
REMARK  3 active torsions:
REMARK  status: ('A' for Active; 'I' for Inactive)
REMARK    1  A    between atoms: C3'_2  and  C2'_3 
REMARK    2  A    between atoms: C2'_3  and  C1'_4 
REMARK    3  A    between atoms: C1'_4  and  C1_5 
ROOT
ATOM      1  C1  N4B d   1      -2.174   1.198   2.271  0.00  0.00    -0.075 A 
ATOM      2  C2  N4B d   1      -2.447   2.360   3.025  0.00  0.00     0.002 A 
ATOM      3  C3  N4B d   1      -3.705   2.910   3.006  0.00  0.00     0.002 A 
ATOM      4  C4  N4B d   1      -4.696   2.330   2.229  0.00  0.00    -0.004 A 
ATOM      5  C5  N4B d   1      -4.431   1.193   1.524  0.00  0.00     0.002 A 
ATOM      6  C6  N4B d   1      -3.172   0.626   1.537  0.00  0.00     0.002 A 
ENDROOT
BRANCH   1   7
ATOM      7  C1' N4B d   1      -0.792   0.609   2.193  0.00  0.00     0.057 C 
BRANCH   7   8
ATOM      8  C2' N4B d   1      -0.024   0.963   3.463  0.00  0.00     0.009 C 
BRANCH   8   9
ATOM      9  C3' N4B d   1       1.077   1.975   3.198  0.00  0.00     0.004 C 
ATOM     10  C4' N4B d   1       1.163   3.031   4.259  0.00  0.00     0.003 C 
ENDBRANCH   8   9
ENDBRANCH   7   8
ENDBRANCH   1   7
TORSDOF 3
ENDMDL
