MODEL 1
REMARK minimizedAffinity 4.51326561
REMARK minimizedRMSD -1
REMARK  3 active torsions:
REMARK  status: ('A' for Active; 'I' for Inactive)
REMARK    1  A    between atoms: C3'_2  and  C2'_3 
REMARK    2  A    between atoms: C2'_3  and  C1'_4 
REMARK    3  A    between atoms: C1'_4  and  C1_5 
ROOT
ATOM      1  C1  N4B d   1      -5.718  -2.685  -2.686  0.00  0.00    -0.075 A 
ATOM      2  C2  N4B d   1      -5.281  -1.404  -3.088  0.00  0.00     0.002 A 
ATOM      3  C3  N4B d   1      -4.959  -1.169  -4.402  0.00  0.00     0.002 A 
ATOM      4  C4  N4B d   1      -5.048  -2.201  -5.325  0.00  0.00    -0.004 A 
ATOM      5  C5  N4B d   1      -5.496  -3.428  -4.933  0.00  0.00     0.002 A 
ATOM      6  C6  N4B d   1      -5.827  -3.677  -3.616  0.00  0.00     0.002 A 
ENDROOT
BRANCH   1   7
ATOM      7  C1' N4B d   1      -6.000  -3.012  -1.245  0.00  0.00     0.057 C 
BRANCH   7   8
ATOM      8  C2' N4B d   1      -5.165  -2.099  -0.352  0.00  0.00     0.009 C 
BRANCH   8   9
ATOM      9  C3' N4B d   1      -5.986  -1.504   0.779  0.00  0.00     0.004 C 
ATOM     10  C4' N4B d   1      -5.233  -0.470   1.562  0.00  0.00     0.003 C 
ENDBRANCH   8   9
ENDBRANCH   7   8
ENDBRANCH   1   7
TORSDOF 3
ENDMDL
