MODEL 1
REMARK minimizedAffinity 10.678359
REMARK minimizedRMSD -1
REMARK  3 active torsions:
REMARK  status: ('A' for Active; 'I' for Inactive)
REMARK    1  A    between atoms: C3'_2  and  C2'_3 
REMARK    2  A    between atoms: C2'_3  and  C1'_4 
REMARK    3  A    between atoms: C1'_4  and  C1_5 
ROOT
ATOM      1  C1  N4B d   1      -4.775  -3.894   4.870  0.00  0.00    -0.075 A 
ATOM      2  C2  N4B d   1      -5.037  -3.440   3.559  0.00  0.00     0.002 A 
ATOM      3  C3  N4B d   1      -5.654  -4.269   2.655  0.00  0.00     0.002 A 
ATOM      4  C4  N4B d   1      -6.000  -5.558   3.032  0.00  0.00    -0.004 A 
ATOM      5  C5  N4B d   1      -5.767  -5.981   4.308  0.00  0.00     0.002 A 
ATOM      6  C6  N4B d   1      -5.151  -5.157   5.228  0.00  0.00     0.002 A 
ENDROOT
BRANCH   1   7
ATOM      7  C1' N4B d   1      -4.026  -3.054   5.868  0.00  0.00     0.057 C 
BRANCH   7   8
ATOM      8  C2' N4B d   1      -3.360  -1.889   5.141  0.00  0.00     0.009 C 
BRANCH   8   9
ATOM      9  C3' N4B d   1      -1.948  -2.229   4.697  0.00  0.00     0.004 C 
ATOM     10  C4' N4B d   1      -1.666  -1.811   3.285  0.00  0.00     0.003 C 
ENDBRANCH   8   9
ENDBRANCH   7   8
ENDBRANCH   1   7
TORSDOF 3
ENDMDL
