MODEL 1
REMARK minimizedAffinity 9.3065033
REMARK minimizedRMSD -1
REMARK  3 active torsions:
REMARK  status: ('A' for Active; 'I' for Inactive)
REMARK    1  A    between atoms: C3'_2  and  C2'_3 
REMARK    2  A    between atoms: C2'_3  and  C1'_4 
REMARK    3  A    between atoms: C1'_4  and  C1_5 
ROOT
ATOM      1  C1  N4B d   1      -3.113   0.750   0.931  0.00  0.00    -0.075 A 
ATOM      2  C2  N4B d   1      -1.923   0.277   1.527  0.00  0.00     0.002 A 
ATOM      3  C3  N4B d   1      -1.652  -1.069   1.545  0.00  0.00     0.002 A 
ATOM      4  C4  N4B d   1      -2.562  -1.959   0.994  0.00  0.00    -0.004 A 
ATOM      5  C5  N4B d   1      -3.697  -1.492   0.398  0.00  0.00     0.002 A 
ATOM      6  C6  N4B d   1      -3.980  -0.142   0.369  0.00  0.00     0.002 A 
ENDROOT
BRANCH   1   7
ATOM      7  C1' N4B d   1      -3.493   2.205   0.963  0.00  0.00     0.057 C 
BRANCH   7   8
ATOM      8  C2' N4B d   1      -4.756   2.375   1.803  0.00  0.00     0.009 C 
BRANCH   8   9
ATOM      9  C3' N4B d   1      -5.241   3.814   1.815  0.00  0.00     0.004 C 
ATOM     10  C4' N4B d   1      -6.000   4.161   3.061  0.00  0.00     0.003 C 
ENDBRANCH   8   9
ENDBRANCH   7   8
ENDBRANCH   1   7
TORSDOF 3
ENDMDL
