MODEL 1
REMARK minimizedAffinity 11.6325512
REMARK minimizedRMSD -1
REMARK  3 active torsions:
REMARK  status: ('A' for Active; 'I' for Inactive)
REMARK    1  A    between atoms: C3'_2  and  C2'_3 
REMARK    2  A    between atoms: C2'_3  and  C1'_4 
REMARK    3  A    between atoms: C1'_4  and  C1_5 
ROOT
ATOM      1  C1  N4B d   1       3.275   1.571  -4.929  0.00  0.00    -0.075 A 
ATOM      2  C2  N4B d   1       2.728   0.305  -5.232  0.00  0.00     0.002 A 
ATOM      3  C3  N4B d   1       2.309  -0.523  -4.220  0.00  0.00     0.002 A 
ATOM      4  C4  N4B d   1       2.443  -0.115  -2.901  0.00  0.00    -0.004 A 
ATOM      5  C5  N4B d   1       2.948   1.120  -2.617  0.00  0.00     0.002 A 
ATOM      6  C6  N4B d   1       3.370   1.963  -3.625  0.00  0.00     0.002 A 
ENDROOT
BRANCH   1   7
ATOM      7  C1' N4B d   1       3.826   2.475  -5.997  0.00  0.00     0.057 C 
BRANCH   7   8
ATOM      8  C2' N4B d   1       5.348   2.377  -6.000  0.00  0.00     0.009 C 
BRANCH   8   9
ATOM      9  C3' N4B d   1       5.995   3.561  -5.303  0.00  0.00     0.004 C 
ATOM     10  C4' N4B d   1       5.009   4.631  -4.939  0.00  0.00     0.003 C 
ENDBRANCH   8   9
ENDBRANCH   7   8
ENDBRANCH   1   7
TORSDOF 3
ENDMDL
