MODEL 1
REMARK minimizedAffinity 5.9164567
REMARK minimizedRMSD -1
REMARK  2 active torsions:
REMARK  status: ('A' for Active; 'I' for Inactive)
REMARK    1  A    between atoms: C2'_3  and  C1'_4 
REMARK    2  A    between atoms: C1'_4  and  C1_5 
ROOT
ATOM      1  C1  I4B d   1      -2.049   0.212  -1.770  0.00  0.00    -0.075 A 
ATOM      2  C2  I4B d   1      -2.463  -0.364  -2.945  0.00  0.00     0.003 A 
ATOM      3  C3  I4B d   1      -2.019   0.151  -4.187  0.00  0.00     0.002 A 
ATOM      4  C4  I4B d   1      -1.207   1.266  -4.209  0.00  0.00    -0.004 A 
ATOM      5  C5  I4B d   1      -0.769   1.835  -3.017  0.00  0.00     0.002 A 
ATOM      6  C6  I4B d   1      -1.182   1.297  -1.789  0.00  0.00     0.003 A 
ENDROOT
BRANCH   1   7
ATOM      7  C1' I4B d   1      -2.563  -0.337  -0.478  0.00  0.00     0.060 C 
BRANCH   7   8
ATOM      8  C2' I4B d   1      -2.318   0.699   0.600  0.00  0.00    -0.013 C 
ATOM      9  C4' I4B d   1      -3.611   1.312   1.071  0.00  0.00     0.013 C 
ATOM     10  C3' I4B d   1      -1.593   0.030   1.730  0.00  0.00     0.013 C 
ENDBRANCH   7   8
ENDBRANCH   1   7
TORSDOF 2
ENDMDL
