MODEL 1
REMARK minimizedAffinity 10.8789406
REMARK minimizedRMSD -1
REMARK  2 active torsions:
REMARK  status: ('A' for Active; 'I' for Inactive)
REMARK    1  A    between atoms: C2'_3  and  C1'_4 
REMARK    2  A    between atoms: C1'_4  and  C1_5 
ROOT
ATOM      1  C1  I4B d   1      -4.643   2.575   5.187  0.00  0.00    -0.075 A 
ATOM      2  C2  I4B d   1      -4.660   2.662   3.817  0.00  0.00     0.003 A 
ATOM      3  C3  I4B d   1      -5.362   1.700   3.050  0.00  0.00     0.002 A 
ATOM      4  C4  I4B d   1      -5.988   0.648   3.688  0.00  0.00    -0.004 A 
ATOM      5  C5  I4B d   1      -5.989   0.575   5.078  0.00  0.00     0.002 A 
ATOM      6  C6  I4B d   1      -5.324   1.551   5.833  0.00  0.00     0.003 A 
ENDROOT
BRANCH   1   7
ATOM      7  C1' I4B d   1      -3.864   3.589   5.964  0.00  0.00     0.060 C 
BRANCH   7   8
ATOM      8  C2' I4B d   1      -4.077   4.940   5.312  0.00  0.00    -0.013 C 
ATOM      9  C4' I4B d   1      -5.175   5.709   5.997  0.00  0.00     0.013 C 
ATOM     10  C3' I4B d   1      -2.778   5.688   5.364  0.00  0.00     0.013 C 
ENDBRANCH   7   8
ENDBRANCH   1   7
TORSDOF 2
ENDMDL
