MODEL 1
REMARK minimizedAffinity 5.79617119
REMARK minimizedRMSD -1
REMARK  2 active torsions:
REMARK  status: ('A' for Active; 'I' for Inactive)
REMARK    1  A    between atoms: C2'_3  and  C1'_4 
REMARK    2  A    between atoms: C1'_4  and  C1_5 
ROOT
ATOM      1  C1  I4B d   1       2.580   2.403  -4.196  0.00  0.00    -0.075 A 
ATOM      2  C2  I4B d   1       1.573   2.669  -3.302  0.00  0.00     0.003 A 
ATOM      3  C3  I4B d   1       0.637   3.697  -3.567  0.00  0.00     0.002 A 
ATOM      4  C4  I4B d   1       0.773   4.463  -4.707  0.00  0.00    -0.004 A 
ATOM      5  C5  I4B d   1       1.781   4.177  -5.624  0.00  0.00     0.002 A 
ATOM      6  C6  I4B d   1       2.682   3.132  -5.373  0.00  0.00     0.003 A 
ENDROOT
BRANCH   1   7
ATOM      7  C1' I4B d   1       3.571   1.331  -3.869  0.00  0.00     0.060 C 
BRANCH   7   8
ATOM      8  C2' I4B d   1       2.921   0.380  -2.884  0.00  0.00    -0.013 C 
ATOM      9  C4' I4B d   1       3.284  -1.050  -3.188  0.00  0.00     0.013 C 
ATOM     10  C3' I4B d   1       3.362   0.769  -1.505  0.00  0.00     0.013 C 
ENDBRANCH   7   8
ENDBRANCH   1   7
TORSDOF 2
ENDMDL
