MODEL 1
REMARK minimizedAffinity 9.69625473
REMARK minimizedRMSD -1
REMARK  2 active torsions:
REMARK  status: ('A' for Active; 'I' for Inactive)
REMARK    1  A    between atoms: C2'_3  and  C1'_4 
REMARK    2  A    between atoms: C1'_4  and  C1_5 
ROOT
ATOM      1  C1  I4B d   1      -1.669   1.163  -1.605  0.00  0.00    -0.075 A 
ATOM      2  C2  I4B d   1      -2.493   1.364  -2.683  0.00  0.00     0.003 A 
ATOM      3  C3  I4B d   1      -2.024   2.070  -3.818  0.00  0.00     0.002 A 
ATOM      4  C4  I4B d   1      -0.748   2.596  -3.810  0.00  0.00    -0.004 A 
ATOM      5  C5  I4B d   1       0.094   2.371  -2.725  0.00  0.00     0.002 A 
ATOM      6  C6  I4B d   1      -0.364   1.639  -1.620  0.00  0.00     0.003 A 
ENDROOT
BRANCH   1   7
ATOM      7  C1' I4B d   1      -2.208   0.442  -0.410  0.00  0.00     0.060 C 
BRANCH   7   8
ATOM      8  C2' I4B d   1      -2.263   1.424   0.742  0.00  0.00    -0.013 C 
ATOM      9  C4' I4B d   1      -3.636   1.461   1.362  0.00  0.00     0.013 C 
ATOM     10  C3' I4B d   1      -1.227   1.019   1.747  0.00  0.00     0.013 C 
ENDBRANCH   7   8
ENDBRANCH   1   7
TORSDOF 2
ENDMDL
