MODEL 1
REMARK minimizedAffinity 7.42830086
REMARK minimizedRMSD -1
REMARK  2 active torsions:
REMARK  status: ('A' for Active; 'I' for Inactive)
REMARK    1  A    between atoms: C2'_3  and  C1'_4 
REMARK    2  A    between atoms: C1'_4  and  C1_5 
ROOT
ATOM      1  C1  I4B d   1       2.670   1.808  -2.721  0.00  0.00    -0.075 A 
ATOM      2  C2  I4B d   1       1.773   2.812  -2.987  0.00  0.00     0.003 A 
ATOM      3  C3  I4B d   1       1.853   3.536  -4.201  0.00  0.00     0.002 A 
ATOM      4  C4  I4B d   1       2.870   3.258  -5.092  0.00  0.00    -0.004 A 
ATOM      5  C5  I4B d   1       3.764   2.224  -4.831  0.00  0.00     0.002 A 
ATOM      6  C6  I4B d   1       3.656   1.486  -3.643  0.00  0.00     0.003 A 
ENDROOT
BRANCH   1   7
ATOM      7  C1' I4B d   1       2.576   1.086  -1.414  0.00  0.00     0.060 C 
BRANCH   7   8
ATOM      8  C2' I4B d   1       3.234   1.948  -0.356  0.00  0.00    -0.013 C 
ATOM      9  C4' I4B d   1       2.207   2.595   0.536  0.00  0.00     0.013 C 
ATOM     10  C3' I4B d   1       4.168   1.080   0.434  0.00  0.00     0.013 C 
ENDBRANCH   7   8
ENDBRANCH   1   7
TORSDOF 2
ENDMDL
