MODEL 1
REMARK minimizedAffinity 8.82313824
REMARK minimizedRMSD -1
REMARK  2 active torsions:
REMARK  status: ('A' for Active; 'I' for Inactive)
REMARK    1  A    between atoms: C2'_3  and  C1'_4 
REMARK    2  A    between atoms: C1'_4  and  C1_5 
ROOT
ATOM      1  C1  I4B d   1       1.236   1.873  -2.720  0.00  0.00    -0.075 A 
ATOM      2  C2  I4B d   1       1.472   2.669  -3.813  0.00  0.00     0.003 A 
ATOM      3  C3  I4B d   1       2.519   2.354  -4.712  0.00  0.00     0.002 A 
ATOM      4  C4  I4B d   1       3.334   1.270  -4.453  0.00  0.00    -0.004 A 
ATOM      5  C5  I4B d   1       3.079   0.451  -3.357  0.00  0.00     0.002 A 
ATOM      6  C6  I4B d   1       2.016   0.747  -2.491  0.00  0.00     0.003 A 
ENDROOT
BRANCH   1   7
ATOM      7  C1' I4B d   1       0.142   2.254  -1.773  0.00  0.00     0.060 C 
BRANCH   7   8
ATOM      8  C2' I4B d   1      -1.023   1.314  -2.004  0.00  0.00    -0.013 C 
ATOM      9  C4' I4B d   1      -1.633   0.871  -0.701  0.00  0.00     0.013 C 
ATOM     10  C3' I4B d   1      -2.030   2.026  -2.859  0.00  0.00     0.013 C 
ENDBRANCH   7   8
ENDBRANCH   1   7
TORSDOF 2
ENDMDL
