MODEL 1
REMARK minimizedAffinity 12.5347443
REMARK minimizedRMSD -1
REMARK  2 active torsions:
REMARK  status: ('A' for Active; 'I' for Inactive)
REMARK    1  A    between atoms: C2'_3  and  C1'_4 
REMARK    2  A    between atoms: C1'_4  and  C1_5 
ROOT
ATOM      1  C1  I4B d   1       4.490   2.215   0.279  0.00  0.00    -0.075 A 
ATOM      2  C2  I4B d   1       3.189   2.650   0.316  0.00  0.00     0.003 A 
ATOM      3  C3  I4B d   1       2.879   3.998   0.012  0.00  0.00     0.002 A 
ATOM      4  C4  I4B d   1       3.899   4.882  -0.272  0.00  0.00    -0.004 A 
ATOM      5  C5  I4B d   1       5.215   4.434  -0.332  0.00  0.00     0.002 A 
ATOM      6  C6  I4B d   1       5.512   3.090  -0.067  0.00  0.00     0.003 A 
ENDROOT
BRANCH   1   7
ATOM      7  C1' I4B d   1       4.785   0.793   0.637  0.00  0.00     0.060 C 
BRANCH   7   8
ATOM      8  C2' I4B d   1       4.755   0.676   2.147  0.00  0.00    -0.013 C 
ATOM      9  C4' I4B d   1       3.520  -0.048   2.613  0.00  0.00     0.013 C 
ATOM     10  C3' I4B d   1       5.999  -0.040   2.582  0.00  0.00     0.013 C 
ENDBRANCH   7   8
ENDBRANCH   1   7
TORSDOF 2
ENDMDL
