MODEL 1
REMARK minimizedAffinity 3.66789341
REMARK minimizedRMSD -1
REMARK  2 active torsions:
REMARK  status: ('A' for Active; 'I' for Inactive)
REMARK    1  A    between atoms: C2'_3  and  C1'_4 
REMARK    2  A    between atoms: C1'_4  and  C1_5 
ROOT
ATOM      1  C1  I4B d   1       0.810   0.740  -3.237  0.00  0.00    -0.075 A 
ATOM      2  C2  I4B d   1       0.003  -0.315  -3.583  0.00  0.00     0.003 A 
ATOM      3  C3  I4B d   1      -1.363  -0.097  -3.885  0.00  0.00     0.002 A 
ATOM      4  C4  I4B d   1      -1.889   1.174  -3.778  0.00  0.00    -0.004 A 
ATOM      5  C5  I4B d   1      -1.063   2.246  -3.449  0.00  0.00     0.002 A 
ATOM      6  C6  I4B d   1       0.298   2.029  -3.188  0.00  0.00     0.003 A 
ENDROOT
BRANCH   1   7
ATOM      7  C1' I4B d   1       2.241   0.469  -2.893  0.00  0.00     0.060 C 
BRANCH   7   8
ATOM      8  C2' I4B d   1       2.799  -0.483  -3.930  0.00  0.00    -0.013 C 
ATOM      9  C4' I4B d   1       4.134  -0.012  -4.442  0.00  0.00     0.013 C 
ATOM     10  C3' I4B d   1       2.908  -1.840  -3.302  0.00  0.00     0.013 C 
ENDBRANCH   7   8
ENDBRANCH   1   7
TORSDOF 2
ENDMDL
