MODEL 1
REMARK minimizedAffinity 3.21670842
REMARK minimizedRMSD -1
REMARK  2 active torsions:
REMARK  status: ('A' for Active; 'I' for Inactive)
REMARK    1  A    between atoms: C2'_3  and  C1'_4 
REMARK    2  A    between atoms: C1'_4  and  C1_5 
ROOT
ATOM      1  C1  I4B d   1       1.631   1.534   1.053  0.00  0.00    -0.075 A 
ATOM      2  C2  I4B d   1       2.569   1.505   0.051  0.00  0.00     0.003 A 
ATOM      3  C3  I4B d   1       3.832   0.905   0.274  0.00  0.00     0.002 A 
ATOM      4  C4  I4B d   1       4.132   0.396   1.521  0.00  0.00    -0.004 A 
ATOM      5  C5  I4B d   1       3.171   0.406   2.529  0.00  0.00     0.002 A 
ATOM      6  C6  I4B d   1       1.909   0.967   2.290  0.00  0.00     0.003 A 
ENDROOT
BRANCH   1   7
ATOM      7  C1' I4B d   1       0.319   2.204   0.793  0.00  0.00     0.060 C 
BRANCH   7   8
ATOM      8  C2' I4B d   1      -0.686   1.134   0.419  0.00  0.00    -0.013 C 
ATOM      9  C4' I4B d   1      -2.017   1.382   1.078  0.00  0.00     0.013 C 
ATOM     10  C3' I4B d   1      -0.816   1.123  -1.075  0.00  0.00     0.013 C 
ENDBRANCH   7   8
ENDBRANCH   1   7
TORSDOF 2
ENDMDL
