MODEL 1
REMARK minimizedAffinity 14.7891464
REMARK minimizedRMSD -1
REMARK  2 active torsions:
REMARK  status: ('A' for Active; 'I' for Inactive)
REMARK    1  A    between atoms: C2'_3  and  C1'_4 
REMARK    2  A    between atoms: C1'_4  and  C1_5 
ROOT
ATOM      1  C1  I4B d   1       0.798  -5.340   1.653  0.00  0.00    -0.075 A 
ATOM      2  C2  I4B d   1       1.033  -4.162   2.317  0.00  0.00     0.003 A 
ATOM      3  C3  I4B d   1       2.295  -3.529   2.220  0.00  0.00     0.002 A 
ATOM      4  C4  I4B d   1       3.303  -4.130   1.494  0.00  0.00    -0.004 A 
ATOM      5  C5  I4B d   1       3.056  -5.313   0.803  0.00  0.00     0.002 A 
ATOM      6  C6  I4B d   1       1.792  -5.916   0.873  0.00  0.00     0.003 A 
ENDROOT
BRANCH   1   7
ATOM      7  C1' I4B d   1      -0.537  -5.999   1.804  0.00  0.00     0.060 C 
BRANCH   7   8
ATOM      8  C2' I4B d   1      -1.471  -5.403   0.771  0.00  0.00    -0.013 C 
ATOM      9  C4' I4B d   1      -2.851  -5.998   0.875  0.00  0.00     0.013 C 
ATOM     10  C3' I4B d   1      -1.505  -3.918   0.979  0.00  0.00     0.013 C 
ENDBRANCH   7   8
ENDBRANCH   1   7
TORSDOF 2
ENDMDL
