MODEL 1
REMARK minimizedAffinity 0.19364582
REMARK minimizedRMSD -1
REMARK  2 active torsions:
REMARK  status: ('A' for Active; 'I' for Inactive)
REMARK    1  A    between atoms: C1_2  and  C2_3 
REMARK    2  A    between atoms: C2_3  and  C3_4 
ROOT
ATOM      1  C3  UNL d   1       1.466  -1.460   0.387  0.00  0.00    -0.075 A 
ATOM      2  C4  UNL d   1       2.043  -0.265   0.842  0.00  0.00     0.002 A 
ATOM      3  C5  UNL d   1       1.308   0.624   1.626  0.00  0.00     0.002 A 
ATOM      4  C6  UNL d   1      -0.015   0.336   1.957  0.00  0.00    -0.004 A 
ATOM      5  C7  UNL d   1      -0.604  -0.840   1.497  0.00  0.00     0.002 A 
ATOM      6  C8  UNL d   1       0.131  -1.733   0.715  0.00  0.00     0.002 A 
ENDROOT
BRANCH   1   7
ATOM      7  C2  UNL d   1       2.266  -2.440  -0.437  0.00  0.00     0.056 C 
BRANCH   7   8
ATOM      8  C1  UNL d   1       2.657  -3.715   0.316  0.00  0.00     0.007 C 
ATOM      9  C   UNL d   1       4.027  -4.249  -0.079  0.00  0.00     0.009 C 
ENDBRANCH   7   8
ENDBRANCH   1   7
TORSDOF 2
ENDMDL
