MODEL 1
REMARK minimizedAffinity -1.23276424
REMARK minimizedRMSD -1
REMARK  2 active torsions:
REMARK  status: ('A' for Active; 'I' for Inactive)
REMARK    1  A    between atoms: C1_2  and  C2_3 
REMARK    2  A    between atoms: C2_3  and  C3_4 
ROOT
ATOM      1  C3  UNL d   1       1.489  -2.404   0.481  0.00  0.00    -0.075 A 
ATOM      2  C4  UNL d   1       2.158  -1.232   0.863  0.00  0.00     0.002 A 
ATOM      3  C5  UNL d   1       1.488  -0.232   1.569  0.00  0.00     0.002 A 
ATOM      4  C6  UNL d   1       0.142  -0.386   1.893  0.00  0.00    -0.004 A 
ATOM      5  C7  UNL d   1      -0.537  -1.539   1.504  0.00  0.00     0.002 A 
ATOM      6  C8  UNL d   1       0.132  -2.543   0.802  0.00  0.00     0.002 A 
ENDROOT
BRANCH   1   7
ATOM      7  C2  UNL d   1       2.216  -3.502  -0.257  0.00  0.00     0.056 C 
BRANCH   7   8
ATOM      8  C1  UNL d   1       3.466  -4.017   0.464  0.00  0.00     0.007 C 
ATOM      9  C   UNL d   1       4.466  -4.685  -0.470  0.00  0.00     0.009 C 
ENDBRANCH   7   8
ENDBRANCH   1   7
TORSDOF 2
ENDMDL
