MODEL 1
REMARK minimizedAffinity 1.79488671
REMARK minimizedRMSD -1
REMARK  2 active torsions:
REMARK  status: ('A' for Active; 'I' for Inactive)
REMARK    1  A    between atoms: C1_2  and  C2_3 
REMARK    2  A    between atoms: C2_3  and  C3_4 
ROOT
ATOM      1  C3  UNL d   1      -1.932   3.699  -4.233  0.00  0.00    -0.075 A 
ATOM      2  C4  UNL d   1      -1.746   4.259  -2.960  0.00  0.00     0.002 A 
ATOM      3  C5  UNL d   1      -2.706   4.085  -1.963  0.00  0.00     0.002 A 
ATOM      4  C6  UNL d   1      -3.866   3.360  -2.227  0.00  0.00    -0.004 A 
ATOM      5  C7  UNL d   1      -4.069   2.813  -3.493  0.00  0.00     0.002 A 
ATOM      6  C8  UNL d   1      -3.108   2.982  -4.491  0.00  0.00     0.002 A 
ENDROOT
BRANCH   1   7
ATOM      7  C2  UNL d   1      -0.883   3.859  -5.307  0.00  0.00     0.056 C 
BRANCH   7   8
ATOM      8  C1  UNL d   1       0.310   2.909  -5.160  0.00  0.00     0.007 C 
ATOM      9  C   UNL d   1       1.541   3.367  -5.932  0.00  0.00     0.009 C 
ENDBRANCH   7   8
ENDBRANCH   1   7
TORSDOF 2
ENDMDL
