MODEL 1
REMARK minimizedAffinity -0.892135441
REMARK minimizedRMSD -1
REMARK  2 active torsions:
REMARK  status: ('A' for Active; 'I' for Inactive)
REMARK    1  A    between atoms: C1_2  and  C2_3 
REMARK    2  A    between atoms: C2_3  and  C3_4 
ROOT
ATOM      1  C3  UNL d   1      -2.406   3.534  -4.265  0.00  0.00    -0.075 A 
ATOM      2  C4  UNL d   1      -2.336   4.302  -3.093  0.00  0.00     0.002 A 
ATOM      3  C5  UNL d   1      -3.234   4.082  -2.048  0.00  0.00     0.002 A 
ATOM      4  C6  UNL d   1      -4.216   3.102  -2.164  0.00  0.00    -0.004 A 
ATOM      5  C7  UNL d   1      -4.306   2.344  -3.330  0.00  0.00     0.002 A 
ATOM      6  C8  UNL d   1      -3.407   2.559  -4.376  0.00  0.00     0.002 A 
ENDROOT
BRANCH   1   7
ATOM      7  C2  UNL d   1      -1.420   3.747  -5.388  0.00  0.00     0.056 C 
BRANCH   7   8
ATOM      8  C1  UNL d   1      -0.061   3.078  -5.160  0.00  0.00     0.007 C 
ATOM      9  C   UNL d   1       1.056   3.684  -5.999  0.00  0.00     0.009 C 
ENDBRANCH   7   8
ENDBRANCH   1   7
TORSDOF 2
ENDMDL
