MODEL 1
REMARK minimizedAffinity -3.34802842
REMARK minimizedRMSD -1
REMARK  2 active torsions:
REMARK  status: ('A' for Active; 'I' for Inactive)
REMARK    1  A    between atoms: C1_2  and  C2_3 
REMARK    2  A    between atoms: C2_3  and  C3_4 
ROOT
ATOM      1  C3  UNL d   1       2.165  -3.249   0.567  0.00  0.00    -0.075 A 
ATOM      2  C4  UNL d   1       2.369  -2.265  -0.412  0.00  0.00     0.002 A 
ATOM      3  C5  UNL d   1       1.667  -1.060  -0.362  0.00  0.00     0.002 A 
ATOM      4  C6  UNL d   1       0.747  -0.829   0.658  0.00  0.00    -0.004 A 
ATOM      5  C7  UNL d   1       0.524  -1.806   1.626  0.00  0.00     0.002 A 
ATOM      6  C8  UNL d   1       1.228  -3.010   1.581  0.00  0.00     0.002 A 
ENDROOT
BRANCH   1   7
ATOM      7  C2  UNL d   1       2.943  -4.543   0.535  0.00  0.00     0.056 C 
BRANCH   7   8
ATOM      8  C1  UNL d   1       4.116  -4.541  -0.450  0.00  0.00     0.007 C 
ATOM      9  C   UNL d   1       4.620  -5.938  -0.786  0.00  0.00     0.009 C 
ENDBRANCH   7   8
ENDBRANCH   1   7
TORSDOF 2
ENDMDL
