MODEL 1
REMARK minimizedAffinity -1.209638
REMARK minimizedRMSD -1
REMARK  2 active torsions:
REMARK  status: ('A' for Active; 'I' for Inactive)
REMARK    1  A    between atoms: C1_2  and  C2_3 
REMARK    2  A    between atoms: C2_3  and  C3_4 
ROOT
ATOM      1  C3  UNL d   1       0.447  -2.428   1.587  0.00  0.00    -0.075 A 
ATOM      2  C4  UNL d   1       1.689  -2.734   1.013  0.00  0.00     0.002 A 
ATOM      3  C5  UNL d   1       2.083  -4.061   0.841  0.00  0.00     0.002 A 
ATOM      4  C6  UNL d   1       1.245  -5.097   1.249  0.00  0.00    -0.004 A 
ATOM      5  C7  UNL d   1       0.016  -4.805   1.836  0.00  0.00     0.002 A 
ATOM      6  C8  UNL d   1      -0.382  -3.478   2.005  0.00  0.00     0.002 A 
ENDROOT
BRANCH   1   7
ATOM      7  C2  UNL d   1       0.002  -0.994   1.749  0.00  0.00     0.056 C 
BRANCH   7   8
ATOM      8  C1  UNL d   1      -0.295  -0.280   0.426  0.00  0.00     0.007 C 
ATOM      9  C   UNL d   1      -1.779  -0.238   0.087  0.00  0.00     0.009 C 
ENDBRANCH   7   8
ENDBRANCH   1   7
TORSDOF 2
ENDMDL
