MODEL 1
REMARK minimizedAffinity -0.0264809281
REMARK minimizedRMSD -1
REMARK  2 active torsions:
REMARK  status: ('A' for Active; 'I' for Inactive)
REMARK    1  A    between atoms: C1_2  and  C2_3 
REMARK    2  A    between atoms: C2_3  and  C3_4 
ROOT
ATOM      1  C3  UNL d   1       0.863  -3.207   1.746  0.00  0.00    -0.075 A 
ATOM      2  C4  UNL d   1      -0.384  -3.719   2.136  0.00  0.00     0.002 A 
ATOM      3  C5  UNL d   1      -1.393  -2.864   2.580  0.00  0.00     0.002 A 
ATOM      4  C6  UNL d   1      -1.166  -1.491   2.651  0.00  0.00    -0.004 A 
ATOM      5  C7  UNL d   1       0.074  -0.974   2.282  0.00  0.00     0.002 A 
ATOM      6  C8  UNL d   1       1.084  -1.826   1.833  0.00  0.00     0.002 A 
ENDROOT
BRANCH   1   7
ATOM      7  C2  UNL d   1       1.949  -4.124   1.237  0.00  0.00     0.056 C 
BRANCH   7   8
ATOM      8  C1  UNL d   1       2.733  -3.560   0.047  0.00  0.00     0.007 C 
ATOM      9  C   UNL d   1       3.815  -4.505  -0.460  0.00  0.00     0.009 C 
ENDBRANCH   7   8
ENDBRANCH   1   7
TORSDOF 2
ENDMDL
