MODEL 1
REMARK minimizedAffinity 3.78443575
REMARK minimizedRMSD -1
REMARK  2 active torsions:
REMARK  status: ('A' for Active; 'I' for Inactive)
REMARK    1  A    between atoms: C1_2  and  C2_3 
REMARK    2  A    between atoms: C2_3  and  C3_4 
ROOT
ATOM      1  C3  UNL d   1      -4.355   3.743   5.468  0.00  0.00    -0.075 A 
ATOM      2  C4  UNL d   1      -3.671   3.076   4.442  0.00  0.00     0.002 A 
ATOM      3  C5  UNL d   1      -4.154   1.868   3.938  0.00  0.00     0.002 A 
ATOM      4  C6  UNL d   1      -5.318   1.308   4.460  0.00  0.00    -0.004 A 
ATOM      5  C7  UNL d   1      -5.996   1.954   5.491  0.00  0.00     0.002 A 
ATOM      6  C8  UNL d   1      -5.518   3.165   5.994  0.00  0.00     0.002 A 
ENDROOT
BRANCH   1   7
ATOM      7  C2  UNL d   1      -3.853   5.066   5.997  0.00  0.00     0.056 C 
BRANCH   7   8
ATOM      8  C1  UNL d   1      -2.731   5.687   5.160  0.00  0.00     0.007 C 
ATOM      9  C   UNL d   1      -1.479   5.999   5.970  0.00  0.00     0.009 C 
ENDBRANCH   7   8
ENDBRANCH   1   7
TORSDOF 2
ENDMDL
