MODEL 1
REMARK minimizedAffinity -0.406888843
REMARK minimizedRMSD -1
REMARK  2 active torsions:
REMARK  status: ('A' for Active; 'I' for Inactive)
REMARK    1  A    between atoms: C1_2  and  C2_3 
REMARK    2  A    between atoms: C2_3  and  C3_4 
ROOT
ATOM      1  C3  UNL d   1      -4.101  -0.291  -4.872  0.00  0.00    -0.075 A 
ATOM      2  C4  UNL d   1      -3.376  -0.707  -3.746  0.00  0.00     0.002 A 
ATOM      3  C5  UNL d   1      -2.693  -1.923  -3.752  0.00  0.00     0.002 A 
ATOM      4  C6  UNL d   1      -2.733  -2.742  -4.879  0.00  0.00    -0.004 A 
ATOM      5  C7  UNL d   1      -3.464  -2.346  -5.997  0.00  0.00     0.002 A 
ATOM      6  C8  UNL d   1      -4.145  -1.128  -5.995  0.00  0.00     0.002 A 
ENDROOT
BRANCH   1   7
ATOM      7  C2  UNL d   1      -4.818   1.038  -4.882  0.00  0.00     0.056 C 
BRANCH   7   8
ATOM      8  C1  UNL d   1      -4.056   2.163  -4.173  0.00  0.00     0.007 C 
ATOM      9  C   UNL d   1      -4.745   2.648  -2.904  0.00  0.00     0.009 C 
ENDBRANCH   7   8
ENDBRANCH   1   7
TORSDOF 2
ENDMDL
