MODEL 1
REMARK minimizedAffinity 2.39846468
REMARK minimizedRMSD -1
REMARK  2 active torsions:
REMARK  status: ('A' for Active; 'I' for Inactive)
REMARK    1  A    between atoms: C1_2  and  C2_3 
REMARK    2  A    between atoms: C2_3  and  C3_4 
ROOT
ATOM      1  C3  UNL d   1       1.729  -3.361   1.054  0.00  0.00    -0.075 A 
ATOM      2  C4  UNL d   1       0.792  -4.279   1.551  0.00  0.00     0.002 A 
ATOM      3  C5  UNL d   1      -0.430  -3.839   2.059  0.00  0.00     0.002 A 
ATOM      4  C6  UNL d   1      -0.727  -2.478   2.087  0.00  0.00    -0.004 A 
ATOM      5  C7  UNL d   1       0.203  -1.556   1.612  0.00  0.00     0.002 A 
ATOM      6  C8  UNL d   1       1.425  -1.994   1.098  0.00  0.00     0.002 A 
ENDROOT
BRANCH   1   7
ATOM      7  C2  UNL d   1       3.041  -3.833   0.475  0.00  0.00     0.056 C 
BRANCH   7   8
ATOM      8  C1  UNL d   1       3.451  -5.240   0.925  0.00  0.00     0.007 C 
ATOM      9  C   UNL d   1       4.931  -5.531   0.711  0.00  0.00     0.009 C 
ENDBRANCH   7   8
ENDBRANCH   1   7
TORSDOF 2
ENDMDL
