MODEL 1
REMARK minimizedAffinity -4.56651878
REMARK minimizedRMSD -1
REMARK  0 active torsions:
REMARK  status: ('A' for Active; 'I' for Inactive)
ROOT
ATOM      1  C1  DEN d   1      -2.466  -1.681  -0.181  0.00  0.00     0.130 A 
ATOM      2  C2  DEN d   1      -2.799  -0.608  -1.113  0.00  0.00    -0.031 A 
ATOM      3  C3  DEN d   1      -1.598   0.234  -1.287  0.00  0.00     0.027 A 
ATOM      4  C4  DEN d   1       0.733  -0.022  -0.214  0.00  0.00     0.027 A 
ATOM      5  C5  DEN d   1       1.492  -0.775   0.655  0.00  0.00    -0.003 A 
ATOM      6  C6  DEN d   1       0.980  -1.853   1.326  0.00  0.00     0.001 A 
ATOM      7  C7  DEN d   1      -0.317  -2.237   1.105  0.00  0.00     0.017 A 
ATOM      8  C8  DEN d   1      -1.091  -1.479   0.237  0.00  0.00    -0.094 A 
ATOM      9  C9  DEN d   1      -0.551  -0.399  -0.442  0.00  0.00    -0.072 A 
ENDROOT
TORSDOF 0
ENDMDL
