MODEL 1
REMARK minimizedAffinity -4.17588377
REMARK minimizedRMSD -1
REMARK  0 active torsions:
REMARK  status: ('A' for Active; 'I' for Inactive)
ROOT
ATOM      1  C1  DEN d   1       0.714   0.050   1.455  0.00  0.00     0.130 A 
ATOM      2  C2  DEN d   1       1.840   0.760   0.856  0.00  0.00    -0.031 A 
ATOM      3  C3  DEN d   1       1.505   1.040  -0.555  0.00  0.00     0.027 A 
ATOM      4  C4  DEN d   1      -0.640   0.451  -1.861  0.00  0.00     0.027 A 
ATOM      5  C5  DEN d   1      -1.872  -0.160  -1.779  0.00  0.00    -0.003 A 
ATOM      6  C6  DEN d   1      -2.310  -0.769  -0.633  0.00  0.00     0.001 A 
ATOM      7  C7  DEN d   1      -1.529  -0.740   0.492  0.00  0.00     0.017 A 
ATOM      8  C8  DEN d   1      -0.283  -0.132   0.416  0.00  0.00    -0.094 A 
ATOM      9  C9  DEN d   1       0.137   0.488  -0.749  0.00  0.00    -0.072 A 
ENDROOT
TORSDOF 0
ENDMDL
