MODEL 1
REMARK minimizedAffinity -3.73792481
REMARK minimizedRMSD -1
REMARK  0 active torsions:
REMARK  status: ('A' for Active; 'I' for Inactive)
ROOT
ATOM      1  C1  DEN d   1       0.493   0.006  -1.263  0.00  0.00     0.130 A 
ATOM      2  C2  DEN d   1       1.265   0.448  -0.106  0.00  0.00    -0.031 A 
ATOM      3  C3  DEN d   1       0.386   0.386   1.080  0.00  0.00     0.027 A 
ATOM      4  C4  DEN d   1      -2.080  -0.353   1.235  0.00  0.00     0.027 A 
ATOM      5  C5  DEN d   1      -3.164  -0.803   0.514  0.00  0.00    -0.003 A 
ATOM      6  C6  DEN d   1      -3.116  -0.981  -0.843  0.00  0.00     0.001 A 
ATOM      7  C7  DEN d   1      -1.946  -0.751  -1.517  0.00  0.00     0.017 A 
ATOM      8  C8  DEN d   1      -0.850  -0.290  -0.798  0.00  0.00    -0.094 A 
ATOM      9  C9  DEN d   1      -0.915  -0.128   0.575  0.00  0.00    -0.072 A 
ENDROOT
TORSDOF 0
ENDMDL
