MODEL 1
REMARK minimizedAffinity -4.5873313
REMARK minimizedRMSD -1
REMARK  0 active torsions:
REMARK  status: ('A' for Active; 'I' for Inactive)
ROOT
ATOM      1  C1  DEN d   1      -2.541  -0.679   0.927  0.00  0.00     0.130 A 
ATOM      2  C2  DEN d   1      -3.442  -0.725  -0.221  0.00  0.00    -0.031 A 
ATOM      3  C3  DEN d   1      -2.688  -0.285  -1.411  0.00  0.00     0.027 A 
ATOM      4  C4  DEN d   1      -0.224   0.456  -1.588  0.00  0.00     0.027 A 
ATOM      5  C5  DEN d   1       0.938   0.670  -0.880  0.00  0.00    -0.003 A 
ATOM      6  C6  DEN d   1       1.011   0.484   0.476  0.00  0.00     0.001 A 
ATOM      7  C7  DEN d   1      -0.086   0.028   1.158  0.00  0.00     0.017 A 
ATOM      8  C8  DEN d   1      -1.262  -0.184   0.452  0.00  0.00    -0.094 A 
ATOM      9  C9  DEN d   1      -1.313  -0.002  -0.920  0.00  0.00    -0.072 A 
ENDROOT
TORSDOF 0
ENDMDL
