MODEL 1
REMARK minimizedAffinity -4.68925619
REMARK minimizedRMSD -1
REMARK  0 active torsions:
REMARK  status: ('A' for Active; 'I' for Inactive)
ROOT
ATOM      1  C1  DEN d   1      -2.414  -2.039   0.042  0.00  0.00     0.130 A 
ATOM      2  C2  DEN d   1      -1.773  -2.677   1.189  0.00  0.00    -0.031 A 
ATOM      3  C3  DEN d   1      -0.459  -2.035   1.393  0.00  0.00     0.027 A 
ATOM      4  C4  DEN d   1       0.638  -0.122   0.055  0.00  0.00     0.027 A 
ATOM      5  C5  DEN d   1       0.482   0.734  -1.014  0.00  0.00    -0.003 A 
ATOM      6  C6  DEN d   1      -0.626   0.702  -1.819  0.00  0.00     0.001 A 
ATOM      7  C7  DEN d   1      -1.642  -0.173  -1.541  0.00  0.00     0.017 A 
ATOM      8  C8  DEN d   1      -1.489  -1.044  -0.470  0.00  0.00    -0.094 A 
ATOM      9  C9  DEN d   1      -0.367  -0.988   0.339  0.00  0.00    -0.072 A 
ENDROOT
TORSDOF 0
ENDMDL
