MODEL 1
REMARK minimizedAffinity -4.40519428
REMARK minimizedRMSD -1
REMARK  0 active torsions:
REMARK  status: ('A' for Active; 'I' for Inactive)
ROOT
ATOM      1  C1  DEN d   1      -1.459   0.818  -0.615  0.00  0.00     0.130 A 
ATOM      2  C2  DEN d   1      -2.772   0.249  -0.325  0.00  0.00    -0.031 A 
ATOM      3  C3  DEN d   1      -2.591  -0.847   0.648  0.00  0.00     0.027 A 
ATOM      4  C4  DEN d   1      -0.415  -1.710   1.732  0.00  0.00     0.027 A 
ATOM      5  C5  DEN d   1       0.952  -1.549   1.787  0.00  0.00    -0.003 A 
ATOM      6  C6  DEN d   1       1.609  -0.619   1.027  0.00  0.00     0.001 A 
ATOM      7  C7  DEN d   1       0.895   0.218   0.211  0.00  0.00     0.017 A 
ATOM      8  C8  DEN d   1      -0.483   0.057   0.144  0.00  0.00    -0.094 A 
ATOM      9  C9  DEN d   1      -1.130  -0.881   0.929  0.00  0.00    -0.072 A 
ENDROOT
TORSDOF 0
ENDMDL
