MODEL 1
REMARK minimizedAffinity -5.13052416
REMARK minimizedRMSD -1
REMARK  0 active torsions:
REMARK  status: ('A' for Active; 'I' for Inactive)
ROOT
ATOM      1  C1  DEN d   1      -0.355   0.692  -0.675  0.00  0.00     0.130 A 
ATOM      2  C2  DEN d   1       0.847   0.362   0.084  0.00  0.00    -0.031 A 
ATOM      3  C3  DEN d   1       0.540  -0.798   0.945  0.00  0.00     0.027 A 
ATOM      4  C4  DEN d   1      -1.669  -2.111   1.169  0.00  0.00     0.027 A 
ATOM      5  C5  DEN d   1      -2.974  -2.196   0.736  0.00  0.00    -0.003 A 
ATOM      6  C6  DEN d   1      -3.503  -1.311  -0.166  0.00  0.00     0.001 A 
ATOM      7  C7  DEN d   1      -2.710  -0.328  -0.697  0.00  0.00     0.017 A 
ATOM      8  C8  DEN d   1      -1.395  -0.232  -0.259  0.00  0.00    -0.094 A 
ATOM      9  C9  DEN d   1      -0.876  -1.144   0.643  0.00  0.00    -0.072 A 
ENDROOT
TORSDOF 0
ENDMDL
