MODEL 1
REMARK minimizedAffinity -1.34173977
REMARK minimizedRMSD -1
REMARK  0 active torsions:
REMARK  status: ('A' for Active; 'I' for Inactive)
ROOT
ATOM      1  C1  DEN d   1       0.703  -0.274   1.001  0.00  0.00     0.130 A 
ATOM      2  C2  DEN d   1       1.602   0.307   0.008  0.00  0.00    -0.031 A 
ATOM      3  C3  DEN d   1       0.813   0.602  -1.204  0.00  0.00     0.027 A 
ATOM      4  C4  DEN d   1      -1.701   0.223  -1.637  0.00  0.00     0.027 A 
ATOM      5  C5  DEN d   1      -2.874  -0.256  -1.095  0.00  0.00    -0.003 A 
ATOM      6  C6  DEN d   1      -2.929  -0.801   0.161  0.00  0.00     0.001 A 
ATOM      7  C7  DEN d   1      -1.799  -0.839   0.934  0.00  0.00     0.017 A 
ATOM      8  C8  DEN d   1      -0.611  -0.365   0.392  0.00  0.00    -0.094 A 
ATOM      9  C9  DEN d   1      -0.579   0.193  -0.875  0.00  0.00    -0.072 A 
ENDROOT
TORSDOF 0
ENDMDL
