MODEL 1
REMARK minimizedAffinity -1.93321776
REMARK minimizedRMSD -1
REMARK  0 active torsions:
REMARK  status: ('A' for Active; 'I' for Inactive)
ROOT
ATOM      1  C1  DEN d   1       0.807  -0.189   0.453  0.00  0.00     0.130 A 
ATOM      2  C2  DEN d   1       0.757   0.727  -0.684  0.00  0.00    -0.031 A 
ATOM      3  C3  DEN d   1      -0.503   0.481  -1.413  0.00  0.00     0.027 A 
ATOM      4  C4  DEN d   1      -2.375  -1.215  -0.892  0.00  0.00     0.027 A 
ATOM      5  C5  DEN d   1      -2.775  -2.217  -0.036  0.00  0.00    -0.003 A 
ATOM      6  C6  DEN d   1      -2.001  -2.633   1.015  0.00  0.00     0.001 A 
ATOM      7  C7  DEN d   1      -0.805  -2.013   1.263  0.00  0.00     0.017 A 
ATOM      8  C8  DEN d   1      -0.391  -1.007   0.400  0.00  0.00    -0.094 A 
ATOM      9  C9  DEN d   1      -1.194  -0.593  -0.649  0.00  0.00    -0.072 A 
ENDROOT
TORSDOF 0
ENDMDL
