MODEL 1
REMARK minimizedAffinity -4.3118844
REMARK minimizedRMSD -1
REMARK  0 active torsions:
REMARK  status: ('A' for Active; 'I' for Inactive)
ROOT
ATOM      1  C1  DEN d   1       0.477   0.566  -1.035  0.00  0.00     0.130 A 
ATOM      2  C2  DEN d   1       1.433   0.492   0.067  0.00  0.00    -0.031 A 
ATOM      3  C3  DEN d   1       0.772  -0.188   1.199  0.00  0.00     0.027 A 
ATOM      4  C4  DEN d   1      -1.623  -1.133   1.350  0.00  0.00     0.027 A 
ATOM      5  C5  DEN d   1      -2.811  -1.296   0.671  0.00  0.00    -0.003 A 
ATOM      6  C6  DEN d   1      -2.995  -0.823  -0.601  0.00  0.00     0.001 A 
ATOM      7  C7  DEN d   1      -1.961  -0.204  -1.252  0.00  0.00     0.017 A 
ATOM      8  C8  DEN d   1      -0.763  -0.030  -0.572  0.00  0.00    -0.094 A 
ATOM      9  C9  DEN d   1      -0.592  -0.526   0.710  0.00  0.00    -0.072 A 
ENDROOT
TORSDOF 0
ENDMDL
