MODEL 1
REMARK minimizedAffinity -5.39781189
REMARK minimizedRMSD -1
REMARK  0 active torsions:
REMARK  status: ('A' for Active; 'I' for Inactive)
ROOT
ATOM      1  C1  DEN d   1       0.429   0.317   0.303  0.00  0.00     0.130 A 
ATOM      2  C2  DEN d   1       0.927   0.480  -1.060  0.00  0.00    -0.031 A 
ATOM      3  C3  DEN d   1      -0.130   0.032  -1.989  0.00  0.00     0.027 A 
ATOM      4  C4  DEN d   1      -2.479  -0.887  -1.451  0.00  0.00     0.027 A 
ATOM      5  C5  DEN d   1      -3.349  -1.220  -0.437  0.00  0.00    -0.003 A 
ATOM      6  C6  DEN d   1      -3.011  -1.096   0.885  0.00  0.00     0.001 A 
ATOM      7  C7  DEN d   1      -1.787  -0.586   1.228  0.00  0.00     0.017 A 
ATOM      8  C8  DEN d   1      -0.902  -0.255   0.210  0.00  0.00    -0.094 A 
ATOM      9  C9  DEN d   1      -1.267  -0.376  -1.120  0.00  0.00    -0.072 A 
ENDROOT
TORSDOF 0
ENDMDL
