MODEL 1
REMARK minimizedAffinity -4.3359108
REMARK minimizedRMSD -1
REMARK  0 active torsions:
REMARK  status: ('A' for Active; 'I' for Inactive)
ROOT
ATOM      1  C1  DEN d   1       0.449   0.325   1.603  0.00  0.00     0.130 A 
ATOM      2  C2  DEN d   1       1.645   0.710   0.860  0.00  0.00    -0.031 A 
ATOM      3  C3  DEN d   1       1.348   0.587  -0.581  0.00  0.00     0.027 A 
ATOM      4  C4  DEN d   1      -0.840  -0.156  -1.728  0.00  0.00     0.027 A 
ATOM      5  C5  DEN d   1      -2.128  -0.593  -1.513  0.00  0.00    -0.003 A 
ATOM      6  C6  DEN d   1      -2.633  -0.785  -0.254  0.00  0.00     0.001 A 
ATOM      7  C7  DEN d   1      -1.859  -0.497   0.839  0.00  0.00     0.017 A 
ATOM      8  C8  DEN d   1      -0.556  -0.063   0.630  0.00  0.00    -0.094 A 
ATOM      9  C9  DEN d   1      -0.069   0.137  -0.651  0.00  0.00    -0.072 A 
ENDROOT
TORSDOF 0
ENDMDL
