MODEL 1
REMARK minimizedAffinity 0.997454584
REMARK minimizedRMSD -1
REMARK  0 active torsions:
REMARK  status: ('A' for Active; 'I' for Inactive)
ROOT
ATOM      1  C1  DEN d   1       0.790   0.218   1.901  0.00  0.00     0.130 A 
ATOM      2  C2  DEN d   1       0.402  -0.471   0.674  0.00  0.00    -0.031 A 
ATOM      3  C3  DEN d   1       1.150   0.135  -0.446  0.00  0.00     0.027 A 
ATOM      4  C4  DEN d   1       2.868   2.058  -0.397  0.00  0.00     0.027 A 
ATOM      5  C5  DEN d   1       3.514   2.966   0.413  0.00  0.00    -0.003 A 
ATOM      6  C6  DEN d   1       3.274   3.043   1.759  0.00  0.00     0.001 A 
ATOM      7  C7  DEN d   1       2.398   2.167   2.344  0.00  0.00     0.017 A 
ATOM      8  C8  DEN d   1       1.737   1.254   1.533  0.00  0.00    -0.094 A 
ATOM      9  C9  DEN d   1       2.002   1.184   0.176  0.00  0.00    -0.072 A 
ENDROOT
TORSDOF 0
ENDMDL
