MODEL 1
REMARK minimizedAffinity -4.89838362
REMARK minimizedRMSD -1
REMARK  0 active torsions:
REMARK  status: ('A' for Active; 'I' for Inactive)
ROOT
ATOM      1  C1  DEN d   1       0.797  -0.766   1.057  0.00  0.00     0.130 A 
ATOM      2  C2  DEN d   1       1.828   0.045   0.415  0.00  0.00    -0.031 A 
ATOM      3  C3  DEN d   1       1.198   0.792  -0.692  0.00  0.00     0.027 A 
ATOM      4  C4  DEN d   1      -1.262   0.777  -1.467  0.00  0.00     0.027 A 
ATOM      5  C5  DEN d   1      -2.508   0.236  -1.237  0.00  0.00    -0.003 A 
ATOM      6  C6  DEN d   1      -2.730  -0.694  -0.257  0.00  0.00     0.001 A 
ATOM      7  C7  DEN d   1      -1.701  -1.079   0.560  0.00  0.00     0.017 A 
ATOM      8  C8  DEN d   1      -0.440  -0.544   0.330  0.00  0.00    -0.094 A 
ATOM      9  C9  DEN d   1      -0.238   0.405  -0.658  0.00  0.00    -0.072 A 
ENDROOT
TORSDOF 0
ENDMDL
