MODEL 1
REMARK minimizedAffinity -5.58284521
REMARK minimizedRMSD -1
REMARK  0 active torsions:
REMARK  status: ('A' for Active; 'I' for Inactive)
ROOT
ATOM      1  C1  DEN d   1       0.587  -0.363   0.478  0.00  0.00     0.130 A 
ATOM      2  C2  DEN d   1       1.209  -0.158  -0.827  0.00  0.00    -0.031 A 
ATOM      3  C3  DEN d   1       0.135  -0.088  -1.838  0.00  0.00     0.027 A 
ATOM      4  C4  DEN d   1      -2.417  -0.269  -1.510  0.00  0.00     0.027 A 
ATOM      5  C5  DEN d   1      -3.419  -0.457  -0.583  0.00  0.00    -0.003 A 
ATOM      6  C6  DEN d   1      -3.156  -0.659   0.746  0.00  0.00     0.001 A 
ATOM      7  C7  DEN d   1      -1.862  -0.633   1.193  0.00  0.00     0.017 A 
ATOM      8  C8  DEN d   1      -0.846  -0.452   0.264  0.00  0.00    -0.094 A 
ATOM      9  C9  DEN d   1      -1.133  -0.237  -1.073  0.00  0.00    -0.072 A 
ENDROOT
TORSDOF 0
ENDMDL
