MODEL 1
REMARK minimizedAffinity -1.60236335
REMARK minimizedRMSD -1
REMARK  0 active torsions:
REMARK  status: ('A' for Active; 'I' for Inactive)
ROOT
ATOM      1  C1  DEN d   1      -2.175  -1.024   0.614  0.00  0.00     0.130 A 
ATOM      2  C2  DEN d   1      -3.173  -0.901  -0.446  0.00  0.00    -0.031 A 
ATOM      3  C3  DEN d   1      -2.541  -0.213  -1.590  0.00  0.00     0.027 A 
ATOM      4  C4  DEN d   1      -0.126   0.664  -1.823  0.00  0.00     0.027 A 
ATOM      5  C5  DEN d   1       1.086   0.799  -1.183  0.00  0.00    -0.003 A 
ATOM      6  C6  DEN d   1       1.284   0.371   0.103  0.00  0.00     0.001 A 
ATOM      7  C7  DEN d   1       0.267  -0.255   0.774  0.00  0.00     0.017 A 
ATOM      8  C8  DEN d   1      -0.960  -0.389   0.138  0.00  0.00    -0.094 A 
ATOM      9  C9  DEN d   1      -1.137   0.040  -1.167  0.00  0.00    -0.072 A 
ENDROOT
TORSDOF 0
ENDMDL
