MODEL 1
REMARK minimizedAffinity 16.3260117
REMARK minimizedRMSD -1
REMARK  0 active torsions:
REMARK  status: ('A' for Active; 'I' for Inactive)
ROOT
ATOM      1  C   UNL d   1       4.075   2.287  -1.337  0.00  0.00     0.124 A 
ATOM      2  C1  UNL d   1       4.970   3.293  -1.001  0.00  0.00     0.062 A 
ATOM      3  C2  UNL d   1       5.121   3.682   0.327  0.00  0.00     0.162 A 
ATOM      4  C3  UNL d   1       4.376   3.063   1.330  0.00  0.00    -0.034 A 
ATOM      5  C4  UNL d   1       3.477   2.052   0.985  0.00  0.00     0.162 A 
ATOM      6  C5  UNL d   1       3.329   1.668  -0.343  0.00  0.00     0.062 A 
ATOM      7  F   UNL d   1       2.464   0.695  -0.666  0.00  0.00    -0.097 F 
ATOM      8  F1  UNL d   1       2.744   1.436   1.925  0.00  0.00    -0.096 F 
ATOM      9  I   UNL d   1       4.599   3.641   3.317  0.00  0.00    -0.060 I 
ATOM     10  F2  UNL d   1       5.994   4.657   0.622  0.00  0.00    -0.096 F 
ATOM     11  F3  UNL d   1       5.691   3.894  -1.959  0.00  0.00    -0.097 F 
ATOM     12  F4  UNL d   1       3.931   1.916  -2.615  0.00  0.00    -0.092 F 
ENDROOT
TORSDOF 0
ENDMDL
