MODEL 1
REMARK minimizedAffinity 27.5334988
REMARK minimizedRMSD -1
REMARK  0 active torsions:
REMARK  status: ('A' for Active; 'I' for Inactive)
ROOT
ATOM      1  C   UNL d   1      -3.916  -0.879  -2.054  0.00  0.00     0.124 A 
ATOM      2  C1  UNL d   1      -2.747  -0.152  -2.236  0.00  0.00     0.062 A 
ATOM      3  C2  UNL d   1      -2.531   1.019  -1.514  0.00  0.00     0.162 A 
ATOM      4  C3  UNL d   1      -3.486   1.469  -0.602  0.00  0.00    -0.034 A 
ATOM      5  C4  UNL d   1      -4.659   0.733  -0.425  0.00  0.00     0.162 A 
ATOM      6  C5  UNL d   1      -4.870  -0.436  -1.149  0.00  0.00     0.062 A 
ATOM      7  F   UNL d   1      -5.999  -1.137  -0.971  0.00  0.00    -0.097 F 
ATOM      8  F1  UNL d   1      -5.597   1.137   0.444  0.00  0.00    -0.096 F 
ATOM      9  I   UNL d   1      -3.167   3.218   0.480  0.00  0.00    -0.060 I 
ATOM     10  F2  UNL d   1      -1.393   1.701  -1.710  0.00  0.00    -0.096 F 
ATOM     11  F3  UNL d   1      -1.824  -0.577  -3.110  0.00  0.00    -0.097 F 
ATOM     12  F4  UNL d   1      -4.121  -2.004  -2.750  0.00  0.00    -0.092 F 
ENDROOT
TORSDOF 0
ENDMDL
