MODEL 1
REMARK minimizedAffinity 23.5014896
REMARK minimizedRMSD -1
REMARK  0 active torsions:
REMARK  status: ('A' for Active; 'I' for Inactive)
ROOT
ATOM      1  C   UNL d   1       2.234  -2.369  -1.173  0.00  0.00     0.124 A 
ATOM      2  C1  UNL d   1       2.338  -1.827  -2.446  0.00  0.00     0.062 A 
ATOM      3  C2  UNL d   1       2.749  -0.507  -2.613  0.00  0.00     0.162 A 
ATOM      4  C3  UNL d   1       3.061   0.278  -1.504  0.00  0.00    -0.034 A 
ATOM      5  C4  UNL d   1       2.953  -0.274  -0.226  0.00  0.00     0.162 A 
ATOM      6  C5  UNL d   1       2.541  -1.593  -0.065  0.00  0.00     0.062 A 
ATOM      7  F   UNL d   1       2.442  -2.116   1.166  0.00  0.00    -0.097 F 
ATOM      8  F1  UNL d   1       3.245   0.453   0.862  0.00  0.00    -0.096 F 
ATOM      9  I   UNL d   1       3.676   2.251  -1.749  0.00  0.00    -0.060 I 
ATOM     10  F2  UNL d   1       2.840  -0.009  -3.855  0.00  0.00    -0.096 F 
ATOM     11  F3  UNL d   1       2.040  -2.574  -3.519  0.00  0.00    -0.097 F 
ATOM     12  F4  UNL d   1       1.837  -3.639  -1.015  0.00  0.00    -0.092 F 
ENDROOT
TORSDOF 0
ENDMDL
