MODEL 1
REMARK minimizedAffinity 15.1040382
REMARK minimizedRMSD -1
REMARK  0 active torsions:
REMARK  status: ('A' for Active; 'I' for Inactive)
ROOT
ATOM      1  C   UNL d   1       1.536  -1.950  -1.137  0.00  0.00     0.124 A 
ATOM      2  C1  UNL d   1       0.973  -2.060  -2.400  0.00  0.00     0.062 A 
ATOM      3  C2  UNL d   1      -0.114  -2.904  -2.611  0.00  0.00     0.162 A 
ATOM      4  C3  UNL d   1      -0.646  -3.644  -1.555  0.00  0.00    -0.034 A 
ATOM      5  C4  UNL d   1      -0.073  -3.528  -0.287  0.00  0.00     0.162 A 
ATOM      6  C5  UNL d   1       1.013  -2.684  -0.081  0.00  0.00     0.062 A 
ATOM      7  F   UNL d   1       1.556  -2.579   1.140  0.00  0.00    -0.097 F 
ATOM      8  F1  UNL d   1      -0.559  -4.226   0.751  0.00  0.00    -0.096 F 
ATOM      9  I   UNL d   1      -2.270  -4.907  -1.866  0.00  0.00    -0.060 I 
ATOM     10  F2  UNL d   1      -0.639  -2.991  -3.842  0.00  0.00    -0.096 F 
ATOM     11  F3  UNL d   1       1.477  -1.352  -3.422  0.00  0.00    -0.097 F 
ATOM     12  F4  UNL d   1       2.582  -1.138  -0.937  0.00  0.00    -0.092 F 
ENDROOT
TORSDOF 0
ENDMDL
