MODEL 1
REMARK minimizedAffinity 24.3242188
REMARK minimizedRMSD -1
REMARK  0 active torsions:
REMARK  status: ('A' for Active; 'I' for Inactive)
ROOT
ATOM      1  C   UNL d   1      -2.957   4.455   1.948  0.00  0.00     0.124 A 
ATOM      2  C1  UNL d   1      -2.589   5.233   3.037  0.00  0.00     0.062 A 
ATOM      3  C2  UNL d   1      -3.370   5.237   4.189  0.00  0.00     0.162 A 
ATOM      4  C3  UNL d   1      -4.526   4.460   4.259  0.00  0.00    -0.034 A 
ATOM      5  C4  UNL d   1      -4.890   3.681   3.159  0.00  0.00     0.162 A 
ATOM      6  C5  UNL d   1      -4.107   3.680   2.010  0.00  0.00     0.062 A 
ATOM      7  F   UNL d   1      -4.464   2.929   0.958  0.00  0.00    -0.097 F 
ATOM      8  F1  UNL d   1      -5.995   2.922   3.192  0.00  0.00    -0.096 F 
ATOM      9  I   UNL d   1      -5.695   4.463   5.981  0.00  0.00    -0.060 I 
ATOM     10  F2  UNL d   1      -2.990   5.998   5.227  0.00  0.00    -0.096 F 
ATOM     11  F3  UNL d   1      -1.480   5.983   2.979  0.00  0.00    -0.097 F 
ATOM     12  F4  UNL d   1      -2.205   4.454   0.840  0.00  0.00    -0.092 F 
ENDROOT
TORSDOF 0
ENDMDL
