MODEL 1
REMARK minimizedAffinity 31.5413971
REMARK minimizedRMSD -1
REMARK  0 active torsions:
REMARK  status: ('A' for Active; 'I' for Inactive)
ROOT
ATOM      1  C   UNL d   1      -4.520   0.913  -1.044  0.00  0.00     0.124 A 
ATOM      2  C1  UNL d   1      -5.259   1.702  -1.915  0.00  0.00     0.062 A 
ATOM      3  C2  UNL d   1      -5.277   3.085  -1.763  0.00  0.00     0.162 A 
ATOM      4  C3  UNL d   1      -4.553   3.689  -0.736  0.00  0.00    -0.034 A 
ATOM      5  C4  UNL d   1      -3.812   2.890   0.137  0.00  0.00     0.162 A 
ATOM      6  C5  UNL d   1      -3.797   1.508  -0.019  0.00  0.00     0.062 A 
ATOM      7  F   UNL d   1      -3.083   0.747   0.823  0.00  0.00    -0.097 F 
ATOM      8  F1  UNL d   1      -3.105   3.438   1.136  0.00  0.00    -0.096 F 
ATOM      9  I   UNL d   1      -4.577   5.758  -0.504  0.00  0.00    -0.060 I 
ATOM     10  F2  UNL d   1      -6.000   3.822  -2.619  0.00  0.00    -0.096 F 
ATOM     11  F3  UNL d   1      -5.958   1.129  -2.906  0.00  0.00    -0.097 F 
ATOM     12  F4  UNL d   1      -4.505  -0.418  -1.193  0.00  0.00    -0.092 F 
ENDROOT
TORSDOF 0
ENDMDL
