MODEL 1
REMARK minimizedAffinity -4.18191957
REMARK minimizedRMSD -1
REMARK  1 active torsions:
REMARK  status: ('A' for Active; 'I' for Inactive)
REMARK    1  A    between atoms: C1_2  and  C2_3 
ROOT
ATOM      1  C2  UNL d   1      -0.433   0.131   0.049  0.00  0.00    -0.073 A 
ATOM      2  C3  UNL d   1       0.161   1.274   0.595  0.00  0.00    -0.002 A 
ATOM      3  C4  UNL d   1       1.201   1.917  -0.077  0.00  0.00     0.004 A 
ATOM      4  C5  UNL d   1       1.653   1.429  -1.303  0.00  0.00    -0.004 A 
ATOM      5  C6  UNL d   1       1.064   0.294  -1.871  0.00  0.00    -0.075 A 
ATOM      6  C7  UNL d   1       1.540  -0.245  -3.187  0.00  0.00     0.076 C 
ATOM      7  C8  UNL d   1       0.022  -0.347  -1.188  0.00  0.00     0.001 A 
ENDROOT
BRANCH   1   8
ATOM      8  C1  UNL d   1      -1.561  -0.563   0.768  0.00  0.00     0.053 C 
ATOM      9  C   UNL d   1      -2.543   0.425   1.376  0.00  0.00     0.018 C 
ENDBRANCH   1   8
TORSDOF 1
ENDMDL
