MODEL 1
REMARK minimizedAffinity 4.86787319
REMARK minimizedRMSD -1
REMARK  1 active torsions:
REMARK  status: ('A' for Active; 'I' for Inactive)
REMARK    1  A    between atoms: C1_2  and  C2_3 
ROOT
ATOM      1  C2  UNL d   1       1.548   0.101   0.267  0.00  0.00    -0.073 A 
ATOM      2  C3  UNL d   1       1.082  -1.066  -0.350  0.00  0.00    -0.002 A 
ATOM      3  C4  UNL d   1       0.392  -2.027   0.389  0.00  0.00     0.004 A 
ATOM      4  C5  UNL d   1       0.155  -1.830   1.750  0.00  0.00    -0.004 A 
ATOM      5  C6  UNL d   1       0.603  -0.666   2.382  0.00  0.00    -0.075 A 
ATOM      6  C7  UNL d   1       0.358  -0.440   3.845  0.00  0.00     0.076 C 
ATOM      7  C8  UNL d   1       1.297   0.294   1.633  0.00  0.00     0.001 A 
ENDROOT
BRANCH   1   8
ATOM      8  C1  UNL d   1       2.288   1.145  -0.528  0.00  0.00     0.053 C 
ATOM      9  C   UNL d   1       2.452   0.741  -1.985  0.00  0.00     0.018 C 
ENDBRANCH   1   8
TORSDOF 1
ENDMDL
