MODEL 1
REMARK minimizedAffinity -5.29430294
REMARK minimizedRMSD -1
REMARK  1 active torsions:
REMARK  status: ('A' for Active; 'I' for Inactive)
REMARK    1  A    between atoms: C1_2  and  C2_3 
ROOT
ATOM      1  C2  UNL d   1       0.813   0.283  -0.832  0.00  0.00    -0.073 A 
ATOM      2  C3  UNL d   1       1.423   0.789  -1.986  0.00  0.00    -0.002 A 
ATOM      3  C4  UNL d   1       1.974  -0.078  -2.930  0.00  0.00     0.004 A 
ATOM      4  C5  UNL d   1       1.915  -1.458  -2.735  0.00  0.00    -0.004 A 
ATOM      5  C6  UNL d   1       1.299  -1.983  -1.595  0.00  0.00    -0.075 A 
ATOM      6  C7  UNL d   1       1.229  -3.465  -1.369  0.00  0.00     0.076 C 
ATOM      7  C8  UNL d   1       0.750  -1.106  -0.650  0.00  0.00     0.001 A 
ENDROOT
BRANCH   1   8
ATOM      8  C1  UNL d   1       0.211   1.215   0.187  0.00  0.00     0.053 C 
ATOM      9  C   UNL d   1       0.770   2.624   0.071  0.00  0.00     0.018 C 
ENDBRANCH   1   8
TORSDOF 1
ENDMDL
