MODEL 1
REMARK minimizedAffinity -4.91651726
REMARK minimizedRMSD -1
REMARK  1 active torsions:
REMARK  status: ('A' for Active; 'I' for Inactive)
REMARK    1  A    between atoms: C1_2  and  C2_3 
ROOT
ATOM      1  C2  UNL d   1       1.412  -0.967  -1.579  0.00  0.00    -0.073 A 
ATOM      2  C3  UNL d   1       1.929   0.264  -1.999  0.00  0.00    -0.002 A 
ATOM      3  C4  UNL d   1       1.484   1.451  -1.416  0.00  0.00     0.004 A 
ATOM      4  C5  UNL d   1       0.523   1.420  -0.405  0.00  0.00    -0.004 A 
ATOM      5  C6  UNL d   1       0.003   0.199   0.036  0.00  0.00    -0.075 A 
ATOM      6  C7  UNL d   1      -1.032   0.148   1.121  0.00  0.00     0.076 C 
ATOM      7  C8  UNL d   1       0.453  -0.989  -0.556  0.00  0.00     0.001 A 
ENDROOT
BRANCH   1   8
ATOM      8  C1  UNL d   1       1.894  -2.252  -2.201  0.00  0.00     0.053 C 
ATOM      9  C   UNL d   1       1.169  -3.464  -1.640  0.00  0.00     0.018 C 
ENDBRANCH   1   8
TORSDOF 1
ENDMDL
