MODEL 1
REMARK minimizedAffinity -3.72384501
REMARK minimizedRMSD -1
REMARK  1 active torsions:
REMARK  status: ('A' for Active; 'I' for Inactive)
REMARK    1  A    between atoms: C1_2  and  C2_3 
ROOT
ATOM      1  C2  UNL d   1       0.640  -0.206  -1.028  0.00  0.00    -0.073 A 
ATOM      2  C3  UNL d   1       1.537   0.780  -0.601  0.00  0.00    -0.002 A 
ATOM      3  C4  UNL d   1       1.220   1.598   0.485  0.00  0.00     0.004 A 
ATOM      4  C5  UNL d   1       0.010   1.434   1.158  0.00  0.00    -0.004 A 
ATOM      5  C6  UNL d   1      -0.894   0.446   0.753  0.00  0.00    -0.075 A 
ATOM      6  C7  UNL d   1      -2.201   0.259   1.465  0.00  0.00     0.076 C 
ATOM      7  C8  UNL d   1      -0.571  -0.369  -0.340  0.00  0.00     0.001 A 
ENDROOT
BRANCH   1   8
ATOM      8  C1  UNL d   1       0.980  -1.095  -2.196  0.00  0.00     0.053 C 
ATOM      9  C   UNL d   1       1.984  -0.445  -3.135  0.00  0.00     0.018 C 
ENDBRANCH   1   8
TORSDOF 1
ENDMDL
