MODEL 1
REMARK minimizedAffinity 0.154537112
REMARK minimizedRMSD -1
REMARK  1 active torsions:
REMARK  status: ('A' for Active; 'I' for Inactive)
REMARK    1  A    between atoms: C1_2  and  C2_3 
ROOT
ATOM      1  C2  UNL d   1      -1.397   0.018   1.026  0.00  0.00    -0.073 A 
ATOM      2  C3  UNL d   1      -2.675  -0.148   0.479  0.00  0.00    -0.002 A 
ATOM      3  C4  UNL d   1      -3.802   0.296   1.172  0.00  0.00     0.004 A 
ATOM      4  C5  UNL d   1      -3.663   0.917   2.414  0.00  0.00    -0.004 A 
ATOM      5  C6  UNL d   1      -2.394   1.103   2.971  0.00  0.00    -0.075 A 
ATOM      6  C7  UNL d   1      -2.227   1.767   4.307  0.00  0.00     0.076 C 
ATOM      7  C8  UNL d   1      -1.267   0.652   2.271  0.00  0.00     0.001 A 
ENDROOT
BRANCH   1   8
ATOM      8  C1  UNL d   1      -0.177  -0.454   0.279  0.00  0.00     0.053 C 
ATOM      9  C   UNL d   1       0.613   0.703  -0.312  0.00  0.00     0.018 C 
ENDBRANCH   1   8
TORSDOF 1
ENDMDL
