MODEL 1
REMARK minimizedAffinity -3.35181904
REMARK minimizedRMSD -1
REMARK  1 active torsions:
REMARK  status: ('A' for Active; 'I' for Inactive)
REMARK    1  A    between atoms: C1_2  and  C2_3 
ROOT
ATOM      1  C2  UNL d   1      -1.370  -0.026   0.889  0.00  0.00    -0.073 A 
ATOM      2  C3  UNL d   1      -2.568  -0.651   0.528  0.00  0.00    -0.002 A 
ATOM      3  C4  UNL d   1      -3.767  -0.286   1.142  0.00  0.00     0.004 A 
ATOM      4  C5  UNL d   1      -3.781   0.711   2.118  0.00  0.00    -0.004 A 
ATOM      5  C6  UNL d   1      -2.595   1.356   2.484  0.00  0.00    -0.075 A 
ATOM      6  C7  UNL d   1      -2.593   2.429   3.533  0.00  0.00     0.076 C 
ATOM      7  C8  UNL d   1      -1.395   0.982   1.864  0.00  0.00     0.001 A 
ENDROOT
BRANCH   1   8
ATOM      8  C1  UNL d   1      -0.074  -0.412   0.224  0.00  0.00     0.053 C 
ATOM      9  C   UNL d   1       0.681   0.800  -0.301  0.00  0.00     0.018 C 
ENDBRANCH   1   8
TORSDOF 1
ENDMDL
