MODEL 1
REMARK minimizedAffinity -5.06336308
REMARK minimizedRMSD -1
REMARK  1 active torsions:
REMARK  status: ('A' for Active; 'I' for Inactive)
REMARK    1  A    between atoms: C1_2  and  C2_3 
ROOT
ATOM      1  C2  UNL d   1      -0.724  -0.163  -0.029  0.00  0.00    -0.073 A 
ATOM      2  C3  UNL d   1      -0.045   0.894   0.589  0.00  0.00    -0.002 A 
ATOM      3  C4  UNL d   1       1.114   1.418   0.016  0.00  0.00     0.004 A 
ATOM      4  C5  UNL d   1       1.602   0.898  -1.182  0.00  0.00    -0.004 A 
ATOM      5  C6  UNL d   1       0.931  -0.150  -1.821  0.00  0.00    -0.075 A 
ATOM      6  C7  UNL d   1       1.445  -0.723  -3.110  0.00  0.00     0.076 C 
ATOM      7  C8  UNL d   1      -0.231  -0.673  -1.238  0.00  0.00     0.001 A 
ENDROOT
BRANCH   1   8
ATOM      8  C1  UNL d   1      -1.980  -0.728   0.583  0.00  0.00     0.053 C 
ATOM      9  C   UNL d   1      -2.830   0.349   1.237  0.00  0.00     0.018 C 
ENDBRANCH   1   8
TORSDOF 1
ENDMDL
