MODEL 1
REMARK minimizedAffinity -4.63722897
REMARK minimizedRMSD -1
REMARK  1 active torsions:
REMARK  status: ('A' for Active; 'I' for Inactive)
REMARK    1  A    between atoms: C1_2  and  C2_3 
ROOT
ATOM      1  C2  UNL d   1      -0.323   0.574  -0.119  0.00  0.00    -0.073 A 
ATOM      2  C3  UNL d   1       0.029  -0.531   0.664  0.00  0.00    -0.002 A 
ATOM      3  C4  UNL d   1      -0.829  -0.987   1.666  0.00  0.00     0.004 A 
ATOM      4  C5  UNL d   1      -2.048  -0.348   1.890  0.00  0.00    -0.004 A 
ATOM      5  C6  UNL d   1      -2.423   0.750   1.109  0.00  0.00    -0.075 A 
ATOM      6  C7  UNL d   1      -3.731   1.449   1.339  0.00  0.00     0.076 C 
ATOM      7  C8  UNL d   1      -1.555   1.204   0.107  0.00  0.00     0.001 A 
ENDROOT
BRANCH   1   8
ATOM      8  C1  UNL d   1       0.598   1.066  -1.206  0.00  0.00     0.053 C 
ATOM      9  C   UNL d   1       1.626   0.018  -1.600  0.00  0.00     0.018 C 
ENDBRANCH   1   8
TORSDOF 1
ENDMDL
