MODEL 1
REMARK minimizedAffinity 3.8173759
REMARK minimizedRMSD -1
REMARK  0 active torsions:
REMARK  status: ('A' for Active; 'I' for Inactive)
ROOT
ATOM      1  C   UNL d   1      -2.303   0.375   0.858  0.00  0.00     0.172 C 
ATOM      2  N   UNL d   1      -1.443  -0.174   1.880  0.00  0.00    -0.070 N 
ATOM      3  C1  UNL d   1      -1.856  -0.687   3.080  0.00  0.00    -0.004 A 
ATOM      4  C2  UNL d   1      -0.738  -1.107   3.767  0.00  0.00    -0.047 A 
ATOM      5  C3  UNL d   1       0.387  -0.836   2.951  0.00  0.00    -0.047 A 
ATOM      6  C4  UNL d   1      -0.079  -0.258   1.789  0.00  0.00    -0.004 A 
ENDROOT
TORSDOF 0
ENDMDL
