MODEL 1
REMARK minimizedAffinity -0.564143836
REMARK minimizedRMSD -1
REMARK  0 active torsions:
REMARK  status: ('A' for Active; 'I' for Inactive)
ROOT
ATOM      1  C   UNL d   1      -0.132  -2.080  -1.606  0.00  0.00     0.172 C 
ATOM      2  N   UNL d   1      -0.269  -1.110  -0.545  0.00  0.00    -0.070 N 
ATOM      3  C1  UNL d   1      -1.451  -0.605  -0.073  0.00  0.00    -0.004 A 
ATOM      4  C2  UNL d   1      -1.156   0.288   0.934  0.00  0.00    -0.047 A 
ATOM      5  C3  UNL d   1       0.252   0.322   1.071  0.00  0.00    -0.047 A 
ATOM      6  C4  UNL d   1       0.776  -0.552   0.143  0.00  0.00    -0.004 A 
ENDROOT
TORSDOF 0
ENDMDL
