MODEL 1
REMARK minimizedAffinity -1.05682862
REMARK minimizedRMSD -1
REMARK  0 active torsions:
REMARK  status: ('A' for Active; 'I' for Inactive)
ROOT
ATOM      1  C   UNL d   1      -1.966   0.499   1.520  0.00  0.00     0.172 C 
ATOM      2  N   UNL d   1      -0.998  -0.173   0.686  0.00  0.00    -0.070 N 
ATOM      3  C1  UNL d   1       0.332  -0.331   0.973  0.00  0.00    -0.004 A 
ATOM      4  C2  UNL d   1       0.910  -1.024  -0.068  0.00  0.00    -0.047 A 
ATOM      5  C3  UNL d   1      -0.107  -1.291  -1.016  0.00  0.00    -0.047 A 
ATOM      6  C4  UNL d   1      -1.278  -0.753  -0.524  0.00  0.00    -0.004 A 
ENDROOT
TORSDOF 0
ENDMDL
