MODEL 1
REMARK minimizedAffinity 3.63008547
REMARK minimizedRMSD -1
REMARK  0 active torsions:
REMARK  status: ('A' for Active; 'I' for Inactive)
ROOT
ATOM      1  C   UNL d   1      -0.137  -0.655   0.688  0.00  0.00     0.172 C 
ATOM      2  N   UNL d   1      -1.479  -0.128   0.776  0.00  0.00    -0.070 N 
ATOM      3  C1  UNL d   1      -2.327   0.076  -0.279  0.00  0.00    -0.004 A 
ATOM      4  C2  UNL d   1      -3.506   0.588   0.220  0.00  0.00    -0.047 A 
ATOM      5  C3  UNL d   1      -3.360   0.695   1.623  0.00  0.00    -0.047 A 
ATOM      6  C4  UNL d   1      -2.096   0.245   1.941  0.00  0.00    -0.004 A 
ENDROOT
TORSDOF 0
ENDMDL
