MODEL 1
REMARK minimizedAffinity -0.623262644
REMARK minimizedRMSD -1
REMARK  0 active torsions:
REMARK  status: ('A' for Active; 'I' for Inactive)
ROOT
ATOM      1  C   UNL d   1      -2.259   0.291   2.170  0.00  0.00     0.172 C 
ATOM      2  N   UNL d   1      -1.710  -0.108   0.896  0.00  0.00    -0.070 N 
ATOM      3  C1  UNL d   1      -0.378  -0.144   0.577  0.00  0.00    -0.004 A 
ATOM      4  C2  UNL d   1      -0.269  -0.577  -0.727  0.00  0.00    -0.047 A 
ATOM      5  C3  UNL d   1      -1.579  -0.809  -1.208  0.00  0.00    -0.047 A 
ATOM      6  C4  UNL d   1      -2.452  -0.510  -0.183  0.00  0.00    -0.004 A 
ENDROOT
TORSDOF 0
ENDMDL
