MODEL 1
REMARK minimizedAffinity -0.924551189
REMARK minimizedRMSD -1
REMARK  0 active torsions:
REMARK  status: ('A' for Active; 'I' for Inactive)
ROOT
ATOM      1  C   UNL d   1       0.451   0.950  -3.564  0.00  0.00     0.172 C 
ATOM      2  N   UNL d   1       1.832   1.041  -3.153  0.00  0.00    -0.070 N 
ATOM      3  C1  UNL d   1       2.416   0.313  -2.151  0.00  0.00    -0.004 A 
ATOM      4  C2  UNL d   1       3.739   0.690  -2.072  0.00  0.00    -0.047 A 
ATOM      5  C3  UNL d   1       3.957   1.680  -3.059  0.00  0.00    -0.047 A 
ATOM      6  C4  UNL d   1       2.760   1.878  -3.714  0.00  0.00    -0.004 A 
ENDROOT
TORSDOF 0
ENDMDL
