MODEL 1
REMARK minimizedAffinity -2.25769043
REMARK minimizedRMSD -1
REMARK  0 active torsions:
REMARK  status: ('A' for Active; 'I' for Inactive)
ROOT
ATOM      1  C   UNL d   1       3.218   1.911   0.855  0.00  0.00     0.172 C 
ATOM      2  N   UNL d   1       3.669   1.474  -0.445  0.00  0.00    -0.070 N 
ATOM      3  C1  UNL d   1       4.065   2.292  -1.469  0.00  0.00    -0.004 A 
ATOM      4  C2  UNL d   1       4.420   1.493  -2.535  0.00  0.00    -0.047 A 
ATOM      5  C3  UNL d   1       4.229   0.148  -2.137  0.00  0.00    -0.047 A 
ATOM      6  C4  UNL d   1       3.763   0.166  -0.840  0.00  0.00    -0.004 A 
ENDROOT
TORSDOF 0
ENDMDL
