MODEL 1
REMARK minimizedAffinity -2.47799134
REMARK minimizedRMSD -1
REMARK  0 active torsions:
REMARK  status: ('A' for Active; 'I' for Inactive)
ROOT
ATOM      1  C   UNL d   1      -1.583  -1.120  -0.484  0.00  0.00     0.172 C 
ATOM      2  N   UNL d   1      -0.980  -0.722   0.766  0.00  0.00    -0.070 N 
ATOM      3  C1  UNL d   1      -1.656  -0.301   1.880  0.00  0.00    -0.004 A 
ATOM      4  C2  UNL d   1      -0.725  -0.016   2.855  0.00  0.00    -0.047 A 
ATOM      5  C3  UNL d   1       0.555  -0.273   2.308  0.00  0.00    -0.047 A 
ATOM      6  C4  UNL d   1       0.367  -0.708   1.013  0.00  0.00    -0.004 A 
ENDROOT
TORSDOF 0
ENDMDL
