MODEL 1
REMARK minimizedAffinity -1.20431983
REMARK minimizedRMSD -1
REMARK  0 active torsions:
REMARK  status: ('A' for Active; 'I' for Inactive)
ROOT
ATOM      1  C   UNL d   1      -0.438  -0.420   3.329  0.00  0.00     0.172 C 
ATOM      2  N   UNL d   1      -0.899  -0.193   1.980  0.00  0.00    -0.070 N 
ATOM      3  C1  UNL d   1      -2.131   0.292   1.628  0.00  0.00    -0.004 A 
ATOM      4  C2  UNL d   1      -2.179   0.362   0.253  0.00  0.00    -0.047 A 
ATOM      5  C3  UNL d   1      -0.935  -0.098  -0.239  0.00  0.00    -0.047 A 
ATOM      6  C4  UNL d   1      -0.161  -0.435   0.852  0.00  0.00    -0.004 A 
ENDROOT
TORSDOF 0
ENDMDL
