MODEL 1
REMARK minimizedAffinity 1.38401699
REMARK minimizedRMSD -1
REMARK  0 active torsions:
REMARK  status: ('A' for Active; 'I' for Inactive)
ROOT
ATOM      1  C1  BNZ d   1      -4.475  -1.518   2.991  0.00  0.00     0.000 A 
ATOM      2  C2  BNZ d   1      -3.962  -0.796   4.036  0.00  0.00     0.000 A 
ATOM      3  C3  BNZ d   1      -2.730  -0.211   3.944  0.00  0.00     0.000 A 
ATOM      4  C4  BNZ d   1      -1.996  -0.383   2.826  0.00  0.00     0.000 A 
ATOM      5  C5  BNZ d   1      -2.495  -1.117   1.768  0.00  0.00     0.000 A 
ATOM      6  C6  BNZ d   1      -3.752  -1.671   1.848  0.00  0.00     0.000 A 
ENDROOT
TORSDOF 0
ENDMDL
