MODEL 1
REMARK minimizedAffinity 2.61969924
REMARK minimizedRMSD -1
REMARK  0 active torsions:
REMARK  status: ('A' for Active; 'I' for Inactive)
ROOT
ATOM      1  C1  BNZ d   1       3.738  -0.480   5.232  0.00  0.00     0.000 A 
ATOM      2  C2  BNZ d   1       3.752   0.038   3.965  0.00  0.00     0.000 A 
ATOM      3  C3  BNZ d   1       4.890   0.590   3.447  0.00  0.00     0.000 A 
ATOM      4  C4  BNZ d   1       6.000   0.660   4.210  0.00  0.00     0.000 A 
ATOM      5  C5  BNZ d   1       5.999   0.150   5.493  0.00  0.00     0.000 A 
ATOM      6  C6  BNZ d   1       4.863  -0.440   5.997  0.00  0.00     0.000 A 
ENDROOT
TORSDOF 0
ENDMDL
