MODEL 1
REMARK minimizedAffinity -0.36954987
REMARK minimizedRMSD -1
REMARK  0 active torsions:
REMARK  status: ('A' for Active; 'I' for Inactive)
ROOT
ATOM      1  C1  BNZ d   1       5.989   2.351   4.825  0.00  0.00     0.000 A 
ATOM      2  C2  BNZ d   1       5.998   0.982   4.866  0.00  0.00     0.000 A 
ATOM      3  C3  BNZ d   1       5.328   0.249   3.927  0.00  0.00     0.000 A 
ATOM      4  C4  BNZ d   1       4.618   0.885   2.973  0.00  0.00     0.000 A 
ATOM      5  C5  BNZ d   1       4.592   2.264   2.923  0.00  0.00     0.000 A 
ATOM      6  C6  BNZ d   1       5.299   2.999   3.847  0.00  0.00     0.000 A 
ENDROOT
TORSDOF 0
ENDMDL
