MODEL 1
REMARK minimizedAffinity -0.782649577
REMARK minimizedRMSD -1
REMARK  0 active torsions:
REMARK  status: ('A' for Active; 'I' for Inactive)
ROOT
ATOM      1  C1  BNZ d   1       4.739   2.101   2.653  0.00  0.00     0.000 A 
ATOM      2  C2  BNZ d   1       5.681   2.580   3.524  0.00  0.00     0.000 A 
ATOM      3  C3  BNZ d   1       5.993   1.895   4.665  0.00  0.00     0.000 A 
ATOM      4  C4  BNZ d   1       5.336   0.753   4.953  0.00  0.00     0.000 A 
ATOM      5  C5  BNZ d   1       4.377   0.261   4.089  0.00  0.00     0.000 A 
ATOM      6  C6  BNZ d   1       4.093   0.934   2.923  0.00  0.00     0.000 A 
ENDROOT
TORSDOF 0
ENDMDL
