MODEL 1
REMARK minimizedAffinity -2.07945538
REMARK minimizedRMSD -1
REMARK  0 active torsions:
REMARK  status: ('A' for Active; 'I' for Inactive)
ROOT
ATOM      1  C1  BNZ d   1       6.000   1.112   4.509  0.00  0.00     0.000 A 
ATOM      2  C2  BNZ d   1       5.998   0.477   5.723  0.00  0.00     0.000 A 
ATOM      3  C3  BNZ d   1       5.084  -0.501   5.999  0.00  0.00     0.000 A 
ATOM      4  C4  BNZ d   1       4.149  -0.815   5.079  0.00  0.00     0.000 A 
ATOM      5  C5  BNZ d   1       4.132  -0.177   3.855  0.00  0.00     0.000 A 
ATOM      6  C6  BNZ d   1       5.078   0.780   3.565  0.00  0.00     0.000 A 
ENDROOT
TORSDOF 0
ENDMDL
