MODEL 1
REMARK minimizedAffinity -2.99767637
REMARK minimizedRMSD -1
REMARK  0 active torsions:
REMARK  status: ('A' for Active; 'I' for Inactive)
ROOT
ATOM      1  C1  BNZ d   1       4.139   1.112   2.983  0.00  0.00     0.000 A 
ATOM      2  C2  BNZ d   1       5.214   0.896   3.803  0.00  0.00     0.000 A 
ATOM      3  C3  BNZ d   1       5.598  -0.374   4.133  0.00  0.00     0.000 A 
ATOM      4  C4  BNZ d   1       4.884  -1.423   3.676  0.00  0.00     0.000 A 
ATOM      5  C5  BNZ d   1       3.792  -1.221   2.856  0.00  0.00     0.000 A 
ATOM      6  C6  BNZ d   1       3.432   0.057   2.494  0.00  0.00     0.000 A 
ENDROOT
TORSDOF 0
ENDMDL
