MODEL 1
REMARK minimizedAffinity -4.29179811
REMARK minimizedRMSD -1
REMARK  0 active torsions:
REMARK  status: ('A' for Active; 'I' for Inactive)
ROOT
ATOM      1  C1  BNZ d   1      -3.901  -0.317   0.411  0.00  0.00     0.000 A 
ATOM      2  C2  BNZ d   1      -3.565   1.003   0.262  0.00  0.00     0.000 A 
ATOM      3  C3  BNZ d   1      -2.859   1.659   1.231  0.00  0.00     0.000 A 
ATOM      4  C4  BNZ d   1      -2.525   1.008   2.364  0.00  0.00     0.000 A 
ATOM      5  C5  BNZ d   1      -2.864  -0.320   2.533  0.00  0.00     0.000 A 
ATOM      6  C6  BNZ d   1      -3.541  -0.988   1.539  0.00  0.00     0.000 A 
ENDROOT
TORSDOF 0
ENDMDL
