MODEL 1
REMARK minimizedAffinity 0.272115201
REMARK minimizedRMSD -1
REMARK  0 active torsions:
REMARK  status: ('A' for Active; 'I' for Inactive)
ROOT
ATOM      1  C1  BNZ d   1       3.054   3.492  -5.418  0.00  0.00     0.000 A 
ATOM      2  C2  BNZ d   1       4.182   4.043  -4.871  0.00  0.00     0.000 A 
ATOM      3  C3  BNZ d   1       5.375   3.376  -4.906  0.00  0.00     0.000 A 
ATOM      4  C4  BNZ d   1       5.430   2.144  -5.452  0.00  0.00     0.000 A 
ATOM      5  C5  BNZ d   1       4.300   1.571  -6.000  0.00  0.00     0.000 A 
ATOM      6  C6  BNZ d   1       3.109   2.261  -5.997  0.00  0.00     0.000 A 
ENDROOT
TORSDOF 0
ENDMDL
