MODEL 1
REMARK minimizedAffinity -0.654949367
REMARK minimizedRMSD -1
REMARK  0 active torsions:
REMARK  status: ('A' for Active; 'I' for Inactive)
ROOT
ATOM      1  C1  BNZ d   1      -3.326   0.376   2.687  0.00  0.00     0.000 A 
ATOM      2  C2  BNZ d   1      -4.367   0.051   1.860  0.00  0.00     0.000 A 
ATOM      3  C3  BNZ d   1      -5.465  -0.605   2.341  0.00  0.00     0.000 A 
ATOM      4  C4  BNZ d   1      -5.503  -0.971   3.639  0.00  0.00     0.000 A 
ATOM      5  C5  BNZ d   1      -4.457  -0.659   4.484  0.00  0.00     0.000 A 
ATOM      6  C6  BNZ d   1      -3.370   0.036   4.004  0.00  0.00     0.000 A 
ENDROOT
TORSDOF 0
ENDMDL
