MODEL 1
REMARK minimizedAffinity -3.84861875
REMARK minimizedRMSD -1
REMARK  0 active torsions:
REMARK  status: ('A' for Active; 'I' for Inactive)
ROOT
ATOM      1  C1  BNZ d   1      -0.261  -3.739   0.522  0.00  0.00     0.000 A 
ATOM      2  C2  BNZ d   1      -0.540  -2.477   0.068  0.00  0.00     0.000 A 
ATOM      3  C3  BNZ d   1       0.400  -1.487   0.133  0.00  0.00     0.000 A 
ATOM      4  C4  BNZ d   1       1.602  -1.748   0.686  0.00  0.00     0.000 A 
ATOM      5  C5  BNZ d   1       1.894  -3.012   1.157  0.00  0.00     0.000 A 
ATOM      6  C6  BNZ d   1       0.960  -4.017   1.055  0.00  0.00     0.000 A 
ENDROOT
TORSDOF 0
ENDMDL
