MODEL 1
REMARK minimizedAffinity -0.552385092
REMARK minimizedRMSD -1
REMARK  0 active torsions:
REMARK  status: ('A' for Active; 'I' for Inactive)
ROOT
ATOM      1  C1  BNZ d   1       3.957   0.569   3.880  0.00  0.00     0.000 A 
ATOM      2  C2  BNZ d   1       4.934   0.250   4.784  0.00  0.00     0.000 A 
ATOM      3  C3  BNZ d   1       5.906   1.153   5.112  0.00  0.00     0.000 A 
ATOM      4  C4  BNZ d   1       5.923   2.358   4.507  0.00  0.00     0.000 A 
ATOM      5  C5  BNZ d   1       4.949   2.692   3.587  0.00  0.00     0.000 A 
ATOM      6  C6  BNZ d   1       3.950   1.794   3.288  0.00  0.00     0.000 A 
ENDROOT
TORSDOF 0
ENDMDL
