MODEL 1
REMARK minimizedAffinity -2.49329758
REMARK minimizedRMSD -1
REMARK  0 active torsions:
REMARK  status: ('A' for Active; 'I' for Inactive)
ROOT
ATOM      1  C1  BNZ d   1       3.557   0.822   2.655  0.00  0.00     0.000 A 
ATOM      2  C2  BNZ d   1       4.493   1.710   3.116  0.00  0.00     0.000 A 
ATOM      3  C3  BNZ d   1       5.288   1.397   4.183  0.00  0.00     0.000 A 
ATOM      4  C4  BNZ d   1       5.119   0.216   4.812  0.00  0.00     0.000 A 
ATOM      5  C5  BNZ d   1       4.174  -0.686   4.364  0.00  0.00     0.000 A 
ATOM      6  C6  BNZ d   1       3.402  -0.384   3.266  0.00  0.00     0.000 A 
ENDROOT
TORSDOF 0
ENDMDL
