MODEL 1
REMARK minimizedAffinity 2.99275684
REMARK minimizedRMSD -1
REMARK  0 active torsions:
REMARK  status: ('A' for Active; 'I' for Inactive)
ROOT
ATOM      1  C1  BNZ d   1       4.057   1.522   2.627  0.00  0.00     0.000 A 
ATOM      2  C2  BNZ d   1       4.076   0.251   3.136  0.00  0.00     0.000 A 
ATOM      3  C3  BNZ d   1       5.037  -0.131   4.030  0.00  0.00     0.000 A 
ATOM      4  C4  BNZ d   1       6.000   0.744   4.383  0.00  0.00     0.000 A 
ATOM      5  C5  BNZ d   1       6.000   2.027   3.871  0.00  0.00     0.000 A 
ATOM      6  C6  BNZ d   1       5.009   2.420   3.002  0.00  0.00     0.000 A 
ENDROOT
TORSDOF 0
ENDMDL
