MODEL 1
REMARK minimizedAffinity -0.637984395
REMARK minimizedRMSD -1
REMARK  0 active torsions:
REMARK  status: ('A' for Active; 'I' for Inactive)
ROOT
ATOM      1  C1  BNZ d   1      -2.644   1.093   2.133  0.00  0.00     0.000 A 
ATOM      2  C2  BNZ d   1      -2.434   2.334   1.596  0.00  0.00     0.000 A 
ATOM      3  C3  BNZ d   1      -2.437   2.521   0.242  0.00  0.00     0.000 A 
ATOM      4  C4  BNZ d   1      -2.611   1.460  -0.573  0.00  0.00     0.000 A 
ATOM      5  C5  BNZ d   1      -2.815   0.200  -0.047  0.00  0.00     0.000 A 
ATOM      6  C6  BNZ d   1      -2.850   0.023   1.317  0.00  0.00     0.000 A 
ENDROOT
TORSDOF 0
ENDMDL
