MODEL 1
REMARK minimizedAffinity 1.22116411
REMARK minimizedRMSD -1
REMARK  0 active torsions:
REMARK  status: ('A' for Active; 'I' for Inactive)
ROOT
ATOM      1  C1  BNZ d   1      -3.374   0.850   1.085  0.00  0.00     0.000 A 
ATOM      2  C2  BNZ d   1      -2.846   1.520   2.156  0.00  0.00     0.000 A 
ATOM      3  C3  BNZ d   1      -2.729   0.912   3.374  0.00  0.00     0.000 A 
ATOM      4  C4  BNZ d   1      -3.177  -0.351   3.530  0.00  0.00     0.000 A 
ATOM      5  C5  BNZ d   1      -3.720  -1.037   2.462  0.00  0.00     0.000 A 
ATOM      6  C6  BNZ d   1      -3.800  -0.434   1.227  0.00  0.00     0.000 A 
ENDROOT
TORSDOF 0
ENDMDL
