MODEL 1
REMARK minimizedAffinity -3.62188721
REMARK minimizedRMSD -1
REMARK  0 active torsions:
REMARK  status: ('A' for Active; 'I' for Inactive)
ROOT
ATOM      1  C1  BNZ d   1       4.829  -0.034   5.076  0.00  0.00     0.000 A 
ATOM      2  C2  BNZ d   1       4.115  -0.855   4.245  0.00  0.00     0.000 A 
ATOM      3  C3  BNZ d   1       3.662  -0.405   3.036  0.00  0.00     0.000 A 
ATOM      4  C4  BNZ d   1       3.889   0.876   2.678  0.00  0.00     0.000 A 
ATOM      5  C5  BNZ d   1       4.599   1.719   3.509  0.00  0.00     0.000 A 
ATOM      6  C6  BNZ d   1       5.087   1.251   4.708  0.00  0.00     0.000 A 
ENDROOT
TORSDOF 0
ENDMDL
