MODEL 1
REMARK minimizedAffinity 0.761348426
REMARK minimizedRMSD -1
REMARK  0 active torsions:
REMARK  status: ('A' for Active; 'I' for Inactive)
ROOT
ATOM      1  C1  BNZ d   1       4.019   1.897   2.770  0.00  0.00     0.000 A 
ATOM      2  C2  BNZ d   1       4.979   2.104   3.725  0.00  0.00     0.000 A 
ATOM      3  C3  BNZ d   1       5.509   1.056   4.424  0.00  0.00     0.000 A 
ATOM      4  C4  BNZ d   1       5.050  -0.192   4.196  0.00  0.00     0.000 A 
ATOM      5  C5  BNZ d   1       4.076  -0.416   3.244  0.00  0.00     0.000 A 
ATOM      6  C6  BNZ d   1       3.573   0.637   2.515  0.00  0.00     0.000 A 
ENDROOT
TORSDOF 0
ENDMDL
