MODEL 1
REMARK minimizedAffinity 13.0370665
REMARK minimizedRMSD -1
REMARK  0 active torsions:
REMARK  status: ('A' for Active; 'I' for Inactive)
ROOT
ATOM      1  O1  BZF d   1      -1.722  -5.909  -3.814  0.00  0.00    -0.204 OA
ATOM      2  C2  BZF d   1      -2.666  -5.675  -4.795  0.00  0.00     0.174 A 
ATOM      3  C3  BZF d   1      -3.113  -4.404  -4.736  0.00  0.00    -0.012 A 
ATOM      4  C3A BZF d   1      -2.337  -3.780  -3.708  0.00  0.00    -0.107 A 
ATOM      5  C4  BZF d   1      -2.305  -2.515  -3.193  0.00  0.00     0.055 A 
ATOM      6  C5  BZF d   1      -1.482  -2.250  -2.145  0.00  0.00    -0.016 A 
ATOM      7  C6  BZF d   1      -0.683  -3.225  -1.584  0.00  0.00     0.022 A 
ATOM      8  C7  BZF d   1      -0.676  -4.492  -2.065  0.00  0.00     0.029 A 
ATOM      9  C7A BZF d   1      -1.482  -4.755  -3.145  0.00  0.00     0.058 A 
ENDROOT
TORSDOF 0
ENDMDL
