MODEL 1
REMARK minimizedAffinity 15.4042625
REMARK minimizedRMSD -1
REMARK  0 active torsions:
REMARK  status: ('A' for Active; 'I' for Inactive)
ROOT
ATOM      1  O1  BZF d   1       2.392   2.320  -3.689  0.00  0.00    -0.204 OA
ATOM      2  C2  BZF d   1       2.175   2.380  -2.326  0.00  0.00     0.174 A 
ATOM      3  C3  BZF d   1       3.159   3.072  -1.715  0.00  0.00    -0.012 A 
ATOM      4  C3A BZF d   1       3.997   3.548  -2.773  0.00  0.00    -0.107 A 
ATOM      5  C4  BZF d   1       5.130   4.310  -2.802  0.00  0.00     0.055 A 
ATOM      6  C5  BZF d   1       5.745   4.533  -3.994  0.00  0.00    -0.016 A 
ATOM      7  C6  BZF d   1       5.258   4.007  -5.172  0.00  0.00     0.022 A 
ATOM      8  C7  BZF d   1       4.134   3.249  -5.193  0.00  0.00     0.029 A 
ATOM      9  C7A BZF d   1       3.492   3.049  -3.996  0.00  0.00     0.058 A 
ENDROOT
TORSDOF 0
ENDMDL
