MODEL 1
REMARK minimizedAffinity 10.9712715
REMARK minimizedRMSD -1
REMARK  0 active torsions:
REMARK  status: ('A' for Active; 'I' for Inactive)
ROOT
ATOM      1  O1  BZF d   1      -4.652   0.921   2.455  0.00  0.00    -0.204 OA
ATOM      2  C2  BZF d   1      -5.605   0.474   1.561  0.00  0.00     0.174 A 
ATOM      3  C3  BZF d   1      -5.086  -0.455   0.733  0.00  0.00    -0.012 A 
ATOM      4  C3A BZF d   1      -3.747  -0.664   1.194  0.00  0.00    -0.107 A 
ATOM      5  C4  BZF d   1      -2.731  -1.480   0.787  0.00  0.00     0.055 A 
ATOM      6  C5  BZF d   1      -1.523  -1.388   1.404  0.00  0.00    -0.016 A 
ATOM      7  C6  BZF d   1      -1.296  -0.491   2.426  0.00  0.00     0.022 A 
ATOM      8  C7  BZF d   1      -2.276   0.336   2.868  0.00  0.00     0.029 A 
ATOM      9  C7A BZF d   1      -3.506   0.223   2.268  0.00  0.00     0.058 A 
ENDROOT
TORSDOF 0
ENDMDL
