MODEL 1
REMARK minimizedAffinity 17.965744
REMARK minimizedRMSD -1
REMARK  0 active torsions:
REMARK  status: ('A' for Active; 'I' for Inactive)
ROOT
ATOM      1  O1  BZF d   1       2.815   2.630  -4.154  0.00  0.00    -0.204 OA
ATOM      2  C2  BZF d   1       2.101   2.382  -2.997  0.00  0.00     0.174 A 
ATOM      3  C3  BZF d   1       2.772   2.829  -1.916  0.00  0.00    -0.012 A 
ATOM      4  C3A BZF d   1       3.938   3.474  -2.437  0.00  0.00    -0.107 A 
ATOM      5  C4  BZF d   1       4.986   4.129  -1.856  0.00  0.00     0.055 A 
ATOM      6  C5  BZF d   1       6.000   4.579  -2.642  0.00  0.00    -0.016 A 
ATOM      7  C6  BZF d   1       6.000   4.388  -4.008  0.00  0.00     0.022 A 
ATOM      8  C7  BZF d   1       4.979   3.748  -4.629  0.00  0.00     0.029 A 
ATOM      9  C7A BZF d   1       3.938   3.321  -3.842  0.00  0.00     0.058 A 
ENDROOT
TORSDOF 0
ENDMDL
