MODEL 1
REMARK minimizedAffinity 9.45460415
REMARK minimizedRMSD -1
REMARK  0 active torsions:
REMARK  status: ('A' for Active; 'I' for Inactive)
ROOT
ATOM      1  O1  BZF d   1      -2.602   0.890   4.725  0.00  0.00    -0.204 OA
ATOM      2  C2  BZF d   1      -3.120   1.115   5.986  0.00  0.00     0.174 A 
ATOM      3  C3  BZF d   1      -4.468   1.082   5.962  0.00  0.00    -0.012 A 
ATOM      4  C3A BZF d   1      -4.812   0.729   4.619  0.00  0.00    -0.107 A 
ATOM      5  C4  BZF d   1      -6.000   0.525   3.977  0.00  0.00     0.055 A 
ATOM      6  C5  BZF d   1      -5.993   0.263   2.644  0.00  0.00    -0.016 A 
ATOM      7  C6  BZF d   1      -4.820   0.203   1.921  0.00  0.00     0.022 A 
ATOM      8  C7  BZF d   1      -3.617   0.394   2.515  0.00  0.00     0.029 A 
ATOM      9  C7A BZF d   1      -3.618   0.626   3.869  0.00  0.00     0.058 A 
ENDROOT
TORSDOF 0
ENDMDL
