MODEL 1
REMARK minimizedAffinity 23.1544228
REMARK minimizedRMSD -1
REMARK  0 active torsions:
REMARK  status: ('A' for Active; 'I' for Inactive)
ROOT
ATOM      1  O1  BZF d   1       1.088  -3.438   1.941  0.00  0.00    -0.204 OA
ATOM      2  C2  BZF d   1       1.972  -2.794   2.786  0.00  0.00     0.174 A 
ATOM      3  C3  BZF d   1       1.536  -1.552   3.077  0.00  0.00    -0.012 A 
ATOM      4  C3A BZF d   1       0.257  -1.444   2.445  0.00  0.00    -0.107 A 
ATOM      5  C4  BZF d   1      -0.679  -0.452   2.384  0.00  0.00     0.055 A 
ATOM      6  C5  BZF d   1      -1.789  -0.637   1.622  0.00  0.00    -0.016 A 
ATOM      7  C6  BZF d   1      -1.992  -1.798   0.905  0.00  0.00     0.022 A 
ATOM      8  C7  BZF d   1      -1.094  -2.812   0.938  0.00  0.00     0.029 A 
ATOM      9  C7A BZF d   1       0.013  -2.641   1.733  0.00  0.00     0.058 A 
ENDROOT
TORSDOF 0
ENDMDL
