MODEL 1
REMARK minimizedAffinity 14.2526512
REMARK minimizedRMSD -1
REMARK  0 active torsions:
REMARK  status: ('A' for Active; 'I' for Inactive)
ROOT
ATOM      1  O1  BZF d   1       3.328   1.796  -0.570  0.00  0.00    -0.204 OA
ATOM      2  C2  BZF d   1       2.528   1.036   0.262  0.00  0.00     0.174 A 
ATOM      3  C3  BZF d   1       2.924   1.155   1.545  0.00  0.00    -0.012 A 
ATOM      4  C3A BZF d   1       3.983   2.116   1.525  0.00  0.00    -0.107 A 
ATOM      5  C4  BZF d   1       4.770   2.667   2.496  0.00  0.00     0.055 A 
ATOM      6  C5  BZF d   1       5.762   3.523   2.136  0.00  0.00    -0.016 A 
ATOM      7  C6  BZF d   1       5.998   3.847   0.816  0.00  0.00     0.022 A 
ATOM      8  C7  BZF d   1       5.241   3.330  -0.182  0.00  0.00     0.029 A 
ATOM      9  C7A BZF d   1       4.216   2.490   0.182  0.00  0.00     0.058 A 
ENDROOT
TORSDOF 0
ENDMDL
