MODEL 1
REMARK minimizedAffinity 11.7669821
REMARK minimizedRMSD -1
REMARK  0 active torsions:
REMARK  status: ('A' for Active; 'I' for Inactive)
ROOT
ATOM      1  O1  BZF d   1      -2.414   1.105   4.003  0.00  0.00    -0.204 OA
ATOM      2  C2  BZF d   1      -3.745   1.345   3.722  0.00  0.00     0.174 A 
ATOM      3  C3  BZF d   1      -4.144   0.629   2.651  0.00  0.00    -0.012 A 
ATOM      4  C3A BZF d   1      -3.015  -0.175   2.293  0.00  0.00    -0.107 A 
ATOM      5  C4  BZF d   1      -2.797  -1.106   1.319  0.00  0.00     0.055 A 
ATOM      6  C5  BZF d   1      -1.560  -1.654   1.194  0.00  0.00    -0.016 A 
ATOM      7  C6  BZF d   1      -0.518  -1.289   2.022  0.00  0.00     0.022 A 
ATOM      8  C7  BZF d   1      -0.687  -0.373   3.006  0.00  0.00     0.029 A 
ATOM      9  C7A BZF d   1      -1.945   0.158   3.156  0.00  0.00     0.058 A 
ENDROOT
TORSDOF 0
ENDMDL
