MODEL 1
REMARK minimizedAffinity 7.34194946
REMARK minimizedRMSD -1
REMARK  0 active torsions:
REMARK  status: ('A' for Active; 'I' for Inactive)
ROOT
ATOM      1  O1  BZF d   1      -5.524   0.018   2.113  0.00  0.00    -0.204 OA
ATOM      2  C2  BZF d   1      -5.280  -1.325   1.905  0.00  0.00     0.174 A 
ATOM      3  C3  BZF d   1      -4.786  -1.900   3.021  0.00  0.00    -0.012 A 
ATOM      4  C3A BZF d   1      -4.803  -0.870   4.014  0.00  0.00    -0.107 A 
ATOM      5  C4  BZF d   1      -4.448  -0.830   5.332  0.00  0.00     0.055 A 
ATOM      6  C5  BZF d   1      -4.518   0.351   6.000  0.00  0.00    -0.016 A 
ATOM      7  C6  BZF d   1      -4.934   1.511   5.381  0.00  0.00     0.022 A 
ATOM      8  C7  BZF d   1      -5.301   1.521   4.076  0.00  0.00     0.029 A 
ATOM      9  C7A BZF d   1      -5.263   0.322   3.407  0.00  0.00     0.058 A 
ENDROOT
TORSDOF 0
ENDMDL
