MODEL 1
REMARK minimizedAffinity 8.15279198
REMARK minimizedRMSD -1
REMARK  0 active torsions:
REMARK  status: ('A' for Active; 'I' for Inactive)
ROOT
ATOM      1  O1  BZF d   1       0.797  -5.264  -2.936  0.00  0.00    -0.204 OA
ATOM      2  C2  BZF d   1       1.925  -5.608  -3.656  0.00  0.00     0.174 A 
ATOM      3  C3  BZF d   1       1.595  -6.000  -4.904  0.00  0.00    -0.012 A 
ATOM      4  C3A BZF d   1       0.180  -5.806  -4.997  0.00  0.00    -0.107 A 
ATOM      5  C4  BZF d   1      -0.730  -6.000  -5.996  0.00  0.00     0.055 A 
ATOM      6  C5  BZF d   1      -2.047  -5.783  -5.741  0.00  0.00    -0.016 A 
ATOM      7  C6  BZF d   1      -2.489  -5.377  -4.499  0.00  0.00     0.022 A 
ATOM      8  C7  BZF d   1      -1.623  -5.167  -3.478  0.00  0.00     0.029 A 
ATOM      9  C7A BZF d   1      -0.288  -5.353  -3.742  0.00  0.00     0.058 A 
ENDROOT
TORSDOF 0
ENDMDL
