MODEL 1
REMARK minimizedAffinity 16.4774361
REMARK minimizedRMSD -1
REMARK  0 active torsions:
REMARK  status: ('A' for Active; 'I' for Inactive)
ROOT
ATOM      1  O1  BZF d   1      -4.397   0.824   2.231  0.00  0.00    -0.204 OA
ATOM      2  C2  BZF d   1      -5.113   0.233   1.208  0.00  0.00     0.174 A 
ATOM      3  C3  BZF d   1      -4.334  -0.617   0.508  0.00  0.00    -0.012 A 
ATOM      4  C3A BZF d   1      -3.075  -0.621   1.189  0.00  0.00    -0.107 A 
ATOM      5  C4  BZF d   1      -1.898  -1.282   0.981  0.00  0.00     0.055 A 
ATOM      6  C5  BZF d   1      -0.837  -1.008   1.785  0.00  0.00    -0.016 A 
ATOM      7  C6  BZF d   1      -0.916  -0.077   2.800  0.00  0.00     0.022 A 
ATOM      8  C7  BZF d   1      -2.064   0.599   3.047  0.00  0.00     0.029 A 
ATOM      9  C7A BZF d   1      -3.147   0.301   2.258  0.00  0.00     0.058 A 
ENDROOT
TORSDOF 0
ENDMDL
