MODEL 1
REMARK minimizedAffinity 16.4899502
REMARK minimizedRMSD -1
REMARK  0 active torsions:
REMARK  status: ('A' for Active; 'I' for Inactive)
ROOT
ATOM      1  O1  BZF d   1      -4.902  -2.577   3.134  0.00  0.00    -0.204 OA
ATOM      2  C2  BZF d   1      -4.909  -3.082   1.848  0.00  0.00     0.174 A 
ATOM      3  C3  BZF d   1      -4.898  -4.431   1.864  0.00  0.00    -0.012 A 
ATOM      4  C3A BZF d   1      -4.977  -4.792   3.246  0.00  0.00    -0.107 A 
ATOM      5  C4  BZF d   1      -5.020  -5.988   3.902  0.00  0.00     0.055 A 
ATOM      6  C5  BZF d   1      -5.021  -5.996   5.261  0.00  0.00    -0.016 A 
ATOM      7  C6  BZF d   1      -4.975  -4.829   5.994  0.00  0.00     0.022 A 
ATOM      8  C7  BZF d   1      -4.936  -3.617   5.387  0.00  0.00     0.029 A 
ATOM      9  C7A BZF d   1      -4.968  -3.605   4.014  0.00  0.00     0.058 A 
ENDROOT
TORSDOF 0
ENDMDL
