MODEL 1
REMARK minimizedAffinity 8.04614162
REMARK minimizedRMSD -1
REMARK  0 active torsions:
REMARK  status: ('A' for Active; 'I' for Inactive)
ROOT
ATOM      1  O1  BZF d   1       1.226  -5.995  -4.949  0.00  0.00    -0.204 OA
ATOM      2  C2  BZF d   1       1.791  -5.426  -3.825  0.00  0.00     0.174 A 
ATOM      3  C3  BZF d   1       0.879  -4.700  -3.146  0.00  0.00    -0.012 A 
ATOM      4  C3A BZF d   1      -0.354  -4.898  -3.843  0.00  0.00    -0.107 A 
ATOM      5  C4  BZF d   1      -1.628  -4.449  -3.643  0.00  0.00     0.055 A 
ATOM      6  C5  BZF d   1      -2.591  -4.768  -4.548  0.00  0.00    -0.016 A 
ATOM      7  C6  BZF d   1      -2.313  -5.527  -5.666  0.00  0.00     0.022 A 
ATOM      8  C7  BZF d   1      -1.065  -6.000  -5.904  0.00  0.00     0.029 A 
ATOM      9  C7A BZF d   1      -0.098  -5.707  -4.974  0.00  0.00     0.058 A 
ENDROOT
TORSDOF 0
ENDMDL
