MODEL 1
REMARK minimizedAffinity 4.20907784
REMARK minimizedRMSD -1
REMARK  0 active torsions:
REMARK  status: ('A' for Active; 'I' for Inactive)
ROOT
ATOM      1  O1  BZF d   1       0.392  -0.939   4.915  0.00  0.00    -0.204 OA
ATOM      2  C2  BZF d   1       1.009  -1.002   3.680  0.00  0.00     0.174 A 
ATOM      3  C3  BZF d   1       0.392  -0.191   2.796  0.00  0.00    -0.012 A 
ATOM      4  C3A BZF d   1      -0.620   0.485   3.547  0.00  0.00    -0.107 A 
ATOM      5  C4  BZF d   1      -1.553   1.430   3.228  0.00  0.00     0.055 A 
ATOM      6  C5  BZF d   1      -2.441   1.829   4.176  0.00  0.00    -0.016 A 
ATOM      7  C6  BZF d   1      -2.427   1.301   5.451  0.00  0.00     0.022 A 
ATOM      8  C7  BZF d   1      -1.518   0.366   5.816  0.00  0.00     0.029 A 
ATOM      9  C7A BZF d   1      -0.598  -0.015   4.870  0.00  0.00     0.058 A 
ENDROOT
TORSDOF 0
ENDMDL
