MODEL 1
REMARK minimizedAffinity 7.20435143
REMARK minimizedRMSD -1
REMARK  0 active torsions:
REMARK  status: ('A' for Active; 'I' for Inactive)
ROOT
ATOM      1  O1  BZF d   1       3.362   1.857   1.882  0.00  0.00    -0.204 OA
ATOM      2  C2  BZF d   1       2.779   1.135   0.859  0.00  0.00     0.174 A 
ATOM      3  C3  BZF d   1       3.281   1.506  -0.336  0.00  0.00    -0.012 A 
ATOM      4  C3A BZF d   1       4.304   2.459  -0.035  0.00  0.00    -0.107 A 
ATOM      5  C4  BZF d   1       5.175   3.177  -0.804  0.00  0.00     0.055 A 
ATOM      6  C5  BZF d   1       5.998   4.077  -0.205  0.00  0.00    -0.016 A 
ATOM      7  C6  BZF d   1       5.974   4.289   1.158  0.00  0.00     0.022 A 
ATOM      8  C7  BZF d   1       5.131   3.597   1.963  0.00  0.00     0.029 A 
ATOM      9  C7A BZF d   1       4.321   2.663   1.365  0.00  0.00     0.058 A 
ENDROOT
TORSDOF 0
ENDMDL
