MODEL 1
REMARK minimizedAffinity 23.9579792
REMARK minimizedRMSD -1
REMARK  0 active torsions:
REMARK  status: ('A' for Active; 'I' for Inactive)
ROOT
ATOM      1  O1  BZF d   1       3.021   1.906  -2.997  0.00  0.00    -0.204 OA
ATOM      2  C2  BZF d   1       1.987   2.698  -3.458  0.00  0.00     0.174 A 
ATOM      3  C3  BZF d   1       1.061   2.884  -2.495  0.00  0.00    -0.012 A 
ATOM      4  C3A BZF d   1       1.593   2.241  -1.333  0.00  0.00    -0.107 A 
ATOM      5  C4  BZF d   1       1.143   2.095  -0.052  0.00  0.00     0.055 A 
ATOM      6  C5  BZF d   1       1.867   1.346   0.822  0.00  0.00    -0.016 A 
ATOM      7  C6  BZF d   1       3.041   0.726   0.447  0.00  0.00     0.022 A 
ATOM      8  C7  BZF d   1       3.530   0.846  -0.811  0.00  0.00     0.029 A 
ATOM      9  C7A BZF d   1       2.818   1.629  -1.687  0.00  0.00     0.058 A 
ENDROOT
TORSDOF 0
ENDMDL
