MODEL 1
REMARK minimizedAffinity 16.375349
REMARK minimizedRMSD -1
REMARK  0 active torsions:
REMARK  status: ('A' for Active; 'I' for Inactive)
ROOT
ATOM      1  O1  BZF d   1      -5.806  -0.349  -4.591  0.00  0.00    -0.204 OA
ATOM      2  C2  BZF d   1      -5.953  -1.694  -4.868  0.00  0.00     0.174 A 
ATOM      3  C3  BZF d   1      -5.999  -2.415  -3.728  0.00  0.00    -0.012 A 
ATOM      4  C3A BZF d   1      -5.965  -1.451  -2.672  0.00  0.00    -0.107 A 
ATOM      5  C4  BZF d   1      -6.000  -1.549  -1.310  0.00  0.00     0.055 A 
ATOM      6  C5  BZF d   1      -5.875  -0.420  -0.563  0.00  0.00    -0.016 A 
ATOM      7  C6  BZF d   1      -5.710   0.820  -1.144  0.00  0.00     0.022 A 
ATOM      8  C7  BZF d   1      -5.675   0.968  -2.491  0.00  0.00     0.029 A 
ATOM      9  C7A BZF d   1      -5.834  -0.166  -3.249  0.00  0.00     0.058 A 
ENDROOT
TORSDOF 0
ENDMDL
