MODEL 1
REMARK minimizedAffinity -1.03373551
REMARK minimizedRMSD -1
REMARK  1 active torsions:
REMARK  status: ('A' for Active; 'I' for Inactive)
REMARK    1  A    between atoms: C1_2  and  C2_3 
ROOT
ATOM      1  C2  UNL d   1       1.836   1.175  -0.154  0.00  0.00    -0.073 A 
ATOM      2  C3  UNL d   1       1.175   2.389   0.064  0.00  0.00    -0.002 A 
ATOM      3  C4  UNL d   1      -0.177   2.522  -0.257  0.00  0.00     0.004 A 
ATOM      4  C5  UNL d   1      -0.882   1.443  -0.790  0.00  0.00    -0.004 A 
ATOM      5  C6  UNL d   1      -0.241   0.218  -1.004  0.00  0.00    -0.075 A 
ATOM      6  C7  UNL d   1      -0.984  -0.952  -1.579  0.00  0.00     0.076 C 
ATOM      7  C8  UNL d   1       1.118   0.093  -0.682  0.00  0.00     0.001 A 
ENDROOT
BRANCH   1   8
ATOM      8  C1  UNL d   1       3.294   1.025   0.197  0.00  0.00     0.053 C 
ATOM      9  C   UNL d   1       4.189   1.140  -1.027  0.00  0.00     0.018 C 
ENDBRANCH   1   8
TORSDOF 1
ENDMDL
