MODEL 1
REMARK minimizedAffinity 11.2604465
REMARK minimizedRMSD -1
REMARK  1 active torsions:
REMARK  status: ('A' for Active; 'I' for Inactive)
REMARK    1  A    between atoms: C1_2  and  C2_3 
ROOT
ATOM      1  C2  UNL d   1       2.388   3.019   5.012  0.00  0.00    -0.073 A 
ATOM      2  C3  UNL d   1       2.554   2.957   3.624  0.00  0.00    -0.002 A 
ATOM      3  C4  UNL d   1       3.600   3.646   3.008  0.00  0.00     0.004 A 
ATOM      4  C5  UNL d   1       4.493   4.396   3.773  0.00  0.00    -0.004 A 
ATOM      5  C6  UNL d   1       4.351   4.460   5.163  0.00  0.00    -0.075 A 
ATOM      6  C7  UNL d   1       5.301   5.265   6.000  0.00  0.00     0.076 C 
ATOM      7  C8  UNL d   1       3.296   3.768   5.774  0.00  0.00     0.001 A 
ENDROOT
BRANCH   1   8
ATOM      8  C1  UNL d   1       1.264   2.272   5.682  0.00  0.00     0.053 C 
ATOM      9  C   UNL d   1       0.006   2.249   4.829  0.00  0.00     0.018 C 
ENDBRANCH   1   8
TORSDOF 1
ENDMDL
