MODEL 1
REMARK minimizedAffinity 6.50580025
REMARK minimizedRMSD -1
REMARK  1 active torsions:
REMARK  status: ('A' for Active; 'I' for Inactive)
REMARK    1  A    between atoms: C1_2  and  C2_3 
ROOT
ATOM      1  C2  UNL d   1       4.319   1.542  -1.432  0.00  0.00    -0.073 A 
ATOM      2  C3  UNL d   1       4.734   1.550  -0.096  0.00  0.00    -0.002 A 
ATOM      3  C4  UNL d   1       3.821   1.293   0.927  0.00  0.00     0.004 A 
ATOM      4  C5  UNL d   1       2.488   1.018   0.626  0.00  0.00    -0.004 A 
ATOM      5  C6  UNL d   1       2.056   0.993  -0.705  0.00  0.00    -0.075 A 
ATOM      6  C7  UNL d   1       0.624   0.701  -1.046  0.00  0.00     0.076 C 
ATOM      7  C8  UNL d   1       2.978   1.255  -1.727  0.00  0.00     0.001 A 
ENDROOT
BRANCH   1   8
ATOM      8  C1  UNL d   1       5.303   1.813  -2.541  0.00  0.00     0.053 C 
ATOM      9  C   UNL d   1       5.861   3.226  -2.475  0.00  0.00     0.018 C 
ENDBRANCH   1   8
TORSDOF 1
ENDMDL
