MODEL 1
REMARK minimizedAffinity -2.59966803
REMARK minimizedRMSD -1
REMARK  0 active torsions:
REMARK  status: ('A' for Active; 'I' for Inactive)
ROOT
ATOM      1  C   UNL d   1      -0.181   0.401  -1.391  0.00  0.00     0.077 C 
ATOM      2  C1  UNL d   1      -0.194  -0.235  -0.033  0.00  0.00    -0.074 A 
ATOM      3  C2  UNL d   1      -1.151   0.125   0.921  0.00  0.00    -0.005 A 
ATOM      4  C3  UNL d   1      -1.156  -0.482   2.177  0.00  0.00     0.006 A 
ATOM      5  C4  UNL d   1      -0.205  -1.454   2.490  0.00  0.00    -0.005 A 
ATOM      6  C5  UNL d   1       0.759  -1.828   1.549  0.00  0.00    -0.074 A 
ATOM      7  C6  UNL d   1       1.781  -2.879   1.867  0.00  0.00     0.077 C 
ATOM      8  C7  UNL d   1       0.753  -1.218   0.287  0.00  0.00    -0.001 A 
ENDROOT
TORSDOF 0
ENDMDL
