MODEL 1
REMARK minimizedAffinity -2.19956136
REMARK minimizedRMSD -1
REMARK  0 active torsions:
REMARK  status: ('A' for Active; 'I' for Inactive)
ROOT
ATOM      1  C   UNL d   1      -2.950   0.422  -5.905  0.00  0.00     0.077 C 
ATOM      2  C1  UNL d   1      -3.213   1.506  -4.902  0.00  0.00    -0.074 A 
ATOM      3  C2  UNL d   1      -4.500   2.025  -4.727  0.00  0.00    -0.005 A 
ATOM      4  C3  UNL d   1      -4.732   3.026  -3.784  0.00  0.00     0.006 A 
ATOM      5  C4  UNL d   1      -3.681   3.518  -3.008  0.00  0.00    -0.005 A 
ATOM      6  C5  UNL d   1      -2.388   3.010  -3.168  0.00  0.00    -0.074 A 
ATOM      7  C6  UNL d   1      -1.250   3.520  -2.336  0.00  0.00     0.077 C 
ATOM      8  C7  UNL d   1      -2.165   1.999  -4.113  0.00  0.00    -0.001 A 
ENDROOT
TORSDOF 0
ENDMDL
