MODEL 1
REMARK minimizedAffinity -3.48685908
REMARK minimizedRMSD -1
REMARK  0 active torsions:
REMARK  status: ('A' for Active; 'I' for Inactive)
ROOT
ATOM      1  C   UNL d   1       1.533  -0.339   2.977  0.00  0.00     0.077 C 
ATOM      2  C1  UNL d   1       0.644  -0.204   1.777  0.00  0.00    -0.074 A 
ATOM      3  C2  UNL d   1      -0.646  -0.746   1.773  0.00  0.00    -0.005 A 
ATOM      4  C3  UNL d   1      -1.465  -0.604   0.654  0.00  0.00     0.006 A 
ATOM      5  C4  UNL d   1      -1.004   0.079  -0.472  0.00  0.00    -0.005 A 
ATOM      6  C5  UNL d   1       0.282   0.628  -0.487  0.00  0.00    -0.074 A 
ATOM      7  C6  UNL d   1       0.789   1.374  -1.685  0.00  0.00     0.077 C 
ATOM      8  C7  UNL d   1       1.097   0.487   0.645  0.00  0.00    -0.001 A 
ENDROOT
TORSDOF 0
ENDMDL
