MODEL 1
REMARK minimizedAffinity -4.75738001
REMARK minimizedRMSD -1
REMARK  0 active torsions:
REMARK  status: ('A' for Active; 'I' for Inactive)
ROOT
ATOM      1  C   UNL d   1      -3.881   1.939  -2.718  0.00  0.00     0.077 C 
ATOM      2  C1  UNL d   1      -2.400   1.976  -2.483  0.00  0.00    -0.074 A 
ATOM      3  C2  UNL d   1      -1.634   3.070  -2.899  0.00  0.00    -0.005 A 
ATOM      4  C3  UNL d   1      -0.259   3.095  -2.665  0.00  0.00     0.006 A 
ATOM      5  C4  UNL d   1       0.363   2.029  -2.014  0.00  0.00    -0.005 A 
ATOM      6  C5  UNL d   1      -0.387   0.928  -1.589  0.00  0.00    -0.074 A 
ATOM      7  C6  UNL d   1       0.264  -0.222  -0.879  0.00  0.00     0.077 C 
ATOM      8  C7  UNL d   1      -1.769   0.913  -1.822  0.00  0.00    -0.001 A 
ENDROOT
TORSDOF 0
ENDMDL
