MODEL 1
REMARK minimizedAffinity -2.9320085
REMARK minimizedRMSD -1
REMARK  0 active torsions:
REMARK  status: ('A' for Active; 'I' for Inactive)
ROOT
ATOM      1  C   UNL d   1      -3.660   3.239  -2.862  0.00  0.00     0.077 C 
ATOM      2  C1  UNL d   1      -2.270   2.735  -2.608  0.00  0.00    -0.074 A 
ATOM      3  C2  UNL d   1      -1.153   3.489  -2.983  0.00  0.00    -0.005 A 
ATOM      4  C3  UNL d   1       0.134   3.012  -2.731  0.00  0.00     0.006 A 
ATOM      5  C4  UNL d   1       0.315   1.779  -2.103  0.00  0.00    -0.005 A 
ATOM      6  C5  UNL d   1      -0.790   1.012  -1.720  0.00  0.00    -0.074 A 
ATOM      7  C6  UNL d   1      -0.612  -0.310  -1.036  0.00  0.00     0.077 C 
ATOM      8  C7  UNL d   1      -2.079   1.501  -1.970  0.00  0.00    -0.001 A 
ENDROOT
TORSDOF 0
ENDMDL
