MODEL 1
REMARK minimizedAffinity -0.639808476
REMARK minimizedRMSD -1
REMARK  0 active torsions:
REMARK  status: ('A' for Active; 'I' for Inactive)
ROOT
ATOM      1  C   UNL d   1      -0.809  -0.707   1.616  0.00  0.00     0.077 C 
ATOM      2  C1  UNL d   1      -0.360  -0.429   0.213  0.00  0.00    -0.074 A 
ATOM      3  C2  UNL d   1       0.782  -1.043  -0.312  0.00  0.00    -0.005 A 
ATOM      4  C3  UNL d   1       1.182  -0.781  -1.622  0.00  0.00     0.006 A 
ATOM      5  C4  UNL d   1       0.446   0.096  -2.420  0.00  0.00    -0.005 A 
ATOM      6  C5  UNL d   1      -0.699   0.719  -1.913  0.00  0.00    -0.074 A 
ATOM      7  C6  UNL d   1      -1.506   1.657  -2.760  0.00  0.00     0.077 C 
ATOM      8  C7  UNL d   1      -1.098   0.445  -0.597  0.00  0.00    -0.001 A 
ENDROOT
TORSDOF 0
ENDMDL
