MODEL 1
REMARK minimizedAffinity -4.71703243
REMARK minimizedRMSD -1
REMARK  0 active torsions:
REMARK  status: ('A' for Active; 'I' for Inactive)
ROOT
ATOM      1  C   UNL d   1      -0.863   1.112  -1.549  0.00  0.00     0.077 C 
ATOM      2  C1  UNL d   1       0.057   0.104  -0.928  0.00  0.00    -0.074 A 
ATOM      3  C2  UNL d   1       0.671  -0.883  -1.704  0.00  0.00    -0.005 A 
ATOM      4  C3  UNL d   1       1.532  -1.809  -1.114  0.00  0.00     0.006 A 
ATOM      5  C4  UNL d   1       1.786  -1.756   0.257  0.00  0.00    -0.005 A 
ATOM      6  C5  UNL d   1       1.181  -0.776   1.050  0.00  0.00    -0.074 A 
ATOM      7  C6  UNL d   1       1.451  -0.699   2.523  0.00  0.00     0.077 C 
ATOM      8  C7  UNL d   1       0.323   0.155   0.448  0.00  0.00    -0.001 A 
ENDROOT
TORSDOF 0
ENDMDL
