MODEL 1
REMARK minimizedAffinity -3.50962257
REMARK minimizedRMSD -1
REMARK  0 active torsions:
REMARK  status: ('A' for Active; 'I' for Inactive)
ROOT
ATOM      1  C   UNL d   1       2.698  -0.653   1.258  0.00  0.00     0.077 C 
ATOM      2  C1  UNL d   1       1.278  -0.218   1.049  0.00  0.00    -0.074 A 
ATOM      3  C2  UNL d   1       0.611  -0.496  -0.149  0.00  0.00    -0.005 A 
ATOM      4  C3  UNL d   1      -0.713  -0.093  -0.326  0.00  0.00     0.006 A 
ATOM      5  C4  UNL d   1      -1.381   0.590   0.691  0.00  0.00    -0.005 A 
ATOM      6  C5  UNL d   1      -0.731   0.875   1.895  0.00  0.00    -0.074 A 
ATOM      7  C6  UNL d   1      -1.438   1.600   3.002  0.00  0.00     0.077 C 
ATOM      8  C7  UNL d   1       0.597   0.462   2.068  0.00  0.00    -0.001 A 
ENDROOT
TORSDOF 0
ENDMDL
