MODEL 1
REMARK minimizedAffinity -0.852235973
REMARK minimizedRMSD -1
REMARK  0 active torsions:
REMARK  status: ('A' for Active; 'I' for Inactive)
ROOT
ATOM      1  C   UNL d   1      -4.215  -1.712  -1.259  0.00  0.00     0.077 C 
ATOM      2  C1  UNL d   1      -3.251  -0.704  -0.708  0.00  0.00    -0.074 A 
ATOM      3  C2  UNL d   1      -3.624   0.634  -0.546  0.00  0.00    -0.005 A 
ATOM      4  C3  UNL d   1      -2.720   1.558  -0.023  0.00  0.00     0.006 A 
ATOM      5  C4  UNL d   1      -1.435   1.154   0.343  0.00  0.00    -0.005 A 
ATOM      6  C5  UNL d   1      -1.045  -0.180   0.190  0.00  0.00    -0.074 A 
ATOM      7  C6  UNL d   1       0.329  -0.633   0.587  0.00  0.00     0.077 C 
ATOM      8  C7  UNL d   1      -1.961  -1.104  -0.330  0.00  0.00    -0.001 A 
ENDROOT
TORSDOF 0
ENDMDL
