MODEL 1
REMARK minimizedAffinity -3.10975099
REMARK minimizedRMSD -1
REMARK  0 active torsions:
REMARK  status: ('A' for Active; 'I' for Inactive)
ROOT
ATOM      1  C   UNL d   1      -2.561  -0.359  -0.808  0.00  0.00     0.077 C 
ATOM      2  C1  UNL d   1      -1.289   0.027  -0.113  0.00  0.00    -0.074 A 
ATOM      3  C2  UNL d   1      -0.045  -0.207  -0.709  0.00  0.00    -0.005 A 
ATOM      4  C3  UNL d   1       1.129   0.166  -0.055  0.00  0.00     0.006 A 
ATOM      5  C4  UNL d   1       1.072   0.776   1.199  0.00  0.00    -0.005 A 
ATOM      6  C5  UNL d   1      -0.163   1.018   1.810  0.00  0.00    -0.074 A 
ATOM      7  C6  UNL d   1      -0.242   1.681   3.153  0.00  0.00     0.077 C 
ATOM      8  C7  UNL d   1      -1.339   0.647   1.144  0.00  0.00    -0.001 A 
ENDROOT
TORSDOF 0
ENDMDL
