MODEL 1
REMARK minimizedAffinity 0.114829704
REMARK minimizedRMSD -1
REMARK  0 active torsions:
REMARK  status: ('A' for Active; 'I' for Inactive)
ROOT
ATOM      1  C   UNL d   1      -1.519  -0.094  -5.335  0.00  0.00     0.077 C 
ATOM      2  C1  UNL d   1      -0.549  -0.122  -4.191  0.00  0.00    -0.074 A 
ATOM      3  C2  UNL d   1       0.763   0.334  -4.349  0.00  0.00    -0.005 A 
ATOM      4  C3  UNL d   1       1.651   0.311  -3.273  0.00  0.00     0.006 A 
ATOM      5  C4  UNL d   1       1.236  -0.168  -2.030  0.00  0.00    -0.005 A 
ATOM      6  C5  UNL d   1      -0.073  -0.627  -1.853  0.00  0.00    -0.074 A 
ATOM      7  C6  UNL d   1      -0.539  -1.136  -0.521  0.00  0.00     0.077 C 
ATOM      8  C7  UNL d   1      -0.961  -0.594  -2.936  0.00  0.00    -0.001 A 
ENDROOT
TORSDOF 0
ENDMDL
