MODEL 1
REMARK minimizedAffinity -5.19148827
REMARK minimizedRMSD -1
REMARK  0 active torsions:
REMARK  status: ('A' for Active; 'I' for Inactive)
ROOT
ATOM      1  C   UNL d   1      -1.050  -0.327  -0.933  0.00  0.00     0.077 C 
ATOM      2  C1  UNL d   1      -0.164  -0.319   0.278  0.00  0.00    -0.074 A 
ATOM      3  C2  UNL d   1       1.088  -0.942   0.256  0.00  0.00    -0.005 A 
ATOM      4  C3  UNL d   1       1.905  -0.918   1.386  0.00  0.00     0.006 A 
ATOM      5  C4  UNL d   1       1.479  -0.273   2.547  0.00  0.00    -0.005 A 
ATOM      6  C5  UNL d   1       0.231   0.356   2.588  0.00  0.00    -0.074 A 
ATOM      7  C6  UNL d   1      -0.238   1.063   3.825  0.00  0.00     0.077 C 
ATOM      8  C7  UNL d   1      -0.582   0.334   1.446  0.00  0.00    -0.001 A 
ENDROOT
TORSDOF 0
ENDMDL
