MODEL 1
REMARK minimizedAffinity -5.33947515
REMARK minimizedRMSD -1
REMARK  0 active torsions:
REMARK  status: ('A' for Active; 'I' for Inactive)
ROOT
ATOM      1  C   UNL d   1       0.197  -0.996  -2.279  0.00  0.00     0.077 C 
ATOM      2  C1  UNL d   1       0.469  -0.616  -0.854  0.00  0.00    -0.074 A 
ATOM      3  C2  UNL d   1       1.351  -1.362  -0.066  0.00  0.00    -0.005 A 
ATOM      4  C3  UNL d   1       1.601  -0.991   1.255  0.00  0.00     0.006 A 
ATOM      5  C4  UNL d   1       0.972   0.129   1.801  0.00  0.00    -0.005 A 
ATOM      6  C5  UNL d   1       0.088   0.888   1.029  0.00  0.00    -0.074 A 
ATOM      7  C6  UNL d   1      -0.589   2.100   1.597  0.00  0.00     0.077 C 
ATOM      8  C7  UNL d   1      -0.153   0.512  -0.300  0.00  0.00    -0.001 A 
ENDROOT
TORSDOF 0
ENDMDL
