MODEL 1
REMARK minimizedAffinity 2.63506842
REMARK minimizedRMSD -1
REMARK  1 active torsions:
REMARK  status: ('A' for Active; 'I' for Inactive)
REMARK    1  A    between atoms: C1_2  and  C2_3 
ROOT
ATOM      1  C2  UNL d   1       0.392   1.159   2.330  0.00  0.00    -0.081 A 
ATOM      2  C3  UNL d   1      -0.522   0.391   3.061  0.00  0.00     0.006 A 
ATOM      3  C4  UNL d   1      -1.202  -0.668   2.455  0.00  0.00     0.002 A 
ATOM      4  C5  UNL d   1      -0.973  -0.982   1.111  0.00  0.00    -0.080 A 
ATOM      5  C6  UNL d   1      -1.674  -2.135   0.457  0.00  0.00     0.076 C 
ATOM      6  C7  UNL d   1      -0.073  -0.204   0.376  0.00  0.00     0.002 A 
ATOM      7  C8  UNL d   1       0.606   0.856   0.981  0.00  0.00     0.006 A 
ENDROOT
BRANCH   1   8
ATOM      8  C1  UNL d   1       1.175   2.261   2.997  0.00  0.00     0.054 C 
ATOM      9  C   UNL d   1       0.345   2.962   4.063  0.00  0.00     0.018 C 
ENDBRANCH   1   8
TORSDOF 1
ENDMDL
