MODEL 1
REMARK minimizedAffinity -5.31919336
REMARK minimizedRMSD -1
REMARK  1 active torsions:
REMARK  status: ('A' for Active; 'I' for Inactive)
REMARK    1  A    between atoms: C1_2  and  C2_3 
ROOT
ATOM      1  C2  UNL d   1       0.213  -0.009  -0.882  0.00  0.00    -0.081 A 
ATOM      2  C3  UNL d   1       1.185   0.086   0.121  0.00  0.00     0.006 A 
ATOM      3  C4  UNL d   1       0.846  -0.135   1.458  0.00  0.00     0.002 A 
ATOM      4  C5  UNL d   1      -0.467  -0.462   1.813  0.00  0.00    -0.080 A 
ATOM      5  C6  UNL d   1      -0.838  -0.732   3.241  0.00  0.00     0.076 C 
ATOM      6  C7  UNL d   1      -1.442  -0.540   0.812  0.00  0.00     0.002 A 
ATOM      7  C8  UNL d   1      -1.104  -0.318  -0.525  0.00  0.00     0.006 A 
ENDROOT
BRANCH   1   8
ATOM      8  C1  UNL d   1       0.589   0.165  -2.332  0.00  0.00     0.054 C 
ATOM      9  C   UNL d   1       0.519  -1.156  -3.084  0.00  0.00     0.018 C 
ENDBRANCH   1   8
TORSDOF 1
ENDMDL
