MODEL 1
REMARK minimizedAffinity -2.72325325
REMARK minimizedRMSD -1
REMARK  1 active torsions:
REMARK  status: ('A' for Active; 'I' for Inactive)
REMARK    1  A    between atoms: C1_2  and  C2_3 
ROOT
ATOM      1  C2  UNL d   1       1.149   0.966   1.478  0.00  0.00    -0.081 A 
ATOM      2  C3  UNL d   1       0.359   0.935   0.323  0.00  0.00     0.006 A 
ATOM      3  C4  UNL d   1      -1.032   0.858   0.418  0.00  0.00     0.002 A 
ATOM      4  C5  UNL d   1      -1.657   0.819   1.669  0.00  0.00    -0.080 A 
ATOM      5  C6  UNL d   1      -3.152   0.767   1.785  0.00  0.00     0.076 C 
ATOM      6  C7  UNL d   1      -0.868   0.833   2.823  0.00  0.00     0.002 A 
ATOM      7  C8  UNL d   1       0.524   0.909   2.729  0.00  0.00     0.006 A 
ENDROOT
BRANCH   1   8
ATOM      8  C1  UNL d   1       2.646   1.115   1.380  0.00  0.00     0.054 C 
ATOM      9  C   UNL d   1       3.029   2.420   0.697  0.00  0.00     0.018 C 
ENDBRANCH   1   8
TORSDOF 1
ENDMDL
