MODEL 1
REMARK minimizedAffinity -0.0343625396
REMARK minimizedRMSD -1
REMARK  1 active torsions:
REMARK  status: ('A' for Active; 'I' for Inactive)
REMARK    1  A    between atoms: C1_2  and  C2_3 
ROOT
ATOM      1  C2  UNL d   1       0.673  -1.049  -2.022  0.00  0.00    -0.081 A 
ATOM      2  C3  UNL d   1      -0.411  -1.862  -1.668  0.00  0.00     0.006 A 
ATOM      3  C4  UNL d   1      -1.461  -1.350  -0.902  0.00  0.00     0.002 A 
ATOM      4  C5  UNL d   1      -1.449  -0.015  -0.484  0.00  0.00    -0.080 A 
ATOM      5  C6  UNL d   1      -2.584   0.556   0.312  0.00  0.00     0.076 C 
ATOM      6  C7  UNL d   1      -0.358   0.793  -0.823  0.00  0.00     0.002 A 
ATOM      7  C8  UNL d   1       0.692   0.281  -1.587  0.00  0.00     0.006 A 
ENDROOT
BRANCH   1   8
ATOM      8  C1  UNL d   1       1.775  -1.580  -2.902  0.00  0.00     0.054 C 
ATOM      9  C   UNL d   1       1.500  -1.289  -4.370  0.00  0.00     0.018 C 
ENDBRANCH   1   8
TORSDOF 1
ENDMDL
