MODEL 1
REMARK minimizedAffinity -4.14711714
REMARK minimizedRMSD -1
REMARK  1 active torsions:
REMARK  status: ('A' for Active; 'I' for Inactive)
REMARK    1  A    between atoms: C1_2  and  C2_3 
ROOT
ATOM      1  C2  UNL d   1      -0.094  -0.261  -1.235  0.00  0.00    -0.081 A 
ATOM      2  C3  UNL d   1      -1.394   0.024  -0.799  0.00  0.00     0.006 A 
ATOM      3  C4  UNL d   1      -1.737  -0.118   0.547  0.00  0.00     0.002 A 
ATOM      4  C5  UNL d   1      -0.784  -0.539   1.481  0.00  0.00    -0.080 A 
ATOM      5  C6  UNL d   1      -1.131  -0.667   2.935  0.00  0.00     0.076 C 
ATOM      6  C7  UNL d   1       0.510  -0.841   1.043  0.00  0.00     0.002 A 
ATOM      7  C8  UNL d   1       0.853  -0.699  -0.303  0.00  0.00     0.006 A 
ENDROOT
BRANCH   1   8
ATOM      8  C1  UNL d   1       0.296  -0.046  -2.675  0.00  0.00     0.054 C 
ATOM      9  C   UNL d   1       0.521  -1.371  -3.391  0.00  0.00     0.018 C 
ENDBRANCH   1   8
TORSDOF 1
ENDMDL
