MODEL 1
REMARK minimizedAffinity -4.48440218
REMARK minimizedRMSD -1
REMARK  1 active torsions:
REMARK  status: ('A' for Active; 'I' for Inactive)
REMARK    1  A    between atoms: C1_2  and  C2_3 
ROOT
ATOM      1  C2  UNL d   1       0.004   0.370  -0.568  0.00  0.00    -0.081 A 
ATOM      2  C3  UNL d   1       0.906   0.604   0.477  0.00  0.00     0.006 A 
ATOM      3  C4  UNL d   1       0.594   0.214   1.782  0.00  0.00     0.002 A 
ATOM      4  C5  UNL d   1      -0.619  -0.423   2.062  0.00  0.00    -0.080 A 
ATOM      5  C6  UNL d   1      -0.953  -0.873   3.453  0.00  0.00     0.076 C 
ATOM      6  C7  UNL d   1      -1.528  -0.641   1.021  0.00  0.00     0.002 A 
ATOM      7  C8  UNL d   1      -1.218  -0.250  -0.284  0.00  0.00     0.006 A 
ENDROOT
BRANCH   1   8
ATOM      8  C1  UNL d   1       0.364   0.731  -1.987  0.00  0.00     0.054 C 
ATOM      9  C   UNL d   1       0.610  -0.513  -2.828  0.00  0.00     0.018 C 
ENDBRANCH   1   8
TORSDOF 1
ENDMDL
