MODEL 1
REMARK minimizedAffinity -4.09256983
REMARK minimizedRMSD -1
REMARK  1 active torsions:
REMARK  status: ('A' for Active; 'I' for Inactive)
REMARK    1  A    between atoms: C1_2  and  C2_3 
ROOT
ATOM      1  C2  UNL d   1      -0.756   0.561   1.328  0.00  0.00    -0.081 A 
ATOM      2  C3  UNL d   1       0.093   0.725   0.227  0.00  0.00     0.006 A 
ATOM      3  C4  UNL d   1       1.478   0.623   0.379  0.00  0.00     0.002 A 
ATOM      4  C5  UNL d   1       2.036   0.348   1.632  0.00  0.00    -0.080 A 
ATOM      5  C6  UNL d   1       3.519   0.206   1.804  0.00  0.00     0.076 C 
ATOM      6  C7  UNL d   1       1.189   0.202   2.736  0.00  0.00     0.002 A 
ATOM      7  C8  UNL d   1      -0.196   0.304   2.585  0.00  0.00     0.006 A 
ENDROOT
BRANCH   1   8
ATOM      8  C1  UNL d   1      -2.253   0.606   1.156  0.00  0.00     0.054 C 
ATOM      9  C   UNL d   1      -2.635   0.837  -0.299  0.00  0.00     0.018 C 
ENDBRANCH   1   8
TORSDOF 1
ENDMDL
