MODEL 1
REMARK minimizedAffinity -4.93131685
REMARK minimizedRMSD -1
REMARK  1 active torsions:
REMARK  status: ('A' for Active; 'I' for Inactive)
REMARK    1  A    between atoms: C1_2  and  C2_3 
ROOT
ATOM      1  C2  UNL d   1       0.124   0.105  -0.591  0.00  0.00    -0.081 A 
ATOM      2  C3  UNL d   1       1.088  -0.325   0.330  0.00  0.00     0.006 A 
ATOM      3  C4  UNL d   1       0.734  -0.590   1.654  0.00  0.00     0.002 A 
ATOM      4  C5  UNL d   1      -0.590  -0.437   2.079  0.00  0.00    -0.080 A 
ATOM      5  C6  UNL d   1      -0.990  -0.747   3.491  0.00  0.00     0.076 C 
ATOM      6  C7  UNL d   1      -1.550   0.010   1.164  0.00  0.00     0.002 A 
ATOM      7  C8  UNL d   1      -1.196   0.275  -0.160  0.00  0.00     0.006 A 
ENDROOT
BRANCH   1   8
ATOM      8  C1  UNL d   1       0.491   0.330  -2.036  0.00  0.00     0.054 C 
ATOM      9  C   UNL d   1       0.736  -0.989  -2.755  0.00  0.00     0.018 C 
ENDBRANCH   1   8
TORSDOF 1
ENDMDL
