MODEL 1
REMARK minimizedAffinity -3.87705755
REMARK minimizedRMSD -1
REMARK  1 active torsions:
REMARK  status: ('A' for Active; 'I' for Inactive)
REMARK    1  A    between atoms: C1_2  and  C2_3 
ROOT
ATOM      1  C2  UNL d   1       1.181  -1.149  -0.774  0.00  0.00    -0.081 A 
ATOM      2  C3  UNL d   1       1.935  -1.111   0.405  0.00  0.00     0.006 A 
ATOM      3  C4  UNL d   1       1.441  -0.469   1.543  0.00  0.00     0.002 A 
ATOM      4  C5  UNL d   1       0.180   0.138   1.523  0.00  0.00    -0.080 A 
ATOM      5  C6  UNL d   1      -0.375   0.804   2.747  0.00  0.00     0.076 C 
ATOM      6  C7  UNL d   1      -0.566   0.116   0.341  0.00  0.00     0.002 A 
ATOM      7  C8  UNL d   1      -0.072  -0.525  -0.797  0.00  0.00     0.006 A 
ENDROOT
BRANCH   1   8
ATOM      8  C1  UNL d   1       1.683  -1.896  -1.983  0.00  0.00     0.054 C 
ATOM      9  C   UNL d   1       0.859  -1.567  -3.219  0.00  0.00     0.018 C 
ENDBRANCH   1   8
TORSDOF 1
ENDMDL
