MODEL 1
REMARK minimizedAffinity -3.93818951
REMARK minimizedRMSD -1
REMARK  1 active torsions:
REMARK  status: ('A' for Active; 'I' for Inactive)
REMARK    1  A    between atoms: C1_2  and  C2_3 
ROOT
ATOM      1  C2  UNL d   1       0.492   0.108  -1.044  0.00  0.00    -0.081 A 
ATOM      2  C3  UNL d   1       1.509  -0.047  -0.094  0.00  0.00     0.006 A 
ATOM      3  C4  UNL d   1       1.218   0.016   1.271  0.00  0.00     0.002 A 
ATOM      4  C5  UNL d   1      -0.094   0.226   1.708  0.00  0.00    -0.080 A 
ATOM      5  C6  UNL d   1      -0.424   0.265   3.170  0.00  0.00     0.076 C 
ATOM      6  C7  UNL d   1      -1.107   0.397   0.759  0.00  0.00     0.002 A 
ATOM      7  C8  UNL d   1      -0.817   0.336  -0.606  0.00  0.00     0.006 A 
ENDROOT
BRANCH   1   8
ATOM      8  C1  UNL d   1       0.792  -0.024  -2.516  0.00  0.00     0.054 C 
ATOM      9  C   UNL d   1       1.181  -1.450  -2.876  0.00  0.00     0.018 C 
ENDBRANCH   1   8
TORSDOF 1
ENDMDL
