MODEL 1
REMARK minimizedAffinity -4.77908802
REMARK minimizedRMSD -1
REMARK  1 active torsions:
REMARK  status: ('A' for Active; 'I' for Inactive)
REMARK    1  A    between atoms: C1_2  and  C2_3 
ROOT
ATOM      1  C2  UNL d   1       0.056  -0.164   0.559  0.00  0.00    -0.081 A 
ATOM      2  C3  UNL d   1      -0.010  -1.533   0.271  0.00  0.00     0.006 A 
ATOM      3  C4  UNL d   1       0.074  -1.983  -1.049  0.00  0.00     0.002 A 
ATOM      4  C5  UNL d   1       0.234  -1.074  -2.100  0.00  0.00    -0.080 A 
ATOM      5  C6  UNL d   1       0.356  -1.546  -3.519  0.00  0.00     0.076 C 
ATOM      6  C7  UNL d   1       0.282   0.295  -1.814  0.00  0.00     0.002 A 
ATOM      7  C8  UNL d   1       0.197   0.745  -0.494  0.00  0.00     0.006 A 
ENDROOT
BRANCH   1   8
ATOM      8  C1  UNL d   1       0.030   0.320   1.987  0.00  0.00     0.054 C 
ATOM      9  C   UNL d   1       1.430   0.650   2.484  0.00  0.00     0.018 C 
ENDBRANCH   1   8
TORSDOF 1
ENDMDL
