MODEL 1
REMARK minimizedAffinity -2.4258492
REMARK minimizedRMSD -1
REMARK  1 active torsions:
REMARK  status: ('A' for Active; 'I' for Inactive)
REMARK    1  A    between atoms: C1_2  and  C2_3 
ROOT
ATOM      1  C2  UNL d   1      -0.972  -0.450   2.356  0.00  0.00    -0.081 A 
ATOM      2  C3  UNL d   1       0.312   0.094   2.234  0.00  0.00     0.006 A 
ATOM      3  C4  UNL d   1       0.781   0.531   0.993  0.00  0.00     0.002 A 
ATOM      4  C5  UNL d   1      -0.028   0.439  -0.145  0.00  0.00    -0.080 A 
ATOM      5  C6  UNL d   1       0.452   0.932  -1.477  0.00  0.00     0.076 C 
ATOM      6  C7  UNL d   1      -1.305  -0.121  -0.026  0.00  0.00     0.002 A 
ATOM      7  C8  UNL d   1      -1.774  -0.558   1.214  0.00  0.00     0.006 A 
ENDROOT
BRANCH   1   8
ATOM      8  C1  UNL d   1      -1.505  -0.862   3.704  0.00  0.00     0.054 C 
ATOM      9  C   UNL d   1      -3.002  -1.132   3.649  0.00  0.00     0.018 C 
ENDBRANCH   1   8
TORSDOF 1
ENDMDL
