MODEL 1
REMARK minimizedAffinity -2.49365926
REMARK minimizedRMSD -1
REMARK  1 active torsions:
REMARK  status: ('A' for Active; 'I' for Inactive)
REMARK    1  A    between atoms: C1_2  and  C2_3 
ROOT
ATOM      1  C2  UNL d   1       0.789   0.797   0.770  0.00  0.00    -0.081 A 
ATOM      2  C3  UNL d   1       0.427   0.952  -0.574  0.00  0.00     0.006 A 
ATOM      3  C4  UNL d   1      -0.902   0.789  -0.972  0.00  0.00     0.002 A 
ATOM      4  C5  UNL d   1      -1.891   0.476  -0.034  0.00  0.00    -0.080 A 
ATOM      5  C6  UNL d   1      -3.326   0.327  -0.444  0.00  0.00     0.076 C 
ATOM      6  C7  UNL d   1      -1.526   0.303   1.306  0.00  0.00     0.002 A 
ATOM      7  C8  UNL d   1      -0.198   0.466   1.705  0.00  0.00     0.006 A 
ENDROOT
BRANCH   1   8
ATOM      8  C1  UNL d   1       2.210   1.036   1.213  0.00  0.00     0.054 C 
ATOM      9  C   UNL d   1       2.513   2.524   1.320  0.00  0.00     0.018 C 
ENDBRANCH   1   8
TORSDOF 1
ENDMDL
