MODEL 1
REMARK minimizedAffinity -5.10315418
REMARK minimizedRMSD -1
REMARK  1 active torsions:
REMARK  status: ('A' for Active; 'I' for Inactive)
REMARK    1  A    between atoms: C1_2  and  C2_3 
ROOT
ATOM      1  C2  UNL d   1       0.416   0.437   1.814  0.00  0.00    -0.081 A 
ATOM      2  C3  UNL d   1       0.505   0.543   0.421  0.00  0.00     0.006 A 
ATOM      3  C4  UNL d   1      -0.649   0.533  -0.365  0.00  0.00     0.002 A 
ATOM      4  C5  UNL d   1      -1.911   0.425   0.228  0.00  0.00    -0.080 A 
ATOM      5  C6  UNL d   1      -3.160   0.444  -0.602  0.00  0.00     0.076 C 
ATOM      6  C7  UNL d   1      -2.000   0.302   1.619  0.00  0.00     0.002 A 
ATOM      7  C8  UNL d   1      -0.845   0.311   2.406  0.00  0.00     0.006 A 
ENDROOT
BRANCH   1   8
ATOM      8  C1  UNL d   1       1.655   0.512   2.669  0.00  0.00     0.054 C 
ATOM      9  C   UNL d   1       2.814   1.143   1.910  0.00  0.00     0.018 C 
ENDBRANCH   1   8
TORSDOF 1
ENDMDL
