MODEL 1
REMARK minimizedAffinity -2.11912489
REMARK minimizedRMSD -1
REMARK  1 active torsions:
REMARK  status: ('A' for Active; 'I' for Inactive)
REMARK    1  A    between atoms: C1_2  and  C2_3 
ROOT
ATOM      1  C2  UNL d   1       0.914   0.589   0.373  0.00  0.00    -0.077 A 
ATOM      2  C3  UNL d   1       2.293   0.667   0.613  0.00  0.00     0.002 A 
ATOM      3  C4  UNL d   1       2.859   1.844   1.105  0.00  0.00     0.002 A 
ATOM      4  C5  UNL d   1       2.053   2.951   1.364  0.00  0.00    -0.004 A 
ATOM      5  C6  UNL d   1       0.681   2.884   1.127  0.00  0.00     0.002 A 
ATOM      6  C7  UNL d   1       0.114   1.708   0.634  0.00  0.00     0.002 A 
ENDROOT
BRANCH   1   7
ATOM      7  C1  UNL d   1       0.295  -0.696  -0.111  0.00  0.00     0.055 C 
ATOM      8  C   UNL d   1      -0.018  -1.631   1.048  0.00  0.00     0.019 C 
ENDBRANCH   1   7
TORSDOF 1
ENDMDL
