MODEL 1
REMARK minimizedAffinity -4.07628536
REMARK minimizedRMSD -1
REMARK  1 active torsions:
REMARK  status: ('A' for Active; 'I' for Inactive)
REMARK    1  A    between atoms: C1_2  and  C2_3 
ROOT
ATOM      1  C2  UNL d   1      -0.277  -0.119  -0.380  0.00  0.00    -0.077 A 
ATOM      2  C3  UNL d   1      -1.190  -0.746  -1.240  0.00  0.00     0.002 A 
ATOM      3  C4  UNL d   1      -1.135  -2.127  -1.443  0.00  0.00     0.002 A 
ATOM      4  C5  UNL d   1      -0.173  -2.891  -0.787  0.00  0.00    -0.004 A 
ATOM      5  C6  UNL d   1       0.741  -2.277   0.069  0.00  0.00     0.002 A 
ATOM      6  C7  UNL d   1       0.689  -0.897   0.272  0.00  0.00     0.002 A 
ENDROOT
BRANCH   1   7
ATOM      7  C1  UNL d   1      -0.365   1.362  -0.122  0.00  0.00     0.055 C 
ATOM      8  C   UNL d   1      -1.560   1.700   0.758  0.00  0.00     0.019 C 
ENDBRANCH   1   7
TORSDOF 1
ENDMDL
