MODEL 1
REMARK minimizedAffinity -3.04317927
REMARK minimizedRMSD -1
REMARK  1 active torsions:
REMARK  status: ('A' for Active; 'I' for Inactive)
REMARK    1  A    between atoms: C1_2  and  C2_3 
ROOT
ATOM      1  C2  UNL d   1      -0.356  -2.127  -0.720  0.00  0.00    -0.077 A 
ATOM      2  C3  UNL d   1      -1.110  -0.947  -0.647  0.00  0.00     0.002 A 
ATOM      3  C4  UNL d   1      -0.639   0.148   0.081  0.00  0.00     0.002 A 
ATOM      4  C5  UNL d   1       0.588   0.075   0.737  0.00  0.00    -0.004 A 
ATOM      5  C6  UNL d   1       1.344  -1.094   0.672  0.00  0.00     0.002 A 
ATOM      6  C7  UNL d   1       0.875  -2.190  -0.054  0.00  0.00     0.002 A 
ENDROOT
BRANCH   1   7
ATOM      7  C1  UNL d   1      -0.838  -3.291  -1.545  0.00  0.00     0.055 C 
ATOM      8  C   UNL d   1       0.225  -3.747  -2.534  0.00  0.00     0.019 C 
ENDBRANCH   1   7
TORSDOF 1
ENDMDL
