MODEL 1
REMARK minimizedAffinity -4.09851074
REMARK minimizedRMSD -1
REMARK  1 active torsions:
REMARK  status: ('A' for Active; 'I' for Inactive)
REMARK    1  A    between atoms: C1_2  and  C2_3 
ROOT
ATOM      1  C2  UNL d   1      -0.111  -0.296   0.246  0.00  0.00    -0.077 A 
ATOM      2  C3  UNL d   1       0.699   0.823   0.006  0.00  0.00     0.002 A 
ATOM      3  C4  UNL d   1       0.186   2.112   0.164  0.00  0.00     0.002 A 
ATOM      4  C5  UNL d   1      -1.135   2.294   0.567  0.00  0.00    -0.004 A 
ATOM      5  C6  UNL d   1      -1.949   1.187   0.806  0.00  0.00     0.002 A 
ATOM      6  C7  UNL d   1      -1.439  -0.102   0.648  0.00  0.00     0.002 A 
ENDROOT
BRANCH   1   7
ATOM      7  C1  UNL d   1       0.454  -1.688   0.124  0.00  0.00     0.055 C 
ATOM      8  C   UNL d   1      -0.287  -2.495  -0.931  0.00  0.00     0.019 C 
ENDBRANCH   1   7
TORSDOF 1
ENDMDL
