MODEL 1
REMARK minimizedAffinity -3.17160678
REMARK minimizedRMSD -1
REMARK  1 active torsions:
REMARK  status: ('A' for Active; 'I' for Inactive)
REMARK    1  A    between atoms: C1_2  and  C2_3 
ROOT
ATOM      1  C2  UNL d   1      -0.023  -2.028  -1.035  0.00  0.00    -0.077 A 
ATOM      2  C3  UNL d   1       0.924  -2.018  -0.002  0.00  0.00     0.002 A 
ATOM      3  C4  UNL d   1       1.229  -0.829   0.664  0.00  0.00     0.002 A 
ATOM      4  C5  UNL d   1       0.589   0.356   0.308  0.00  0.00    -0.004 A 
ATOM      5  C6  UNL d   1      -0.354   0.356  -0.720  0.00  0.00     0.002 A 
ATOM      6  C7  UNL d   1      -0.659  -0.831  -1.387  0.00  0.00     0.002 A 
ENDROOT
BRANCH   1   7
ATOM      7  C1  UNL d   1      -0.390  -3.318  -1.721  0.00  0.00     0.055 C 
ATOM      8  C   UNL d   1      -1.828  -3.292  -2.218  0.00  0.00     0.019 C 
ENDBRANCH   1   7
TORSDOF 1
ENDMDL
