MODEL 1
REMARK minimizedAffinity -5.43791294
REMARK minimizedRMSD -1
REMARK  1 active torsions:
REMARK  status: ('A' for Active; 'I' for Inactive)
REMARK    1  A    between atoms: C1_2  and  C2_3 
ROOT
ATOM      1  C2  UNL d   1      -2.288  -4.241  -1.037  0.00  0.00    -0.077 A 
ATOM      2  C3  UNL d   1      -1.729  -4.073  -2.312  0.00  0.00     0.002 A 
ATOM      3  C4  UNL d   1      -0.468  -3.491  -2.458  0.00  0.00     0.002 A 
ATOM      4  C5  UNL d   1       0.245  -3.078  -1.336  0.00  0.00    -0.004 A 
ATOM      5  C6  UNL d   1      -0.303  -3.239  -0.064  0.00  0.00     0.002 A 
ATOM      6  C7  UNL d   1      -1.564  -3.819   0.085  0.00  0.00     0.002 A 
ENDROOT
BRANCH   1   7
ATOM      7  C1  UNL d   1      -3.627  -4.912  -0.873  0.00  0.00     0.055 C 
ATOM      8  C   UNL d   1      -3.916  -5.222   0.588  0.00  0.00     0.019 C 
ENDBRANCH   1   7
TORSDOF 1
ENDMDL
