MODEL 1
REMARK minimizedAffinity -1.8153106
REMARK minimizedRMSD -1
REMARK  1 active torsions:
REMARK  status: ('A' for Active; 'I' for Inactive)
REMARK    1  A    between atoms: C1_2  and  C2_3 
ROOT
ATOM      1  C2  UNL d   1      -0.543  -0.867  -0.312  0.00  0.00    -0.077 A 
ATOM      2  C3  UNL d   1       0.468  -0.476   0.575  0.00  0.00     0.002 A 
ATOM      3  C4  UNL d   1       0.394   0.753   1.234  0.00  0.00     0.002 A 
ATOM      4  C5  UNL d   1      -0.693   1.598   1.015  0.00  0.00    -0.004 A 
ATOM      5  C6  UNL d   1      -1.703   1.218   0.133  0.00  0.00     0.002 A 
ATOM      6  C7  UNL d   1      -1.629  -0.009  -0.528  0.00  0.00     0.002 A 
ENDROOT
BRANCH   1   7
ATOM      7  C1  UNL d   1      -0.489  -2.213  -0.986  0.00  0.00     0.055 C 
ATOM      8  C   UNL d   1      -1.450  -3.198  -0.335  0.00  0.00     0.019 C 
ENDBRANCH   1   7
TORSDOF 1
ENDMDL
