MODEL 1
REMARK minimizedAffinity -3.61842942
REMARK minimizedRMSD -1
REMARK  1 active torsions:
REMARK  status: ('A' for Active; 'I' for Inactive)
REMARK    1  A    between atoms: C1_2  and  C2_3 
ROOT
ATOM      1  C2  UNL d   1      -0.504  -1.817  -1.733  0.00  0.00    -0.077 A 
ATOM      2  C3  UNL d   1      -0.819  -0.473  -1.975  0.00  0.00     0.002 A 
ATOM      3  C4  UNL d   1      -0.786   0.459  -0.936  0.00  0.00     0.002 A 
ATOM      4  C5  UNL d   1      -0.435   0.058   0.351  0.00  0.00    -0.004 A 
ATOM      5  C6  UNL d   1      -0.121  -1.277   0.603  0.00  0.00     0.002 A 
ATOM      6  C7  UNL d   1      -0.155  -2.210  -0.435  0.00  0.00     0.002 A 
ENDROOT
BRANCH   1   7
ATOM      7  C1  UNL d   1      -0.491  -2.814  -2.862  0.00  0.00     0.055 C 
ATOM      8  C   UNL d   1      -0.878  -4.203  -2.378  0.00  0.00     0.019 C 
ENDBRANCH   1   7
TORSDOF 1
ENDMDL
