MODEL 1
REMARK minimizedAffinity -3.5183084
REMARK minimizedRMSD -1
REMARK  1 active torsions:
REMARK  status: ('A' for Active; 'I' for Inactive)
REMARK    1  A    between atoms: C1_2  and  C2_3 
ROOT
ATOM      1  C2  UNL d   1       1.192   2.286   0.905  0.00  0.00    -0.077 A 
ATOM      2  C3  UNL d   1       1.225   1.020   0.303  0.00  0.00     0.002 A 
ATOM      3  C4  UNL d   1       0.072   0.479  -0.270  0.00  0.00     0.002 A 
ATOM      4  C5  UNL d   1      -1.121   1.198  -0.249  0.00  0.00    -0.004 A 
ATOM      5  C6  UNL d   1      -1.165   2.457   0.349  0.00  0.00     0.002 A 
ATOM      6  C7  UNL d   1      -0.014   2.999   0.923  0.00  0.00     0.002 A 
ENDROOT
BRANCH   1   7
ATOM      7  C1  UNL d   1       2.446   2.891   1.479  0.00  0.00     0.055 C 
ATOM      8  C   UNL d   1       3.672   2.060   1.131  0.00  0.00     0.019 C 
ENDBRANCH   1   7
TORSDOF 1
ENDMDL
