MODEL 1
REMARK minimizedAffinity -1.79563797
REMARK minimizedRMSD -1
REMARK  1 active torsions:
REMARK  status: ('A' for Active; 'I' for Inactive)
REMARK    1  A    between atoms: C1_2  and  C2_3 
ROOT
ATOM      1  C2  UNL d   1       0.436   2.079   0.891  0.00  0.00    -0.077 A 
ATOM      2  C3  UNL d   1       0.708   0.735   0.601  0.00  0.00     0.002 A 
ATOM      3  C4  UNL d   1      -0.292  -0.093   0.087  0.00  0.00     0.002 A 
ATOM      4  C5  UNL d   1      -1.569   0.416  -0.145  0.00  0.00    -0.004 A 
ATOM      5  C6  UNL d   1      -1.850   1.751   0.143  0.00  0.00     0.002 A 
ATOM      6  C7  UNL d   1      -0.852   2.579   0.657  0.00  0.00     0.002 A 
ENDROOT
BRANCH   1   7
ATOM      7  C1  UNL d   1       1.526   2.986   1.399  0.00  0.00     0.055 C 
ATOM      8  C   UNL d   1       2.881   2.293   1.371  0.00  0.00     0.019 C 
ENDBRANCH   1   7
TORSDOF 1
ENDMDL
