MODEL 1
REMARK minimizedAffinity -4.47213459
REMARK minimizedRMSD -1
REMARK  1 active torsions:
REMARK  status: ('A' for Active; 'I' for Inactive)
REMARK    1  A    between atoms: C1_2  and  C2_3 
ROOT
ATOM      1  C2  UNL d   1       0.477   1.541  -0.125  0.00  0.00    -0.077 A 
ATOM      2  C3  UNL d   1       1.835   1.194  -0.119  0.00  0.00     0.002 A 
ATOM      3  C4  UNL d   1       2.242  -0.057   0.346  0.00  0.00     0.002 A 
ATOM      4  C5  UNL d   1       1.298  -0.973   0.804  0.00  0.00    -0.004 A 
ATOM      5  C6  UNL d   1      -0.055  -0.637   0.805  0.00  0.00     0.002 A 
ATOM      6  C7  UNL d   1      -0.464   0.614   0.342  0.00  0.00     0.002 A 
ENDROOT
BRANCH   1   7
ATOM      7  C1  UNL d   1       0.031   2.872  -0.672  0.00  0.00     0.055 C 
ATOM      8  C   UNL d   1      -0.468   2.743  -2.103  0.00  0.00     0.019 C 
ENDBRANCH   1   7
TORSDOF 1
ENDMDL
