MODEL 1
REMARK minimizedAffinity -1.14290869
REMARK minimizedRMSD -1
REMARK  1 active torsions:
REMARK  status: ('A' for Active; 'I' for Inactive)
REMARK    1  A    between atoms: C1_2  and  C2_3 
ROOT
ATOM      1  C2  UNL d   1       0.256   0.170   0.153  0.00  0.00    -0.077 A 
ATOM      2  C3  UNL d   1       1.514   0.699   0.476  0.00  0.00     0.002 A 
ATOM      3  C4  UNL d   1       1.622   1.972   1.038  0.00  0.00     0.002 A 
ATOM      4  C5  UNL d   1       0.477   2.726   1.285  0.00  0.00    -0.004 A 
ATOM      5  C6  UNL d   1      -0.779   2.210   0.966  0.00  0.00     0.002 A 
ATOM      6  C7  UNL d   1      -0.889   0.938   0.403  0.00  0.00     0.002 A 
ENDROOT
BRANCH   1   7
ATOM      7  C1  UNL d   1       0.134  -1.223  -0.407  0.00  0.00     0.055 C 
ATOM      8  C   UNL d   1       0.232  -2.272   0.692  0.00  0.00     0.019 C 
ENDBRANCH   1   7
TORSDOF 1
ENDMDL
