MODEL 1
REMARK minimizedAffinity 3.82622051
REMARK minimizedRMSD -1
REMARK  1 active torsions:
REMARK  status: ('A' for Active; 'I' for Inactive)
REMARK    1  A    between atoms: C3_4  and  O_7 
ROOT
ATOM      1  C   UNL d   1       2.231   0.163   0.706  0.00  0.00    -0.033 A 
ATOM      2  C1  UNL d   1       3.385   0.810   1.154  0.00  0.00     0.039 A 
ATOM      3  C2  UNL d   1       4.095   1.650   0.293  0.00  0.00    -0.080 A 
ATOM      4  C3  UNL d   1       3.640   1.835  -1.010  0.00  0.00     0.150 A 
ATOM      5  C4  UNL d   1       2.489   1.197  -1.460  0.00  0.00    -0.007 A 
ATOM      6  C5  UNL d   1       1.782   0.358  -0.600  0.00  0.00     0.039 A 
ENDROOT
BRANCH   4   7
ATOM      7  O   UNL d   1       4.302   2.641  -1.887  0.00  0.00    -0.526 OA
ATOM      8  H5  UNL d   1       5.093   2.992  -1.446  0.00  0.00     0.418 HD
ENDBRANCH   4   7
TORSDOF 1
ENDMDL
