MODEL 1
REMARK minimizedAffinity 6.16148233
REMARK minimizedRMSD -1
REMARK  1 active torsions:
REMARK  status: ('A' for Active; 'I' for Inactive)
REMARK    1  A    between atoms: C3_4  and  O_7 
ROOT
ATOM      1  C   UNL d   1       3.282   1.712   0.670  0.00  0.00    -0.033 A 
ATOM      2  C1  UNL d   1       4.142   2.575  -0.012  0.00  0.00     0.039 A 
ATOM      3  C2  UNL d   1       4.444   2.345  -1.355  0.00  0.00    -0.080 A 
ATOM      4  C3  UNL d   1       3.880   1.250  -2.004  0.00  0.00     0.150 A 
ATOM      5  C4  UNL d   1       3.020   0.389  -1.332  0.00  0.00    -0.007 A 
ATOM      6  C5  UNL d   1       2.719   0.620   0.010  0.00  0.00     0.039 A 
ENDROOT
BRANCH   4   7
ATOM      7  O   UNL d   1       4.149   0.982  -3.313  0.00  0.00    -0.526 OA
ATOM      8  H5  UNL d   1       4.781   1.644  -3.640  0.00  0.00     0.418 HD
ENDBRANCH   4   7
TORSDOF 1
ENDMDL
