MODEL 1
REMARK minimizedAffinity 6.61879253
REMARK minimizedRMSD -1
REMARK  1 active torsions:
REMARK  status: ('A' for Active; 'I' for Inactive)
REMARK    1  A    between atoms: C3_4  and  O_7 
ROOT
ATOM      1  C   UNL d   1       3.008   0.343  -0.036  0.00  0.00    -0.033 A 
ATOM      2  C1  UNL d   1       2.301   0.119  -1.219  0.00  0.00     0.039 A 
ATOM      3  C2  UNL d   1       1.652  -1.100  -1.426  0.00  0.00    -0.080 A 
ATOM      4  C3  UNL d   1       1.717  -2.084  -0.444  0.00  0.00     0.150 A 
ATOM      5  C4  UNL d   1       2.416  -1.866   0.738  0.00  0.00    -0.007 A 
ATOM      6  C5  UNL d   1       3.064  -0.649   0.943  0.00  0.00     0.039 A 
ENDROOT
BRANCH   4   7
ATOM      7  O   UNL d   1       1.103  -3.291  -0.603  0.00  0.00    -0.526 OA
ATOM      8  H5  UNL d   1       0.683  -3.310  -1.479  0.00  0.00     0.418 HD
ENDBRANCH   4   7
TORSDOF 1
ENDMDL
