MODEL 1
REMARK minimizedAffinity 9.8516283
REMARK minimizedRMSD -1
REMARK  1 active torsions:
REMARK  status: ('A' for Active; 'I' for Inactive)
REMARK    1  A    between atoms: C3_4  and  O_7 
ROOT
ATOM      1  C   UNL d   1      -4.886   5.957   5.081  0.00  0.00    -0.033 A 
ATOM      2  C1  UNL d   1      -3.824   5.979   4.174  0.00  0.00     0.039 A 
ATOM      3  C2  UNL d   1      -3.848   5.152   3.049  0.00  0.00    -0.080 A 
ATOM      4  C3  UNL d   1      -4.937   4.310   2.843  0.00  0.00     0.150 A 
ATOM      5  C4  UNL d   1      -6.000   4.286   3.740  0.00  0.00    -0.007 A 
ATOM      6  C5  UNL d   1      -5.974   5.112   4.863  0.00  0.00     0.039 A 
ENDROOT
BRANCH   4   7
ATOM      7  O   UNL d   1      -5.003   3.481   1.762  0.00  0.00    -0.526 OA
ATOM      8  H5  UNL d   1      -4.186   3.584   1.245  0.00  0.00     0.418 HD
ENDBRANCH   4   7
TORSDOF 1
ENDMDL
