MODEL 1
REMARK minimizedAffinity 9.87405109
REMARK minimizedRMSD -1
REMARK  1 active torsions:
REMARK  status: ('A' for Active; 'I' for Inactive)
REMARK    1  A    between atoms: C3_4  and  O_7 
ROOT
ATOM      1  C   UNL d   1      -5.995   0.802  -4.809  0.00  0.00    -0.033 A 
ATOM      2  C1  UNL d   1      -5.974   2.141  -4.415  0.00  0.00     0.039 A 
ATOM      3  C2  UNL d   1      -4.922   2.970  -4.808  0.00  0.00    -0.080 A 
ATOM      4  C3  UNL d   1      -3.899   2.449  -5.595  0.00  0.00     0.150 A 
ATOM      5  C4  UNL d   1      -3.915   1.117  -5.995  0.00  0.00    -0.007 A 
ATOM      6  C5  UNL d   1      -4.966   0.290  -5.600  0.00  0.00     0.039 A 
ENDROOT
BRANCH   4   7
ATOM      7  O   UNL d   1      -2.849   3.219  -5.999  0.00  0.00    -0.526 OA
ATOM      8  H5  UNL d   1      -2.957   4.109  -5.625  0.00  0.00     0.418 HD
ENDBRANCH   4   7
TORSDOF 1
ENDMDL
