MODEL 1
REMARK minimizedAffinity 6.04227066
REMARK minimizedRMSD -1
REMARK  1 active torsions:
REMARK  status: ('A' for Active; 'I' for Inactive)
REMARK    1  A    between atoms: C3_4  and  O_7 
ROOT
ATOM      1  C   UNL d   1      -5.241   0.563  -4.961  0.00  0.00    -0.033 A 
ATOM      2  C1  UNL d   1      -4.844   0.376  -3.636  0.00  0.00     0.039 A 
ATOM      3  C2  UNL d   1      -3.540  -0.030  -3.347  0.00  0.00    -0.080 A 
ATOM      4  C3  UNL d   1      -2.643  -0.243  -4.391  0.00  0.00     0.150 A 
ATOM      5  C4  UNL d   1      -3.031  -0.054  -5.713  0.00  0.00    -0.007 A 
ATOM      6  C5  UNL d   1      -4.334   0.350  -6.000  0.00  0.00     0.039 A 
ENDROOT
BRANCH   4   7
ATOM      7  O   UNL d   1      -1.361  -0.645  -4.158  0.00  0.00    -0.526 OA
ATOM      8  H5  UNL d   1      -1.245  -0.762  -3.201  0.00  0.00     0.418 HD
ENDBRANCH   4   7
TORSDOF 1
ENDMDL
