MODEL 1
REMARK minimizedAffinity 6.42726803
REMARK minimizedRMSD -1
REMARK  1 active torsions:
REMARK  status: ('A' for Active; 'I' for Inactive)
REMARK    1  A    between atoms: C3_4  and  O_7 
ROOT
ATOM      1  C   UNL d   1      -4.424  -0.367  -1.566  0.00  0.00    -0.033 A 
ATOM      2  C1  UNL d   1      -3.171   0.036  -1.101  0.00  0.00     0.039 A 
ATOM      3  C2  UNL d   1      -3.074   0.972  -0.070  0.00  0.00    -0.080 A 
ATOM      4  C3  UNL d   1      -4.237   1.497   0.488  0.00  0.00     0.150 A 
ATOM      5  C4  UNL d   1      -5.489   1.097   0.033  0.00  0.00    -0.007 A 
ATOM      6  C5  UNL d   1      -5.583   0.163  -0.998  0.00  0.00     0.039 A 
ENDROOT
BRANCH   4   7
ATOM      7  O   UNL d   1      -4.193   2.416   1.493  0.00  0.00    -0.526 OA
ATOM      8  H5  UNL d   1      -3.262   2.619   1.685  0.00  0.00     0.418 HD
ENDBRANCH   4   7
TORSDOF 1
ENDMDL
