MODEL 1
REMARK minimizedAffinity 14.5302267
REMARK minimizedRMSD -1
REMARK  1 active torsions:
REMARK  status: ('A' for Active; 'I' for Inactive)
REMARK    1  A    between atoms: C3_4  and  O_7 
ROOT
ATOM      1  C   UNL d   1      -3.703  -0.161  -1.680  0.00  0.00    -0.033 A 
ATOM      2  C1  UNL d   1      -4.952   0.009  -1.080  0.00  0.00     0.039 A 
ATOM      3  C2  UNL d   1      -5.073   0.780   0.078  0.00  0.00    -0.080 A 
ATOM      4  C3  UNL d   1      -3.939   1.375   0.624  0.00  0.00     0.150 A 
ATOM      5  C4  UNL d   1      -2.692   1.213   0.029  0.00  0.00    -0.007 A 
ATOM      6  C5  UNL d   1      -2.573   0.442  -1.127  0.00  0.00     0.039 A 
ENDROOT
BRANCH   4   7
ATOM      7  O   UNL d   1      -4.006   2.133   1.755  0.00  0.00    -0.526 OA
ATOM      8  H5  UNL d   1      -4.925   2.133   2.071  0.00  0.00     0.418 HD
ENDBRANCH   4   7
TORSDOF 1
ENDMDL
