MODEL 1
REMARK minimizedAffinity 6.17801571
REMARK minimizedRMSD -1
REMARK  1 active torsions:
REMARK  status: ('A' for Active; 'I' for Inactive)
REMARK    1  A    between atoms: C3_4  and  O_7 
ROOT
ATOM      1  C   UNL d   1       2.190   5.712   4.176  0.00  0.00    -0.033 A 
ATOM      2  C1  UNL d   1       1.170   5.606   5.123  0.00  0.00     0.039 A 
ATOM      3  C2  UNL d   1       0.777   4.351   5.591  0.00  0.00    -0.080 A 
ATOM      4  C3  UNL d   1       1.412   3.211   5.106  0.00  0.00     0.150 A 
ATOM      5  C4  UNL d   1       2.432   3.309   4.165  0.00  0.00    -0.007 A 
ATOM      6  C5  UNL d   1       2.822   4.563   3.698  0.00  0.00     0.039 A 
ENDROOT
BRANCH   4   7
ATOM      7  O   UNL d   1       1.059   1.964   5.529  0.00  0.00    -0.526 OA
ATOM      8  H5  UNL d   1       0.322   2.049   6.157  0.00  0.00     0.418 HD
ENDBRANCH   4   7
TORSDOF 1
ENDMDL
