MODEL 1
REMARK minimizedAffinity -1.15002668
REMARK minimizedRMSD -1
REMARK  0 active torsions:
REMARK  status: ('A' for Active; 'I' for Inactive)
ROOT
ATOM      1  C1  BNZ d   1      -3.246  -2.882   4.925  0.00  0.00     0.000 A 
ATOM      2  C2  BNZ d   1      -3.948  -2.360   3.871  0.00  0.00     0.000 A 
ATOM      3  C3  BNZ d   1      -5.315  -2.333   3.886  0.00  0.00     0.000 A 
ATOM      4  C4  BNZ d   1      -5.978  -2.863   4.934  0.00  0.00     0.000 A 
ATOM      5  C5  BNZ d   1      -5.284  -3.401   6.000  0.00  0.00     0.000 A 
ATOM      6  C6  BNZ d   1      -3.908  -3.392   5.999  0.00  0.00     0.000 A 
ENDROOT
TORSDOF 0
ENDMDL
