MODEL 1
REMARK minimizedAffinity -2.41599393
REMARK minimizedRMSD -1
REMARK  0 active torsions:
REMARK  status: ('A' for Active; 'I' for Inactive)
ROOT
ATOM      1  C1  BNZ d   1       3.576  -5.999  -2.664  0.00  0.00     0.000 A 
ATOM      2  C2  BNZ d   1       2.279  -6.000  -2.225  0.00  0.00     0.000 A 
ATOM      3  C3  BNZ d   1       1.257  -5.648  -3.062  0.00  0.00     0.000 A 
ATOM      4  C4  BNZ d   1       1.536  -5.259  -4.323  0.00  0.00     0.000 A 
ATOM      5  C5  BNZ d   1       2.840  -5.245  -4.777  0.00  0.00     0.000 A 
ATOM      6  C6  BNZ d   1       3.862  -5.636  -3.944  0.00  0.00     0.000 A 
ENDROOT
TORSDOF 0
ENDMDL
