MODEL 1
REMARK minimizedAffinity 6.80671072
REMARK minimizedRMSD -1
REMARK  0 active torsions:
REMARK  status: ('A' for Active; 'I' for Inactive)
ROOT
ATOM      1  C1  BNZ d   1      -3.800  -5.962  -4.900  0.00  0.00     0.000 A 
ATOM      2  C2  BNZ d   1      -3.519  -5.161  -5.975  0.00  0.00     0.000 A 
ATOM      3  C3  BNZ d   1      -2.386  -4.396  -6.000  0.00  0.00     0.000 A 
ATOM      4  C4  BNZ d   1      -1.558  -4.403  -4.935  0.00  0.00     0.000 A 
ATOM      5  C5  BNZ d   1      -1.833  -5.198  -3.840  0.00  0.00     0.000 A 
ATOM      6  C6  BNZ d   1      -2.954  -5.996  -3.835  0.00  0.00     0.000 A 
ENDROOT
TORSDOF 0
ENDMDL
