MODEL 1
REMARK minimizedAffinity -2.62608767
REMARK minimizedRMSD -1
REMARK  0 active torsions:
REMARK  status: ('A' for Active; 'I' for Inactive)
ROOT
ATOM      1  C1  BNZ d   1      -3.675  -3.595  -5.989  0.00  0.00     0.000 A 
ATOM      2  C2  BNZ d   1      -4.337  -4.794  -5.998  0.00  0.00     0.000 A 
ATOM      3  C3  BNZ d   1      -3.647  -5.974  -5.984  0.00  0.00     0.000 A 
ATOM      4  C4  BNZ d   1      -2.298  -5.954  -6.000  0.00  0.00     0.000 A 
ATOM      5  C5  BNZ d   1      -1.617  -4.753  -6.000  0.00  0.00     0.000 A 
ATOM      6  C6  BNZ d   1      -2.315  -3.567  -5.975  0.00  0.00     0.000 A 
ENDROOT
TORSDOF 0
ENDMDL
