MODEL 1
REMARK minimizedAffinity 2.94685578
REMARK minimizedRMSD -1
REMARK  0 active torsions:
REMARK  status: ('A' for Active; 'I' for Inactive)
ROOT
ATOM      1  C1  BNZ d   1      -0.450  -5.150  -4.102  0.00  0.00     0.000 A 
ATOM      2  C2  BNZ d   1      -1.536  -5.984  -4.122  0.00  0.00     0.000 A 
ATOM      3  C3  BNZ d   1      -2.499  -5.855  -5.083  0.00  0.00     0.000 A 
ATOM      4  C4  BNZ d   1      -2.397  -4.869  -5.997  0.00  0.00     0.000 A 
ATOM      5  C5  BNZ d   1      -1.313  -4.014  -5.984  0.00  0.00     0.000 A 
ATOM      6  C6  BNZ d   1      -0.325  -4.171  -5.039  0.00  0.00     0.000 A 
ENDROOT
TORSDOF 0
ENDMDL
