MODEL 1
REMARK minimizedAffinity 9.78438759
REMARK minimizedRMSD -1
REMARK  0 active torsions:
REMARK  status: ('A' for Active; 'I' for Inactive)
ROOT
ATOM      1  C1  BNZ d   1      -4.710  -4.815  -5.975  0.00  0.00     0.000 A 
ATOM      2  C2  BNZ d   1      -4.030  -3.627  -6.000  0.00  0.00     0.000 A 
ATOM      3  C3  BNZ d   1      -2.667  -3.598  -5.905  0.00  0.00     0.000 A 
ATOM      4  C4  BNZ d   1      -1.989  -4.753  -5.744  0.00  0.00     0.000 A 
ATOM      5  C5  BNZ d   1      -2.661  -5.958  -5.707  0.00  0.00     0.000 A 
ATOM      6  C6  BNZ d   1      -4.030  -5.987  -5.842  0.00  0.00     0.000 A 
ENDROOT
TORSDOF 0
ENDMDL
