MODEL 1
REMARK minimizedAffinity -0.762586236
REMARK minimizedRMSD -1
REMARK  0 active torsions:
REMARK  status: ('A' for Active; 'I' for Inactive)
ROOT
ATOM      1  C1  BNZ d   1      -5.446  -2.668   3.979  0.00  0.00     0.000 A 
ATOM      2  C2  BNZ d   1      -4.108  -2.380   3.998  0.00  0.00     0.000 A 
ATOM      3  C3  BNZ d   1      -3.305  -2.851   4.999  0.00  0.00     0.000 A 
ATOM      4  C4  BNZ d   1      -3.848  -3.575   6.000  0.00  0.00     0.000 A 
ATOM      5  C5  BNZ d   1      -5.197  -3.865   6.000  0.00  0.00     0.000 A 
ATOM      6  C6  BNZ d   1      -5.995  -3.422   4.970  0.00  0.00     0.000 A 
ENDROOT
TORSDOF 0
ENDMDL
