MODEL 1
REMARK minimizedAffinity 1.02358174
REMARK minimizedRMSD -1
REMARK  0 active torsions:
REMARK  status: ('A' for Active; 'I' for Inactive)
ROOT
ATOM      1  C1  BNZ d   1      -3.062  -4.270  -5.989  0.00  0.00     0.000 A 
ATOM      2  C2  BNZ d   1      -2.172  -3.229  -5.983  0.00  0.00     0.000 A 
ATOM      3  C3  BNZ d   1      -0.825  -3.460  -5.998  0.00  0.00     0.000 A 
ATOM      4  C4  BNZ d   1      -0.370  -4.730  -5.980  0.00  0.00     0.000 A 
ATOM      5  C5  BNZ d   1      -1.255  -5.789  -5.976  0.00  0.00     0.000 A 
ATOM      6  C6  BNZ d   1      -2.610  -5.553  -6.000  0.00  0.00     0.000 A 
ENDROOT
TORSDOF 0
ENDMDL
