MODEL 1
REMARK minimizedAffinity 3.42330623
REMARK minimizedRMSD -1
REMARK  0 active torsions:
REMARK  status: ('A' for Active; 'I' for Inactive)
ROOT
ATOM      1  C1  BNZ d   1      -3.112  -4.127  -4.047  0.00  0.00     0.000 A 
ATOM      2  C2  BNZ d   1      -4.071  -5.050  -4.367  0.00  0.00     0.000 A 
ATOM      3  C3  BNZ d   1      -3.837  -5.999  -5.322  0.00  0.00     0.000 A 
ATOM      4  C4  BNZ d   1      -2.662  -5.999  -5.984  0.00  0.00     0.000 A 
ATOM      5  C5  BNZ d   1      -1.688  -5.069  -5.679  0.00  0.00     0.000 A 
ATOM      6  C6  BNZ d   1      -1.912  -4.139  -4.690  0.00  0.00     0.000 A 
ENDROOT
TORSDOF 0
ENDMDL
