MODEL 1
REMARK minimizedAffinity -0.29959172
REMARK minimizedRMSD -1
REMARK  1 active torsions:
REMARK  status: ('A' for Active; 'I' for Inactive)
REMARK    1  A    between atoms: N_2  and  C1_3 
ROOT
ATOM      1  C1  UNL d   1       2.919  -3.742  -0.066  0.00  0.00     0.143 A 
ATOM      2  C2  UNL d   1       3.125  -2.368   0.099  0.00  0.00    -0.057 A 
ATOM      3  C3  UNL d   1       2.082  -1.518   0.487  0.00  0.00     0.033 A 
ATOM      4  C4  UNL d   1       0.803  -2.025   0.689  0.00  0.00    -0.042 A 
ATOM      5  C5  UNL d   1       0.569  -3.383   0.507  0.00  0.00     0.033 A 
ATOM      6  C6  UNL d   1       1.616  -4.228   0.125  0.00  0.00    -0.057 A 
ENDROOT
BRANCH   1   7
ATOM      7  N   UNL d   1       3.891  -4.622  -0.546  0.00  0.00    -0.732 N 
ATOM      8  C   UNL d   1       4.466  -5.629   0.321  0.00  0.00     0.284 C 
ATOM      9  H3  UNL d   1       3.687  -4.951  -1.487  0.00  0.00     0.395 HD
ENDBRANCH   1   7
TORSDOF 1
ENDMDL
