MODEL 1
REMARK minimizedAffinity 2.35314035
REMARK minimizedRMSD -1
REMARK  1 active torsions:
REMARK  status: ('A' for Active; 'I' for Inactive)
REMARK    1  A    between atoms: N_2  and  C1_3 
ROOT
ATOM      1  C1  UNL d   1       0.847  -3.087   0.231  0.00  0.00     0.143 A 
ATOM      2  C2  UNL d   1      -0.524  -2.828   0.126  0.00  0.00    -0.057 A 
ATOM      3  C3  UNL d   1      -1.039  -1.543   0.336  0.00  0.00     0.033 A 
ATOM      4  C4  UNL d   1      -0.192  -0.497   0.684  0.00  0.00    -0.042 A 
ATOM      5  C5  UNL d   1       1.171  -0.735   0.819  0.00  0.00     0.033 A 
ATOM      6  C6  UNL d   1       1.680  -2.019   0.602  0.00  0.00    -0.057 A 
ENDROOT
BRANCH   1   7
ATOM      7  N   UNL d   1       1.408  -4.362   0.131  0.00  0.00    -0.732 N 
ATOM      8  C   UNL d   1       2.830  -4.527  -0.078  0.00  0.00     0.284 C 
ATOM      9  H3  UNL d   1       1.007  -5.016   0.800  0.00  0.00     0.395 HD
ENDBRANCH   1   7
TORSDOF 1
ENDMDL
