MODEL 1
REMARK minimizedAffinity 0.525450349
REMARK minimizedRMSD -1
REMARK  1 active torsions:
REMARK  status: ('A' for Active; 'I' for Inactive)
REMARK    1  A    between atoms: N_2  and  C1_3 
ROOT
ATOM      1  C1  UNL d   1       3.210  -3.420  -0.159  0.00  0.00     0.143 A 
ATOM      2  C2  UNL d   1       3.446  -2.065   0.097  0.00  0.00    -0.057 A 
ATOM      3  C3  UNL d   1       2.418  -1.218   0.529  0.00  0.00     0.033 A 
ATOM      4  C4  UNL d   1       1.125  -1.708   0.685  0.00  0.00    -0.042 A 
ATOM      5  C5  UNL d   1       0.862  -3.045   0.413  0.00  0.00     0.033 A 
ATOM      6  C6  UNL d   1       1.895  -3.887  -0.012  0.00  0.00    -0.057 A 
ENDROOT
BRANCH   1   7
ATOM      7  N   UNL d   1       4.168  -4.291  -0.685  0.00  0.00    -0.732 N 
ATOM      8  C   UNL d   1       4.501  -5.521  -0.000  0.00  0.00     0.284 C 
ATOM      9  H3  UNL d   1       4.095  -4.384  -1.696  0.00  0.00     0.395 HD
ENDBRANCH   1   7
TORSDOF 1
ENDMDL
