MODEL 1
REMARK minimizedAffinity -1.06514204
REMARK minimizedRMSD -1
REMARK  1 active torsions:
REMARK  status: ('A' for Active; 'I' for Inactive)
REMARK    1  A    between atoms: N_2  and  C1_3 
ROOT
ATOM      1  C1  UNL d   1       1.074  -2.924   0.655  0.00  0.00     0.143 A 
ATOM      2  C2  UNL d   1       1.994  -1.873   0.739  0.00  0.00    -0.057 A 
ATOM      3  C3  UNL d   1       1.569  -0.545   0.873  0.00  0.00     0.033 A 
ATOM      4  C4  UNL d   1       0.212  -0.242   0.898  0.00  0.00    -0.042 A 
ATOM      5  C5  UNL d   1      -0.720  -1.269   0.791  0.00  0.00     0.033 A 
ATOM      6  C6  UNL d   1      -0.290  -2.593   0.664  0.00  0.00    -0.057 A 
ENDROOT
BRANCH   1   7
ATOM      7  N   UNL d   1       1.432  -4.254   0.422  0.00  0.00    -0.732 N 
ATOM      8  C   UNL d   1       2.812  -4.676   0.533  0.00  0.00     0.284 C 
ATOM      9  H3  UNL d   1       0.763  -4.911   0.815  0.00  0.00     0.395 HD
ENDBRANCH   1   7
TORSDOF 1
ENDMDL
