MODEL 1
REMARK minimizedAffinity -2.85469794
REMARK minimizedRMSD -1
REMARK  1 active torsions:
REMARK  status: ('A' for Active; 'I' for Inactive)
REMARK    1  A    between atoms: N_2  and  C1_3 
ROOT
ATOM      1  C1  UNL d   1       0.753  -1.274   0.421  0.00  0.00     0.143 A 
ATOM      2  C2  UNL d   1       2.121  -1.269   0.127  0.00  0.00    -0.057 A 
ATOM      3  C3  UNL d   1       2.781  -2.436  -0.275  0.00  0.00     0.033 A 
ATOM      4  C4  UNL d   1       2.089  -3.640  -0.361  0.00  0.00    -0.042 A 
ATOM      5  C5  UNL d   1       0.734  -3.673  -0.049  0.00  0.00     0.033 A 
ATOM      6  C6  UNL d   1       0.079  -2.503   0.345  0.00  0.00    -0.057 A 
ENDROOT
BRANCH   1   7
ATOM      7  N   UNL d   1       0.061  -0.168   0.921  0.00  0.00    -0.732 N 
ATOM      8  C   UNL d   1      -1.288  -0.308   1.425  0.00  0.00     0.284 C 
ATOM      9  H3  UNL d   1       0.653   0.440   1.482  0.00  0.00     0.395 HD
ENDBRANCH   1   7
TORSDOF 1
ENDMDL
