MODEL 1
REMARK minimizedAffinity -1.92459989
REMARK minimizedRMSD -1
REMARK  1 active torsions:
REMARK  status: ('A' for Active; 'I' for Inactive)
REMARK    1  A    between atoms: N_2  and  C1_3 
ROOT
ATOM      1  C1  UNL d   1       3.191  -3.826  -0.098  0.00  0.00     0.143 A 
ATOM      2  C2  UNL d   1       3.492  -2.462  -0.019  0.00  0.00    -0.057 A 
ATOM      3  C3  UNL d   1       2.507  -1.519   0.299  0.00  0.00     0.033 A 
ATOM      4  C4  UNL d   1       1.193  -1.922   0.515  0.00  0.00    -0.042 A 
ATOM      5  C5  UNL d   1       0.866  -3.270   0.417  0.00  0.00     0.033 A 
ATOM      6  C6  UNL d   1       1.856  -4.208   0.106  0.00  0.00    -0.057 A 
ENDROOT
BRANCH   1   7
ATOM      7  N   UNL d   1       4.104  -4.802  -0.507  0.00  0.00    -0.732 N 
ATOM      8  C   UNL d   1       4.444  -5.905   0.366  0.00  0.00     0.284 C 
ATOM      9  H3  UNL d   1       3.981  -5.065  -1.482  0.00  0.00     0.395 HD
ENDBRANCH   1   7
TORSDOF 1
ENDMDL
