MODEL 1
REMARK minimizedAffinity -5.0353384
REMARK minimizedRMSD -1
REMARK  1 active torsions:
REMARK  status: ('A' for Active; 'I' for Inactive)
REMARK    1  A    between atoms: N_2  and  C1_3 
ROOT
ATOM      1  C1  UNL d   1       1.695  -2.911   0.007  0.00  0.00     0.143 A 
ATOM      2  C2  UNL d   1       2.125  -1.580   0.014  0.00  0.00    -0.057 A 
ATOM      3  C3  UNL d   1       1.361  -0.573   0.615  0.00  0.00     0.033 A 
ATOM      4  C4  UNL d   1       0.134  -0.876   1.196  0.00  0.00    -0.042 A 
ATOM      5  C5  UNL d   1      -0.326  -2.188   1.179  0.00  0.00     0.033 A 
ATOM      6  C6  UNL d   1       0.446  -3.190   0.583  0.00  0.00    -0.057 A 
ENDROOT
BRANCH   1   7
ATOM      7  N   UNL d   1       2.362  -3.941  -0.660  0.00  0.00    -0.732 N 
ATOM      8  C   UNL d   1       3.712  -4.308  -0.287  0.00  0.00     0.284 C 
ATOM      9  H3  UNL d   1       1.756  -4.734  -0.857  0.00  0.00     0.395 HD
ENDBRANCH   1   7
TORSDOF 1
ENDMDL
