MODEL 1
REMARK minimizedAffinity -2.68798995
REMARK minimizedRMSD -1
REMARK  1 active torsions:
REMARK  status: ('A' for Active; 'I' for Inactive)
REMARK    1  A    between atoms: N_2  and  C1_3 
ROOT
ATOM      1  C1  UNL d   1       1.957  -2.036   0.006  0.00  0.00     0.143 A 
ATOM      2  C2  UNL d   1       0.747  -2.730  -0.097  0.00  0.00    -0.057 A 
ATOM      3  C3  UNL d   1      -0.462  -2.145   0.296  0.00  0.00     0.033 A 
ATOM      4  C4  UNL d   1      -0.479  -0.860   0.828  0.00  0.00    -0.042 A 
ATOM      5  C5  UNL d   1       0.715  -0.160   0.964  0.00  0.00     0.033 A 
ATOM      6  C6  UNL d   1       1.919  -0.748   0.563  0.00  0.00    -0.057 A 
ENDROOT
BRANCH   1   7
ATOM      7  N   UNL d   1       3.204  -2.599  -0.275  0.00  0.00    -0.732 N 
ATOM      8  C   UNL d   1       3.355  -4.034  -0.396  0.00  0.00     0.284 C 
ATOM      9  H3  UNL d   1       3.723  -2.067  -0.970  0.00  0.00     0.395 HD
ENDBRANCH   1   7
TORSDOF 1
ENDMDL
