MODEL 1
REMARK minimizedAffinity -3.05383682
REMARK minimizedRMSD -1
REMARK  1 active torsions:
REMARK  status: ('A' for Active; 'I' for Inactive)
REMARK    1  A    between atoms: N_2  and  C1_3 
ROOT
ATOM      1  C1  UNL d   1       0.705  -1.822   0.250  0.00  0.00     0.143 A 
ATOM      2  C2  UNL d   1       2.002  -1.325   0.416  0.00  0.00    -0.057 A 
ATOM      3  C3  UNL d   1       3.115  -2.173   0.380  0.00  0.00     0.033 A 
ATOM      4  C4  UNL d   1       2.948  -3.543   0.206  0.00  0.00    -0.042 A 
ATOM      5  C5  UNL d   1       1.667  -4.063   0.064  0.00  0.00     0.033 A 
ATOM      6  C6  UNL d   1       0.559  -3.210   0.094  0.00  0.00    -0.057 A 
ENDROOT
BRANCH   1   7
ATOM      7  N   UNL d   1      -0.448  -1.044   0.374  0.00  0.00    -0.732 N 
ATOM      8  C   UNL d   1      -0.519   0.019   1.353  0.00  0.00     0.284 C 
ATOM      9  H3  UNL d   1      -0.855  -0.806  -0.528  0.00  0.00     0.395 HD
ENDBRANCH   1   7
TORSDOF 1
ENDMDL
