MODEL 1
REMARK minimizedAffinity -2.8151145
REMARK minimizedRMSD -1
REMARK  1 active torsions:
REMARK  status: ('A' for Active; 'I' for Inactive)
REMARK    1  A    between atoms: N_2  and  C1_3 
ROOT
ATOM      1  C1  UNL d   1       0.732  -1.288   0.689  0.00  0.00     0.143 A 
ATOM      2  C2  UNL d   1       2.085  -1.114   0.378  0.00  0.00    -0.057 A 
ATOM      3  C3  UNL d   1       2.917  -2.209   0.114  0.00  0.00     0.033 A 
ATOM      4  C4  UNL d   1       2.414  -3.505   0.185  0.00  0.00    -0.042 A 
ATOM      5  C5  UNL d   1       1.079  -3.703   0.516  0.00  0.00     0.033 A 
ATOM      6  C6  UNL d   1       0.252  -2.605   0.772  0.00  0.00    -0.057 A 
ENDROOT
BRANCH   1   7
ATOM      7  N   UNL d   1      -0.122  -0.246   1.057  0.00  0.00    -0.732 N 
ATOM      8  C   UNL d   1      -1.557  -0.428   1.041  0.00  0.00     0.284 C 
ATOM      9  H3  UNL d   1       0.222   0.271   1.863  0.00  0.00     0.395 HD
ENDBRANCH   1   7
TORSDOF 1
ENDMDL
