MODEL 1
REMARK minimizedAffinity -1.19629192
REMARK minimizedRMSD -1
REMARK  1 active torsions:
REMARK  status: ('A' for Active; 'I' for Inactive)
REMARK    1  A    between atoms: N_2  and  C1_3 
ROOT
ATOM      1  C1  UNL d   1       0.775  -1.426   0.390  0.00  0.00     0.143 A 
ATOM      2  C2  UNL d   1       2.077  -1.280  -0.100  0.00  0.00    -0.057 A 
ATOM      3  C3  UNL d   1       2.852  -2.393  -0.446  0.00  0.00     0.033 A 
ATOM      4  C4  UNL d   1       2.346  -3.679  -0.281  0.00  0.00    -0.042 A 
ATOM      5  C5  UNL d   1       1.063  -3.848   0.228  0.00  0.00     0.033 A 
ATOM      6  C6  UNL d   1       0.292  -2.732   0.566  0.00  0.00    -0.057 A 
ENDROOT
BRANCH   1   7
ATOM      7  N   UNL d   1      -0.009  -0.362   0.845  0.00  0.00    -0.732 N 
ATOM      8  C   UNL d   1       0.460   0.497   1.910  0.00  0.00     0.284 C 
ATOM      9  H3  UNL d   1      -0.471   0.132   0.085  0.00  0.00     0.395 HD
ENDBRANCH   1   7
TORSDOF 1
ENDMDL
