MODEL 1
REMARK minimizedAffinity -1.21990705
REMARK minimizedRMSD -1
REMARK  0 active torsions:
REMARK  status: ('A' for Active; 'I' for Inactive)
ROOT
ATOM      1  O1  BZF d   1       3.951   2.293  -1.127  0.00  0.00    -0.204 OA
ATOM      2  C2  BZF d   1       4.840   1.613  -1.936  0.00  0.00     0.174 A 
ATOM      3  C3  BZF d   1       4.571   0.291  -1.938  0.00  0.00    -0.012 A 
ATOM      4  C3A BZF d   1       3.386   0.148  -1.148  0.00  0.00    -0.107 A 
ATOM      5  C4  BZF d   1       2.619  -0.924  -0.792  0.00  0.00     0.055 A 
ATOM      6  C5  BZF d   1       1.569  -0.735   0.049  0.00  0.00    -0.016 A 
ATOM      7  C6  BZF d   1       1.261   0.510   0.557  0.00  0.00     0.022 A 
ATOM      8  C7  BZF d   1       1.990   1.604   0.229  0.00  0.00     0.029 A 
ATOM      9  C7A BZF d   1       3.032   1.422  -0.647  0.00  0.00     0.058 A 
ENDROOT
TORSDOF 0
ENDMDL
