MODEL 1
REMARK minimizedAffinity 5.79869747
REMARK minimizedRMSD -1
REMARK  0 active torsions:
REMARK  status: ('A' for Active; 'I' for Inactive)
ROOT
ATOM      1  O1  BZF d   1       3.237  -0.568   0.240  0.00  0.00    -0.204 OA
ATOM      2  C2  BZF d   1       2.008  -0.555  -0.390  0.00  0.00     0.174 A 
ATOM      3  C3  BZF d   1       1.964   0.407  -1.334  0.00  0.00    -0.012 A 
ATOM      4  C3A BZF d   1       3.278   0.973  -1.355  0.00  0.00    -0.107 A 
ATOM      5  C4  BZF d   1       3.863   1.962  -2.094  0.00  0.00     0.055 A 
ATOM      6  C5  BZF d   1       5.143   2.324  -1.817  0.00  0.00    -0.016 A 
ATOM      7  C6  BZF d   1       5.865   1.725  -0.806  0.00  0.00     0.022 A 
ATOM      8  C7  BZF d   1       5.329   0.737  -0.049  0.00  0.00     0.029 A 
ATOM      9  C7A BZF d   1       4.047   0.345  -0.348  0.00  0.00     0.058 A 
ENDROOT
TORSDOF 0
ENDMDL
