MODEL 1
REMARK minimizedAffinity -0.307190895
REMARK minimizedRMSD -1
REMARK  0 active torsions:
REMARK  status: ('A' for Active; 'I' for Inactive)
ROOT
ATOM      1  O1  BZF d   1       2.310  -1.519  -0.936  0.00  0.00    -0.204 OA
ATOM      2  C2  BZF d   1       1.104  -1.598  -0.268  0.00  0.00     0.174 A 
ATOM      3  C3  BZF d   1       0.798  -0.418   0.309  0.00  0.00    -0.012 A 
ATOM      4  C3A BZF d   1       1.835   0.479  -0.097  0.00  0.00    -0.107 A 
ATOM      5  C4  BZF d   1       2.079   1.802   0.141  0.00  0.00     0.055 A 
ATOM      6  C5  BZF d   1       3.220   2.360  -0.342  0.00  0.00    -0.016 A 
ATOM      7  C6  BZF d   1       4.140   1.626  -1.061  0.00  0.00     0.022 A 
ATOM      8  C7  BZF d   1       3.939   0.312  -1.327  0.00  0.00     0.029 A 
ATOM      9  C7A BZF d   1       2.772  -0.247  -0.869  0.00  0.00     0.058 A 
ENDROOT
TORSDOF 0
ENDMDL
