MODEL 1
REMARK minimizedAffinity 2.86332226
REMARK minimizedRMSD -1
REMARK  0 active torsions:
REMARK  status: ('A' for Active; 'I' for Inactive)
ROOT
ATOM      1  O1  BZF d   1       3.374   0.827  -2.458  0.00  0.00    -0.204 OA
ATOM      2  C2  BZF d   1       3.566   1.889  -1.596  0.00  0.00     0.174 A 
ATOM      3  C3  BZF d   1       3.074   1.606  -0.372  0.00  0.00    -0.012 A 
ATOM      4  C3A BZF d   1       2.624   0.251  -0.452  0.00  0.00    -0.107 A 
ATOM      5  C4  BZF d   1       2.052  -0.603   0.448  0.00  0.00     0.055 A 
ATOM      6  C5  BZF d   1       1.664  -1.837   0.033  0.00  0.00    -0.016 A 
ATOM      7  C6  BZF d   1       1.828  -2.249  -1.274  0.00  0.00     0.022 A 
ATOM      8  C7  BZF d   1       2.395  -1.439  -2.201  0.00  0.00     0.029 A 
ATOM      9  C7A BZF d   1       2.818  -0.203  -1.777  0.00  0.00     0.058 A 
ENDROOT
TORSDOF 0
ENDMDL
