MODEL 1
REMARK minimizedAffinity 0.991005361
REMARK minimizedRMSD -1
REMARK  0 active torsions:
REMARK  status: ('A' for Active; 'I' for Inactive)
ROOT
ATOM      1  O1  BZF d   1       5.135   0.753  -0.053  0.00  0.00    -0.204 OA
ATOM      2  C2  BZF d   1       5.280   1.793  -0.951  0.00  0.00     0.174 A 
ATOM      3  C3  BZF d   1       4.115   2.045  -1.582  0.00  0.00    -0.012 A 
ATOM      4  C3A BZF d   1       3.162   1.165  -0.980  0.00  0.00    -0.107 A 
ATOM      5  C4  BZF d   1       1.826   0.956  -1.169  0.00  0.00     0.055 A 
ATOM      6  C5  BZF d   1       1.205  -0.029  -0.469  0.00  0.00    -0.016 A 
ATOM      7  C6  BZF d   1       1.890  -0.827   0.424  0.00  0.00     0.022 A 
ATOM      8  C7  BZF d   1       3.215  -0.655   0.650  0.00  0.00     0.029 A 
ATOM      9  C7A BZF d   1       3.838   0.362  -0.032  0.00  0.00     0.058 A 
ENDROOT
TORSDOF 0
ENDMDL
