MODEL 1
REMARK minimizedAffinity 6.0450449
REMARK minimizedRMSD -1
REMARK  0 active torsions:
REMARK  status: ('A' for Active; 'I' for Inactive)
ROOT
ATOM      1  O1  BZF d   1       3.678   2.185  -0.367  0.00  0.00    -0.204 OA
ATOM      2  C2  BZF d   1       4.947   2.499  -0.813  0.00  0.00     0.174 A 
ATOM      3  C3  BZF d   1       5.480   1.471  -1.505  0.00  0.00    -0.012 A 
ATOM      4  C3A BZF d   1       4.445   0.485  -1.569  0.00  0.00    -0.107 A 
ATOM      5  C4  BZF d   1       4.362  -0.753  -2.140  0.00  0.00     0.055 A 
ATOM      6  C5  BZF d   1       3.235  -1.490  -1.958  0.00  0.00    -0.016 A 
ATOM      7  C6  BZF d   1       2.175  -1.023  -1.208  0.00  0.00     0.022 A 
ATOM      8  C7  BZF d   1       2.209   0.201  -0.627  0.00  0.00     0.029 A 
ATOM      9  C7A BZF d   1       3.333   0.962  -0.837  0.00  0.00     0.058 A 
ENDROOT
TORSDOF 0
ENDMDL
