MODEL 1
REMARK minimizedAffinity 3.76561832
REMARK minimizedRMSD -1
REMARK  0 active torsions:
REMARK  status: ('A' for Active; 'I' for Inactive)
ROOT
ATOM      1  O1  BZF d   1       2.855  -1.542  -1.392  0.00  0.00    -0.204 OA
ATOM      2  C2  BZF d   1       1.723  -1.917  -0.694  0.00  0.00     0.174 A 
ATOM      3  C3  BZF d   1       1.188  -0.861  -0.049  0.00  0.00    -0.012 A 
ATOM      4  C3A BZF d   1       1.985   0.262  -0.438  0.00  0.00    -0.107 A 
ATOM      5  C4  BZF d   1       1.940   1.594  -0.139  0.00  0.00     0.055 A 
ATOM      6  C5  BZF d   1       2.910   2.412  -0.625  0.00  0.00    -0.016 A 
ATOM      7  C6  BZF d   1       3.940   1.933  -1.407  0.00  0.00     0.022 A 
ATOM      8  C7  BZF d   1       4.024   0.620  -1.735  0.00  0.00     0.029 A 
ATOM      9  C7A BZF d   1       3.027  -0.204  -1.272  0.00  0.00     0.058 A 
ENDROOT
TORSDOF 0
ENDMDL
