MODEL 1
REMARK minimizedAffinity 7.75987196
REMARK minimizedRMSD -1
REMARK  0 active torsions:
REMARK  status: ('A' for Active; 'I' for Inactive)
ROOT
ATOM      1  O1  BZF d   1       2.806   1.153  -1.932  0.00  0.00    -0.204 OA
ATOM      2  C2  BZF d   1       2.236   0.712  -0.753  0.00  0.00     0.174 A 
ATOM      3  C3  BZF d   1       2.987   1.075   0.306  0.00  0.00    -0.012 A 
ATOM      4  C3A BZF d   1       4.047   1.867  -0.238  0.00  0.00    -0.107 A 
ATOM      5  C4  BZF d   1       5.107   2.526   0.317  0.00  0.00     0.055 A 
ATOM      6  C5  BZF d   1       6.000   3.146  -0.499  0.00  0.00    -0.016 A 
ATOM      7  C6  BZF d   1       5.867   3.122  -1.871  0.00  0.00     0.022 A 
ATOM      8  C7  BZF d   1       4.830   2.485  -2.468  0.00  0.00     0.029 A 
ATOM      9  C7A BZF d   1       3.908   1.886  -1.645  0.00  0.00     0.058 A 
ENDROOT
TORSDOF 0
ENDMDL
