MODEL 1
REMARK minimizedAffinity 12.5694256
REMARK minimizedRMSD -1
REMARK  0 active torsions:
REMARK  status: ('A' for Active; 'I' for Inactive)
ROOT
ATOM      1  O1  BZF d   1       2.634   1.964  -1.844  0.00  0.00    -0.204 OA
ATOM      2  C2  BZF d   1       1.948   1.470  -0.751  0.00  0.00     0.174 A 
ATOM      3  C3  BZF d   1       2.688   1.587   0.370  0.00  0.00    -0.012 A 
ATOM      4  C3A BZF d   1       3.875   2.277  -0.033  0.00  0.00    -0.107 A 
ATOM      5  C4  BZF d   1       4.988   2.701   0.637  0.00  0.00     0.055 A 
ATOM      6  C5  BZF d   1       5.999   3.278  -0.063  0.00  0.00    -0.016 A 
ATOM      7  C6  BZF d   1       5.935   3.442  -1.431  0.00  0.00     0.022 A 
ATOM      8  C7  BZF d   1       4.850   3.042  -2.138  0.00  0.00     0.029 A 
ATOM      9  C7A BZF d   1       3.812   2.488  -1.429  0.00  0.00     0.058 A 
ENDROOT
TORSDOF 0
ENDMDL
