MODEL 1
REMARK minimizedAffinity -0.912053823
REMARK minimizedRMSD -1
REMARK  0 active torsions:
REMARK  status: ('A' for Active; 'I' for Inactive)
ROOT
ATOM      1  O1  BZF d   1       4.437   1.312  -2.455  0.00  0.00    -0.204 OA
ATOM      2  C2  BZF d   1       4.332   2.153  -1.364  0.00  0.00     0.174 A 
ATOM      3  C3  BZF d   1       3.522   1.621  -0.426  0.00  0.00    -0.012 A 
ATOM      4  C3A BZF d   1       3.167   0.328  -0.925  0.00  0.00    -0.107 A 
ATOM      5  C4  BZF d   1       2.396  -0.688  -0.436  0.00  0.00     0.055 A 
ATOM      6  C5  BZF d   1       2.192  -1.790  -1.204  0.00  0.00    -0.016 A 
ATOM      7  C6  BZF d   1       2.740  -1.908  -2.465  0.00  0.00     0.022 A 
ATOM      8  C7  BZF d   1       3.516  -0.929  -2.990  0.00  0.00     0.029 A 
ATOM      9  C7A BZF d   1       3.751   0.172  -2.203  0.00  0.00     0.058 A 
ENDROOT
TORSDOF 0
ENDMDL
