MODEL 1
REMARK minimizedAffinity -5.53500795
REMARK minimizedRMSD -1
REMARK  2 active torsions:
REMARK  status: ('A' for Active; 'I' for Inactive)
REMARK    1  A    between atoms: C1_2  and  C2_3 
REMARK    2  A    between atoms: C2_3  and  C3_4 
ROOT
ATOM      1  C3  UNL d   1      -1.357   2.987   1.619  0.00  0.00    -0.075 A 
ATOM      2  C4  UNL d   1      -0.705   1.910   2.236  0.00  0.00     0.002 A 
ATOM      3  C5  UNL d   1       0.117   1.060   1.496  0.00  0.00     0.002 A 
ATOM      4  C6  UNL d   1       0.290   1.270   0.129  0.00  0.00    -0.004 A 
ATOM      5  C7  UNL d   1      -0.366   2.327  -0.498  0.00  0.00     0.002 A 
ATOM      6  C8  UNL d   1      -1.186   3.181   0.242  0.00  0.00     0.002 A 
ENDROOT
BRANCH   1   7
ATOM      7  C2  UNL d   1      -2.225   3.928   2.420  0.00  0.00     0.056 C 
BRANCH   7   8
ATOM      8  C1  UNL d   1      -2.594   5.218   1.681  0.00  0.00     0.007 C 
ATOM      9  C   UNL d   1      -3.713   5.999   2.358  0.00  0.00     0.009 C 
ENDBRANCH   7   8
ENDBRANCH   1   7
TORSDOF 2
ENDMDL
