MODEL 1
REMARK minimizedAffinity 2.54789472
REMARK minimizedRMSD -1
REMARK  2 active torsions:
REMARK  status: ('A' for Active; 'I' for Inactive)
REMARK    1  A    between atoms: C1_2  and  C2_3 
REMARK    2  A    between atoms: C2_3  and  C3_4 
ROOT
ATOM      1  C3  UNL d   1       0.493   0.906   0.532  0.00  0.00    -0.075 A 
ATOM      2  C4  UNL d   1      -0.306   1.962   0.069  0.00  0.00     0.002 A 
ATOM      3  C5  UNL d   1      -0.971   2.795   0.970  0.00  0.00     0.002 A 
ATOM      4  C6  UNL d   1      -0.855   2.576   2.341  0.00  0.00    -0.004 A 
ATOM      5  C7  UNL d   1      -0.078   1.520   2.811  0.00  0.00     0.002 A 
ATOM      6  C8  UNL d   1       0.592   0.688   1.913  0.00  0.00     0.002 A 
ENDROOT
BRANCH   1   7
ATOM      7  C2  UNL d   1       1.239   0.020  -0.437  0.00  0.00     0.056 C 
BRANCH   7   8
ATOM      8  C1  UNL d   1       2.638  -0.384   0.039  0.00  0.00     0.007 C 
ATOM      9  C   UNL d   1       3.405  -1.211  -0.985  0.00  0.00     0.009 C 
ENDBRANCH   7   8
ENDBRANCH   1   7
TORSDOF 2
ENDMDL
