MODEL 1
REMARK minimizedAffinity 5.87513876
REMARK minimizedRMSD -1
REMARK  2 active torsions:
REMARK  status: ('A' for Active; 'I' for Inactive)
REMARK    1  A    between atoms: C1_2  and  C2_3 
REMARK    2  A    between atoms: C2_3  and  C3_4 
ROOT
ATOM      1  C3  UNL d   1      -0.742   2.808  -0.271  0.00  0.00    -0.075 A 
ATOM      2  C4  UNL d   1      -0.310   1.490  -0.475  0.00  0.00     0.002 A 
ATOM      3  C5  UNL d   1      -0.032   1.027  -1.762  0.00  0.00     0.002 A 
ATOM      4  C6  UNL d   1      -0.190   1.871  -2.859  0.00  0.00    -0.004 A 
ATOM      5  C7  UNL d   1      -0.633   3.178  -2.669  0.00  0.00     0.002 A 
ATOM      6  C8  UNL d   1      -0.909   3.645  -1.383  0.00  0.00     0.002 A 
ENDROOT
BRANCH   1   7
ATOM      7  C2  UNL d   1      -1.017   3.324   1.121  0.00  0.00     0.056 C 
BRANCH   7   8
ATOM      8  C1  UNL d   1      -0.145   2.685   2.207  0.00  0.00     0.007 C 
ATOM      9  C   UNL d   1      -0.884   1.640   3.032  0.00  0.00     0.009 C 
ENDBRANCH   7   8
ENDBRANCH   1   7
TORSDOF 2
ENDMDL
