MODEL 1
REMARK minimizedAffinity 0.775348306
REMARK minimizedRMSD -1
REMARK  2 active torsions:
REMARK  status: ('A' for Active; 'I' for Inactive)
REMARK    1  A    between atoms: C1_2  and  C2_3 
REMARK    2  A    between atoms: C2_3  and  C3_4 
ROOT
ATOM      1  C3  UNL d   1      -0.322   1.619   1.888  0.00  0.00    -0.075 A 
ATOM      2  C4  UNL d   1      -0.397   1.774   0.497  0.00  0.00     0.002 A 
ATOM      3  C5  UNL d   1      -0.881   2.959  -0.059  0.00  0.00     0.002 A 
ATOM      4  C6  UNL d   1      -1.305   3.997   0.768  0.00  0.00    -0.004 A 
ATOM      5  C7  UNL d   1      -1.250   3.847   2.152  0.00  0.00     0.002 A 
ATOM      6  C8  UNL d   1      -0.762   2.665   2.710  0.00  0.00     0.002 A 
ENDROOT
BRANCH   1   7
ATOM      7  C2  UNL d   1       0.229   0.351   2.496  0.00  0.00     0.056 C 
BRANCH   7   8
ATOM      8  C1  UNL d   1      -0.660  -0.256   3.586  0.00  0.00     0.007 C 
ATOM      9  C   UNL d   1       0.047  -1.319   4.415  0.00  0.00     0.009 C 
ENDBRANCH   7   8
ENDBRANCH   1   7
TORSDOF 2
ENDMDL
