MODEL 1
REMARK minimizedAffinity -2.45929289
REMARK minimizedRMSD -1
REMARK  2 active torsions:
REMARK  status: ('A' for Active; 'I' for Inactive)
REMARK    1  A    between atoms: C1_2  and  C2_3 
REMARK    2  A    between atoms: C2_3  and  C3_4 
ROOT
ATOM      1  C3  UNL d   1      -0.818   2.197   0.766  0.00  0.00    -0.075 A 
ATOM      2  C4  UNL d   1      -1.091   3.491   0.298  0.00  0.00     0.002 A 
ATOM      3  C5  UNL d   1      -1.330   3.719  -1.057  0.00  0.00     0.002 A 
ATOM      4  C6  UNL d   1      -1.290   2.660  -1.962  0.00  0.00    -0.004 A 
ATOM      5  C7  UNL d   1      -1.003   1.374  -1.511  0.00  0.00     0.002 A 
ATOM      6  C8  UNL d   1      -0.768   1.142  -0.155  0.00  0.00     0.002 A 
ENDROOT
BRANCH   1   7
ATOM      7  C2  UNL d   1      -0.587   1.940   2.236  0.00  0.00     0.056 C 
BRANCH   7   8
ATOM      8  C1  UNL d   1       0.506   0.905   2.523  0.00  0.00     0.007 C 
ATOM      9  C   UNL d   1       0.142  -0.056   3.647  0.00  0.00     0.009 C 
ENDBRANCH   7   8
ENDBRANCH   1   7
TORSDOF 2
ENDMDL
