MODEL 1
REMARK minimizedAffinity -5.91159153
REMARK minimizedRMSD -1
REMARK  1 active torsions:
REMARK  status: ('A' for Active; 'I' for Inactive)
REMARK    1  A    between atoms: C1_2  and  C2_3 
ROOT
ATOM      1  C2  UNL d   1       0.426  -1.279  -0.828  0.00  0.00    -0.076 A 
ATOM      2  C3  UNL d   1      -0.211  -1.468   0.411  0.00  0.00     0.004 A 
ATOM      3  C4  UNL d   1      -0.459  -0.392   1.262  0.00  0.00    -0.003 A 
ATOM      4  C5  UNL d   1      -0.074   0.891   0.888  0.00  0.00     0.000 A 
ATOM      5  C6  UNL d   1       0.543   1.099  -0.345  0.00  0.00     0.000 A 
ATOM      6  C7  UNL d   1       0.786   0.028  -1.222  0.00  0.00    -0.073 A 
ATOM      7  C8  UNL d   1       1.460   0.309  -2.537  0.00  0.00     0.078 C 
ENDROOT
BRANCH   1   8
ATOM      8  C1  UNL d   1       0.693  -2.487  -1.697  0.00  0.00     0.053 C 
ATOM      9  C   UNL d   1       2.133  -2.967  -1.601  0.00  0.00     0.018 C 
ENDBRANCH   1   8
TORSDOF 1
ENDMDL
