MODEL 1
REMARK minimizedAffinity -1.48636484
REMARK minimizedRMSD -1
REMARK  1 active torsions:
REMARK  status: ('A' for Active; 'I' for Inactive)
REMARK    1  A    between atoms: C1_2  and  C2_3 
ROOT
ATOM      1  C2  UNL d   1       0.976  -0.001  -0.878  0.00  0.00    -0.076 A 
ATOM      2  C3  UNL d   1       0.557   1.302  -0.561  0.00  0.00     0.004 A 
ATOM      3  C4  UNL d   1      -0.413   1.527   0.415  0.00  0.00    -0.003 A 
ATOM      4  C5  UNL d   1      -0.979   0.451   1.090  0.00  0.00     0.000 A 
ATOM      5  C6  UNL d   1      -0.563  -0.848   0.801  0.00  0.00     0.000 A 
ATOM      6  C7  UNL d   1       0.425  -1.091  -0.169  0.00  0.00    -0.073 A 
ATOM      7  C8  UNL d   1       0.832  -2.512  -0.445  0.00  0.00     0.078 C 
ENDROOT
BRANCH   1   8
ATOM      8  C1  UNL d   1       2.011  -0.185  -1.964  0.00  0.00     0.053 C 
ATOM      9  C   UNL d   1       1.389  -0.331  -3.344  0.00  0.00     0.018 C 
ENDBRANCH   1   8
TORSDOF 1
ENDMDL
