MODEL 1
REMARK minimizedAffinity 7.24863863
REMARK minimizedRMSD -1
REMARK  1 active torsions:
REMARK  status: ('A' for Active; 'I' for Inactive)
REMARK    1  A    between atoms: C1_2  and  C2_3 
ROOT
ATOM      1  C2  UNL d   1       1.019  -0.376  -1.121  0.00  0.00    -0.076 A 
ATOM      2  C3  UNL d   1       1.090   0.399   0.050  0.00  0.00     0.004 A 
ATOM      3  C4  UNL d   1       1.514   1.726   0.008  0.00  0.00    -0.003 A 
ATOM      4  C5  UNL d   1       1.872   2.301  -1.207  0.00  0.00     0.000 A 
ATOM      5  C6  UNL d   1       1.791   1.553  -2.381  0.00  0.00     0.000 A 
ATOM      6  C7  UNL d   1       1.350   0.218  -2.357  0.00  0.00    -0.073 A 
ATOM      7  C8  UNL d   1       1.288  -0.544  -3.653  0.00  0.00     0.078 C 
ENDROOT
BRANCH   1   8
ATOM      8  C1  UNL d   1       0.579  -1.818  -1.009  0.00  0.00     0.053 C 
ATOM      9  C   UNL d   1      -0.227  -2.085   0.253  0.00  0.00     0.018 C 
ENDBRANCH   1   8
TORSDOF 1
ENDMDL
