MODEL 1
REMARK minimizedAffinity -3.1748035
REMARK minimizedRMSD -1
REMARK  1 active torsions:
REMARK  status: ('A' for Active; 'I' for Inactive)
REMARK    1  A    between atoms: C1_2  and  C2_3 
ROOT
ATOM      1  C2  UNL d   1       1.196   0.248  -1.086  0.00  0.00    -0.076 A 
ATOM      2  C3  UNL d   1       0.662  -1.051  -1.150  0.00  0.00     0.004 A 
ATOM      3  C4  UNL d   1      -0.163  -1.538  -0.138  0.00  0.00    -0.003 A 
ATOM      4  C5  UNL d   1      -0.468  -0.735   0.955  0.00  0.00     0.000 A 
ATOM      5  C6  UNL d   1       0.039   0.563   1.026  0.00  0.00     0.000 A 
ATOM      6  C7  UNL d   1       0.858   1.075   0.006  0.00  0.00    -0.073 A 
ATOM      7  C8  UNL d   1       1.382   2.479   0.138  0.00  0.00     0.078 C 
ENDROOT
BRANCH   1   8
ATOM      8  C1  UNL d   1       2.106   0.713  -2.200  0.00  0.00     0.053 C 
ATOM      9  C   UNL d   1       1.795   0.038  -3.527  0.00  0.00     0.018 C 
ENDBRANCH   1   8
TORSDOF 1
ENDMDL
