MODEL 1
REMARK minimizedAffinity -2.31481433
REMARK minimizedRMSD -1
REMARK  1 active torsions:
REMARK  status: ('A' for Active; 'I' for Inactive)
REMARK    1  A    between atoms: C1_2  and  C2_3 
ROOT
ATOM      1  C2  UNL d   1       0.140  -0.758  -1.091  0.00  0.00    -0.076 A 
ATOM      2  C3  UNL d   1      -0.299  -0.623   0.237  0.00  0.00     0.004 A 
ATOM      3  C4  UNL d   1      -0.038   0.537   0.965  0.00  0.00    -0.003 A 
ATOM      4  C5  UNL d   1       0.666   1.581   0.375  0.00  0.00     0.000 A 
ATOM      5  C6  UNL d   1       1.094   1.472  -0.948  0.00  0.00     0.000 A 
ATOM      6  C7  UNL d   1       0.825   0.315  -1.700  0.00  0.00    -0.073 A 
ATOM      7  C8  UNL d   1       1.315   0.249  -3.121  0.00  0.00     0.078 C 
ENDROOT
BRANCH   1   8
ATOM      8  C1  UNL d   1      -0.148  -2.050  -1.822  0.00  0.00     0.053 C 
ATOM      9  C   UNL d   1       0.443  -3.262  -1.118  0.00  0.00     0.018 C 
ENDBRANCH   1   8
TORSDOF 1
ENDMDL
