MODEL 1
REMARK minimizedAffinity -3.20307136
REMARK minimizedRMSD -1
REMARK  1 active torsions:
REMARK  status: ('A' for Active; 'I' for Inactive)
REMARK    1  A    between atoms: C1_2  and  C2_3 
ROOT
ATOM      1  C2  UNL d   1       1.148  -0.127  -0.928  0.00  0.00    -0.076 A 
ATOM      2  C3  UNL d   1       0.851  -1.499  -0.841  0.00  0.00     0.004 A 
ATOM      3  C4  UNL d   1       0.052  -1.997   0.186  0.00  0.00    -0.003 A 
ATOM      4  C5  UNL d   1      -0.464  -1.131   1.144  0.00  0.00     0.000 A 
ATOM      5  C6  UNL d   1      -0.195   0.235   1.064  0.00  0.00     0.000 A 
ATOM      6  C7  UNL d   1       0.595   0.755   0.025  0.00  0.00    -0.073 A 
ATOM      7  C8  UNL d   1       0.859   2.236  -0.010  0.00  0.00     0.078 C 
ENDROOT
BRANCH   1   8
ATOM      8  C1  UNL d   1       2.042   0.351  -2.049  0.00  0.00     0.053 C 
ATOM      9  C   UNL d   1       1.871  -0.467  -3.320  0.00  0.00     0.018 C 
ENDBRANCH   1   8
TORSDOF 1
ENDMDL
