MODEL 1
REMARK minimizedAffinity -5.8595109
REMARK minimizedRMSD -1
REMARK  1 active torsions:
REMARK  status: ('A' for Active; 'I' for Inactive)
REMARK    1  A    between atoms: C1_2  and  C2_3 
ROOT
ATOM      1  C2  UNL d   1       0.019  -0.129  -0.096  0.00  0.00    -0.076 A 
ATOM      2  C3  UNL d   1       0.237   1.250  -0.256  0.00  0.00     0.004 A 
ATOM      3  C4  UNL d   1       0.966   1.740  -1.338  0.00  0.00    -0.003 A 
ATOM      4  C5  UNL d   1       1.488   0.859  -2.279  0.00  0.00     0.000 A 
ATOM      5  C6  UNL d   1       1.266  -0.511  -2.145  0.00  0.00     0.000 A 
ATOM      6  C7  UNL d   1       0.519  -1.021  -1.069  0.00  0.00    -0.073 A 
ATOM      7  C8  UNL d   1       0.315  -2.508  -0.971  0.00  0.00     0.078 C 
ENDROOT
BRANCH   1   8
ATOM      8  C1  UNL d   1      -0.757  -0.604   1.112  0.00  0.00     0.053 C 
ATOM      9  C   UNL d   1      -2.005   0.226   1.366  0.00  0.00     0.018 C 
ENDBRANCH   1   8
TORSDOF 1
ENDMDL
