MODEL 1
REMARK minimizedAffinity -3.42259908
REMARK minimizedRMSD -1
REMARK  1 active torsions:
REMARK  status: ('A' for Active; 'I' for Inactive)
REMARK    1  A    between atoms: C1_2  and  C2_3 
ROOT
ATOM      1  C2  UNL d   1       0.097   0.142   0.231  0.00  0.00    -0.076 A 
ATOM      2  C3  UNL d   1       0.348   1.451  -0.214  0.00  0.00     0.004 A 
ATOM      3  C4  UNL d   1       1.081   1.686  -1.376  0.00  0.00    -0.003 A 
ATOM      4  C5  UNL d   1       1.574   0.614  -2.112  0.00  0.00     0.000 A 
ATOM      5  C6  UNL d   1       1.320  -0.692  -1.695  0.00  0.00     0.000 A 
ATOM      6  C7  UNL d   1       0.569  -0.946  -0.535  0.00  0.00    -0.073 A 
ATOM      7  C8  UNL d   1       0.331  -2.374  -0.128  0.00  0.00     0.078 C 
ENDROOT
BRANCH   1   8
ATOM      8  C1  UNL d   1      -0.680  -0.051   1.514  0.00  0.00     0.053 C 
ATOM      9  C   UNL d   1      -2.117   0.434   1.402  0.00  0.00     0.018 C 
ENDBRANCH   1   8
TORSDOF 1
ENDMDL
