MODEL 1
REMARK minimizedAffinity -4.65642548
REMARK minimizedRMSD -1
REMARK  1 active torsions:
REMARK  status: ('A' for Active; 'I' for Inactive)
REMARK    1  A    between atoms: C1_2  and  C2_3 
ROOT
ATOM      1  C2  UNL d   1       0.132  -0.275   0.394  0.00  0.00    -0.076 A 
ATOM      2  C3  UNL d   1       0.609   1.047   0.426  0.00  0.00     0.004 A 
ATOM      3  C4  UNL d   1       1.347   1.570  -0.634  0.00  0.00    -0.003 A 
ATOM      4  C5  UNL d   1       1.621   0.780  -1.745  0.00  0.00     0.000 A 
ATOM      5  C6  UNL d   1       1.141  -0.528  -1.802  0.00  0.00     0.000 A 
ATOM      6  C7  UNL d   1       0.381  -1.066  -0.748  0.00  0.00    -0.073 A 
ATOM      7  C8  UNL d   1      -0.106  -2.484  -0.860  0.00  0.00     0.078 C 
ENDROOT
BRANCH   1   8
ATOM      8  C1  UNL d   1      -0.640  -0.796   1.585  0.00  0.00     0.053 C 
ATOM      9  C   UNL d   1      -1.878   0.034   1.885  0.00  0.00     0.018 C 
ENDBRANCH   1   8
TORSDOF 1
ENDMDL
