MODEL 1
REMARK minimizedAffinity -2.84529161
REMARK minimizedRMSD -1
REMARK  1 active torsions:
REMARK  status: ('A' for Active; 'I' for Inactive)
REMARK    1  A    between atoms: C1_2  and  C2_3 
ROOT
ATOM      1  C2  UNL d   1      -2.316   0.196   2.158  0.00  0.00    -0.076 A 
ATOM      2  C3  UNL d   1      -3.274  -0.342   1.280  0.00  0.00     0.004 A 
ATOM      3  C4  UNL d   1      -4.554   0.202   1.194  0.00  0.00    -0.003 A 
ATOM      4  C5  UNL d   1      -4.897   1.294   1.984  0.00  0.00     0.000 A 
ATOM      5  C6  UNL d   1      -3.955   1.851   2.847  0.00  0.00     0.000 A 
ATOM      6  C7  UNL d   1      -2.655   1.324   2.935  0.00  0.00    -0.073 A 
ATOM      7  C8  UNL d   1      -1.681   1.961   3.887  0.00  0.00     0.078 C 
ENDROOT
BRANCH   1   8
ATOM      8  C1  UNL d   1      -0.953  -0.454   2.229  0.00  0.00     0.053 C 
ATOM      9  C   UNL d   1      -0.170  -0.307   0.933  0.00  0.00     0.018 C 
ENDBRANCH   1   8
TORSDOF 1
ENDMDL
