MODEL 1
REMARK minimizedAffinity 2.81627655
REMARK minimizedRMSD -1
REMARK  1 active torsions:
REMARK  status: ('A' for Active; 'I' for Inactive)
REMARK    1  A    between atoms: C1_2  and  C2_3 
ROOT
ATOM      1  C2  UNL d   1       1.132  -0.085  -0.947  0.00  0.00    -0.076 A 
ATOM      2  C3  UNL d   1       0.925  -1.472  -0.845  0.00  0.00     0.004 A 
ATOM      3  C4  UNL d   1       0.107  -2.003   0.150  0.00  0.00    -0.003 A 
ATOM      4  C5  UNL d   1      -0.519  -1.157   1.059  0.00  0.00     0.000 A 
ATOM      5  C6  UNL d   1      -0.339   0.222   0.961  0.00  0.00     0.000 A 
ATOM      6  C7  UNL d   1       0.470   0.776  -0.046  0.00  0.00    -0.073 A 
ATOM      7  C8  UNL d   1       0.633   2.270  -0.101  0.00  0.00     0.078 C 
ENDROOT
BRANCH   1   8
ATOM      8  C1  UNL d   1       2.052   0.432  -2.030  0.00  0.00     0.053 C 
ATOM      9  C   UNL d   1       3.516   0.398  -1.616  0.00  0.00     0.018 C 
ENDBRANCH   1   8
TORSDOF 1
ENDMDL
