MODEL 1
REMARK minimizedAffinity 0.654879987
REMARK minimizedRMSD -1
REMARK  1 active torsions:
REMARK  status: ('A' for Active; 'I' for Inactive)
REMARK    1  A    between atoms: C1_2  and  C2_3 
ROOT
ATOM      1  C2  UNL d   1       0.867  -0.040  -0.972  0.00  0.00    -0.076 A 
ATOM      2  C3  UNL d   1       0.813   1.142  -0.213  0.00  0.00     0.004 A 
ATOM      3  C4  UNL d   1       0.097   1.196   0.982  0.00  0.00    -0.003 A 
ATOM      4  C5  UNL d   1      -0.577   0.068   1.437  0.00  0.00     0.000 A 
ATOM      5  C6  UNL d   1      -0.520  -1.118   0.705  0.00  0.00     0.000 A 
ATOM      6  C7  UNL d   1       0.211  -1.194  -0.492  0.00  0.00    -0.073 A 
ATOM      7  C8  UNL d   1       0.232  -2.497  -1.244  0.00  0.00     0.078 C 
ENDROOT
BRANCH   1   8
ATOM      8  C1  UNL d   1       1.637  -0.031  -2.273  0.00  0.00     0.053 C 
ATOM      9  C   UNL d   1       3.119   0.242  -2.071  0.00  0.00     0.018 C 
ENDBRANCH   1   8
TORSDOF 1
ENDMDL
