MODEL 1
REMARK minimizedAffinity -3.98520947
REMARK minimizedRMSD -1
REMARK  2 active torsions:
REMARK  status: ('A' for Active; 'I' for Inactive)
REMARK    1  A    between atoms: C2'_3  and  C1'_4 
REMARK    2  A    between atoms: C1'_4  and  C1_5 
ROOT
ATOM      1  C1  I4B d   1       0.355  -0.441  -0.204  0.00  0.00    -0.075 A 
ATOM      2  C2  I4B d   1       1.195  -0.020   0.796  0.00  0.00     0.003 A 
ATOM      3  C3  I4B d   1       0.669   0.612   1.949  0.00  0.00     0.002 A 
ATOM      4  C4  I4B d   1      -0.688   0.847   2.037  0.00  0.00    -0.004 A 
ATOM      5  C5  I4B d   1      -1.540   0.399   1.032  0.00  0.00     0.002 A 
ATOM      6  C6  I4B d   1      -1.018  -0.260  -0.090  0.00  0.00     0.003 A 
ENDROOT
BRANCH   1   7
ATOM      7  C1' I4B d   1       0.946  -1.075  -1.423  0.00  0.00     0.060 C 
BRANCH   7   8
ATOM      8  C2' I4B d   1       0.608  -0.202  -2.614  0.00  0.00    -0.013 C 
ATOM      9  C4' I4B d   1       1.796   0.616  -3.046  0.00  0.00     0.013 C 
ATOM     10  C3' I4B d   1       0.134  -1.094  -3.722  0.00  0.00     0.013 C 
ENDBRANCH   7   8
ENDBRANCH   1   7
TORSDOF 2
ENDMDL
