MODEL 1
REMARK minimizedAffinity -5.07583952
REMARK minimizedRMSD -1
REMARK  2 active torsions:
REMARK  status: ('A' for Active; 'I' for Inactive)
REMARK    1  A    between atoms: C2'_3  and  C1'_4 
REMARK    2  A    between atoms: C1'_4  and  C1_5 
ROOT
ATOM      1  C1  I4B d   1      -0.771   0.101   0.590  0.00  0.00    -0.075 A 
ATOM      2  C2  I4B d   1       0.043   1.165   0.888  0.00  0.00     0.003 A 
ATOM      3  C3  I4B d   1      -0.031   1.785   2.159  0.00  0.00     0.002 A 
ATOM      4  C4  I4B d   1      -0.962   1.343   3.077  0.00  0.00    -0.004 A 
ATOM      5  C5  I4B d   1      -1.771   0.249   2.781  0.00  0.00     0.002 A 
ATOM      6  C6  I4B d   1      -1.666  -0.384   1.534  0.00  0.00     0.003 A 
ENDROOT
BRANCH   1   7
ATOM      7  C1' I4B d   1      -0.689  -0.509  -0.774  0.00  0.00     0.060 C 
BRANCH   7   8
ATOM      8  C2' I4B d   1       0.771  -0.774  -1.080  0.00  0.00    -0.013 C 
ATOM      9  C4' I4B d   1       1.223  -2.084  -0.488  0.00  0.00     0.013 C 
ATOM     10  C3' I4B d   1       0.941  -0.766  -2.569  0.00  0.00     0.013 C 
ENDBRANCH   7   8
ENDBRANCH   1   7
TORSDOF 2
ENDMDL
