MODEL 1
REMARK minimizedAffinity -2.43141437
REMARK minimizedRMSD -1
REMARK  2 active torsions:
REMARK  status: ('A' for Active; 'I' for Inactive)
REMARK    1  A    between atoms: C2'_3  and  C1'_4 
REMARK    2  A    between atoms: C1'_4  and  C1_5 
ROOT
ATOM      1  C1  I4B d   1       0.140  -0.298  -0.080  0.00  0.00    -0.075 A 
ATOM      2  C2  I4B d   1      -1.209  -0.127   0.102  0.00  0.00     0.003 A 
ATOM      3  C3  I4B d   1      -1.704   0.391   1.324  0.00  0.00     0.002 A 
ATOM      4  C4  I4B d   1      -0.824   0.674   2.348  0.00  0.00    -0.004 A 
ATOM      5  C5  I4B d   1       0.546   0.522   2.153  0.00  0.00     0.002 A 
ATOM      6  C6  I4B d   1       1.033   0.045   0.928  0.00  0.00     0.003 A 
ENDROOT
BRANCH   1   7
ATOM      7  C1' I4B d   1       0.626  -0.877  -1.371  0.00  0.00     0.060 C 
BRANCH   7   8
ATOM      8  C2' I4B d   1       0.596   0.220  -2.415  0.00  0.00    -0.013 C 
ATOM      9  C4' I4B d   1       1.940   0.886  -2.545  0.00  0.00     0.013 C 
ATOM     10  C3' I4B d   1       0.166  -0.391  -3.716  0.00  0.00     0.013 C 
ENDBRANCH   7   8
ENDBRANCH   1   7
TORSDOF 2
ENDMDL
