MODEL 1
REMARK minimizedAffinity -4.80232954
REMARK minimizedRMSD -1
REMARK  1 active torsions:
REMARK  status: ('A' for Active; 'I' for Inactive)
REMARK    1  A    between atoms: N_2  and  C1_3 
ROOT
ATOM      1  C1  UNL d   1       1.586   2.823  -1.280  0.00  0.00     0.143 A 
ATOM      2  C2  UNL d   1       1.888   1.664  -2.003  0.00  0.00    -0.057 A 
ATOM      3  C3  UNL d   1       1.611   0.393  -1.486  0.00  0.00     0.033 A 
ATOM      4  C4  UNL d   1       1.051   0.257  -0.220  0.00  0.00    -0.042 A 
ATOM      5  C5  UNL d   1       0.765   1.394   0.527  0.00  0.00     0.033 A 
ATOM      6  C6  UNL d   1       1.038   2.661   0.003  0.00  0.00    -0.057 A 
ENDROOT
BRANCH   1   7
ATOM      7  N   UNL d   1       1.927   4.112  -1.697  0.00  0.00    -0.732 N 
ATOM      8  C   UNL d   1       1.764   5.242  -0.808  0.00  0.00     0.284 C 
ATOM      9  H3  UNL d   1       2.789   4.129  -2.237  0.00  0.00     0.395 HD
ENDBRANCH   1   7
TORSDOF 1
ENDMDL
