MODEL 1
REMARK minimizedAffinity -0.691818595
REMARK minimizedRMSD -1
REMARK  1 active torsions:
REMARK  status: ('A' for Active; 'I' for Inactive)
REMARK    1  A    between atoms: N_2  and  C1_3 
ROOT
ATOM      1  C1  UNL d   1       1.119   2.828  -1.412  0.00  0.00     0.143 A 
ATOM      2  C2  UNL d   1       0.831   2.154  -0.220  0.00  0.00    -0.057 A 
ATOM      3  C3  UNL d   1       0.940   0.762  -0.128  0.00  0.00     0.033 A 
ATOM      4  C4  UNL d   1       1.312   0.012  -1.239  0.00  0.00    -0.042 A 
ATOM      5  C5  UNL d   1       1.579   0.658  -2.441  0.00  0.00     0.033 A 
ATOM      6  C6  UNL d   1       1.475   2.050  -2.525  0.00  0.00    -0.057 A 
ENDROOT
BRANCH   1   7
ATOM      7  N   UNL d   1       0.934   4.200  -1.594  0.00  0.00    -0.732 N 
ATOM      8  C   UNL d   1       1.700   5.156  -0.823  0.00  0.00     0.284 C 
ATOM      9  H3  UNL d   1       0.824   4.451  -2.574  0.00  0.00     0.395 HD
ENDBRANCH   1   7
TORSDOF 1
ENDMDL
