MODEL 1
REMARK minimizedAffinity -3.39772749
REMARK minimizedRMSD -1
REMARK  1 active torsions:
REMARK  status: ('A' for Active; 'I' for Inactive)
REMARK    1  A    between atoms: N_2  and  C1_3 
ROOT
ATOM      1  C1  UNL d   1       1.710   2.744  -1.316  0.00  0.00     0.143 A 
ATOM      2  C2  UNL d   1       1.465   1.618  -2.109  0.00  0.00    -0.057 A 
ATOM      3  C3  UNL d   1       1.062   0.403  -1.541  0.00  0.00     0.033 A 
ATOM      4  C4  UNL d   1       0.924   0.285  -0.162  0.00  0.00    -0.042 A 
ATOM      5  C5  UNL d   1       1.187   1.384   0.648  0.00  0.00     0.033 A 
ATOM      6  C6  UNL d   1       1.583   2.596   0.074  0.00  0.00    -0.057 A 
ENDROOT
BRANCH   1   7
ATOM      7  N   UNL d   1       2.208   3.951  -1.812  0.00  0.00    -0.732 N 
ATOM      8  C   UNL d   1       2.212   5.141  -0.988  0.00  0.00     0.284 C 
ATOM      9  H3  UNL d   1       3.053   3.825  -2.364  0.00  0.00     0.395 HD
ENDBRANCH   1   7
TORSDOF 1
ENDMDL
