MODEL 1
REMARK minimizedAffinity -0.776991248
REMARK minimizedRMSD -1
REMARK  1 active torsions:
REMARK  status: ('A' for Active; 'I' for Inactive)
REMARK    1  A    between atoms: N_2  and  C1_3 
ROOT
ATOM      1  C1  UNL d   1       1.653   1.447   0.318  0.00  0.00     0.143 A 
ATOM      2  C2  UNL d   1       1.225   0.219  -0.198  0.00  0.00    -0.057 A 
ATOM      3  C3  UNL d   1       0.980   0.052  -1.567  0.00  0.00     0.033 A 
ATOM      4  C4  UNL d   1       1.132   1.123  -2.442  0.00  0.00    -0.042 A 
ATOM      5  C5  UNL d   1       1.532   2.359  -1.948  0.00  0.00     0.033 A 
ATOM      6  C6  UNL d   1       1.782   2.517  -0.581  0.00  0.00    -0.057 A 
ENDROOT
BRANCH   1   7
ATOM      7  N   UNL d   1       1.818   1.703   1.681  0.00  0.00    -0.732 N 
ATOM      8  C   UNL d   1       1.857   3.062   2.177  0.00  0.00     0.284 C 
ATOM      9  H3  UNL d   1       1.283   1.063   2.264  0.00  0.00     0.395 HD
ENDBRANCH   1   7
TORSDOF 1
ENDMDL
