MODEL 1
REMARK minimizedAffinity -2.20783734
REMARK minimizedRMSD -1
REMARK  1 active torsions:
REMARK  status: ('A' for Active; 'I' for Inactive)
REMARK    1  A    between atoms: N_2  and  C1_3 
ROOT
ATOM      1  C1  UNL d   1       1.198   1.673  -0.242  0.00  0.00     0.143 A 
ATOM      2  C2  UNL d   1       1.253   2.549   0.847  0.00  0.00    -0.057 A 
ATOM      3  C3  UNL d   1       1.462   3.921   0.665  0.00  0.00     0.033 A 
ATOM      4  C4  UNL d   1       1.648   4.439  -0.613  0.00  0.00    -0.042 A 
ATOM      5  C5  UNL d   1       1.623   3.583  -1.708  0.00  0.00     0.033 A 
ATOM      6  C6  UNL d   1       1.408   2.214  -1.520  0.00  0.00    -0.057 A 
ENDROOT
BRANCH   1   7
ATOM      7  N   UNL d   1       1.093   0.285  -0.119  0.00  0.00    -0.732 N 
ATOM      8  C   UNL d   1       0.663  -0.524  -1.240  0.00  0.00     0.284 C 
ATOM      9  H3  UNL d   1       1.860  -0.117   0.414  0.00  0.00     0.395 HD
ENDBRANCH   1   7
TORSDOF 1
ENDMDL
