MODEL 1
REMARK minimizedAffinity 7.81807089
REMARK minimizedRMSD -1
REMARK  1 active torsions:
REMARK  status: ('A' for Active; 'I' for Inactive)
REMARK    1  A    between atoms: N_2  and  C1_3 
ROOT
ATOM      1  C1  UNL d   1      -2.580   3.731   2.525  0.00  0.00     0.143 A 
ATOM      2  C2  UNL d   1      -2.767   2.946   3.668  0.00  0.00    -0.057 A 
ATOM      3  C3  UNL d   1      -3.770   1.971   3.723  0.00  0.00     0.033 A 
ATOM      4  C4  UNL d   1      -4.626   1.783   2.643  0.00  0.00    -0.042 A 
ATOM      5  C5  UNL d   1      -4.475   2.570   1.506  0.00  0.00     0.033 A 
ATOM      6  C6  UNL d   1      -3.467   3.537   1.455  0.00  0.00    -0.057 A 
ENDROOT
BRANCH   1   7
ATOM      7  N   UNL d   1      -1.665   4.783   2.446  0.00  0.00    -0.732 N 
ATOM      8  C   UNL d   1      -1.867   5.996   3.209  0.00  0.00     0.284 C 
ATOM      9  H3  UNL d   1      -0.700   4.459   2.429  0.00  0.00     0.395 HD
ENDBRANCH   1   7
TORSDOF 1
ENDMDL
