MODEL 1
REMARK minimizedAffinity -0.887390018
REMARK minimizedRMSD -1
REMARK  1 active torsions:
REMARK  status: ('A' for Active; 'I' for Inactive)
REMARK    1  A    between atoms: N_2  and  C1_3 
ROOT
ATOM      1  C1  UNL d   1       0.952  -1.789  -1.509  0.00  0.00     0.143 A 
ATOM      2  C2  UNL d   1       1.437  -2.230  -0.273  0.00  0.00    -0.057 A 
ATOM      3  C3  UNL d   1       0.941  -3.393   0.329  0.00  0.00     0.033 A 
ATOM      4  C4  UNL d   1      -0.074  -4.121  -0.282  0.00  0.00    -0.042 A 
ATOM      5  C5  UNL d   1      -0.589  -3.688  -1.499  0.00  0.00     0.033 A 
ATOM      6  C6  UNL d   1      -0.085  -2.530  -2.099  0.00  0.00    -0.057 A 
ENDROOT
BRANCH   1   7
ATOM      7  N   UNL d   1       1.335  -0.589  -2.111  0.00  0.00    -0.732 N 
ATOM      8  C   UNL d   1       1.067   0.678  -1.465  0.00  0.00     0.284 C 
ATOM      9  H3  UNL d   1       2.252  -0.648  -2.547  0.00  0.00     0.395 HD
ENDBRANCH   1   7
TORSDOF 1
ENDMDL
