MODEL 1
REMARK minimizedAffinity -4.88845539
REMARK minimizedRMSD -1
REMARK  1 active torsions:
REMARK  status: ('A' for Active; 'I' for Inactive)
REMARK    1  A    between atoms: N_2  and  C1_3 
ROOT
ATOM      1  C1  UNL d   1       1.206   2.725   0.997  0.00  0.00     0.143 A 
ATOM      2  C2  UNL d   1       1.472   3.205  -0.290  0.00  0.00    -0.057 A 
ATOM      3  C3  UNL d   1       1.358   2.376  -1.412  0.00  0.00     0.033 A 
ATOM      4  C4  UNL d   1       1.003   1.040  -1.264  0.00  0.00    -0.042 A 
ATOM      5  C5  UNL d   1       0.758   0.534   0.008  0.00  0.00     0.033 A 
ATOM      6  C6  UNL d   1       0.867   1.369   1.124  0.00  0.00    -0.057 A 
ENDROOT
BRANCH   1   7
ATOM      7  N   UNL d   1       1.398   3.473   2.161  0.00  0.00    -0.732 N 
ATOM      8  C   UNL d   1       2.497   3.177   3.055  0.00  0.00     0.284 C 
ATOM      9  H3  UNL d   1       1.237   4.467   2.015  0.00  0.00     0.395 HD
ENDBRANCH   1   7
TORSDOF 1
ENDMDL
