MODEL 1
REMARK minimizedAffinity 0.940939248
REMARK minimizedRMSD -1
REMARK  1 active torsions:
REMARK  status: ('A' for Active; 'I' for Inactive)
REMARK    1  A    between atoms: N_2  and  C1_3 
ROOT
ATOM      1  C1  UNL d   1       1.508   3.076  -1.261  0.00  0.00     0.143 A 
ATOM      2  C2  UNL d   1       1.541   1.863  -1.956  0.00  0.00    -0.057 A 
ATOM      3  C3  UNL d   1       1.321   0.644  -1.303  0.00  0.00     0.033 A 
ATOM      4  C4  UNL d   1       1.090   0.616   0.068  0.00  0.00    -0.042 A 
ATOM      5  C5  UNL d   1       1.077   1.807   0.785  0.00  0.00     0.033 A 
ATOM      6  C6  UNL d   1       1.291   3.021   0.125  0.00  0.00    -0.057 A 
ENDROOT
BRANCH   1   7
ATOM      7  N   UNL d   1       1.817   4.311  -1.835  0.00  0.00    -0.732 N 
ATOM      8  C   UNL d   1       1.967   5.491  -1.011  0.00  0.00     0.284 C 
ATOM      9  H3  UNL d   1       2.508   4.232  -2.577  0.00  0.00     0.395 HD
ENDBRANCH   1   7
TORSDOF 1
ENDMDL
