MODEL 1
REMARK minimizedAffinity 5.15558481
REMARK minimizedRMSD -1
REMARK  1 active torsions:
REMARK  status: ('A' for Active; 'I' for Inactive)
REMARK    1  A    between atoms: N_2  and  C1_3 
ROOT
ATOM      1  C1  UNL d   1       1.602   1.565  -1.215  0.00  0.00     0.143 A 
ATOM      2  C2  UNL d   1       1.871   1.699   0.151  0.00  0.00    -0.057 A 
ATOM      3  C3  UNL d   1       1.669   0.634   1.038  0.00  0.00     0.033 A 
ATOM      4  C4  UNL d   1       1.167  -0.578   0.577  0.00  0.00    -0.042 A 
ATOM      5  C5  UNL d   1       0.869  -0.726  -0.773  0.00  0.00     0.033 A 
ATOM      6  C6  UNL d   1       1.079   0.339  -1.655  0.00  0.00    -0.057 A 
ENDROOT
BRANCH   1   7
ATOM      7  N   UNL d   1       1.688   2.616  -2.132  0.00  0.00    -0.732 N 
ATOM      8  C   UNL d   1       2.171   3.916  -1.718  0.00  0.00     0.284 C 
ATOM      9  H3  UNL d   1       2.035   2.313  -3.039  0.00  0.00     0.395 HD
ENDBRANCH   1   7
TORSDOF 1
ENDMDL
