MODEL 1
REMARK minimizedAffinity -1.29375494
REMARK minimizedRMSD -1
REMARK  1 active torsions:
REMARK  status: ('A' for Active; 'I' for Inactive)
REMARK    1  A    between atoms: N_2  and  C1_3 
ROOT
ATOM      1  C1  UNL d   1       1.065   0.272  -1.639  0.00  0.00     0.143 A 
ATOM      2  C2  UNL d   1       1.095   1.558  -2.189  0.00  0.00    -0.057 A 
ATOM      3  C3  UNL d   1       1.185   2.694  -1.375  0.00  0.00     0.033 A 
ATOM      4  C4  UNL d   1       1.217   2.563   0.010  0.00  0.00    -0.042 A 
ATOM      5  C5  UNL d   1       1.164   1.296   0.579  0.00  0.00     0.033 A 
ATOM      6  C6  UNL d   1       1.081   0.166  -0.240  0.00  0.00    -0.057 A 
ENDROOT
BRANCH   1   7
ATOM      7  N   UNL d   1       0.877  -0.891  -2.390  0.00  0.00    -0.732 N 
ATOM      8  C   UNL d   1       1.574  -1.078  -3.645  0.00  0.00     0.284 C 
ATOM      9  H3  UNL d   1       0.834  -1.726  -1.810  0.00  0.00     0.395 HD
ENDBRANCH   1   7
TORSDOF 1
ENDMDL
