MODEL 1
REMARK minimizedAffinity -3.20087433
REMARK minimizedRMSD -1
REMARK  1 active torsions:
REMARK  status: ('A' for Active; 'I' for Inactive)
REMARK    1  A    between atoms: N_2  and  C1_3 
ROOT
ATOM      1  C1  UNL d   1       1.598   2.471  -1.056  0.00  0.00     0.143 A 
ATOM      2  C2  UNL d   1       1.342   2.544   0.317  0.00  0.00    -0.057 A 
ATOM      3  C3  UNL d   1       0.923   1.420   1.039  0.00  0.00     0.033 A 
ATOM      4  C4  UNL d   1       0.724   0.205   0.392  0.00  0.00    -0.042 A 
ATOM      5  C5  UNL d   1       0.948   0.115  -0.977  0.00  0.00     0.033 A 
ATOM      6  C6  UNL d   1       1.373   1.239  -1.691  0.00  0.00    -0.057 A 
ENDROOT
BRANCH   1   7
ATOM      7  N   UNL d   1       1.922   3.576  -1.847  0.00  0.00    -0.732 N 
ATOM      8  C   UNL d   1       1.852   4.916  -1.306  0.00  0.00     0.284 C 
ATOM      9  H3  UNL d   1       2.734   3.407  -2.436  0.00  0.00     0.395 HD
ENDBRANCH   1   7
TORSDOF 1
ENDMDL
