MODEL 1
REMARK minimizedAffinity -2.62496924
REMARK minimizedRMSD -1
REMARK  1 active torsions:
REMARK  status: ('A' for Active; 'I' for Inactive)
REMARK    1  A    between atoms: N_2  and  C1_3 
ROOT
ATOM      1  C1  UNL d   1       1.224   2.955  -0.516  0.00  0.00     0.143 A 
ATOM      2  C2  UNL d   1       1.672   2.390  -1.715  0.00  0.00    -0.057 A 
ATOM      3  C3  UNL d   1       1.637   1.006  -1.924  0.00  0.00     0.033 A 
ATOM      4  C4  UNL d   1       1.177   0.157  -0.923  0.00  0.00    -0.042 A 
ATOM      5  C5  UNL d   1       0.750   0.694   0.286  0.00  0.00     0.033 A 
ATOM      6  C6  UNL d   1       0.782   2.077   0.487  0.00  0.00    -0.057 A 
ENDROOT
BRANCH   1   7
ATOM      7  N   UNL d   1       1.326   4.314  -0.211  0.00  0.00    -0.732 N 
ATOM      8  C   UNL d   1       1.880   5.246  -1.170  0.00  0.00     0.284 C 
ATOM      9  H3  UNL d   1       0.509   4.663   0.284  0.00  0.00     0.395 HD
ENDBRANCH   1   7
TORSDOF 1
ENDMDL
