MODEL 1
REMARK minimizedAffinity -0.912398219
REMARK minimizedRMSD -1
REMARK  1 active torsions:
REMARK  status: ('A' for Active; 'I' for Inactive)
REMARK    1  A    between atoms: N_2  and  C1_3 
ROOT
ATOM      1  C1  UNL d   1      -4.863  -0.422   3.377  0.00  0.00     0.143 A 
ATOM      2  C2  UNL d   1      -6.000   0.344   3.659  0.00  0.00    -0.057 A 
ATOM      3  C3  UNL d   1      -5.892   1.655   4.137  0.00  0.00     0.033 A 
ATOM      4  C4  UNL d   1      -4.641   2.216   4.371  0.00  0.00    -0.042 A 
ATOM      5  C5  UNL d   1      -3.497   1.465   4.122  0.00  0.00     0.033 A 
ATOM      6  C6  UNL d   1      -3.611   0.158   3.638  0.00  0.00    -0.057 A 
ENDROOT
BRANCH   1   7
ATOM      7  N   UNL d   1      -4.905  -1.764   2.993  0.00  0.00    -0.732 N 
ATOM      8  C   UNL d   1      -6.000  -2.615   3.406  0.00  0.00     0.284 C 
ATOM      9  H3  UNL d   1      -4.612  -1.902   2.029  0.00  0.00     0.395 HD
ENDBRANCH   1   7
TORSDOF 1
ENDMDL
