MODEL 1
REMARK minimizedAffinity -3.12583351
REMARK minimizedRMSD -1
REMARK  1 active torsions:
REMARK  status: ('A' for Active; 'I' for Inactive)
REMARK    1  A    between atoms: N_2  and  C1_3 
ROOT
ATOM      1  C1  UNL d   1       0.890   1.457   0.297  0.00  0.00     0.143 A 
ATOM      2  C2  UNL d   1       0.978   2.610  -0.492  0.00  0.00    -0.057 A 
ATOM      3  C3  UNL d   1       1.345   2.540  -1.841  0.00  0.00     0.033 A 
ATOM      4  C4  UNL d   1       1.659   1.315  -2.420  0.00  0.00    -0.042 A 
ATOM      5  C5  UNL d   1       1.603   0.159  -1.649  0.00  0.00     0.033 A 
ATOM      6  C6  UNL d   1       1.229   0.235  -0.304  0.00  0.00    -0.057 A 
ENDROOT
BRANCH   1   7
ATOM      7  N   UNL d   1       0.626   1.472   1.669  0.00  0.00    -0.732 N 
ATOM      8  C   UNL d   1       1.553   2.092   2.591  0.00  0.00     0.284 C 
ATOM      9  H3  UNL d   1      -0.353   1.659   1.874  0.00  0.00     0.395 HD
ENDBRANCH   1   7
TORSDOF 1
ENDMDL
