MODEL 1
REMARK minimizedAffinity -2.63913012
REMARK minimizedRMSD -1
REMARK  1 active torsions:
REMARK  status: ('A' for Active; 'I' for Inactive)
REMARK    1  A    between atoms: N_2  and  C1_3 
ROOT
ATOM      1  C1  UNL d   1       1.189   3.466  -1.188  0.00  0.00     0.143 A 
ATOM      2  C2  UNL d   1       0.655   2.459  -1.999  0.00  0.00    -0.057 A 
ATOM      3  C3  UNL d   1       0.591   1.130  -1.561  0.00  0.00     0.033 A 
ATOM      4  C4  UNL d   1       1.088   0.780  -0.310  0.00  0.00    -0.042 A 
ATOM      5  C5  UNL d   1       1.647   1.760   0.503  0.00  0.00     0.033 A 
ATOM      6  C6  UNL d   1       1.702   3.086   0.062  0.00  0.00    -0.057 A 
ENDROOT
BRANCH   1   7
ATOM      7  N   UNL d   1       1.370   4.786  -1.606  0.00  0.00    -0.732 N 
ATOM      8  C   UNL d   1       2.066   5.736  -0.765  0.00  0.00     0.284 C 
ATOM      9  H3  UNL d   1       1.609   4.852  -2.593  0.00  0.00     0.395 HD
ENDBRANCH   1   7
TORSDOF 1
ENDMDL
