MODEL 1
REMARK minimizedAffinity -3.09505916
REMARK minimizedRMSD -1
REMARK  0 active torsions:
REMARK  status: ('A' for Active; 'I' for Inactive)
ROOT
ATOM      1  C1  DEN d   1      -1.275  -0.162   0.041  0.00  0.00     0.130 A 
ATOM      2  C2  DEN d   1      -0.732   0.189  -1.268  0.00  0.00    -0.031 A 
ATOM      3  C3  DEN d   1       0.670  -0.272  -1.319  0.00  0.00     0.027 A 
ATOM      4  C4  DEN d   1       2.043  -1.494   0.491  0.00  0.00     0.027 A 
ATOM      5  C5  DEN d   1       2.014  -1.998   1.772  0.00  0.00    -0.003 A 
ATOM      6  C6  DEN d   1       0.907  -1.896   2.572  0.00  0.00     0.001 A 
ATOM      7  C7  DEN d   1      -0.233  -1.315   2.082  0.00  0.00     0.017 A 
ATOM      8  C8  DEN d   1      -0.209  -0.798   0.794  0.00  0.00    -0.094 A 
ATOM      9  C9  DEN d   1       0.916  -0.922  -0.004  0.00  0.00    -0.072 A 
ENDROOT
TORSDOF 0
ENDMDL
