MODEL 1
REMARK minimizedAffinity -3.48513818
REMARK minimizedRMSD -1
REMARK  0 active torsions:
REMARK  status: ('A' for Active; 'I' for Inactive)
ROOT
ATOM      1  C1  DEN d   1       0.592  -2.502   1.866  0.00  0.00     0.130 A 
ATOM      2  C2  DEN d   1       1.939  -2.933   1.501  0.00  0.00    -0.031 A 
ATOM      3  C3  DEN d   1       2.523  -1.906   0.616  0.00  0.00     0.027 A 
ATOM      4  C4  DEN d   1       1.481   0.302  -0.216  0.00  0.00     0.027 A 
ATOM      5  C5  DEN d   1       0.355   1.095  -0.182  0.00  0.00    -0.003 A 
ATOM      6  C6  DEN d   1      -0.774   0.731   0.503  0.00  0.00     0.001 A 
ATOM      7  C7  DEN d   1      -0.786  -0.436   1.221  0.00  0.00     0.017 A 
ATOM      8  C8  DEN d   1       0.343  -1.244   1.186  0.00  0.00    -0.094 A 
ATOM      9  C9  DEN d   1       1.479  -0.853   0.497  0.00  0.00    -0.072 A 
ENDROOT
TORSDOF 0
ENDMDL
