MODEL 1
REMARK minimizedAffinity -3.64000225
REMARK minimizedRMSD -1
REMARK  0 active torsions:
REMARK  status: ('A' for Active; 'I' for Inactive)
ROOT
ATOM      1  C1  DEN d   1       0.561   0.142  -0.511  0.00  0.00     0.130 A 
ATOM      2  C2  DEN d   1      -0.699   0.745  -0.085  0.00  0.00    -0.031 A 
ATOM      3  C3  DEN d   1      -1.110   0.099   1.178  0.00  0.00     0.027 A 
ATOM      4  C4  DEN d   1       0.079  -1.762   2.510  0.00  0.00     0.027 A 
ATOM      5  C5  DEN d   1       1.173  -2.599   2.538  0.00  0.00    -0.003 A 
ATOM      6  C6  DEN d   1       2.114  -2.604   1.543  0.00  0.00     0.001 A 
ATOM      7  C7  DEN d   1       2.003  -1.724   0.499  0.00  0.00     0.017 A 
ATOM      8  C8  DEN d   1       0.899  -0.883   0.460  0.00  0.00    -0.094 A 
ATOM      9  C9  DEN d   1      -0.035  -0.884   1.482  0.00  0.00    -0.072 A 
ENDROOT
TORSDOF 0
ENDMDL
