MODEL 1
REMARK minimizedAffinity -7.89529705
REMARK minimizedRMSD -1
REMARK  0 active torsions:
REMARK  status: ('A' for Active; 'I' for Inactive)
ROOT
ATOM      1  C1  DEN d   1       0.723  -0.027  -0.657  0.00  0.00     0.130 A 
ATOM      2  C2  DEN d   1      -0.399   0.892  -0.487  0.00  0.00    -0.031 A 
ATOM      3  C3  DEN d   1      -1.150   0.479   0.715  0.00  0.00     0.027 A 
ATOM      4  C4  DEN d   1      -0.684  -1.482   2.325  0.00  0.00     0.027 A 
ATOM      5  C5  DEN d   1       0.150  -2.548   2.584  0.00  0.00    -0.003 A 
ATOM      6  C6  DEN d   1       1.204  -2.865   1.769  0.00  0.00     0.001 A 
ATOM      7  C7  DEN d   1       1.479  -2.082   0.680  0.00  0.00     0.017 A 
ATOM      8  C8  DEN d   1       0.639  -1.010   0.407  0.00  0.00    -0.094 A 
ATOM      9  C9  DEN d   1      -0.414  -0.698   1.250  0.00  0.00    -0.072 A 
ENDROOT
TORSDOF 0
ENDMDL
