MODEL 1
REMARK minimizedAffinity -5.94922256
REMARK minimizedRMSD -1
REMARK  0 active torsions:
REMARK  status: ('A' for Active; 'I' for Inactive)
ROOT
ATOM      1  C1  DEN d   1      -0.909  -0.089   0.081  0.00  0.00     0.130 A 
ATOM      2  C2  DEN d   1      -0.344   0.170  -1.241  0.00  0.00    -0.031 A 
ATOM      3  C3  DEN d   1       0.838  -0.698  -1.410  0.00  0.00     0.027 A 
ATOM      4  C4  DEN d   1       1.841  -2.413   0.235  0.00  0.00     0.027 A 
ATOM      5  C5  DEN d   1       1.715  -2.975   1.486  0.00  0.00    -0.003 A 
ATOM      6  C6  DEN d   1       0.734  -2.593   2.362  0.00  0.00     0.001 A 
ATOM      7  C7  DEN d   1      -0.188  -1.654   1.982  0.00  0.00     0.017 A 
ATOM      8  C8  DEN d   1      -0.063  -1.078   0.725  0.00  0.00    -0.094 A 
ATOM      9  C9  DEN d   1       0.929  -1.486  -0.151  0.00  0.00    -0.072 A 
ENDROOT
TORSDOF 0
ENDMDL
