MODEL 1
REMARK minimizedAffinity -4.50646448
REMARK minimizedRMSD -1
REMARK  0 active torsions:
REMARK  status: ('A' for Active; 'I' for Inactive)
ROOT
ATOM      1  C1  DEN d   1      -1.133  -0.602   2.028  0.00  0.00     0.130 A 
ATOM      2  C2  DEN d   1      -0.919  -1.474   3.180  0.00  0.00    -0.031 A 
ATOM      3  C3  DEN d   1       0.389  -2.138   3.013  0.00  0.00     0.027 A 
ATOM      4  C4  DEN d   1       2.096  -1.901   1.094  0.00  0.00     0.027 A 
ATOM      5  C5  DEN d   1       2.351  -1.286  -0.112  0.00  0.00    -0.003 A 
ATOM      6  C6  DEN d   1       1.455  -0.434  -0.701  0.00  0.00     0.001 A 
ATOM      7  C7  DEN d   1       0.280  -0.137  -0.062  0.00  0.00     0.017 A 
ATOM      8  C8  DEN d   1       0.013  -0.758   1.151  0.00  0.00    -0.094 A 
ATOM      9  C9  DEN d   1       0.937  -1.608   1.735  0.00  0.00    -0.072 A 
ENDROOT
TORSDOF 0
ENDMDL
