MODEL 1
REMARK minimizedAffinity -4.23254156
REMARK minimizedRMSD -1
REMARK  0 active torsions:
REMARK  status: ('A' for Active; 'I' for Inactive)
ROOT
ATOM      1  C1  DEN d   1      -0.508   0.238   0.399  0.00  0.00     0.130 A 
ATOM      2  C2  DEN d   1       0.410   0.708  -0.635  0.00  0.00    -0.031 A 
ATOM      3  C3  DEN d   1       1.558  -0.219  -0.681  0.00  0.00     0.027 A 
ATOM      4  C4  DEN d   1       2.000  -2.327   0.738  0.00  0.00     0.027 A 
ATOM      5  C5  DEN d   1       1.511  -3.120   1.753  0.00  0.00    -0.003 A 
ATOM      6  C6  DEN d   1       0.341  -2.832   2.405  0.00  0.00     0.001 A 
ATOM      7  C7  DEN d   1      -0.402  -1.748   2.019  0.00  0.00     0.017 A 
ATOM      8  C8  DEN d   1       0.088  -0.940   1.002  0.00  0.00    -0.094 A 
ATOM      9  C9  DEN d   1       1.266  -1.254   0.347  0.00  0.00    -0.072 A 
ENDROOT
TORSDOF 0
ENDMDL
