MODEL 1
REMARK minimizedAffinity -5.93088722
REMARK minimizedRMSD -1
REMARK  0 active torsions:
REMARK  status: ('A' for Active; 'I' for Inactive)
ROOT
ATOM      1  C1  DEN d   1       0.934  -2.291   2.289  0.00  0.00     0.130 A 
ATOM      2  C2  DEN d   1      -0.362  -2.100   2.934  0.00  0.00    -0.031 A 
ATOM      3  C3  DEN d   1      -1.138  -1.140   2.124  0.00  0.00     0.027 A 
ATOM      4  C4  DEN d   1      -0.464   0.060  -0.058  0.00  0.00     0.027 A 
ATOM      5  C5  DEN d   1       0.544   0.226  -0.983  0.00  0.00    -0.003 A 
ATOM      6  C6  DEN d   1       1.754  -0.404  -0.865  0.00  0.00     0.001 A 
ATOM      7  C7  DEN d   1       1.972  -1.266   0.178  0.00  0.00     0.017 A 
ATOM      8  C8  DEN d   1       0.964  -1.432   1.118  0.00  0.00    -0.094 A 
ATOM      9  C9  DEN d   1      -0.257  -0.796   0.975  0.00  0.00    -0.072 A 
ENDROOT
TORSDOF 0
ENDMDL
