MODEL 1
REMARK minimizedAffinity -6.49749374
REMARK minimizedRMSD -1
REMARK  0 active torsions:
REMARK  status: ('A' for Active; 'I' for Inactive)
ROOT
ATOM      1  C1  DEN d   1      -0.611  -0.080   0.382  0.00  0.00     0.130 A 
ATOM      2  C2  DEN d   1       0.229   0.390  -0.717  0.00  0.00    -0.031 A 
ATOM      3  C3  DEN d   1       1.453  -0.435  -0.741  0.00  0.00     0.027 A 
ATOM      4  C4  DEN d   1       2.124  -2.389   0.804  0.00  0.00     0.027 A 
ATOM      5  C5  DEN d   1       1.739  -3.145   1.889  0.00  0.00    -0.003 A 
ATOM      6  C6  DEN d   1       0.569  -2.913   2.563  0.00  0.00     0.001 A 
ATOM      7  C7  DEN d   1      -0.279  -1.928   2.131  0.00  0.00     0.017 A 
ATOM      8  C8  DEN d   1       0.106  -1.156   1.042  0.00  0.00    -0.094 A 
ATOM      9  C9  DEN d   1       1.286  -1.415   0.366  0.00  0.00    -0.072 A 
ENDROOT
TORSDOF 0
ENDMDL
