MODEL 1
REMARK minimizedAffinity 2.27389932
REMARK minimizedRMSD -1
REMARK  0 active torsions:
REMARK  status: ('A' for Active; 'I' for Inactive)
ROOT
ATOM      1  C1  DEN d   1      -0.886  -0.082   0.883  0.00  0.00     0.130 A 
ATOM      2  C2  DEN d   1      -0.434   0.302  -0.452  0.00  0.00    -0.031 A 
ATOM      3  C3  DEN d   1       0.858  -0.366  -0.706  0.00  0.00     0.027 A 
ATOM      4  C4  DEN d   1       2.194  -1.953   0.828  0.00  0.00     0.027 A 
ATOM      5  C5  DEN d   1       2.218  -2.565   2.061  0.00  0.00    -0.003 A 
ATOM      6  C6  DEN d   1       1.234  -2.368   2.994  0.00  0.00     0.001 A 
ATOM      7  C7  DEN d   1       0.161  -1.573   2.690  0.00  0.00     0.017 A 
ATOM      8  C8  DEN d   1       0.133  -0.946   1.451  0.00  0.00    -0.094 A 
ATOM      9  C9  DEN d   1       1.131  -1.168   0.517  0.00  0.00    -0.072 A 
ENDROOT
TORSDOF 0
ENDMDL
