MODEL 1
REMARK minimizedAffinity -5.29164124
REMARK minimizedRMSD -1
REMARK  0 active torsions:
REMARK  status: ('A' for Active; 'I' for Inactive)
ROOT
ATOM      1  C1  DEN d   1       0.928   0.070  -0.499  0.00  0.00     0.130 A 
ATOM      2  C2  DEN d   1      -0.273   0.900  -0.499  0.00  0.00    -0.031 A 
ATOM      3  C3  DEN d   1      -1.205   0.355   0.509  0.00  0.00     0.027 A 
ATOM      4  C4  DEN d   1      -0.904  -1.681   2.063  0.00  0.00     0.027 A 
ATOM      5  C5  DEN d   1      -0.055  -2.707   2.419  0.00  0.00    -0.003 A 
ATOM      6  C6  DEN d   1       1.156  -2.897   1.808  0.00  0.00     0.001 A 
ATOM      7  C7  DEN d   1       1.572  -2.022   0.839  0.00  0.00     0.017 A 
ATOM      8  C8  DEN d   1       0.719  -0.991   0.470  0.00  0.00    -0.094 A 
ATOM      9  C9  DEN d   1      -0.496  -0.808   1.109  0.00  0.00    -0.072 A 
ENDROOT
TORSDOF 0
ENDMDL
