MODEL 1
REMARK minimizedAffinity -5.51952124
REMARK minimizedRMSD -1
REMARK  0 active torsions:
REMARK  status: ('A' for Active; 'I' for Inactive)
ROOT
ATOM      1  C1  DEN d   1      -1.456   0.494   0.846  0.00  0.00     0.130 A 
ATOM      2  C2  DEN d   1      -0.729   0.922  -0.346  0.00  0.00    -0.031 A 
ATOM      3  C3  DEN d   1       0.416   0.008  -0.535  0.00  0.00     0.027 A 
ATOM      4  C4  DEN d   1       1.127  -2.019   0.893  0.00  0.00     0.027 A 
ATOM      5  C5  DEN d   1       0.826  -2.765   2.010  0.00  0.00    -0.003 A 
ATOM      6  C6  DEN d   1      -0.228  -2.460   2.831  0.00  0.00     0.001 A 
ATOM      7  C7  DEN d   1      -1.047  -1.407   2.520  0.00  0.00     0.017 A 
ATOM      8  C8  DEN d   1      -0.746  -0.645   1.399  0.00  0.00    -0.094 A 
ATOM      9  C9  DEN d   1       0.317  -0.977   0.575  0.00  0.00    -0.072 A 
ENDROOT
TORSDOF 0
ENDMDL
