MODEL 1
REMARK minimizedAffinity -3.0569284
REMARK minimizedRMSD -1
REMARK  1 active torsions:
REMARK  status: ('A' for Active; 'I' for Inactive)
REMARK    1  A    between atoms: C1_2  and  C2_3 
ROOT
ATOM      1  C2  UNL d   1      -1.059   0.357  -0.899  0.00  0.00    -0.081 A 
ATOM      2  C3  UNL d   1      -0.258   1.504  -0.852  0.00  0.00     0.006 A 
ATOM      3  C4  UNL d   1       0.816   1.582   0.037  0.00  0.00     0.002 A 
ATOM      4  C5  UNL d   1       1.113   0.511   0.887  0.00  0.00    -0.080 A 
ATOM      5  C6  UNL d   1       2.283   0.570   1.825  0.00  0.00     0.076 C 
ATOM      6  C7  UNL d   1       0.303  -0.629   0.852  0.00  0.00     0.002 A 
ATOM      7  C8  UNL d   1      -0.772  -0.707  -0.036  0.00  0.00     0.006 A 
ENDROOT
BRANCH   1   8
ATOM      8  C1  UNL d   1      -2.179   0.244  -1.902  0.00  0.00     0.054 C 
ATOM      9  C   UNL d   1      -1.974  -0.945  -2.829  0.00  0.00     0.018 C 
ENDBRANCH   1   8
TORSDOF 1
ENDMDL
