MODEL 1
REMARK minimizedAffinity -5.11710501
REMARK minimizedRMSD -1
REMARK  1 active torsions:
REMARK  status: ('A' for Active; 'I' for Inactive)
REMARK    1  A    between atoms: C1_2  and  C2_3 
ROOT
ATOM      1  C2  UNL d   1       0.697   0.684  -0.589  0.00  0.00    -0.081 A 
ATOM      2  C3  UNL d   1       0.695   0.428  -1.966  0.00  0.00     0.006 A 
ATOM      3  C4  UNL d   1      -0.486   0.063  -2.616  0.00  0.00     0.002 A 
ATOM      4  C5  UNL d   1      -1.685  -0.044  -1.904  0.00  0.00    -0.080 A 
ATOM      5  C6  UNL d   1      -2.966  -0.405  -2.596  0.00  0.00     0.076 C 
ATOM      6  C7  UNL d   1      -1.680   0.195  -0.526  0.00  0.00     0.002 A 
ATOM      7  C8  UNL d   1      -0.499   0.559   0.126  0.00  0.00     0.006 A 
ENDROOT
BRANCH   1   8
ATOM      8  C1  UNL d   1       1.955   1.141   0.103  0.00  0.00     0.054 C 
ATOM      9  C   UNL d   1       2.245   0.298   1.337  0.00  0.00     0.018 C 
ENDBRANCH   1   8
TORSDOF 1
ENDMDL
