MODEL 1
REMARK minimizedAffinity -0.952558219
REMARK minimizedRMSD -1
REMARK  1 active torsions:
REMARK  status: ('A' for Active; 'I' for Inactive)
REMARK    1  A    between atoms: C1_2  and  C2_3 
ROOT
ATOM      1  C2  UNL d   1      -1.183   0.342  -0.789  0.00  0.00    -0.081 A 
ATOM      2  C3  UNL d   1      -0.565   1.594  -0.895  0.00  0.00     0.006 A 
ATOM      3  C4  UNL d   1       0.660   1.834  -0.268  0.00  0.00     0.002 A 
ATOM      4  C5  UNL d   1       1.291   0.824   0.467  0.00  0.00    -0.080 A 
ATOM      5  C6  UNL d   1       2.621   1.059   1.119  0.00  0.00     0.076 C 
ATOM      6  C7  UNL d   1       0.665  -0.421   0.586  0.00  0.00     0.002 A 
ATOM      7  C8  UNL d   1      -0.560  -0.661  -0.039  0.00  0.00     0.006 A 
ENDROOT
BRANCH   1   8
ATOM      8  C1  UNL d   1      -2.473   0.061  -1.517  0.00  0.00     0.054 C 
ATOM      9  C   UNL d   1      -2.232  -0.772  -2.768  0.00  0.00     0.018 C 
ENDBRANCH   1   8
TORSDOF 1
ENDMDL
