MODEL 1
REMARK minimizedAffinity -1.65244055
REMARK minimizedRMSD -1
REMARK  1 active torsions:
REMARK  status: ('A' for Active; 'I' for Inactive)
REMARK    1  A    between atoms: C1_2  and  C2_3 
ROOT
ATOM      1  C2  UNL d   1      -0.935  -0.634  -0.886  0.00  0.00    -0.081 A 
ATOM      2  C3  UNL d   1      -1.078   0.632  -0.305  0.00  0.00     0.006 A 
ATOM      3  C4  UNL d   1      -0.027   1.203   0.416  0.00  0.00     0.002 A 
ATOM      4  C5  UNL d   1       1.186   0.523   0.562  0.00  0.00    -0.080 A 
ATOM      5  C6  UNL d   1       2.333   1.138   1.308  0.00  0.00     0.076 C 
ATOM      6  C7  UNL d   1       1.323  -0.750  -0.003  0.00  0.00     0.002 A 
ATOM      7  C8  UNL d   1       0.273  -1.322  -0.724  0.00  0.00     0.006 A 
ENDROOT
BRANCH   1   8
ATOM      8  C1  UNL d   1      -2.044  -1.225  -1.719  0.00  0.00     0.054 C 
ATOM      9  C   UNL d   1      -2.557  -0.226  -2.745  0.00  0.00     0.018 C 
ENDBRANCH   1   8
TORSDOF 1
ENDMDL
