MODEL 1
REMARK minimizedAffinity -1.40854847
REMARK minimizedRMSD -1
REMARK  1 active torsions:
REMARK  status: ('A' for Active; 'I' for Inactive)
REMARK    1  A    between atoms: C1_2  and  C2_3 
ROOT
ATOM      1  C2  UNL d   1      -1.211   0.618  -0.617  0.00  0.00    -0.081 A 
ATOM      2  C3  UNL d   1      -0.815  -0.710  -0.416  0.00  0.00     0.006 A 
ATOM      3  C4  UNL d   1       0.429  -0.999   0.150  0.00  0.00     0.002 A 
ATOM      4  C5  UNL d   1       1.293   0.033   0.532  0.00  0.00    -0.080 A 
ATOM      5  C6  UNL d   1       2.618  -0.264   1.168  0.00  0.00     0.076 C 
ATOM      6  C7  UNL d   1       0.904   1.359   0.315  0.00  0.00     0.002 A 
ATOM      7  C8  UNL d   1      -0.339   1.649  -0.252  0.00  0.00     0.006 A 
ENDROOT
BRANCH   1   8
ATOM      8  C1  UNL d   1      -2.578   0.935  -1.167  0.00  0.00     0.054 C 
ATOM      9  C   UNL d   1      -2.667   0.609  -2.651  0.00  0.00     0.018 C 
ENDBRANCH   1   8
TORSDOF 1
ENDMDL
