MODEL 1
REMARK minimizedAffinity -3.77672362
REMARK minimizedRMSD -1
REMARK  1 active torsions:
REMARK  status: ('A' for Active; 'I' for Inactive)
REMARK    1  A    between atoms: C1_2  and  C2_3 
ROOT
ATOM      1  C2  UNL d   1      -1.123   0.540  -0.629  0.00  0.00    -0.081 A 
ATOM      2  C3  UNL d   1      -0.156   1.547  -0.745  0.00  0.00     0.006 A 
ATOM      3  C4  UNL d   1       1.038   1.468  -0.024  0.00  0.00     0.002 A 
ATOM      4  C5  UNL d   1       1.288   0.380   0.817  0.00  0.00    -0.080 A 
ATOM      5  C6  UNL d   1       2.579   0.268   1.573  0.00  0.00     0.076 C 
ATOM      6  C7  UNL d   1       0.315  -0.617   0.947  0.00  0.00     0.002 A 
ATOM      7  C8  UNL d   1      -0.879  -0.539   0.227  0.00  0.00     0.006 A 
ENDROOT
BRANCH   1   8
ATOM      8  C1  UNL d   1      -2.383   0.590  -1.454  0.00  0.00     0.054 C 
ATOM      9  C   UNL d   1      -2.295  -0.340  -2.656  0.00  0.00     0.018 C 
ENDBRANCH   1   8
TORSDOF 1
ENDMDL
