MODEL 1
REMARK minimizedAffinity -3.65673876
REMARK minimizedRMSD -1
REMARK  1 active torsions:
REMARK  status: ('A' for Active; 'I' for Inactive)
REMARK    1  A    between atoms: C1_2  and  C2_3 
ROOT
ATOM      1  C2  UNL d   1       0.884   0.127   0.371  0.00  0.00    -0.081 A 
ATOM      2  C3  UNL d   1      -0.100  -0.784  -0.033  0.00  0.00     0.006 A 
ATOM      3  C4  UNL d   1      -1.205  -0.353  -0.771  0.00  0.00     0.002 A 
ATOM      4  C5  UNL d   1      -1.340   0.994  -1.125  0.00  0.00    -0.080 A 
ATOM      5  C6  UNL d   1      -2.505   1.465  -1.943  0.00  0.00     0.076 C 
ATOM      6  C7  UNL d   1      -0.366   1.907  -0.707  0.00  0.00     0.002 A 
ATOM      7  C8  UNL d   1       0.738   1.476   0.032  0.00  0.00     0.006 A 
ENDROOT
BRANCH   1   8
ATOM      8  C1  UNL d   1       2.109  -0.346   1.111  0.00  0.00     0.054 C 
ATOM      9  C   UNL d   1       1.835  -1.641   1.863  0.00  0.00     0.018 C 
ENDBRANCH   1   8
TORSDOF 1
ENDMDL
