MODEL 1
REMARK minimizedAffinity -5.26252127
REMARK minimizedRMSD -1
REMARK  2 active torsions:
REMARK  status: ('A' for Active; 'I' for Inactive)
REMARK    1  A    between atoms: C1_2  and  C2_3 
REMARK    2  A    between atoms: C2_3  and  C3_4 
ROOT
ATOM      1  C3  UNL d   1      -0.404  -0.578   0.207  0.00  0.00    -0.075 A 
ATOM      2  C4  UNL d   1      -1.450   0.151   0.790  0.00  0.00     0.002 A 
ATOM      3  C5  UNL d   1      -2.281  -0.439   1.742  0.00  0.00     0.002 A 
ATOM      4  C6  UNL d   1      -2.085  -1.767   2.115  0.00  0.00    -0.004 A 
ATOM      5  C7  UNL d   1      -1.059  -2.506   1.531  0.00  0.00     0.002 A 
ATOM      6  C8  UNL d   1      -0.223  -1.917   0.581  0.00  0.00     0.002 A 
ENDROOT
BRANCH   1   7
ATOM      7  C2  UNL d   1       0.518   0.064  -0.802  0.00  0.00     0.056 C 
BRANCH   7   8
ATOM      8  C1  UNL d   1       0.421   1.592  -0.851  0.00  0.00     0.007 C 
ATOM      9  C   UNL d   1       1.346   2.220  -1.885  0.00  0.00     0.009 C 
ENDBRANCH   7   8
ENDBRANCH   1   7
TORSDOF 2
ENDMDL
