MODEL 1
REMARK minimizedAffinity -5.05528593
REMARK minimizedRMSD -1
REMARK  2 active torsions:
REMARK  status: ('A' for Active; 'I' for Inactive)
REMARK    1  A    between atoms: C1_2  and  C2_3 
REMARK    2  A    between atoms: C2_3  and  C3_4 
ROOT
ATOM      1  C3  UNL d   1       0.342   0.496   0.056  0.00  0.00    -0.075 A 
ATOM      2  C4  UNL d   1       1.275  -0.516   0.327  0.00  0.00     0.002 A 
ATOM      3  C5  UNL d   1       0.864  -1.731   0.875  0.00  0.00     0.002 A 
ATOM      4  C6  UNL d   1      -0.481  -1.946   1.169  0.00  0.00    -0.004 A 
ATOM      5  C7  UNL d   1      -1.414  -0.942   0.920  0.00  0.00     0.002 A 
ATOM      6  C8  UNL d   1      -1.006   0.273   0.368  0.00  0.00     0.002 A 
ENDROOT
BRANCH   1   7
ATOM      7  C2  UNL d   1       0.776   1.802  -0.564  0.00  0.00     0.056 C 
BRANCH   7   8
ATOM      8  C1  UNL d   1       0.526   1.889  -2.074  0.00  0.00     0.007 C 
ATOM      9  C   UNL d   1       1.344   2.977  -2.756  0.00  0.00     0.009 C 
ENDBRANCH   7   8
ENDBRANCH   1   7
TORSDOF 2
ENDMDL
