MODEL 1
REMARK minimizedAffinity -3.82301044
REMARK minimizedRMSD -1
REMARK  2 active torsions:
REMARK  status: ('A' for Active; 'I' for Inactive)
REMARK    1  A    between atoms: C1_2  and  C2_3 
REMARK    2  A    between atoms: C2_3  and  C3_4 
ROOT
ATOM      1  C3  UNL d   1       0.682   0.481  -0.848  0.00  0.00    -0.075 A 
ATOM      2  C4  UNL d   1       0.474  -0.286  -2.003  0.00  0.00     0.002 A 
ATOM      3  C5  UNL d   1       0.748   0.244  -3.265  0.00  0.00     0.002 A 
ATOM      4  C6  UNL d   1       1.222   1.548  -3.388  0.00  0.00    -0.004 A 
ATOM      5  C7  UNL d   1       1.417   2.325  -2.248  0.00  0.00     0.002 A 
ATOM      6  C8  UNL d   1       1.148   1.796  -0.984  0.00  0.00     0.002 A 
ENDROOT
BRANCH   1   7
ATOM      7  C2  UNL d   1       0.416  -0.096   0.522  0.00  0.00     0.056 C 
BRANCH   7   8
ATOM      8  C1  UNL d   1       0.705  -1.597   0.633  0.00  0.00     0.007 C 
ATOM      9  C   UNL d   1      -0.211  -2.314   1.615  0.00  0.00     0.009 C 
ENDBRANCH   7   8
ENDBRANCH   1   7
TORSDOF 2
ENDMDL
