MODEL 1
REMARK minimizedAffinity -3.79441547
REMARK minimizedRMSD -1
REMARK  2 active torsions:
REMARK  status: ('A' for Active; 'I' for Inactive)
REMARK    1  A    between atoms: C1_2  and  C2_3 
REMARK    2  A    between atoms: C2_3  and  C3_4 
ROOT
ATOM      1  C3  UNL d   1      -0.077  -0.062  -0.138  0.00  0.00    -0.075 A 
ATOM      2  C4  UNL d   1      -0.278  -0.393   1.210  0.00  0.00     0.002 A 
ATOM      3  C5  UNL d   1      -0.861  -1.611   1.561  0.00  0.00     0.002 A 
ATOM      4  C6  UNL d   1      -1.259  -2.507   0.572  0.00  0.00    -0.004 A 
ATOM      5  C7  UNL d   1      -1.080  -2.181  -0.771  0.00  0.00     0.002 A 
ATOM      6  C8  UNL d   1      -0.493  -0.965  -1.125  0.00  0.00     0.002 A 
ENDROOT
BRANCH   1   7
ATOM      7  C2  UNL d   1       0.580   1.242  -0.524  0.00  0.00     0.056 C 
BRANCH   7   8
ATOM      8  C1  UNL d   1       0.062   1.837  -1.837  0.00  0.00     0.007 C 
ATOM      9  C   UNL d   1       1.173   2.191  -2.816  0.00  0.00     0.009 C 
ENDBRANCH   7   8
ENDBRANCH   1   7
TORSDOF 2
ENDMDL
