MODEL 1
REMARK minimizedAffinity -4.01592016
REMARK minimizedRMSD -1
REMARK  2 active torsions:
REMARK  status: ('A' for Active; 'I' for Inactive)
REMARK    1  A    between atoms: C1_2  and  C2_3 
REMARK    2  A    between atoms: C2_3  and  C3_4 
ROOT
ATOM      1  C3  UNL d   1      -0.410  -0.309   0.508  0.00  0.00    -0.075 A 
ATOM      2  C4  UNL d   1       0.013  -1.624   0.748  0.00  0.00     0.002 A 
ATOM      3  C5  UNL d   1      -0.668  -2.432   1.659  0.00  0.00     0.002 A 
ATOM      4  C6  UNL d   1      -1.771  -1.934   2.348  0.00  0.00    -0.004 A 
ATOM      5  C7  UNL d   1      -2.190  -0.623   2.130  0.00  0.00     0.002 A 
ATOM      6  C8  UNL d   1      -1.514   0.186   1.216  0.00  0.00     0.002 A 
ENDROOT
BRANCH   1   7
ATOM      7  C2  UNL d   1       0.305   0.561  -0.498  0.00  0.00     0.056 C 
BRANCH   7   8
ATOM      8  C1  UNL d   1      -0.144   0.339  -1.946  0.00  0.00     0.007 C 
ATOM      9  C   UNL d   1       0.738   1.048  -2.964  0.00  0.00     0.009 C 
ENDBRANCH   7   8
ENDBRANCH   1   7
TORSDOF 2
ENDMDL
