MODEL 1
REMARK minimizedAffinity -4.29477024
REMARK minimizedRMSD -1
REMARK  2 active torsions:
REMARK  status: ('A' for Active; 'I' for Inactive)
REMARK    1  A    between atoms: C1_2  and  C2_3 
REMARK    2  A    between atoms: C2_3  and  C3_4 
ROOT
ATOM      1  C3  UNL d   1       0.444   0.408  -0.660  0.00  0.00    -0.075 A 
ATOM      2  C4  UNL d   1      -0.355   0.429   0.492  0.00  0.00     0.002 A 
ATOM      3  C5  UNL d   1      -0.427  -0.688   1.325  0.00  0.00     0.002 A 
ATOM      4  C6  UNL d   1       0.290  -1.841   1.012  0.00  0.00    -0.004 A 
ATOM      5  C7  UNL d   1       1.074  -1.879  -0.140  0.00  0.00     0.002 A 
ATOM      6  C8  UNL d   1       1.150  -0.761  -0.972  0.00  0.00     0.002 A 
ENDROOT
BRANCH   1   7
ATOM      7  C2  UNL d   1       0.548   1.624  -1.550  0.00  0.00     0.056 C 
BRANCH   7   8
ATOM      8  C1  UNL d   1       1.976   1.940  -2.009  0.00  0.00     0.007 C 
ATOM      9  C   UNL d   1       2.127   1.966  -3.524  0.00  0.00     0.009 C 
ENDBRANCH   7   8
ENDBRANCH   1   7
TORSDOF 2
ENDMDL
