MODEL 1
REMARK minimizedAffinity -4.78371334
REMARK minimizedRMSD -1
REMARK  2 active torsions:
REMARK  status: ('A' for Active; 'I' for Inactive)
REMARK    1  A    between atoms: C1_2  and  C2_3 
REMARK    2  A    between atoms: C2_3  and  C3_4 
ROOT
ATOM      1  C3  UNL d   1       0.161   0.851  -1.079  0.00  0.00    -0.075 A 
ATOM      2  C4  UNL d   1      -0.459   0.930  -2.334  0.00  0.00     0.002 A 
ATOM      3  C5  UNL d   1       0.152   1.617  -3.383  0.00  0.00     0.002 A 
ATOM      4  C6  UNL d   1       1.382   2.242  -3.188  0.00  0.00    -0.004 A 
ATOM      5  C7  UNL d   1       1.999   2.183  -1.940  0.00  0.00     0.002 A 
ATOM      6  C8  UNL d   1       1.392   1.493  -0.890  0.00  0.00     0.002 A 
ENDROOT
BRANCH   1   7
ATOM      7  C2  UNL d   1      -0.481   0.083   0.053  0.00  0.00     0.056 C 
BRANCH   7   8
ATOM      8  C1  UNL d   1       0.023  -1.356   0.195  0.00  0.00     0.007 C 
ATOM      9  C   UNL d   1      -0.804  -2.190   1.164  0.00  0.00     0.009 C 
ENDBRANCH   7   8
ENDBRANCH   1   7
TORSDOF 2
ENDMDL
