MODEL 1
REMARK minimizedAffinity -5.77833891
REMARK minimizedRMSD -1
REMARK  2 active torsions:
REMARK  status: ('A' for Active; 'I' for Inactive)
REMARK    1  A    between atoms: C1_2  and  C2_3 
REMARK    2  A    between atoms: C2_3  and  C3_4 
ROOT
ATOM      1  C3  UNL d   1       0.301   0.196  -0.613  0.00  0.00    -0.075 A 
ATOM      2  C4  UNL d   1      -0.042  -0.068   0.721  0.00  0.00     0.002 A 
ATOM      3  C5  UNL d   1      -0.151  -1.382   1.178  0.00  0.00     0.002 A 
ATOM      4  C6  UNL d   1       0.069  -2.446   0.306  0.00  0.00    -0.004 A 
ATOM      5  C7  UNL d   1       0.394  -2.195  -1.026  0.00  0.00     0.002 A 
ATOM      6  C8  UNL d   1       0.509  -0.882  -1.484  0.00  0.00     0.002 A 
ENDROOT
BRANCH   1   7
ATOM      7  C2  UNL d   1       0.450   1.616  -1.106  0.00  0.00     0.056 C 
BRANCH   7   8
ATOM      8  C1  UNL d   1       0.887   1.725  -2.571  0.00  0.00     0.007 C 
ATOM      9  C   UNL d   1      -0.051   2.577  -3.415  0.00  0.00     0.009 C 
ENDBRANCH   7   8
ENDBRANCH   1   7
TORSDOF 2
ENDMDL
