MODEL 1
REMARK minimizedAffinity -2.81953907
REMARK minimizedRMSD -1
REMARK  2 active torsions:
REMARK  status: ('A' for Active; 'I' for Inactive)
REMARK    1  A    between atoms: C1_2  and  C2_3 
REMARK    2  A    between atoms: C2_3  and  C3_4 
ROOT
ATOM      1  C3  UNL d   1       0.445   0.497  -0.648  0.00  0.00    -0.075 A 
ATOM      2  C4  UNL d   1      -0.895   0.864  -0.455  0.00  0.00     0.002 A 
ATOM      3  C5  UNL d   1      -1.730   0.096   0.356  0.00  0.00     0.002 A 
ATOM      4  C6  UNL d   1      -1.240  -1.052   0.976  0.00  0.00    -0.004 A 
ATOM      5  C7  UNL d   1       0.084  -1.435   0.778  0.00  0.00     0.002 A 
ATOM      6  C8  UNL d   1       0.923  -0.666  -0.030  0.00  0.00     0.002 A 
ENDROOT
BRANCH   1   7
ATOM      7  C2  UNL d   1       1.362   1.340  -1.502  0.00  0.00     0.056 C 
BRANCH   7   8
ATOM      8  C1  UNL d   1       0.643   2.116  -2.611  0.00  0.00     0.007 C 
ATOM      9  C   UNL d   1       1.397   2.107  -3.934  0.00  0.00     0.009 C 
ENDBRANCH   7   8
ENDBRANCH   1   7
TORSDOF 2
ENDMDL
