MODEL 1
REMARK minimizedAffinity -5.76785278
REMARK minimizedRMSD -1
REMARK  2 active torsions:
REMARK  status: ('A' for Active; 'I' for Inactive)
REMARK    1  A    between atoms: C1_2  and  C2_3 
REMARK    2  A    between atoms: C2_3  and  C3_4 
ROOT
ATOM      1  C3  UNL d   1       0.117  -0.296   0.157  0.00  0.00    -0.075 A 
ATOM      2  C4  UNL d   1      -1.285  -0.341   0.136  0.00  0.00     0.002 A 
ATOM      3  C5  UNL d   1      -1.969  -1.401   0.731  0.00  0.00     0.002 A 
ATOM      4  C6  UNL d   1      -1.262  -2.434   1.343  0.00  0.00    -0.004 A 
ATOM      5  C7  UNL d   1       0.131  -2.409   1.354  0.00  0.00     0.002 A 
ATOM      6  C8  UNL d   1       0.818  -1.346   0.764  0.00  0.00     0.002 A 
ENDROOT
BRANCH   1   7
ATOM      7  C2  UNL d   1       0.862   0.864  -0.459  0.00  0.00     0.056 C 
BRANCH   7   8
ATOM      8  C1  UNL d   1       0.662   1.001  -1.972  0.00  0.00     0.007 C 
ATOM      9  C   UNL d   1       1.755   1.816  -2.651  0.00  0.00     0.009 C 
ENDBRANCH   7   8
ENDBRANCH   1   7
TORSDOF 2
ENDMDL
