MODEL 1
REMARK minimizedAffinity -3.42112827
REMARK minimizedRMSD -1
REMARK  0 active torsions:
REMARK  status: ('A' for Active; 'I' for Inactive)
ROOT
ATOM      1  C   UNL d   1       1.239   0.072   0.405  0.00  0.00     0.172 C 
ATOM      2  N   UNL d   1       1.401   1.435   0.852  0.00  0.00    -0.070 N 
ATOM      3  C1  UNL d   1       0.511   2.133   1.624  0.00  0.00    -0.004 A 
ATOM      4  C2  UNL d   1       1.030   3.393   1.832  0.00  0.00    -0.047 A 
ATOM      5  C3  UNL d   1       2.274   3.454   1.161  0.00  0.00    -0.047 A 
ATOM      6  C4  UNL d   1       2.479   2.229   0.563  0.00  0.00    -0.004 A 
ENDROOT
TORSDOF 0
ENDMDL
