MODEL 1
REMARK minimizedAffinity -2.24106598
REMARK minimizedRMSD -1
REMARK  0 active torsions:
REMARK  status: ('A' for Active; 'I' for Inactive)
ROOT
ATOM      1  C   UNL d   1       2.546   2.639   0.691  0.00  0.00     0.172 C 
ATOM      2  N   UNL d   1       1.564   1.608   0.448  0.00  0.00    -0.070 N 
ATOM      3  C1  UNL d   1       0.474   1.721  -0.372  0.00  0.00    -0.004 A 
ATOM      4  C2  UNL d   1      -0.210   0.525  -0.333  0.00  0.00    -0.047 A 
ATOM      5  C3  UNL d   1       0.494  -0.337   0.542  0.00  0.00    -0.047 A 
ATOM      6  C4  UNL d   1       1.588   0.359   1.011  0.00  0.00    -0.004 A 
ENDROOT
TORSDOF 0
ENDMDL
