MODEL 1
REMARK minimizedAffinity -2.50630832
REMARK minimizedRMSD -1
REMARK  0 active torsions:
REMARK  status: ('A' for Active; 'I' for Inactive)
ROOT
ATOM      1  C   UNL d   1       1.004   0.893   0.221  0.00  0.00     0.172 C 
ATOM      2  N   UNL d   1      -0.198   0.210  -0.198  0.00  0.00    -0.070 N 
ATOM      3  C1  UNL d   1      -0.995  -0.566   0.599  0.00  0.00    -0.004 A 
ATOM      4  C2  UNL d   1      -2.036  -1.035  -0.173  0.00  0.00    -0.047 A 
ATOM      5  C3  UNL d   1      -1.858  -0.523  -1.480  0.00  0.00    -0.047 A 
ATOM      6  C4  UNL d   1      -0.712   0.245  -1.468  0.00  0.00    -0.004 A 
ENDROOT
TORSDOF 0
ENDMDL
