MODEL 1
REMARK minimizedAffinity -0.746112645
REMARK minimizedRMSD -1
REMARK  0 active torsions:
REMARK  status: ('A' for Active; 'I' for Inactive)
ROOT
ATOM      1  C   UNL d   1       2.402   1.814   0.732  0.00  0.00     0.172 C 
ATOM      2  N   UNL d   1       1.354   0.836   0.555  0.00  0.00    -0.070 N 
ATOM      3  C1  UNL d   1       0.038   1.114   0.299  0.00  0.00    -0.004 A 
ATOM      4  C2  UNL d   1      -0.634  -0.085   0.198  0.00  0.00    -0.047 A 
ATOM      5  C3  UNL d   1       0.311  -1.119   0.401  0.00  0.00    -0.047 A 
ATOM      6  C4  UNL d   1       1.533  -0.520   0.621  0.00  0.00    -0.004 A 
ENDROOT
TORSDOF 0
ENDMDL
