MODEL 1
REMARK minimizedAffinity -4.16073036
REMARK minimizedRMSD -1
REMARK  0 active torsions:
REMARK  status: ('A' for Active; 'I' for Inactive)
ROOT
ATOM      1  C   UNL d   1       0.167   0.122  -0.280  0.00  0.00     0.172 C 
ATOM      2  N   UNL d   1      -1.222  -0.250  -0.413  0.00  0.00    -0.070 N 
ATOM      3  C1  UNL d   1      -1.992  -0.824   0.563  0.00  0.00    -0.004 A 
ATOM      4  C2  UNL d   1      -3.253  -1.021   0.043  0.00  0.00    -0.047 A 
ATOM      5  C3  UNL d   1      -3.240  -0.551  -1.291  0.00  0.00    -0.047 A 
ATOM      6  C4  UNL d   1      -1.970  -0.078  -1.548  0.00  0.00    -0.004 A 
ENDROOT
TORSDOF 0
ENDMDL
