MODEL 1
REMARK minimizedAffinity -3.48474693
REMARK minimizedRMSD -1
REMARK  0 active torsions:
REMARK  status: ('A' for Active; 'I' for Inactive)
ROOT
ATOM      1  C   UNL d   1      -2.262  -1.181  -2.132  0.00  0.00     0.172 C 
ATOM      2  N   UNL d   1      -1.556  -0.457  -1.101  0.00  0.00    -0.070 N 
ATOM      3  C1  UNL d   1      -2.120   0.084   0.023  0.00  0.00    -0.004 A 
ATOM      4  C2  UNL d   1      -1.117   0.688   0.749  0.00  0.00    -0.047 A 
ATOM      5  C3  UNL d   1       0.091   0.506   0.036  0.00  0.00    -0.047 A 
ATOM      6  C4  UNL d   1      -0.210  -0.206  -1.106  0.00  0.00    -0.004 A 
ENDROOT
TORSDOF 0
ENDMDL
