MODEL 1
REMARK minimizedAffinity -3.01153874
REMARK minimizedRMSD -1
REMARK  0 active torsions:
REMARK  status: ('A' for Active; 'I' for Inactive)
ROOT
ATOM      1  C   UNL d   1       0.339   0.527   0.362  0.00  0.00     0.172 C 
ATOM      2  N   UNL d   1      -0.672  -0.162  -0.405  0.00  0.00    -0.070 N 
ATOM      3  C1  UNL d   1      -1.030   0.125  -1.695  0.00  0.00    -0.004 A 
ATOM      4  C2  UNL d   1      -2.024  -0.755  -2.064  0.00  0.00    -0.047 A 
ATOM      5  C3  UNL d   1      -2.273  -1.601  -0.956  0.00  0.00    -0.047 A 
ATOM      6  C4  UNL d   1      -1.422  -1.212   0.057  0.00  0.00    -0.004 A 
ENDROOT
TORSDOF 0
ENDMDL
