MODEL 1
REMARK minimizedAffinity -3.39972138
REMARK minimizedRMSD -1
REMARK  0 active torsions:
REMARK  status: ('A' for Active; 'I' for Inactive)
ROOT
ATOM      1  C   UNL d   1      -3.039  -0.642  -0.166  0.00  0.00     0.172 C 
ATOM      2  N   UNL d   1      -1.650  -0.264  -0.280  0.00  0.00    -0.070 N 
ATOM      3  C1  UNL d   1      -1.085   0.393  -1.341  0.00  0.00    -0.004 A 
ATOM      4  C2  UNL d   1       0.254   0.567  -1.065  0.00  0.00    -0.047 A 
ATOM      5  C3  UNL d   1       0.503  -0.006   0.205  0.00  0.00    -0.047 A 
ATOM      6  C4  UNL d   1      -0.693  -0.513   0.668  0.00  0.00    -0.004 A 
ENDROOT
TORSDOF 0
ENDMDL
