MODEL 1
REMARK minimizedAffinity -2.80909753
REMARK minimizedRMSD -1
REMARK  0 active torsions:
REMARK  status: ('A' for Active; 'I' for Inactive)
ROOT
ATOM      1  C   UNL d   1      -3.042  -1.310  -0.049  0.00  0.00     0.172 C 
ATOM      2  N   UNL d   1      -1.617  -1.141   0.120  0.00  0.00    -0.070 N 
ATOM      3  C1  UNL d   1      -0.820  -1.876   0.956  0.00  0.00    -0.004 A 
ATOM      4  C2  UNL d   1       0.470  -1.408   0.827  0.00  0.00    -0.047 A 
ATOM      5  C3  UNL d   1       0.447  -0.355  -0.118  0.00  0.00    -0.047 A 
ATOM      6  C4  UNL d   1      -0.858  -0.211  -0.540  0.00  0.00    -0.004 A 
ENDROOT
TORSDOF 0
ENDMDL
