MODEL 1
REMARK minimizedAffinity -0.79749012
REMARK minimizedRMSD -1
REMARK  0 active torsions:
REMARK  status: ('A' for Active; 'I' for Inactive)
ROOT
ATOM      1  C   UNL d   1       0.299  -0.154  -0.827  0.00  0.00     0.172 C 
ATOM      2  N   UNL d   1      -0.546  -0.438   0.310  0.00  0.00    -0.070 N 
ATOM      3  C1  UNL d   1      -0.186  -1.172   1.408  0.00  0.00    -0.004 A 
ATOM      4  C2  UNL d   1      -1.267  -1.211   2.262  0.00  0.00    -0.047 A 
ATOM      5  C3  UNL d   1      -2.313  -0.475   1.656  0.00  0.00    -0.047 A 
ATOM      6  C4  UNL d   1      -1.839  -0.008   0.448  0.00  0.00    -0.004 A 
ENDROOT
TORSDOF 0
ENDMDL
