MODEL 1
REMARK minimizedAffinity -3.31984425
REMARK minimizedRMSD -1
REMARK  0 active torsions:
REMARK  status: ('A' for Active; 'I' for Inactive)
ROOT
ATOM      1  C   UNL d   1       0.511   0.353  -0.118  0.00  0.00     0.172 C 
ATOM      2  N   UNL d   1      -0.836   0.109  -0.576  0.00  0.00    -0.070 N 
ATOM      3  C1  UNL d   1      -1.813  -0.543   0.128  0.00  0.00    -0.004 A 
ATOM      4  C2  UNL d   1      -2.950  -0.568  -0.651  0.00  0.00    -0.047 A 
ATOM      5  C3  UNL d   1      -2.645   0.090  -1.866  0.00  0.00    -0.047 A 
ATOM      6  C4  UNL d   1      -1.330   0.499  -1.793  0.00  0.00    -0.004 A 
ENDROOT
TORSDOF 0
ENDMDL
