MODEL 1
REMARK minimizedAffinity -3.8962307
REMARK minimizedRMSD -1
REMARK  0 active torsions:
REMARK  status: ('A' for Active; 'I' for Inactive)
ROOT
ATOM      1  C   UNL d   1       0.306  -0.027  -0.091  0.00  0.00     0.172 C 
ATOM      2  N   UNL d   1      -1.059  -0.226  -0.517  0.00  0.00    -0.070 N 
ATOM      3  C1  UNL d   1      -1.543   0.003  -1.778  0.00  0.00    -0.004 A 
ATOM      4  C2  UNL d   1      -2.886  -0.307  -1.777  0.00  0.00    -0.047 A 
ATOM      5  C3  UNL d   1      -3.221  -0.736  -0.471  0.00  0.00    -0.047 A 
ATOM      6  C4  UNL d   1      -2.071  -0.676   0.289  0.00  0.00    -0.004 A 
ENDROOT
TORSDOF 0
ENDMDL
