MODEL 1
REMARK minimizedAffinity -3.50229955
REMARK minimizedRMSD -1
REMARK  0 active torsions:
REMARK  status: ('A' for Active; 'I' for Inactive)
ROOT
ATOM      1  C   UNL d   1      -1.075   0.336  -2.257  0.00  0.00     0.172 C 
ATOM      2  N   UNL d   1      -0.615  -0.093  -0.957  0.00  0.00    -0.070 N 
ATOM      3  C1  UNL d   1      -1.404  -0.595   0.044  0.00  0.00    -0.004 A 
ATOM      4  C2  UNL d   1      -0.591  -0.884   1.118  0.00  0.00    -0.047 A 
ATOM      5  C3  UNL d   1       0.733  -0.543   0.751  0.00  0.00    -0.047 A 
ATOM      6  C4  UNL d   1       0.689  -0.055  -0.538  0.00  0.00    -0.004 A 
ENDROOT
TORSDOF 0
ENDMDL
