MODEL 1
REMARK minimizedAffinity -3.72595763
REMARK minimizedRMSD -1
REMARK  0 active torsions:
REMARK  status: ('A' for Active; 'I' for Inactive)
ROOT
ATOM      1  C   UNL d   1       1.072   0.427  -0.093  0.00  0.00     0.172 C 
ATOM      2  N   UNL d   1      -0.267   0.075  -0.502  0.00  0.00    -0.070 N 
ATOM      3  C1  UNL d   1      -0.787   0.237  -1.758  0.00  0.00    -0.004 A 
ATOM      4  C2  UNL d   1      -2.087  -0.219  -1.739  0.00  0.00    -0.047 A 
ATOM      5  C3  UNL d   1      -2.359  -0.669  -0.425  0.00  0.00    -0.047 A 
ATOM      6  C4  UNL d   1      -1.215  -0.476   0.320  0.00  0.00    -0.004 A 
ENDROOT
TORSDOF 0
ENDMDL
