MODEL 1
REMARK minimizedAffinity -1.97238064
REMARK minimizedRMSD -1
REMARK  0 active torsions:
REMARK  status: ('A' for Active; 'I' for Inactive)
ROOT
ATOM      1  C   UNL d   1      -0.289   0.220   0.448  0.00  0.00     0.172 C 
ATOM      2  N   UNL d   1       0.956   0.944   0.555  0.00  0.00    -0.070 N 
ATOM      3  C1  UNL d   1       1.169   2.056   1.324  0.00  0.00    -0.004 A 
ATOM      4  C2  UNL d   1       2.480   2.444   1.153  0.00  0.00    -0.047 A 
ATOM      5  C3  UNL d   1       3.076   1.533   0.248  0.00  0.00    -0.047 A 
ATOM      6  C4  UNL d   1       2.110   0.615  -0.106  0.00  0.00    -0.004 A 
ENDROOT
TORSDOF 0
ENDMDL
