MODEL 1
REMARK minimizedAffinity -3.95418954
REMARK minimizedRMSD -1
REMARK  0 active torsions:
REMARK  status: ('A' for Active; 'I' for Inactive)
ROOT
ATOM      1  C   UNL d   1       0.030   1.061   0.461  0.00  0.00     0.172 C 
ATOM      2  N   UNL d   1      -1.034   0.329  -0.185  0.00  0.00    -0.070 N 
ATOM      3  C1  UNL d   1      -1.039  -0.088  -1.489  0.00  0.00    -0.004 A 
ATOM      4  C2  UNL d   1      -2.227  -0.749  -1.717  0.00  0.00    -0.047 A 
ATOM      5  C3  UNL d   1      -2.962  -0.726  -0.508  0.00  0.00    -0.047 A 
ATOM      6  C4  UNL d   1      -2.201  -0.053   0.423  0.00  0.00    -0.004 A 
ENDROOT
TORSDOF 0
ENDMDL
