MODEL 1
REMARK minimizedAffinity -2.65414906
REMARK minimizedRMSD -1
REMARK  0 active torsions:
REMARK  status: ('A' for Active; 'I' for Inactive)
ROOT
ATOM      1  C   UNL d   1      -1.995  -0.167   0.774  0.00  0.00     0.172 C 
ATOM      2  N   UNL d   1      -0.639   0.172   0.413  0.00  0.00    -0.070 N 
ATOM      3  C1  UNL d   1       0.470  -0.034   1.190  0.00  0.00    -0.004 A 
ATOM      4  C2  UNL d   1       1.566   0.423   0.492  0.00  0.00    -0.047 A 
ATOM      5  C3  UNL d   1       1.101   0.921  -0.749  0.00  0.00    -0.047 A 
ATOM      6  C4  UNL d   1      -0.268   0.753  -0.771  0.00  0.00    -0.004 A 
ENDROOT
TORSDOF 0
ENDMDL
