MODEL 1
REMARK minimizedAffinity -3.63326287
REMARK minimizedRMSD -1
REMARK  0 active torsions:
REMARK  status: ('A' for Active; 'I' for Inactive)
ROOT
ATOM      1  C   UNL d   1       2.343   3.395   1.177  0.00  0.00     0.172 C 
ATOM      2  N   UNL d   1       1.693   2.118   1.356  0.00  0.00    -0.070 N 
ATOM      3  C1  UNL d   1       1.814   1.037   0.524  0.00  0.00    -0.004 A 
ATOM      4  C2  UNL d   1       1.041   0.019   1.040  0.00  0.00    -0.047 A 
ATOM      5  C3  UNL d   1       0.434   0.505   2.222  0.00  0.00    -0.047 A 
ATOM      6  C4  UNL d   1       0.854   1.807   2.394  0.00  0.00    -0.004 A 
ENDROOT
TORSDOF 0
ENDMDL
