MODEL 1
REMARK minimizedAffinity -2.01741791
REMARK minimizedRMSD -1
REMARK  0 active torsions:
REMARK  status: ('A' for Active; 'I' for Inactive)
ROOT
ATOM      1  C   UNL d   1      -0.416   0.053   0.019  0.00  0.00     0.172 C 
ATOM      2  N   UNL d   1      -1.324  -0.365  -1.024  0.00  0.00    -0.070 N 
ATOM      3  C1  UNL d   1      -1.844   0.442  -2.001  0.00  0.00    -0.004 A 
ATOM      4  C2  UNL d   1      -2.662  -0.332  -2.796  0.00  0.00    -0.047 A 
ATOM      5  C3  UNL d   1      -2.634  -1.648  -2.278  0.00  0.00    -0.047 A 
ATOM      6  C4  UNL d   1      -1.798  -1.640  -1.181  0.00  0.00    -0.004 A 
ENDROOT
TORSDOF 0
ENDMDL
