MODEL 1
REMARK minimizedAffinity -2.112957
REMARK minimizedRMSD -1
REMARK  0 active torsions:
REMARK  status: ('A' for Active; 'I' for Inactive)
ROOT
ATOM      1  C   UNL d   1       0.822  -1.733   2.374  0.00  0.00     0.020 A 
ATOM      2  C1  UNL d   1      -0.147  -0.758   2.607  0.00  0.00     0.020 A 
ATOM      3  C2  UNL d   1      -0.503   0.130   1.590  0.00  0.00     0.034 A 
ATOM      4  C3  UNL d   1       0.110   0.045   0.334  0.00  0.00     0.017 A 
ATOM      5  C4  UNL d   1       1.082  -0.935   0.101  0.00  0.00     0.017 A 
ATOM      6  C5  UNL d   1       1.435  -1.821   1.123  0.00  0.00     0.034 A 
ATOM      7 Cl   UNL d   1       1.882  -1.102  -1.422  0.00  0.00    -0.070 Cl
ATOM      8 Cl1  UNL d   1      -0.379   1.175  -0.878  0.00  0.00    -0.070 Cl
ENDROOT
TORSDOF 0
ENDMDL
