MODEL 1
REMARK minimizedAffinity 3.3706708
REMARK minimizedRMSD -1
REMARK  0 active torsions:
REMARK  status: ('A' for Active; 'I' for Inactive)
ROOT
ATOM      1  C   UNL d   1       3.384  -1.498  -1.044  0.00  0.00     0.020 A 
ATOM      2  C1  UNL d   1       4.034  -1.520  -2.277  0.00  0.00     0.020 A 
ATOM      3  C2  UNL d   1       3.917  -2.636  -3.109  0.00  0.00     0.034 A 
ATOM      4  C3  UNL d   1       3.148  -3.735  -2.708  0.00  0.00     0.017 A 
ATOM      5  C4  UNL d   1       2.495  -3.712  -1.470  0.00  0.00     0.017 A 
ATOM      6  C5  UNL d   1       2.616  -2.592  -0.642  0.00  0.00     0.034 A 
ATOM      7 Cl   UNL d   1       1.529  -5.029  -0.908  0.00  0.00    -0.070 Cl
ATOM      8 Cl1  UNL d   1       3.047  -5.081  -3.787  0.00  0.00    -0.070 Cl
ENDROOT
TORSDOF 0
ENDMDL
