MODEL 1
REMARK minimizedAffinity 5.51331758
REMARK minimizedRMSD -1
REMARK  0 active torsions:
REMARK  status: ('A' for Active; 'I' for Inactive)
ROOT
ATOM      1  C   UNL d   1      -0.078   3.704  -1.759  0.00  0.00     0.020 A 
ATOM      2  C1  UNL d   1       0.225   4.491  -0.648  0.00  0.00     0.020 A 
ATOM      3  C2  UNL d   1      -0.000   3.998   0.639  0.00  0.00     0.034 A 
ATOM      4  C3  UNL d   1      -0.529   2.715   0.819  0.00  0.00     0.017 A 
ATOM      5  C4  UNL d   1      -0.832   1.925  -0.296  0.00  0.00     0.017 A 
ATOM      6  C5  UNL d   1      -0.605   2.424  -1.583  0.00  0.00     0.034 A 
ATOM      7 Cl   UNL d   1      -1.487   0.332  -0.154  0.00  0.00    -0.070 Cl
ATOM      8 Cl1  UNL d   1      -0.782   2.169   2.439  0.00  0.00    -0.070 Cl
ENDROOT
TORSDOF 0
ENDMDL
