MODEL 1
REMARK minimizedAffinity 6.24616051
REMARK minimizedRMSD -1
REMARK  0 active torsions:
REMARK  status: ('A' for Active; 'I' for Inactive)
ROOT
ATOM      1  C   UNL d   1       4.759  -3.065  -2.300  0.00  0.00     0.020 A 
ATOM      2  C1  UNL d   1       4.442  -2.462  -1.083  0.00  0.00     0.020 A 
ATOM      3  C2  UNL d   1       3.380  -2.950  -0.319  0.00  0.00     0.034 A 
ATOM      4  C3  UNL d   1       2.631  -4.043  -0.770  0.00  0.00     0.017 A 
ATOM      5  C4  UNL d   1       2.951  -4.647  -1.992  0.00  0.00     0.017 A 
ATOM      6  C5  UNL d   1       4.015  -4.155  -2.753  0.00  0.00     0.034 A 
ATOM      7 Cl   UNL d   1       2.073  -6.000  -2.615  0.00  0.00    -0.070 Cl
ATOM      8 Cl1  UNL d   1       1.332  -4.594   0.226  0.00  0.00    -0.070 Cl
ENDROOT
TORSDOF 0
ENDMDL
