MODEL 1
REMARK minimizedAffinity 1.40297616
REMARK minimizedRMSD -1
REMARK  0 active torsions:
REMARK  status: ('A' for Active; 'I' for Inactive)
ROOT
ATOM      1  C   UNL d   1       5.044  -3.778  -1.390  0.00  0.00     0.020 A 
ATOM      2  C1  UNL d   1       5.204  -2.418  -1.651  0.00  0.00     0.020 A 
ATOM      3  C2  UNL d   1       4.663  -1.471  -0.778  0.00  0.00     0.034 A 
ATOM      4  C3  UNL d   1       3.958  -1.883   0.359  0.00  0.00     0.017 A 
ATOM      5  C4  UNL d   1       3.798  -3.249   0.620  0.00  0.00     0.017 A 
ATOM      6  C5  UNL d   1       4.343  -4.193  -0.257  0.00  0.00     0.034 A 
ATOM      7 Cl   UNL d   1       2.943  -3.834   2.003  0.00  0.00    -0.070 Cl
ATOM      8 Cl1  UNL d   1       3.316  -0.658   1.394  0.00  0.00    -0.070 Cl
ENDROOT
TORSDOF 0
ENDMDL
