MODEL 1
REMARK minimizedAffinity 4.09288073
REMARK minimizedRMSD -1
REMARK  0 active torsions:
REMARK  status: ('A' for Active; 'I' for Inactive)
ROOT
ATOM      1  C   UNL d   1       3.353  -2.387  -3.207  0.00  0.00     0.020 A 
ATOM      2  C1  UNL d   1       3.583  -2.235  -1.840  0.00  0.00     0.020 A 
ATOM      3  C2  UNL d   1       4.212  -3.253  -1.121  0.00  0.00     0.034 A 
ATOM      4  C3  UNL d   1       4.613  -4.428  -1.767  0.00  0.00     0.017 A 
ATOM      5  C4  UNL d   1       4.382  -4.580  -3.139  0.00  0.00     0.017 A 
ATOM      6  C5  UNL d   1       3.752  -3.557  -3.855  0.00  0.00     0.034 A 
ATOM      7 Cl   UNL d   1       4.849  -6.000  -4.007  0.00  0.00    -0.070 Cl
ATOM      8 Cl1  UNL d   1       5.386  -5.645  -0.816  0.00  0.00    -0.070 Cl
ENDROOT
TORSDOF 0
ENDMDL
