MODEL 1
REMARK minimizedAffinity 0.820857406
REMARK minimizedRMSD -1
REMARK  0 active torsions:
REMARK  status: ('A' for Active; 'I' for Inactive)
ROOT
ATOM      1  C   UNL d   1       4.140  -5.998  -2.698  0.00  0.00     0.020 A 
ATOM      2  C1  UNL d   1       4.887  -5.985  -1.521  0.00  0.00     0.020 A 
ATOM      3  C2  UNL d   1       5.350  -4.774  -1.001  0.00  0.00     0.034 A 
ATOM      4  C3  UNL d   1       5.066  -3.572  -1.659  0.00  0.00     0.017 A 
ATOM      5  C4  UNL d   1       4.315  -3.586  -2.840  0.00  0.00     0.017 A 
ATOM      6  C5  UNL d   1       3.854  -4.801  -3.356  0.00  0.00     0.034 A 
ATOM      7 Cl   UNL d   1       3.924  -2.143  -3.707  0.00  0.00    -0.070 Cl
ATOM      8 Cl1  UNL d   1       5.669  -2.112  -0.959  0.00  0.00    -0.070 Cl
ENDROOT
TORSDOF 0
ENDMDL
