MODEL 1
REMARK minimizedAffinity 4.39848566
REMARK minimizedRMSD -1
REMARK  0 active torsions:
REMARK  status: ('A' for Active; 'I' for Inactive)
ROOT
ATOM      1  C   UNL d   1       4.836  -5.449  -1.465  0.00  0.00     0.020 A 
ATOM      2  C1  UNL d   1       4.733  -5.474  -2.856  0.00  0.00     0.020 A 
ATOM      3  C2  UNL d   1       4.362  -4.320  -3.549  0.00  0.00     0.034 A 
ATOM      4  C3  UNL d   1       4.093  -3.136  -2.853  0.00  0.00     0.017 A 
ATOM      5  C4  UNL d   1       4.197  -3.112  -1.457  0.00  0.00     0.017 A 
ATOM      6  C5  UNL d   1       4.568  -4.270  -0.768  0.00  0.00     0.034 A 
ATOM      7 Cl   UNL d   1       3.880  -1.688  -0.529  0.00  0.00    -0.070 Cl
ATOM      8 Cl1  UNL d   1       3.640  -1.746  -3.775  0.00  0.00    -0.070 Cl
ENDROOT
TORSDOF 0
ENDMDL
