MODEL 1
REMARK minimizedAffinity -4.18801403
REMARK minimizedRMSD -1
REMARK  0 active torsions:
REMARK  status: ('A' for Active; 'I' for Inactive)
ROOT
ATOM      1  C   UNL d   1       3.433  -4.337  -3.592  0.00  0.00     0.020 A 
ATOM      2  C1  UNL d   1       3.204  -2.962  -3.578  0.00  0.00     0.020 A 
ATOM      3  C2  UNL d   1       3.661  -2.189  -2.509  0.00  0.00     0.034 A 
ATOM      4  C3  UNL d   1       4.349  -2.790  -1.449  0.00  0.00     0.017 A 
ATOM      5  C4  UNL d   1       4.579  -4.171  -1.464  0.00  0.00     0.017 A 
ATOM      6  C5  UNL d   1       4.119  -4.940  -2.537  0.00  0.00     0.034 A 
ATOM      7 Cl   UNL d   1       5.421  -4.984  -0.192  0.00  0.00    -0.070 Cl
ATOM      8 Cl1  UNL d   1       4.886  -1.773  -0.159  0.00  0.00    -0.070 Cl
ENDROOT
TORSDOF 0
ENDMDL
