MODEL 1
REMARK minimizedAffinity -0.210865393
REMARK minimizedRMSD -1
REMARK  0 active torsions:
REMARK  status: ('A' for Active; 'I' for Inactive)
ROOT
ATOM      1  C   UNL d   1       3.986  -5.191  -3.924  0.00  0.00     0.020 A 
ATOM      2  C1  UNL d   1       3.303  -3.981  -4.039  0.00  0.00     0.020 A 
ATOM      3  C2  UNL d   1       3.415  -3.017  -3.035  0.00  0.00     0.034 A 
ATOM      4  C3  UNL d   1       4.213  -3.262  -1.911  0.00  0.00     0.017 A 
ATOM      5  C4  UNL d   1       4.898  -4.477  -1.796  0.00  0.00     0.017 A 
ATOM      6  C5  UNL d   1       4.782  -5.438  -2.805  0.00  0.00     0.034 A 
ATOM      7 Cl   UNL d   1       5.901  -4.851  -0.439  0.00  0.00    -0.070 Cl
ATOM      8 Cl1  UNL d   1       4.307  -2.025  -0.708  0.00  0.00    -0.070 Cl
ENDROOT
TORSDOF 0
ENDMDL
