MODEL 1
REMARK minimizedAffinity -3.31082678
REMARK minimizedRMSD -1
REMARK  0 active torsions:
REMARK  status: ('A' for Active; 'I' for Inactive)
ROOT
ATOM      1  C2' OXE d   1       2.788   0.834   0.938  0.00  0.00     0.078 C 
ATOM      2  C1' OXE d   1       1.026   2.793  -0.030  0.00  0.00     0.078 C 
ATOM      3  C1  OXE d   1       0.532   1.369   0.027  0.00  0.00    -0.078 A 
ATOM      4  C2  OXE d   1       1.416   0.410   0.458  0.00  0.00    -0.078 A 
ATOM      5  C3  OXE d   1       0.994  -0.911   0.583  0.00  0.00     0.003 A 
ATOM      6  C4  OXE d   1      -0.273  -1.296   0.128  0.00  0.00    -0.002 A 
ATOM      7  C5  OXE d   1      -1.175  -0.341  -0.352  0.00  0.00    -0.002 A 
ATOM      8  C6  OXE d   1      -0.805   0.999  -0.369  0.00  0.00     0.003 A 
ENDROOT
TORSDOF 0
ENDMDL
