MODEL 1
REMARK minimizedAffinity -5.03657818
REMARK minimizedRMSD -1
REMARK  0 active torsions:
REMARK  status: ('A' for Active; 'I' for Inactive)
ROOT
ATOM      1  C2' OXE d   1      -1.237  -1.932   1.237  0.00  0.00     0.078 C 
ATOM      2  C1' OXE d   1      -1.668   0.166  -0.577  0.00  0.00     0.078 C 
ATOM      3  C1  OXE d   1      -0.287   0.018   0.013  0.00  0.00    -0.078 A 
ATOM      4  C2  OXE d   1      -0.098  -0.983   0.936  0.00  0.00    -0.078 A 
ATOM      5  C3  OXE d   1       1.169  -1.197   1.470  0.00  0.00     0.003 A 
ATOM      6  C4  OXE d   1       2.215  -0.308   1.193  0.00  0.00    -0.002 A 
ATOM      7  C5  OXE d   1       2.033   0.742   0.287  0.00  0.00    -0.002 A 
ATOM      8  C6  OXE d   1       0.802   0.893  -0.343  0.00  0.00     0.003 A 
ENDROOT
TORSDOF 0
ENDMDL
