MODEL 1
REMARK minimizedAffinity -3.78084564
REMARK minimizedRMSD -1
REMARK  0 active torsions:
REMARK  status: ('A' for Active; 'I' for Inactive)
ROOT
ATOM      1  C2' OXE d   1      -1.764  -0.635   0.434  0.00  0.00     0.078 C 
ATOM      2  C1' OXE d   1       0.334  -2.005   1.699  0.00  0.00     0.078 C 
ATOM      3  C1  OXE d   1       0.625  -0.635   1.139  0.00  0.00    -0.078 A 
ATOM      4  C2  OXE d   1      -0.395   0.009   0.481  0.00  0.00    -0.078 A 
ATOM      5  C3  OXE d   1      -0.195   1.297  -0.006  0.00  0.00     0.003 A 
ATOM      6  C4  OXE d   1       1.077   1.881   0.033  0.00  0.00    -0.002 A 
ATOM      7  C5  OXE d   1       2.140   1.226   0.663  0.00  0.00    -0.002 A 
ATOM      8  C6  OXE d   1       1.921  -0.012   1.258  0.00  0.00     0.003 A 
ENDROOT
TORSDOF 0
ENDMDL
