MODEL 1
REMARK minimizedAffinity -3.35304403
REMARK minimizedRMSD -1
REMARK  0 active torsions:
REMARK  status: ('A' for Active; 'I' for Inactive)
ROOT
ATOM      1  C2' OXE d   1      -1.522  -0.596  -0.173  0.00  0.00     0.078 C 
ATOM      2  C1' OXE d   1       0.506  -2.001   1.166  0.00  0.00     0.078 C 
ATOM      3  C1  OXE d   1       0.811  -0.600   0.699  0.00  0.00    -0.078 A 
ATOM      4  C2  OXE d   1      -0.171   0.063   0.004  0.00  0.00    -0.078 A 
ATOM      5  C3  OXE d   1       0.039   1.378  -0.402  0.00  0.00     0.003 A 
ATOM      6  C4  OXE d   1       1.295   1.977  -0.243  0.00  0.00    -0.002 A 
ATOM      7  C5  OXE d   1       2.322   1.305   0.427  0.00  0.00    -0.002 A 
ATOM      8  C6  OXE d   1       2.084   0.035   0.941  0.00  0.00     0.003 A 
ENDROOT
TORSDOF 0
ENDMDL
