MODEL 1
REMARK minimizedAffinity -2.54246473
REMARK minimizedRMSD -1
REMARK  0 active torsions:
REMARK  status: ('A' for Active; 'I' for Inactive)
ROOT
ATOM      1  C2' OXE d   1       0.035   0.514   0.047  0.00  0.00     0.078 C 
ATOM      2  C1' OXE d   1       2.755   0.926   0.605  0.00  0.00     0.078 C 
ATOM      3  C1  OXE d   1       2.060  -0.219   1.298  0.00  0.00    -0.078 A 
ATOM      4  C2  OXE d   1       0.718  -0.385   1.055  0.00  0.00    -0.078 A 
ATOM      5  C3  OXE d   1       0.041  -1.459   1.626  0.00  0.00     0.003 A 
ATOM      6  C4  OXE d   1       0.678  -2.279   2.565  0.00  0.00    -0.002 A 
ATOM      7  C5  OXE d   1       2.034  -2.103   2.858  0.00  0.00    -0.002 A 
ATOM      8  C6  OXE d   1       2.749  -1.107   2.202  0.00  0.00     0.003 A 
ENDROOT
TORSDOF 0
ENDMDL
