MODEL 1
REMARK minimizedAffinity -2.69529748
REMARK minimizedRMSD -1
REMARK  0 active torsions:
REMARK  status: ('A' for Active; 'I' for Inactive)
ROOT
ATOM      1  C2' OXE d   1      -1.278  -0.557  -0.688  0.00  0.00     0.078 C 
ATOM      2  C1' OXE d   1      -0.129  -2.073   1.377  0.00  0.00     0.078 C 
ATOM      3  C1  OXE d   1       0.554  -0.786   0.984  0.00  0.00    -0.078 A 
ATOM      4  C2  OXE d   1       0.011  -0.075  -0.058  0.00  0.00    -0.078 A 
ATOM      5  C3  OXE d   1       0.570   1.146  -0.425  0.00  0.00     0.003 A 
ATOM      6  C4  OXE d   1       1.768   1.580   0.156  0.00  0.00    -0.002 A 
ATOM      7  C5  OXE d   1       2.359   0.851   1.192  0.00  0.00    -0.002 A 
ATOM      8  C6  OXE d   1       1.744  -0.311   1.646  0.00  0.00     0.003 A 
ENDROOT
TORSDOF 0
ENDMDL
