MODEL 1
REMARK minimizedAffinity -5.31476498
REMARK minimizedRMSD -1
REMARK  0 active torsions:
REMARK  status: ('A' for Active; 'I' for Inactive)
ROOT
ATOM      1  C2' OXE d   1      -1.038  -0.129   0.001  0.00  0.00     0.078 C 
ATOM      2  C1' OXE d   1       1.130   1.649  -0.140  0.00  0.00     0.078 C 
ATOM      3  C1  OXE d   1       1.260   0.452   0.769  0.00  0.00    -0.078 A 
ATOM      4  C2  OXE d   1       0.176  -0.387   0.868  0.00  0.00    -0.078 A 
ATOM      5  C3  OXE d   1       0.263  -1.535   1.650  0.00  0.00     0.003 A 
ATOM      6  C4  OXE d   1       1.385  -1.761   2.456  0.00  0.00    -0.002 A 
ATOM      7  C5  OXE d   1       2.484  -0.897   2.400  0.00  0.00    -0.002 A 
ATOM      8  C6  OXE d   1       2.455   0.188   1.532  0.00  0.00     0.003 A 
ENDROOT
TORSDOF 0
ENDMDL
