MODEL 1
REMARK minimizedAffinity -4.64515829
REMARK minimizedRMSD -1
REMARK  0 active torsions:
REMARK  status: ('A' for Active; 'I' for Inactive)
ROOT
ATOM      1  C2' OXE d   1       0.745   2.288  -0.175  0.00  0.00     0.078 C 
ATOM      2  C1' OXE d   1       2.713   0.696   1.039  0.00  0.00     0.078 C 
ATOM      3  C1  OXE d   1       1.343   0.094   0.844  0.00  0.00    -0.078 A 
ATOM      4  C2  OXE d   1       0.374   0.896   0.292  0.00  0.00    -0.078 A 
ATOM      5  C3  OXE d   1      -0.891   0.374   0.039  0.00  0.00     0.003 A 
ATOM      6  C4  OXE d   1      -1.229  -0.911   0.482  0.00  0.00    -0.002 A 
ATOM      7  C5  OXE d   1      -0.268  -1.730   1.083  0.00  0.00    -0.002 A 
ATOM      8  C6  OXE d   1       1.032  -1.259   1.232  0.00  0.00     0.003 A 
ENDROOT
TORSDOF 0
ENDMDL
