MODEL 1
REMARK minimizedAffinity 2.46640635
REMARK minimizedRMSD -1
REMARK  0 active torsions:
REMARK  status: ('A' for Active; 'I' for Inactive)
ROOT
ATOM      1  C2' OXE d   1       2.683   1.119   1.575  0.00  0.00     0.078 C 
ATOM      2  C1' OXE d   1       0.389   0.554   0.058  0.00  0.00     0.078 C 
ATOM      3  C1  OXE d   1       0.779  -0.427   1.136  0.00  0.00    -0.078 A 
ATOM      4  C2  OXE d   1       1.929  -0.166   1.842  0.00  0.00    -0.078 A 
ATOM      5  C3  OXE d   1       2.304  -1.009   2.884  0.00  0.00     0.003 A 
ATOM      6  C4  OXE d   1       1.607  -2.201   3.117  0.00  0.00    -0.002 A 
ATOM      7  C5  OXE d   1       0.456  -2.506   2.383  0.00  0.00    -0.002 A 
ATOM      8  C6  OXE d   1       0.005  -1.610   1.420  0.00  0.00     0.003 A 
ENDROOT
TORSDOF 0
ENDMDL
