MODEL 1
REMARK minimizedAffinity -1.47761106
REMARK minimizedRMSD -1
REMARK  0 active torsions:
REMARK  status: ('A' for Active; 'I' for Inactive)
ROOT
ATOM      1  C2' OXE d   1       0.774   1.660   0.139  0.00  0.00     0.078 C 
ATOM      2  C1' OXE d   1       2.865   0.695   1.745  0.00  0.00     0.078 C 
ATOM      3  C1  OXE d   1       1.676  -0.205   1.522  0.00  0.00    -0.078 A 
ATOM      4  C2  OXE d   1       0.637   0.292   0.774  0.00  0.00    -0.078 A 
ATOM      5  C3  OXE d   1      -0.460  -0.517   0.492  0.00  0.00     0.003 A 
ATOM      6  C4  OXE d   1      -0.584  -1.777   1.091  0.00  0.00    -0.002 A 
ATOM      7  C5  OXE d   1       0.446  -2.287   1.890  0.00  0.00    -0.002 A 
ATOM      8  C6  OXE d   1       1.598  -1.533   2.080  0.00  0.00     0.003 A 
ENDROOT
TORSDOF 0
ENDMDL
