MODEL 1
REMARK minimizedAffinity 2.34684515
REMARK minimizedRMSD -1
REMARK  0 active torsions:
REMARK  status: ('A' for Active; 'I' for Inactive)
ROOT
ATOM      1  C4' PXY d   1       1.469  -0.216   0.652  0.00  0.00     0.077 C 
ATOM      2  C1' PXY d   1      -3.986  -1.580  -0.690  0.00  0.00     0.077 C 
ATOM      3  C1  PXY d   1      -2.559  -1.211  -0.335  0.00  0.00    -0.082 A 
ATOM      4  C2  PXY d   1      -1.556  -1.879  -0.879  0.00  0.00     0.003 A 
ATOM      5  C3  PXY d   1      -0.260  -1.579  -0.544  0.00  0.00     0.003 A 
ATOM      6  C4  PXY d   1       0.012  -0.549   0.316  0.00  0.00    -0.082 A 
ATOM      7  C5  PXY d   1      -1.006   0.145   0.867  0.00  0.00     0.003 A 
ATOM      8  C6  PXY d   1      -2.315  -0.203   0.546  0.00  0.00     0.003 A 
ENDROOT
TORSDOF 0
ENDMDL
