MODEL 1
REMARK minimizedAffinity -2.41796494
REMARK minimizedRMSD -1
REMARK  0 active torsions:
REMARK  status: ('A' for Active; 'I' for Inactive)
ROOT
ATOM      1  C4' PXY d   1      -1.660   0.349   0.062  0.00  0.00     0.077 C 
ATOM      2  C1' PXY d   1       1.844  -1.179   4.398  0.00  0.00     0.077 C 
ATOM      3  C1  PXY d   1       0.935  -0.776   3.253  0.00  0.00    -0.082 A 
ATOM      4  C2  PXY d   1      -0.300  -0.375   3.509  0.00  0.00     0.003 A 
ATOM      5  C3  PXY d   1      -1.145  -0.038   2.483  0.00  0.00     0.003 A 
ATOM      6  C4  PXY d   1      -0.705  -0.059   1.187  0.00  0.00    -0.082 A 
ATOM      7  C5  PXY d   1       0.557  -0.456   0.919  0.00  0.00     0.003 A 
ATOM      8  C6  PXY d   1       1.387  -0.834   1.971  0.00  0.00     0.003 A 
ENDROOT
TORSDOF 0
ENDMDL
