MODEL 1
REMARK minimizedAffinity 0.00258726976
REMARK minimizedRMSD -1
REMARK  0 active torsions:
REMARK  status: ('A' for Active; 'I' for Inactive)
ROOT
ATOM      1  C4' PXY d   1      -2.610   0.264   0.090  0.00  0.00     0.077 C 
ATOM      2  C1' PXY d   1       0.799  -1.299   4.489  0.00  0.00     0.077 C 
ATOM      3  C1  PXY d   1      -0.106  -0.894   3.342  0.00  0.00    -0.082 A 
ATOM      4  C2  PXY d   1       0.404  -0.737   2.131  0.00  0.00     0.003 A 
ATOM      5  C3  PXY d   1      -0.393  -0.340   1.089  0.00  0.00     0.003 A 
ATOM      6  C4  PXY d   1      -1.736  -0.153   1.276  0.00  0.00    -0.082 A 
ATOM      7  C5  PXY d   1      -2.266  -0.322   2.506  0.00  0.00     0.003 A 
ATOM      8  C6  PXY d   1      -1.432  -0.685   3.560  0.00  0.00     0.003 A 
ENDROOT
TORSDOF 0
ENDMDL
