MODEL 1
REMARK minimizedAffinity -1.13896656
REMARK minimizedRMSD -1
REMARK  0 active torsions:
REMARK  status: ('A' for Active; 'I' for Inactive)
ROOT
ATOM      1  C4' PXY d   1      -4.060  -1.526   3.271  0.00  0.00     0.077 C 
ATOM      2  C1' PXY d   1      -1.581  -0.107  -1.755  0.00  0.00     0.077 C 
ATOM      3  C1  PXY d   1      -2.222  -0.473  -0.430  0.00  0.00    -0.082 A 
ATOM      4  C2  PXY d   1      -3.038  -1.512  -0.363  0.00  0.00     0.003 A 
ATOM      5  C3  PXY d   1      -3.650  -1.838   0.819  0.00  0.00     0.003 A 
ATOM      6  C4  PXY d   1      -3.384  -1.125   1.957  0.00  0.00    -0.082 A 
ATOM      7  C5  PXY d   1      -2.544  -0.070   1.899  0.00  0.00     0.003 A 
ATOM      8  C6  PXY d   1      -1.964   0.270   0.680  0.00  0.00     0.003 A 
ENDROOT
TORSDOF 0
ENDMDL
