MODEL 1
REMARK minimizedAffinity -1.2353003
REMARK minimizedRMSD -1
REMARK  0 active torsions:
REMARK  status: ('A' for Active; 'I' for Inactive)
ROOT
ATOM      1  C4' PXY d   1      -2.228   0.055   0.034  0.00  0.00     0.077 C 
ATOM      2  C1' PXY d   1       1.119  -1.472   4.493  0.00  0.00     0.077 C 
ATOM      3  C1  PXY d   1       0.252  -1.068   3.317  0.00  0.00    -0.082 A 
ATOM      4  C2  PXY d   1      -1.031  -0.807   3.510  0.00  0.00     0.003 A 
ATOM      5  C3  PXY d   1      -1.837  -0.471   2.452  0.00  0.00     0.003 A 
ATOM      6  C4  PXY d   1      -1.313  -0.348   1.194  0.00  0.00    -0.082 A 
ATOM      7  C5  PXY d   1      -0.003  -0.602   0.991  0.00  0.00     0.003 A 
ATOM      8  C6  PXY d   1       0.789  -0.982   2.070  0.00  0.00     0.003 A 
ENDROOT
TORSDOF 0
ENDMDL
