MODEL 1
REMARK minimizedAffinity 5.92484045
REMARK minimizedRMSD -1
REMARK  0 active torsions:
REMARK  status: ('A' for Active; 'I' for Inactive)
ROOT
ATOM      1  C4' PXY d   1       1.297  -1.421   4.503  0.00  0.00     0.077 C 
ATOM      2  C1' PXY d   1      -1.906   0.189  -0.031  0.00  0.00     0.077 C 
ATOM      3  C1  PXY d   1      -1.074  -0.227   1.166  0.00  0.00    -0.082 A 
ATOM      4  C2  PXY d   1       0.203  -0.531   1.001  0.00  0.00     0.003 A 
ATOM      5  C3  PXY d   1       0.962  -0.940   2.068  0.00  0.00     0.003 A 
ATOM      6  C4  PXY d   1       0.422  -0.987   3.325  0.00  0.00    -0.082 A 
ATOM      7  C5  PXY d   1      -0.878  -0.668   3.503  0.00  0.00     0.003 A 
ATOM      8  C6  PXY d   1      -1.642  -0.295   2.401  0.00  0.00     0.003 A 
ENDROOT
TORSDOF 0
ENDMDL
