MODEL 1
REMARK minimizedAffinity 1.07129753
REMARK minimizedRMSD -1
REMARK  0 active torsions:
REMARK  status: ('A' for Active; 'I' for Inactive)
ROOT
ATOM      1  C4' PXY d   1      -0.760  -3.284   5.905  0.00  0.00     0.077 C 
ATOM      2  C1' PXY d   1      -2.262   0.554   1.851  0.00  0.00     0.077 C 
ATOM      3  C1  PXY d   1      -1.855  -0.452   2.910  0.00  0.00    -0.082 A 
ATOM      4  C2  PXY d   1      -2.753  -1.300   3.385  0.00  0.00     0.003 A 
ATOM      5  C3  PXY d   1      -2.410  -2.195   4.366  0.00  0.00     0.003 A 
ATOM      6  C4  PXY d   1      -1.123  -2.258   4.828  0.00  0.00    -0.082 A 
ATOM      7  C5  PXY d   1      -0.199  -1.403   4.341  0.00  0.00     0.003 A 
ATOM      8  C6  PXY d   1      -0.577  -0.475   3.375  0.00  0.00     0.003 A 
ENDROOT
TORSDOF 0
ENDMDL
