MODEL 1
REMARK minimizedAffinity 1.55060017
REMARK minimizedRMSD -1
REMARK  0 active torsions:
REMARK  status: ('A' for Active; 'I' for Inactive)
ROOT
ATOM      1  C4' PXY d   1       1.450  -0.364   1.322  0.00  0.00     0.077 C 
ATOM      2  C1' PXY d   1      -3.887   0.298  -0.799  0.00  0.00     0.077 C 
ATOM      3  C1  PXY d   1      -2.486   0.114  -0.251  0.00  0.00    -0.082 A 
ATOM      4  C2  PXY d   1      -2.192   0.563   0.959  0.00  0.00     0.003 A 
ATOM      5  C3  PXY d   1      -0.921   0.434   1.457  0.00  0.00     0.003 A 
ATOM      6  C4  PXY d   1       0.045  -0.209   0.732  0.00  0.00    -0.082 A 
ATOM      7  C5  PXY d   1      -0.249  -0.680  -0.499  0.00  0.00     0.003 A 
ATOM      8  C6  PXY d   1      -1.534  -0.502  -1.003  0.00  0.00     0.003 A 
ENDROOT
TORSDOF 0
ENDMDL
