MODEL 1
REMARK minimizedAffinity 0.790053487
REMARK minimizedRMSD -1
REMARK  0 active torsions:
REMARK  status: ('A' for Active; 'I' for Inactive)
ROOT
ATOM      1  C4' PXY d   1      -4.790   0.550  -1.231  0.00  0.00     0.077 C 
ATOM      2  C1' PXY d   1       0.034  -0.244   1.852  0.00  0.00     0.077 C 
ATOM      3  C1  PXY d   1      -1.224  -0.038   1.033  0.00  0.00    -0.082 A 
ATOM      4  C2  PXY d   1      -2.229   0.658   1.540  0.00  0.00     0.003 A 
ATOM      5  C3  PXY d   1      -3.386   0.828   0.825  0.00  0.00     0.003 A 
ATOM      6  C4  PXY d   1      -3.497   0.324  -0.443  0.00  0.00    -0.082 A 
ATOM      7  C5  PXY d   1      -2.473  -0.378  -0.972  0.00  0.00     0.003 A 
ATOM      8  C6  PXY d   1      -1.322  -0.574  -0.214  0.00  0.00     0.003 A 
ENDROOT
TORSDOF 0
ENDMDL
