MODEL 1
REMARK minimizedAffinity -0.88187778
REMARK minimizedRMSD -1
REMARK  1 active torsions:
REMARK  status: ('A' for Active; 'I' for Inactive)
REMARK    1  A    between atoms: C1_2  and  C2_3 
ROOT
ATOM      1  C2  UNL d   1       1.767  -0.931   0.269  0.00  0.00    -0.077 A 
ATOM      2  C3  UNL d   1       2.244   0.387   0.282  0.00  0.00     0.002 A 
ATOM      3  C4  UNL d   1       1.370   1.456   0.071  0.00  0.00     0.002 A 
ATOM      4  C5  UNL d   1       0.015   1.218  -0.150  0.00  0.00    -0.004 A 
ATOM      5  C6  UNL d   1      -0.468  -0.090  -0.167  0.00  0.00     0.002 A 
ATOM      6  C7  UNL d   1       0.404  -1.159   0.043  0.00  0.00     0.002 A 
ENDROOT
BRANCH   1   7
ATOM      7  C1  UNL d   1       2.699  -2.082   0.544  0.00  0.00     0.055 C 
ATOM      8  C   UNL d   1       4.118  -1.597   0.799  0.00  0.00     0.019 C 
ENDBRANCH   1   7
TORSDOF 1
ENDMDL
