MODEL 1
REMARK minimizedAffinity 0.522895157
REMARK minimizedRMSD -1
REMARK  1 active torsions:
REMARK  status: ('A' for Active; 'I' for Inactive)
REMARK    1  A    between atoms: C1_2  and  C2_3 
ROOT
ATOM      1  C2  UNL d   1      -2.790   0.789   0.737  0.00  0.00    -0.077 A 
ATOM      2  C3  UNL d   1      -3.673   0.991   1.807  0.00  0.00     0.002 A 
ATOM      3  C4  UNL d   1      -5.025   0.668   1.678  0.00  0.00     0.002 A 
ATOM      4  C5  UNL d   1      -5.505   0.137   0.482  0.00  0.00    -0.004 A 
ATOM      5  C6  UNL d   1      -4.635  -0.066  -0.588  0.00  0.00     0.002 A 
ATOM      6  C7  UNL d   1      -3.283   0.258  -0.461  0.00  0.00     0.002 A 
ENDROOT
BRANCH   1   7
ATOM      7  C1  UNL d   1      -1.322   1.091   0.891  0.00  0.00     0.055 C 
ATOM      8  C   UNL d   1      -0.476   0.199  -0.006  0.00  0.00     0.019 C 
ENDBRANCH   1   7
TORSDOF 1
ENDMDL
