MODEL 1
REMARK minimizedAffinity 0.533147573
REMARK minimizedRMSD -1
REMARK  1 active torsions:
REMARK  status: ('A' for Active; 'I' for Inactive)
REMARK    1  A    between atoms: C1_2  and  C2_3 
ROOT
ATOM      1  C2  UNL d   1      -0.562  -0.425  -1.599  0.00  0.00    -0.077 A 
ATOM      2  C3  UNL d   1      -0.563  -1.796  -1.893  0.00  0.00     0.002 A 
ATOM      3  C4  UNL d   1      -0.888  -2.243  -3.174  0.00  0.00     0.002 A 
ATOM      4  C5  UNL d   1      -1.211  -1.327  -4.173  0.00  0.00    -0.004 A 
ATOM      5  C6  UNL d   1      -1.215   0.038  -3.890  0.00  0.00     0.002 A 
ATOM      6  C7  UNL d   1      -0.891   0.487  -2.609  0.00  0.00     0.002 A 
ENDROOT
BRANCH   1   7
ATOM      7  C1  UNL d   1      -0.163   0.062  -0.230  0.00  0.00     0.055 C 
ATOM      8  C   UNL d   1       0.905   1.142  -0.317  0.00  0.00     0.019 C 
ENDBRANCH   1   7
TORSDOF 1
ENDMDL
