MODEL 1
REMARK minimizedAffinity -0.518442273
REMARK minimizedRMSD -1
REMARK  1 active torsions:
REMARK  status: ('A' for Active; 'I' for Inactive)
REMARK    1  A    between atoms: C1_2  and  C2_3 
ROOT
ATOM      1  C2  UNL d   1      -1.701   0.296   0.686  0.00  0.00    -0.077 A 
ATOM      2  C3  UNL d   1      -1.671   1.345   1.615  0.00  0.00     0.002 A 
ATOM      3  C4  UNL d   1      -2.849   1.782   2.224  0.00  0.00     0.002 A 
ATOM      4  C5  UNL d   1      -4.063   1.173   1.915  0.00  0.00    -0.004 A 
ATOM      5  C6  UNL d   1      -4.103   0.130   0.990  0.00  0.00     0.002 A 
ATOM      6  C7  UNL d   1      -2.928  -0.307   0.379  0.00  0.00     0.002 A 
ENDROOT
BRANCH   1   7
ATOM      7  C1  UNL d   1      -0.425  -0.210   0.064  0.00  0.00     0.055 C 
ATOM      8  C   UNL d   1       0.794   0.259   0.844  0.00  0.00     0.019 C 
ENDBRANCH   1   7
TORSDOF 1
ENDMDL
