MODEL 1
REMARK minimizedAffinity -1.99121952
REMARK minimizedRMSD -1
REMARK  1 active torsions:
REMARK  status: ('A' for Active; 'I' for Inactive)
REMARK    1  A    between atoms: C1_2  and  C2_3 
ROOT
ATOM      1  C2  UNL d   1      -1.057   0.007  -1.430  0.00  0.00    -0.077 A 
ATOM      2  C3  UNL d   1      -0.824  -1.263  -1.976  0.00  0.00     0.002 A 
ATOM      3  C4  UNL d   1      -1.127  -1.524  -3.314  0.00  0.00     0.002 A 
ATOM      4  C5  UNL d   1      -1.660  -0.518  -4.117  0.00  0.00    -0.004 A 
ATOM      5  C6  UNL d   1      -1.898   0.747  -3.583  0.00  0.00     0.002 A 
ATOM      6  C7  UNL d   1      -1.597   1.009  -2.246  0.00  0.00     0.002 A 
ENDROOT
BRANCH   1   7
ATOM      7  C1  UNL d   1      -0.686   0.304  -0.001  0.00  0.00     0.055 C 
ATOM      8  C   UNL d   1       0.782   0.687   0.121  0.00  0.00     0.019 C 
ENDBRANCH   1   7
TORSDOF 1
ENDMDL
