MODEL 1
REMARK minimizedAffinity -4.29670906
REMARK minimizedRMSD -1
REMARK  0 active torsions:
REMARK  status: ('A' for Active; 'I' for Inactive)
ROOT
ATOM      1  C   UNL d   1      -1.910   1.003  -5.998  0.00  0.00     0.078 C 
ATOM      2  C1  UNL d   1      -2.935   0.188  -5.267  0.00  0.00    -0.077 A 
ATOM      3  C2  UNL d   1      -4.302   0.350  -5.524  0.00  0.00    -0.001 A 
ATOM      4  C3  UNL d   1      -5.246  -0.408  -4.829  0.00  0.00     0.003 A 
ATOM      5  C4  UNL d   1      -4.833  -1.333  -3.872  0.00  0.00    -0.005 A 
ATOM      6  C5  UNL d   1      -3.475  -1.500  -3.609  0.00  0.00     0.003 A 
ATOM      7  C6  UNL d   1      -2.530  -0.743  -4.302  0.00  0.00    -0.001 A 
ENDROOT
TORSDOF 0
ENDMDL
