MODEL 1
REMARK minimizedAffinity 5.6313448
REMARK minimizedRMSD -1
REMARK  0 active torsions:
REMARK  status: ('A' for Active; 'I' for Inactive)
ROOT
ATOM      1  C   UNL d   1      -2.528   2.249  -2.624  0.00  0.00     0.078 C 
ATOM      2  C1  UNL d   1      -3.743   2.260  -3.501  0.00  0.00    -0.077 A 
ATOM      3  C2  UNL d   1      -4.500   1.098  -3.700  0.00  0.00    -0.001 A 
ATOM      4  C3  UNL d   1      -5.623   1.120  -4.527  0.00  0.00     0.003 A 
ATOM      5  C4  UNL d   1      -6.000   2.301  -5.164  0.00  0.00    -0.005 A 
ATOM      6  C5  UNL d   1      -5.252   3.461  -4.975  0.00  0.00     0.003 A 
ATOM      7  C6  UNL d   1      -4.128   3.441  -4.148  0.00  0.00    -0.001 A 
ENDROOT
TORSDOF 0
ENDMDL
