MODEL 1
REMARK minimizedAffinity 1.68059373
REMARK minimizedRMSD -1
REMARK  0 active torsions:
REMARK  status: ('A' for Active; 'I' for Inactive)
ROOT
ATOM      1  C   UNL d   1       5.608   2.372  -5.467  0.00  0.00     0.078 C 
ATOM      2  C1  UNL d   1       4.770   3.604  -5.640  0.00  0.00    -0.077 A 
ATOM      3  C2  UNL d   1       3.371   3.531  -5.631  0.00  0.00    -0.001 A 
ATOM      4  C3  UNL d   1       2.604   4.684  -5.803  0.00  0.00     0.003 A 
ATOM      5  C4  UNL d   1       3.225   5.918  -5.987  0.00  0.00    -0.005 A 
ATOM      6  C5  UNL d   1       4.616   5.999  -6.000  0.00  0.00     0.003 A 
ATOM      7  C6  UNL d   1       5.385   4.847  -5.828  0.00  0.00    -0.001 A 
ENDROOT
TORSDOF 0
ENDMDL
