MODEL 1
REMARK minimizedAffinity 3.64408326
REMARK minimizedRMSD -1
REMARK  0 active torsions:
REMARK  status: ('A' for Active; 'I' for Inactive)
ROOT
ATOM      1  C   UNL d   1      -2.464   1.124   3.681  0.00  0.00     0.078 C 
ATOM      2  C1  UNL d   1      -1.046   0.681   3.474  0.00  0.00    -0.077 A 
ATOM      3  C2  UNL d   1       0.024   1.549   3.723  0.00  0.00    -0.001 A 
ATOM      4  C3  UNL d   1       1.339   1.127   3.516  0.00  0.00     0.003 A 
ATOM      5  C4  UNL d   1       1.595  -0.164   3.058  0.00  0.00    -0.005 A 
ATOM      6  C5  UNL d   1       0.536  -1.034   2.806  0.00  0.00     0.003 A 
ATOM      7  C6  UNL d   1      -0.779  -0.614   3.012  0.00  0.00    -0.001 A 
ENDROOT
TORSDOF 0
ENDMDL
