MODEL 1
REMARK minimizedAffinity 14.5636501
REMARK minimizedRMSD -1
REMARK  0 active torsions:
REMARK  status: ('A' for Active; 'I' for Inactive)
ROOT
ATOM      1  C   UNL d   1      -2.246   2.256  -3.166  0.00  0.00     0.078 C 
ATOM      2  C1  UNL d   1      -3.550   1.690  -3.644  0.00  0.00    -0.077 A 
ATOM      3  C2  UNL d   1      -4.097   2.076  -4.873  0.00  0.00    -0.001 A 
ATOM      4  C3  UNL d   1      -5.316   1.548  -5.301  0.00  0.00     0.003 A 
ATOM      5  C4  UNL d   1      -6.000   0.632  -4.504  0.00  0.00    -0.005 A 
ATOM      6  C5  UNL d   1      -5.465   0.243  -3.278  0.00  0.00     0.003 A 
ATOM      7  C6  UNL d   1      -4.245   0.770  -2.849  0.00  0.00    -0.001 A 
ENDROOT
TORSDOF 0
ENDMDL
