MODEL 1
REMARK minimizedAffinity 7.94151878
REMARK minimizedRMSD -1
REMARK  0 active torsions:
REMARK  status: ('A' for Active; 'I' for Inactive)
ROOT
ATOM      1  C   UNL d   1       5.288   2.131  -5.349  0.00  0.00     0.078 C 
ATOM      2  C1  UNL d   1       4.637   3.480  -5.396  0.00  0.00    -0.077 A 
ATOM      3  C2  UNL d   1       5.293   4.578  -5.967  0.00  0.00    -0.001 A 
ATOM      4  C3  UNL d   1       4.678   5.831  -5.995  0.00  0.00     0.003 A 
ATOM      5  C4  UNL d   1       3.405   5.998  -5.454  0.00  0.00    -0.005 A 
ATOM      6  C5  UNL d   1       2.745   4.912  -4.883  0.00  0.00     0.003 A 
ATOM      7  C6  UNL d   1       3.358   3.658  -4.853  0.00  0.00    -0.001 A 
ENDROOT
TORSDOF 0
ENDMDL
