MODEL 1
REMARK minimizedAffinity 8.67544746
REMARK minimizedRMSD -1
REMARK  0 active torsions:
REMARK  status: ('A' for Active; 'I' for Inactive)
ROOT
ATOM      1  C   UNL d   1       1.866  -1.190   0.535  0.00  0.00     0.078 C 
ATOM      2  C1  UNL d   1       2.637   0.071   0.790  0.00  0.00    -0.077 A 
ATOM      3  C2  UNL d   1       2.157   1.043   1.676  0.00  0.00    -0.001 A 
ATOM      4  C3  UNL d   1       2.880   2.216   1.896  0.00  0.00     0.003 A 
ATOM      5  C4  UNL d   1       4.087   2.429   1.233  0.00  0.00    -0.005 A 
ATOM      6  C5  UNL d   1       4.572   1.468   0.348  0.00  0.00     0.003 A 
ATOM      7  C6  UNL d   1       3.850   0.294   0.126  0.00  0.00    -0.001 A 
ENDROOT
TORSDOF 0
ENDMDL
