MODEL 1
REMARK minimizedAffinity 4.05225706
REMARK minimizedRMSD -1
REMARK  0 active torsions:
REMARK  status: ('A' for Active; 'I' for Inactive)
ROOT
ATOM      1  C   UNL d   1       4.489   2.660  -4.519  0.00  0.00     0.078 C 
ATOM      2  C1  UNL d   1       3.639   3.819  -4.947  0.00  0.00    -0.077 A 
ATOM      3  C2  UNL d   1       2.256   3.819  -4.729  0.00  0.00    -0.001 A 
ATOM      4  C3  UNL d   1       1.476   4.900  -5.141  0.00  0.00     0.003 A 
ATOM      5  C4  UNL d   1       2.070   5.990  -5.776  0.00  0.00    -0.005 A 
ATOM      6  C5  UNL d   1       3.445   5.998  -6.000  0.00  0.00     0.003 A 
ATOM      7  C6  UNL d   1       4.227   4.917  -5.588  0.00  0.00    -0.001 A 
ENDROOT
TORSDOF 0
ENDMDL
