MODEL 1
REMARK minimizedAffinity 12.7845869
REMARK minimizedRMSD -1
REMARK  0 active torsions:
REMARK  status: ('A' for Active; 'I' for Inactive)
ROOT
ATOM      1  C   UNL d   1       4.134   3.917   2.939  0.00  0.00     0.124 A 
ATOM      2  C1  UNL d   1       3.793   4.972   2.103  0.00  0.00     0.062 A 
ATOM      3  C2  UNL d   1       4.195   4.967   0.771  0.00  0.00     0.162 A 
ATOM      4  C3  UNL d   1       4.942   3.904   0.265  0.00  0.00    -0.034 A 
ATOM      5  C4  UNL d   1       5.282   2.847   1.112  0.00  0.00     0.162 A 
ATOM      6  C5  UNL d   1       4.878   2.856   2.443  0.00  0.00     0.062 A 
ATOM      7  F   UNL d   1       5.209   1.837   3.249  0.00  0.00    -0.097 F 
ATOM      8  F1  UNL d   1       6.000   1.809   0.658  0.00  0.00    -0.096 F 
ATOM      9  I   UNL d   1       5.545   3.893  -1.727  0.00  0.00    -0.060 I 
ATOM     10  F2  UNL d   1       3.851   5.999  -0.014  0.00  0.00    -0.096 F 
ATOM     11  F3  UNL d   1       3.075   5.999   2.581  0.00  0.00    -0.097 F 
ATOM     12  F4  UNL d   1       3.747   3.925   4.221  0.00  0.00    -0.092 F 
ENDROOT
TORSDOF 0
ENDMDL
