MODEL 1
REMARK minimizedAffinity -1.1919533
REMARK minimizedRMSD -1
REMARK  0 active torsions:
REMARK  status: ('A' for Active; 'I' for Inactive)
ROOT
ATOM      1  C   UNL d   1      -0.599  -1.970   0.440  0.00  0.00     0.124 A 
ATOM      2  C1  UNL d   1      -1.846  -1.925   1.049  0.00  0.00     0.062 A 
ATOM      3  C2  UNL d   1      -2.758  -2.957   0.853  0.00  0.00     0.162 A 
ATOM      4  C3  UNL d   1      -2.428  -4.045   0.045  0.00  0.00    -0.034 A 
ATOM      5  C4  UNL d   1      -1.172  -4.083  -0.564  0.00  0.00     0.162 A 
ATOM      6  C5  UNL d   1      -0.264  -3.049  -0.366  0.00  0.00     0.062 A 
ATOM      7  F   UNL d   1       0.940  -3.094  -0.955  0.00  0.00    -0.097 F 
ATOM      8  F1  UNL d   1      -0.822  -5.114  -1.347  0.00  0.00    -0.096 F 
ATOM      9  I   UNL d   1      -3.789  -5.591  -0.250  0.00  0.00    -0.060 I 
ATOM     10  F2  UNL d   1      -3.956  -2.887   1.454  0.00  0.00    -0.096 F 
ATOM     11  F3  UNL d   1      -2.173  -0.883   1.827  0.00  0.00    -0.097 F 
ATOM     12  F4  UNL d   1       0.276  -0.975   0.629  0.00  0.00    -0.092 F 
ENDROOT
TORSDOF 0
ENDMDL
