MODEL 1
REMARK minimizedAffinity 5.12275457
REMARK minimizedRMSD -1
REMARK  0 active torsions:
REMARK  status: ('A' for Active; 'I' for Inactive)
ROOT
ATOM      1  C   UNL d   1      -2.063  -2.705  -0.577  0.00  0.00     0.124 A 
ATOM      2  C1  UNL d   1      -2.422  -3.917  -1.149  0.00  0.00     0.062 A 
ATOM      3  C2  UNL d   1      -1.443  -4.835  -1.519  0.00  0.00     0.162 A 
ATOM      4  C3  UNL d   1      -0.094  -4.544  -1.317  0.00  0.00    -0.034 A 
ATOM      5  C4  UNL d   1       0.260  -3.322  -0.742  0.00  0.00     0.162 A 
ATOM      6  C5  UNL d   1      -0.722  -2.408  -0.374  0.00  0.00     0.062 A 
ATOM      7  F   UNL d   1      -0.373  -1.237   0.179  0.00  0.00    -0.097 F 
ATOM      8  F1  UNL d   1       1.548  -3.010  -0.533  0.00  0.00    -0.096 F 
ATOM      9  I   UNL d   1       1.374  -5.912  -1.868  0.00  0.00    -0.060 I 
ATOM     10  F2  UNL d   1      -1.819  -5.998  -2.069  0.00  0.00    -0.096 F 
ATOM     11  F3  UNL d   1      -3.716  -4.206  -1.347  0.00  0.00    -0.097 F 
ATOM     12  F4  UNL d   1      -3.007  -1.824  -0.223  0.00  0.00    -0.092 F 
ENDROOT
TORSDOF 0
ENDMDL
