MODEL 1
REMARK minimizedAffinity 17.2600193
REMARK minimizedRMSD -1
REMARK  0 active torsions:
REMARK  status: ('A' for Active; 'I' for Inactive)
ROOT
ATOM      1  C   UNL d   1       3.181   1.382   1.803  0.00  0.00     0.124 A 
ATOM      2  C1  UNL d   1       2.365   2.496   1.660  0.00  0.00     0.062 A 
ATOM      3  C2  UNL d   1       2.770   3.729   2.164  0.00  0.00     0.162 A 
ATOM      4  C3  UNL d   1       3.997   3.855   2.815  0.00  0.00    -0.034 A 
ATOM      5  C4  UNL d   1       4.811   2.730   2.956  0.00  0.00     0.162 A 
ATOM      6  C5  UNL d   1       4.403   1.500   2.451  0.00  0.00     0.062 A 
ATOM      7  F   UNL d   1       5.192   0.425   2.590  0.00  0.00    -0.097 F 
ATOM      8  F1  UNL d   1       5.997   2.816   3.576  0.00  0.00    -0.096 F 
ATOM      9  I   UNL d   1       4.605   5.697   3.569  0.00  0.00    -0.060 I 
ATOM     10  F2  UNL d   1       1.961   4.788   2.011  0.00  0.00    -0.096 F 
ATOM     11  F3  UNL d   1       1.184   2.384   1.036  0.00  0.00    -0.097 F 
ATOM     12  F4  UNL d   1       2.789   0.197   1.319  0.00  0.00    -0.092 F 
ENDROOT
TORSDOF 0
ENDMDL
