MODEL 1
REMARK minimizedAffinity 14.6945314
REMARK minimizedRMSD -1
REMARK  0 active torsions:
REMARK  status: ('A' for Active; 'I' for Inactive)
ROOT
ATOM      1  C   UNL d   1      -2.161  -3.483  -0.903  0.00  0.00     0.124 A 
ATOM      2  C1  UNL d   1      -1.066  -4.230  -1.317  0.00  0.00     0.062 A 
ATOM      3  C2  UNL d   1       0.208  -3.919  -0.853  0.00  0.00     0.162 A 
ATOM      4  C3  UNL d   1       0.395  -2.856   0.032  0.00  0.00    -0.034 A 
ATOM      5  C4  UNL d   1      -0.710  -2.110   0.443  0.00  0.00     0.162 A 
ATOM      6  C5  UNL d   1      -1.982  -2.425  -0.024  0.00  0.00     0.062 A 
ATOM      7  F   UNL d   1      -3.039  -1.703   0.377  0.00  0.00    -0.097 F 
ATOM      8  F1  UNL d   1      -0.566  -1.082   1.293  0.00  0.00    -0.096 F 
ATOM      9  I   UNL d   1       2.300  -2.388   0.729  0.00  0.00    -0.060 I 
ATOM     10  F2  UNL d   1       1.248  -4.657  -1.269  0.00  0.00    -0.096 F 
ATOM     11  F3  UNL d   1      -1.237  -5.252  -2.167  0.00  0.00    -0.097 F 
ATOM     12  F4  UNL d   1      -3.387  -3.784  -1.352  0.00  0.00    -0.092 F 
ENDROOT
TORSDOF 0
ENDMDL
