MODEL 1
REMARK minimizedAffinity 10.7790709
REMARK minimizedRMSD -1
REMARK  0 active torsions:
REMARK  status: ('A' for Active; 'I' for Inactive)
ROOT
ATOM      1  C   UNL d   1       2.368   2.914   3.344  0.00  0.00     0.124 A 
ATOM      2  C1  UNL d   1       3.667   2.759   2.878  0.00  0.00     0.062 A 
ATOM      3  C2  UNL d   1       3.926   1.928   1.792  0.00  0.00     0.162 A 
ATOM      4  C3  UNL d   1       2.884   1.247   1.163  0.00  0.00    -0.034 A 
ATOM      5  C4  UNL d   1       1.581   1.407   1.638  0.00  0.00     0.162 A 
ATOM      6  C5  UNL d   1       1.327   2.238   2.724  0.00  0.00     0.062 A 
ATOM      7  F   UNL d   1       0.072   2.387   3.173  0.00  0.00    -0.097 F 
ATOM      8  F1  UNL d   1       0.555   0.767   1.056  0.00  0.00    -0.096 F 
ATOM      9  I   UNL d   1       3.267   0.004  -0.462  0.00  0.00    -0.060 I 
ATOM     10  F2  UNL d   1       5.190   1.797   1.363  0.00  0.00    -0.096 F 
ATOM     11  F3  UNL d   1       4.675   3.409   3.477  0.00  0.00    -0.097 F 
ATOM     12  F4  UNL d   1       2.122   3.713   4.391  0.00  0.00    -0.092 F 
ENDROOT
TORSDOF 0
ENDMDL
