MODEL 1
REMARK minimizedAffinity 19.9955902
REMARK minimizedRMSD -1
REMARK  0 active torsions:
REMARK  status: ('A' for Active; 'I' for Inactive)
ROOT
ATOM      1  C   UNL d   1       3.376   3.659   3.081  0.00  0.00     0.124 A 
ATOM      2  C1  UNL d   1       2.065   3.466   3.492  0.00  0.00     0.062 A 
ATOM      3  C2  UNL d   1       1.262   2.524   2.855  0.00  0.00     0.162 A 
ATOM      4  C3  UNL d   1       1.769   1.766   1.799  0.00  0.00    -0.034 A 
ATOM      5  C4  UNL d   1       3.089   1.967   1.390  0.00  0.00     0.162 A 
ATOM      6  C5  UNL d   1       3.887   2.910   2.030  0.00  0.00     0.062 A 
ATOM      7  F   UNL d   1       5.154   3.095   1.631  0.00  0.00    -0.097 F 
ATOM      8  F1  UNL d   1       3.608   1.256   0.378  0.00  0.00    -0.096 F 
ATOM      9  I   UNL d   1       0.573   0.357   0.844  0.00  0.00    -0.060 I 
ATOM     10  F2  UNL d   1      -0.001   2.358   3.274  0.00  0.00    -0.096 F 
ATOM     11  F3  UNL d   1       1.568   4.189   4.507  0.00  0.00    -0.097 F 
ATOM     12  F4  UNL d   1       4.145   4.567   3.695  0.00  0.00    -0.092 F 
ENDROOT
TORSDOF 0
ENDMDL
