MODEL 1
REMARK minimizedAffinity 13.107254
REMARK minimizedRMSD -1
REMARK  0 active torsions:
REMARK  status: ('A' for Active; 'I' for Inactive)
ROOT
ATOM      1  C   UNL d   1       1.065   2.959   2.605  0.00  0.00     0.124 A 
ATOM      2  C1  UNL d   1       1.881   4.010   2.999  0.00  0.00     0.062 A 
ATOM      3  C2  UNL d   1       3.216   4.046   2.604  0.00  0.00     0.162 A 
ATOM      4  C3  UNL d   1       3.742   3.028   1.809  0.00  0.00    -0.034 A 
ATOM      5  C4  UNL d   1       2.915   1.973   1.417  0.00  0.00     0.162 A 
ATOM      6  C5  UNL d   1       1.582   1.942   1.815  0.00  0.00     0.062 A 
ATOM      7  F   UNL d   1       0.795   0.926   1.433  0.00  0.00    -0.097 F 
ATOM      8  F1  UNL d   1       3.389   0.978   0.653  0.00  0.00    -0.096 F 
ATOM      9  I   UNL d   1       5.737   3.078   1.217  0.00  0.00    -0.060 I 
ATOM     10  F2  UNL d   1       3.982   5.073   3.000  0.00  0.00    -0.096 F 
ATOM     11  F3  UNL d   1       1.384   4.993   3.763  0.00  0.00    -0.097 F 
ATOM     12  F4  UNL d   1      -0.218   2.926   2.987  0.00  0.00    -0.092 F 
ENDROOT
TORSDOF 0
ENDMDL
