MODEL 1
REMARK minimizedAffinity 2.09151888
REMARK minimizedRMSD -1
REMARK  0 active torsions:
REMARK  status: ('A' for Active; 'I' for Inactive)
ROOT
ATOM      1  C   UNL d   1       1.121  -4.188  -0.441  0.00  0.00     0.124 A 
ATOM      2  C1  UNL d   1       0.048  -3.363  -0.133  0.00  0.00     0.062 A 
ATOM      3  C2  UNL d   1       0.256  -2.009   0.115  0.00  0.00     0.162 A 
ATOM      4  C3  UNL d   1       1.542  -1.472   0.056  0.00  0.00    -0.034 A 
ATOM      5  C4  UNL d   1       2.616  -2.308  -0.253  0.00  0.00     0.162 A 
ATOM      6  C5  UNL d   1       2.403  -3.661  -0.500  0.00  0.00     0.062 A 
ATOM      7  F   UNL d   1       3.440  -4.457  -0.797  0.00  0.00    -0.097 F 
ATOM      8  F1  UNL d   1       3.865  -1.825  -0.318  0.00  0.00    -0.096 F 
ATOM      9  I   UNL d   1       1.856   0.552   0.427  0.00  0.00    -0.060 I 
ATOM     10  F2  UNL d   1      -0.799  -1.235   0.410  0.00  0.00    -0.096 F 
ATOM     11  F3  UNL d   1      -1.191  -3.870  -0.074  0.00  0.00    -0.097 F 
ATOM     12  F4  UNL d   1       0.918  -5.491  -0.679  0.00  0.00    -0.092 F 
ENDROOT
TORSDOF 0
ENDMDL
