MODEL 1
REMARK minimizedAffinity 23.1567879
REMARK minimizedRMSD -1
REMARK  0 active torsions:
REMARK  status: ('A' for Active; 'I' for Inactive)
ROOT
ATOM      1  C   UNL d   1       3.445   2.326   1.861  0.00  0.00     0.124 A 
ATOM      2  C1  UNL d   1       4.526   2.060   2.690  0.00  0.00     0.062 A 
ATOM      3  C2  UNL d   1       4.826   2.917   3.745  0.00  0.00     0.162 A 
ATOM      4  C3  UNL d   1       4.044   4.049   3.977  0.00  0.00    -0.034 A 
ATOM      5  C4  UNL d   1       2.959   4.310   3.138  0.00  0.00     0.162 A 
ATOM      6  C5  UNL d   1       2.663   3.450   2.085  0.00  0.00     0.062 A 
ATOM      7  F   UNL d   1       1.619   3.708   1.285  0.00  0.00    -0.097 F 
ATOM      8  F1  UNL d   1       2.186   5.389   3.332  0.00  0.00    -0.096 F 
ATOM      9  I   UNL d   1       4.489   5.333   5.553  0.00  0.00    -0.060 I 
ATOM     10  F2  UNL d   1       5.876   2.636   4.530  0.00  0.00    -0.096 F 
ATOM     11  F3  UNL d   1       5.284   0.975   2.475  0.00  0.00    -0.097 F 
ATOM     12  F4  UNL d   1       3.159   1.500   0.846  0.00  0.00    -0.092 F 
ENDROOT
TORSDOF 0
ENDMDL
