MODEL 1
REMARK minimizedAffinity 20.7816048
REMARK minimizedRMSD -1
REMARK  0 active torsions:
REMARK  status: ('A' for Active; 'I' for Inactive)
ROOT
ATOM      1  C   UNL d   1      -2.621  -3.529  -1.141  0.00  0.00     0.124 A 
ATOM      2  C1  UNL d   1      -2.453  -2.499  -0.225  0.00  0.00     0.062 A 
ATOM      3  C2  UNL d   1      -1.183  -2.190   0.254  0.00  0.00     0.162 A 
ATOM      4  C3  UNL d   1      -0.071  -2.911  -0.181  0.00  0.00    -0.034 A 
ATOM      5  C4  UNL d   1      -0.249  -3.946  -1.101  0.00  0.00     0.162 A 
ATOM      6  C5  UNL d   1      -1.519  -4.251  -1.577  0.00  0.00     0.062 A 
ATOM      7  F   UNL d   1      -1.680  -5.247  -2.461  0.00  0.00    -0.097 F 
ATOM      8  F1  UNL d   1       0.799  -4.659  -1.540  0.00  0.00    -0.096 F 
ATOM      9  I   UNL d   1       1.828  -2.451   0.534  0.00  0.00    -0.060 I 
ATOM     10  F2  UNL d   1      -1.050  -1.190   1.138  0.00  0.00    -0.096 F 
ATOM     11  F3  UNL d   1      -3.516  -1.801   0.199  0.00  0.00    -0.097 F 
ATOM     12  F4  UNL d   1      -3.844  -3.826  -1.600  0.00  0.00    -0.092 F 
ENDROOT
TORSDOF 0
ENDMDL
