MODEL 1
REMARK minimizedAffinity 10.610816
REMARK minimizedRMSD -1
REMARK  0 active torsions:
REMARK  status: ('A' for Active; 'I' for Inactive)
ROOT
ATOM      1  C   UNL d   1       0.661  -5.073  -1.015  0.00  0.00     0.124 A 
ATOM      2  C1  UNL d   1       1.125  -4.112  -0.127  0.00  0.00     0.062 A 
ATOM      3  C2  UNL d   1       0.257  -3.149   0.378  0.00  0.00     0.162 A 
ATOM      4  C3  UNL d   1      -1.085  -3.142  -0.003  0.00  0.00    -0.034 A 
ATOM      5  C4  UNL d   1      -1.544  -4.111  -0.896  0.00  0.00     0.162 A 
ATOM      6  C5  UNL d   1      -0.672  -5.072  -1.398  0.00  0.00     0.062 A 
ATOM      7  F   UNL d   1      -1.123  -6.000  -2.256  0.00  0.00    -0.097 F 
ATOM      8  F1  UNL d   1      -2.828  -4.133  -1.283  0.00  0.00    -0.096 F 
ATOM      9  I   UNL d   1      -2.386  -1.703   0.750  0.00  0.00    -0.060 I 
ATOM     10  F2  UNL d   1       0.733  -2.232   1.234  0.00  0.00    -0.096 F 
ATOM     11  F3  UNL d   1       2.413  -4.111   0.244  0.00  0.00    -0.097 F 
ATOM     12  F4  UNL d   1       1.499  -5.999  -1.500  0.00  0.00    -0.092 F 
ENDROOT
TORSDOF 0
ENDMDL
