MODEL 1
REMARK minimizedAffinity 19.5114384
REMARK minimizedRMSD -1
REMARK  0 active torsions:
REMARK  status: ('A' for Active; 'I' for Inactive)
ROOT
ATOM      1  C   UNL d   1      -2.360  -0.079   0.594  0.00  0.00     0.124 A 
ATOM      2  C1  UNL d   1      -3.199  -0.309  -0.487  0.00  0.00     0.062 A 
ATOM      3  C2  UNL d   1      -4.239   0.573  -0.766  0.00  0.00     0.162 A 
ATOM      4  C3  UNL d   1      -4.446   1.694   0.037  0.00  0.00    -0.034 A 
ATOM      5  C4  UNL d   1      -3.598   1.919   1.123  0.00  0.00     0.162 A 
ATOM      6  C5  UNL d   1      -2.560   1.034   1.398  0.00  0.00     0.062 A 
ATOM      7  F   UNL d   1      -1.751   1.258   2.444  0.00  0.00    -0.097 F 
ATOM      8  F1  UNL d   1      -3.768   2.987   1.916  0.00  0.00    -0.096 F 
ATOM      9  I   UNL d   1      -6.000   3.015  -0.377  0.00  0.00    -0.060 I 
ATOM     10  F2  UNL d   1      -5.035   0.325  -1.818  0.00  0.00    -0.096 F 
ATOM     11  F3  UNL d   1      -3.009  -1.385  -1.265  0.00  0.00    -0.097 F 
ATOM     12  F4  UNL d   1      -1.361  -0.930   0.861  0.00  0.00    -0.092 F 
ENDROOT
TORSDOF 0
ENDMDL
