MODEL 1
REMARK minimizedAffinity 23.7455769
REMARK minimizedRMSD -1
REMARK  0 active torsions:
REMARK  status: ('A' for Active; 'I' for Inactive)
ROOT
ATOM      1  C   UNL d   1       0.765   2.319   2.640  0.00  0.00     0.124 A 
ATOM      2  C1  UNL d   1       1.491   3.357   3.209  0.00  0.00     0.062 A 
ATOM      3  C2  UNL d   1       2.843   3.510   2.913  0.00  0.00     0.162 A 
ATOM      4  C3  UNL d   1       3.477   2.624   2.041  0.00  0.00    -0.034 A 
ATOM      5  C4  UNL d   1       2.741   1.583   1.473  0.00  0.00     0.162 A 
ATOM      6  C5  UNL d   1       1.390   1.434   1.773  0.00  0.00     0.062 A 
ATOM      7  F   UNL d   1       0.691   0.432   1.222  0.00  0.00    -0.097 F 
ATOM      8  F1  UNL d   1       3.319   0.714   0.632  0.00  0.00    -0.096 F 
ATOM      9  I   UNL d   1       5.497   2.851   1.596  0.00  0.00    -0.060 I 
ATOM     10  F2  UNL d   1       3.520   4.521   3.477  0.00  0.00    -0.096 F 
ATOM     11  F3  UNL d   1       0.890   4.213   4.047  0.00  0.00    -0.097 F 
ATOM     12  F4  UNL d   1      -0.534   2.174   2.927  0.00  0.00    -0.092 F 
ENDROOT
TORSDOF 0
ENDMDL
