MODEL 1
REMARK minimizedAffinity 22.3222198
REMARK minimizedRMSD -1
REMARK  0 active torsions:
REMARK  status: ('A' for Active; 'I' for Inactive)
ROOT
ATOM      1  C   UNL d   1       2.509   3.933   1.128  0.00  0.00     0.124 A 
ATOM      2  C1  UNL d   1       2.558   2.884   2.037  0.00  0.00     0.062 A 
ATOM      3  C2  UNL d   1       3.514   2.879   3.048  0.00  0.00     0.162 A 
ATOM      4  C3  UNL d   1       4.428   3.927   3.158  0.00  0.00    -0.034 A 
ATOM      5  C4  UNL d   1       4.373   4.977   2.240  0.00  0.00     0.162 A 
ATOM      6  C5  UNL d   1       3.416   4.978   1.231  0.00  0.00     0.062 A 
ATOM      7  F   UNL d   1       3.370   5.991   0.354  0.00  0.00    -0.097 F 
ATOM      8  F1  UNL d   1       5.237   6.000   2.316  0.00  0.00    -0.096 F 
ATOM      9  I   UNL d   1       5.859   3.922   4.669  0.00  0.00    -0.060 I 
ATOM     10  F2  UNL d   1       3.538   1.853   3.912  0.00  0.00    -0.096 F 
ATOM     11  F3  UNL d   1       1.683   1.873   1.939  0.00  0.00    -0.097 F 
ATOM     12  F4  UNL d   1       1.588   3.935   0.155  0.00  0.00    -0.092 F 
ENDROOT
TORSDOF 0
ENDMDL
