MODEL 1
REMARK minimizedAffinity 13.7007208
REMARK minimizedRMSD -1
REMARK  0 active torsions:
REMARK  status: ('A' for Active; 'I' for Inactive)
ROOT
ATOM      1  C   UNL d   1      -2.249  -4.034  -0.952  0.00  0.00     0.124 A 
ATOM      2  C1  UNL d   1      -2.046  -2.873  -0.220  0.00  0.00     0.062 A 
ATOM      3  C2  UNL d   1      -0.754  -2.454   0.085  0.00  0.00     0.162 A 
ATOM      4  C3  UNL d   1       0.346  -3.196  -0.344  0.00  0.00    -0.034 A 
ATOM      5  C4  UNL d   1       0.134  -4.363  -1.080  0.00  0.00     0.162 A 
ATOM      6  C5  UNL d   1      -1.159  -4.778  -1.382  0.00  0.00     0.062 A 
ATOM      7  F   UNL d   1      -1.353  -5.900  -2.090  0.00  0.00    -0.097 F 
ATOM      8  F1  UNL d   1       1.169  -5.101  -1.508  0.00  0.00    -0.096 F 
ATOM      9  I   UNL d   1       2.279  -2.573   0.109  0.00  0.00    -0.060 I 
ATOM     10  F2  UNL d   1      -0.588  -1.328   0.794  0.00  0.00    -0.096 F 
ATOM     11  F3  UNL d   1      -3.098  -2.153   0.197  0.00  0.00    -0.097 F 
ATOM     12  F4  UNL d   1      -3.493  -4.436  -1.243  0.00  0.00    -0.092 F 
ENDROOT
TORSDOF 0
ENDMDL
