MODEL 1
REMARK minimizedAffinity 10.6603184
REMARK minimizedRMSD -1
REMARK  0 active torsions:
REMARK  status: ('A' for Active; 'I' for Inactive)
ROOT
ATOM      1  C   UNL d   1       2.482   3.374   0.480  0.00  0.00     0.124 A 
ATOM      2  C1  UNL d   1       3.191   4.557   0.629  0.00  0.00     0.062 A 
ATOM      3  C2  UNL d   1       3.820   4.849   1.836  0.00  0.00     0.162 A 
ATOM      4  C3  UNL d   1       3.743   3.955   2.904  0.00  0.00    -0.034 A 
ATOM      5  C4  UNL d   1       3.026   2.767   2.746  0.00  0.00     0.162 A 
ATOM      6  C5  UNL d   1       2.400   2.480   1.538  0.00  0.00     0.062 A 
ATOM      7  F   UNL d   1       1.714   1.336   1.395  0.00  0.00    -0.097 F 
ATOM      8  F1  UNL d   1       2.932   1.885   3.752  0.00  0.00    -0.096 F 
ATOM      9  I   UNL d   1       4.681   4.387   4.710  0.00  0.00    -0.060 I 
ATOM     10  F2  UNL d   1       4.499   6.000   1.952  0.00  0.00    -0.096 F 
ATOM     11  F3  UNL d   1       3.271   5.423  -0.392  0.00  0.00    -0.097 F 
ATOM     12  F4  UNL d   1       1.877   3.097  -0.683  0.00  0.00    -0.092 F 
ENDROOT
TORSDOF 0
ENDMDL
