MODEL 1
REMARK minimizedAffinity 0.103138804
REMARK minimizedRMSD -1
REMARK  1 active torsions:
REMARK  status: ('A' for Active; 'I' for Inactive)
REMARK    1  A    between atoms: C3_4  and  O_7 
ROOT
ATOM      1  C   UNL d   1       4.869  -5.156  -1.860  0.00  0.00    -0.033 A 
ATOM      2  C1  UNL d   1       3.734  -4.882  -2.625  0.00  0.00     0.039 A 
ATOM      3  C2  UNL d   1       3.727  -5.159  -3.993  0.00  0.00    -0.080 A 
ATOM      4  C3  UNL d   1       4.861  -5.711  -4.584  0.00  0.00     0.150 A 
ATOM      5  C4  UNL d   1       5.994  -5.990  -3.827  0.00  0.00    -0.007 A 
ATOM      6  C5  UNL d   1       5.999  -5.712  -2.461  0.00  0.00     0.039 A 
ENDROOT
BRANCH   4   7
ATOM      7  O   UNL d   1       4.904  -5.995  -5.917  0.00  0.00    -0.526 OA
ATOM      8  H5  UNL d   1       4.061  -5.722  -6.316  0.00  0.00     0.418 HD
ENDBRANCH   4   7
TORSDOF 1
ENDMDL
