MODEL 1
REMARK minimizedAffinity 7.22631121
REMARK minimizedRMSD -1
REMARK  1 active torsions:
REMARK  status: ('A' for Active; 'I' for Inactive)
REMARK    1  A    between atoms: C3_4  and  O_7 
ROOT
ATOM      1  C   UNL d   1       2.633   2.597  -0.169  0.00  0.00    -0.033 A 
ATOM      2  C1  UNL d   1       3.578   2.577  -1.197  0.00  0.00     0.039 A 
ATOM      3  C2  UNL d   1       4.257   1.395  -1.500  0.00  0.00    -0.080 A 
ATOM      4  C3  UNL d   1       3.982   0.242  -0.769  0.00  0.00     0.150 A 
ATOM      5  C4  UNL d   1       3.039   0.255   0.253  0.00  0.00    -0.007 A 
ATOM      6  C5  UNL d   1       2.363   1.436   0.555  0.00  0.00     0.039 A 
ENDROOT
BRANCH   4   7
ATOM      7  O   UNL d   1       4.623  -0.933  -1.025  0.00  0.00    -0.526 OA
ATOM      8  H5  UNL d   1       5.267  -0.784  -1.738  0.00  0.00     0.418 HD
ENDBRANCH   4   7
TORSDOF 1
ENDMDL
