MODEL 1
REMARK minimizedAffinity 1.3111254
REMARK minimizedRMSD -1
REMARK  1 active torsions:
REMARK  status: ('A' for Active; 'I' for Inactive)
REMARK    1  A    between atoms: C3_4  and  O_7 
ROOT
ATOM      1  C   UNL d   1       3.057   2.261  -4.927  0.00  0.00    -0.033 A 
ATOM      2  C1  UNL d   1       3.945   2.354  -3.853  0.00  0.00     0.039 A 
ATOM      3  C2  UNL d   1       4.942   3.331  -3.852  0.00  0.00    -0.080 A 
ATOM      4  C3  UNL d   1       5.040   4.209  -4.928  0.00  0.00     0.150 A 
ATOM      5  C4  UNL d   1       4.156   4.125  -5.999  0.00  0.00    -0.007 A 
ATOM      6  C5  UNL d   1       3.162   3.147  -5.999  0.00  0.00     0.039 A 
ENDROOT
BRANCH   4   7
ATOM      7  O   UNL d   1       5.999   5.176  -4.974  0.00  0.00    -0.526 OA
ATOM      8  H5  UNL d   1       6.555   5.097  -4.181  0.00  0.00     0.418 HD
ENDBRANCH   4   7
TORSDOF 1
ENDMDL
