MODEL 1
REMARK minimizedAffinity -1.61615491
REMARK minimizedRMSD -1
REMARK  1 active torsions:
REMARK  status: ('A' for Active; 'I' for Inactive)
REMARK    1  A    between atoms: C3_4  and  O_7 
ROOT
ATOM      1  C   UNL d   1      -6.000   2.640  -4.867  0.00  0.00    -0.033 A 
ATOM      2  C1  UNL d   1      -5.825   3.806  -5.615  0.00  0.00     0.039 A 
ATOM      3  C2  UNL d   1      -4.544   4.205  -5.999  0.00  0.00    -0.080 A 
ATOM      4  C3  UNL d   1      -3.447   3.431  -5.630  0.00  0.00     0.150 A 
ATOM      5  C4  UNL d   1      -3.614   2.266  -4.888  0.00  0.00    -0.007 A 
ATOM      6  C5  UNL d   1      -4.895   1.869  -4.505  0.00  0.00     0.039 A 
ENDROOT
BRANCH   4   7
ATOM      7  O   UNL d   1      -2.177   3.783  -5.978  0.00  0.00    -0.526 OA
ATOM      8  H5  UNL d   1      -2.212   4.624  -6.463  0.00  0.00     0.418 HD
ENDBRANCH   4   7
TORSDOF 1
ENDMDL
