MODEL 1
REMARK minimizedAffinity 8.30523014
REMARK minimizedRMSD -1
REMARK  1 active torsions:
REMARK  status: ('A' for Active; 'I' for Inactive)
REMARK    1  A    between atoms: C3_4  and  O_7 
ROOT
ATOM      1  C   UNL d   1      -0.509   2.971   0.285  0.00  0.00    -0.033 A 
ATOM      2  C1  UNL d   1      -0.641   2.046   1.322  0.00  0.00     0.039 A 
ATOM      3  C2  UNL d   1       0.495   1.539   1.956  0.00  0.00    -0.080 A 
ATOM      4  C3  UNL d   1       1.755   1.966   1.546  0.00  0.00     0.150 A 
ATOM      5  C4  UNL d   1       1.893   2.891   0.516  0.00  0.00    -0.007 A 
ATOM      6  C5  UNL d   1       0.758   3.395  -0.117  0.00  0.00     0.039 A 
ENDROOT
BRANCH   4   7
ATOM      7  O   UNL d   1       2.892   1.497   2.132  0.00  0.00    -0.526 OA
ATOM      8  H5  UNL d   1       2.644   0.844   2.807  0.00  0.00     0.418 HD
ENDBRANCH   4   7
TORSDOF 1
ENDMDL
