MODEL 1
REMARK minimizedAffinity 11.8626823
REMARK minimizedRMSD -1
REMARK  1 active torsions:
REMARK  status: ('A' for Active; 'I' for Inactive)
REMARK    1  A    between atoms: C3_4  and  O_7 
ROOT
ATOM      1  C   UNL d   1      -2.942  -5.997   4.498  0.00  0.00    -0.033 A 
ATOM      2  C1  UNL d   1      -2.220  -4.958   5.087  0.00  0.00     0.039 A 
ATOM      3  C2  UNL d   1      -1.843  -3.849   4.326  0.00  0.00    -0.080 A 
ATOM      4  C3  UNL d   1      -2.194  -3.792   2.980  0.00  0.00     0.150 A 
ATOM      5  C4  UNL d   1      -2.917  -4.822   2.388  0.00  0.00    -0.007 A 
ATOM      6  C5  UNL d   1      -3.292  -5.929   3.149  0.00  0.00     0.039 A 
ENDROOT
BRANCH   4   7
ATOM      7  O   UNL d   1      -1.845  -2.733   2.197  0.00  0.00    -0.526 OA
ATOM      8  H5  UNL d   1      -1.324  -2.111   2.734  0.00  0.00     0.418 HD
ENDBRANCH   4   7
TORSDOF 1
ENDMDL
