MODEL 1
REMARK minimizedAffinity -1.95708084
REMARK minimizedRMSD -1
REMARK  1 active torsions:
REMARK  status: ('A' for Active; 'I' for Inactive)
REMARK    1  A    between atoms: C3_4  and  O_7 
ROOT
ATOM      1  C   UNL d   1       5.975  -5.161  -4.948  0.00  0.00    -0.033 A 
ATOM      2  C1  UNL d   1       5.202  -4.538  -3.967  0.00  0.00     0.039 A 
ATOM      3  C2  UNL d   1       3.810  -4.642  -4.000  0.00  0.00    -0.080 A 
ATOM      4  C3  UNL d   1       3.204  -5.373  -5.019  0.00  0.00     0.150 A 
ATOM      5  C4  UNL d   1       3.968  -6.000  -5.998  0.00  0.00    -0.007 A 
ATOM      6  C5  UNL d   1       5.358  -5.893  -5.963  0.00  0.00     0.039 A 
ENDROOT
BRANCH   4   7
ATOM      7  O   UNL d   1       1.849  -5.500  -5.096  0.00  0.00    -0.526 OA
ATOM      8  H5  UNL d   1       1.451  -4.990  -4.370  0.00  0.00     0.418 HD
ENDBRANCH   4   7
TORSDOF 1
ENDMDL
