MODEL 1
REMARK minimizedAffinity 16.7574978
REMARK minimizedRMSD -1
REMARK  1 active torsions:
REMARK  status: ('A' for Active; 'I' for Inactive)
REMARK    1  A    between atoms: C3_4  and  O_7 
ROOT
ATOM      1  C   UNL d   1       1.425   1.817   0.111  0.00  0.00    -0.033 A 
ATOM      2  C1  UNL d   1       1.277   2.659   1.214  0.00  0.00     0.039 A 
ATOM      3  C2  UNL d   1       2.350   2.870   2.082  0.00  0.00    -0.080 A 
ATOM      4  C3  UNL d   1       3.564   2.235   1.835  0.00  0.00     0.150 A 
ATOM      5  C4  UNL d   1       3.720   1.398   0.735  0.00  0.00    -0.007 A 
ATOM      6  C5  UNL d   1       2.647   1.187  -0.130  0.00  0.00     0.039 A 
ENDROOT
BRANCH   4   7
ATOM      7  O   UNL d   1       4.639   2.407   2.657  0.00  0.00    -0.526 OA
ATOM      8  H5  UNL d   1       4.376   2.988   3.390  0.00  0.00     0.418 HD
ENDBRANCH   4   7
TORSDOF 1
ENDMDL
