MODEL 1
REMARK minimizedAffinity 1.16862702
REMARK minimizedRMSD -1
REMARK  1 active torsions:
REMARK  status: ('A' for Active; 'I' for Inactive)
REMARK    1  A    between atoms: C3_4  and  O_7 
ROOT
ATOM      1  C   UNL d   1       6.000  -4.151  -5.283  0.00  0.00    -0.033 A 
ATOM      2  C1  UNL d   1       5.865  -5.397  -5.899  0.00  0.00     0.039 A 
ATOM      3  C2  UNL d   1       4.609  -6.000  -5.991  0.00  0.00    -0.080 A 
ATOM      4  C3  UNL d   1       3.497  -5.347  -5.465  0.00  0.00     0.150 A 
ATOM      5  C4  UNL d   1       3.624  -4.104  -4.853  0.00  0.00    -0.007 A 
ATOM      6  C5  UNL d   1       4.879  -3.504  -4.761  0.00  0.00     0.039 A 
ENDROOT
BRANCH   4   7
ATOM      7  O   UNL d   1       2.252  -5.897  -5.527  0.00  0.00    -0.526 OA
ATOM      8  H5  UNL d   1       2.321  -6.769  -5.950  0.00  0.00     0.418 HD
ENDBRANCH   4   7
TORSDOF 1
ENDMDL
