MODEL 1
REMARK minimizedAffinity 1.28628814
REMARK minimizedRMSD -1
REMARK  1 active torsions:
REMARK  status: ('A' for Active; 'I' for Inactive)
REMARK    1  A    between atoms: C3_4  and  O_7 
ROOT
ATOM      1  C   UNL d   1       5.997  -4.900  -5.097  0.00  0.00    -0.033 A 
ATOM      2  C1  UNL d   1       5.421  -5.796  -6.000  0.00  0.00     0.039 A 
ATOM      3  C2  UNL d   1       4.039  -5.999  -5.999  0.00  0.00    -0.080 A 
ATOM      4  C3  UNL d   1       3.246  -5.300  -5.093  0.00  0.00     0.150 A 
ATOM      5  C4  UNL d   1       3.813  -4.403  -4.194  0.00  0.00    -0.007 A 
ATOM      6  C5  UNL d   1       5.193  -4.202  -4.195  0.00  0.00     0.039 A 
ENDROOT
BRANCH   4   7
ATOM      7  O   UNL d   1       1.894  -5.468  -5.052  0.00  0.00    -0.526 OA
ATOM      8  H5  UNL d   1       1.647  -6.139  -5.710  0.00  0.00     0.418 HD
ENDBRANCH   4   7
TORSDOF 1
ENDMDL
