MODEL 1
REMARK minimizedAffinity 0.320056766
REMARK minimizedRMSD -1
REMARK  1 active torsions:
REMARK  status: ('A' for Active; 'I' for Inactive)
REMARK    1  A    between atoms: C3_4  and  O_7 
ROOT
ATOM      1  C   UNL d   1       6.000   3.855  -4.700  0.00  0.00    -0.033 A 
ATOM      2  C1  UNL d   1       5.640   3.006  -3.652  0.00  0.00     0.039 A 
ATOM      3  C2  UNL d   1       4.524   2.176  -3.775  0.00  0.00    -0.080 A 
ATOM      4  C3  UNL d   1       3.778   2.205  -4.950  0.00  0.00     0.150 A 
ATOM      5  C4  UNL d   1       4.133   3.046  -6.000  0.00  0.00    -0.007 A 
ATOM      6  C5  UNL d   1       5.247   3.874  -5.875  0.00  0.00     0.039 A 
ENDROOT
BRANCH   4   7
ATOM      7  O   UNL d   1       2.677   1.417  -5.115  0.00  0.00    -0.526 OA
ATOM      8  H5  UNL d   1       2.536   0.911  -4.298  0.00  0.00     0.418 HD
ENDBRANCH   4   7
TORSDOF 1
ENDMDL
