MODEL 1
REMARK minimizedAffinity 12.6228752
REMARK minimizedRMSD -1
REMARK  1 active torsions:
REMARK  status: ('A' for Active; 'I' for Inactive)
REMARK    1  A    between atoms: C3_4  and  O_7 
ROOT
ATOM      1  C   UNL d   1       0.333   2.560   0.350  0.00  0.00    -0.033 A 
ATOM      2  C1  UNL d   1       1.602   3.037   0.016  0.00  0.00     0.039 A 
ATOM      3  C2  UNL d   1       2.690   2.775   0.851  0.00  0.00    -0.080 A 
ATOM      4  C3  UNL d   1       2.496   2.036   2.014  0.00  0.00     0.150 A 
ATOM      5  C4  UNL d   1       1.235   1.555   2.351  0.00  0.00    -0.007 A 
ATOM      6  C5  UNL d   1       0.150   1.818   1.517  0.00  0.00     0.039 A 
ENDROOT
BRANCH   4   7
ATOM      7  O   UNL d   1       3.527   1.760   2.863  0.00  0.00    -0.526 OA
ATOM      8  H5  UNL d   1       4.332   2.180   2.517  0.00  0.00     0.418 HD
ENDBRANCH   4   7
TORSDOF 1
ENDMDL
