MODEL 1
REMARK minimizedAffinity 7.58901834
REMARK minimizedRMSD -1
REMARK  1 active torsions:
REMARK  status: ('A' for Active; 'I' for Inactive)
REMARK    1  A    between atoms: C3_4  and  O_7 
ROOT
ATOM      1  C   UNL d   1       1.246   2.120  -0.042  0.00  0.00    -0.033 A 
ATOM      2  C1  UNL d   1       2.562   1.810  -0.391  0.00  0.00     0.039 A 
ATOM      3  C2  UNL d   1       3.478   1.436   0.595  0.00  0.00    -0.080 A 
ATOM      4  C3  UNL d   1       3.065   1.374   1.923  0.00  0.00     0.150 A 
ATOM      5  C4  UNL d   1       1.755   1.678   2.277  0.00  0.00    -0.007 A 
ATOM      6  C5  UNL d   1       0.842   2.053   1.292  0.00  0.00     0.039 A 
ENDROOT
BRANCH   4   7
ATOM      7  O   UNL d   1       3.924   1.019   2.920  0.00  0.00    -0.526 OA
ATOM      8  H5  UNL d   1       4.801   0.866   2.531  0.00  0.00     0.418 HD
ENDBRANCH   4   7
TORSDOF 1
ENDMDL
