MODEL 1
REMARK minimizedAffinity 5.33184099
REMARK minimizedRMSD -1
REMARK  1 active torsions:
REMARK  status: ('A' for Active; 'I' for Inactive)
REMARK    1  A    between atoms: C3_4  and  O_7 
ROOT
ATOM      1  C   UNL d   1       1.156   1.583   1.244  0.00  0.00    -0.033 A 
ATOM      2  C1  UNL d   1       2.403   1.832   1.822  0.00  0.00     0.039 A 
ATOM      3  C2  UNL d   1       2.965   3.108   1.752  0.00  0.00    -0.080 A 
ATOM      4  C3  UNL d   1       2.271   4.125   1.103  0.00  0.00     0.150 A 
ATOM      5  C4  UNL d   1       1.028   3.886   0.528  0.00  0.00    -0.007 A 
ATOM      6  C5  UNL d   1       0.468   2.611   0.598  0.00  0.00     0.039 A 
ENDROOT
BRANCH   4   7
ATOM      7  O   UNL d   1       2.782   5.386   1.005  0.00  0.00    -0.526 OA
ATOM      8  H5  UNL d   1       3.660   5.395   1.422  0.00  0.00     0.418 HD
ENDBRANCH   4   7
TORSDOF 1
ENDMDL
