MODEL 1
REMARK minimizedAffinity -1.17627549
REMARK minimizedRMSD -1
REMARK  1 active torsions:
REMARK  status: ('A' for Active; 'I' for Inactive)
REMARK    1  A    between atoms: C3_4  and  O_7 
ROOT
ATOM      1  C   UNL d   1       1.741   1.347   0.600  0.00  0.00    -0.033 A 
ATOM      2  C1  UNL d   1       0.365   1.118   0.667  0.00  0.00     0.039 A 
ATOM      3  C2  UNL d   1      -0.370   1.584   1.759  0.00  0.00    -0.080 A 
ATOM      4  C3  UNL d   1       0.282   2.276   2.776  0.00  0.00     0.150 A 
ATOM      5  C4  UNL d   1       1.652   2.511   2.714  0.00  0.00    -0.007 A 
ATOM      6  C5  UNL d   1       2.384   2.044   1.623  0.00  0.00     0.039 A 
ENDROOT
BRANCH   4   7
ATOM      7  O   UNL d   1      -0.392   2.745   3.864  0.00  0.00    -0.526 OA
ATOM      8  H5  UNL d   1      -1.325   2.484   3.784  0.00  0.00     0.418 HD
ENDBRANCH   4   7
TORSDOF 1
ENDMDL
