MODEL 1
REMARK minimizedAffinity -4.65003347
REMARK minimizedRMSD -1
REMARK  0 active torsions:
REMARK  status: ('A' for Active; 'I' for Inactive)
ROOT
ATOM      1  C4' PXY d   1      -4.226  -3.672  -1.123  0.00  0.00     0.077 C 
ATOM      2  C1' PXY d   1       1.458  -2.643  -1.334  0.00  0.00     0.077 C 
ATOM      3  C1  PXY d   1      -0.033  -2.913  -1.292  0.00  0.00    -0.082 A 
ATOM      4  C2  PXY d   1      -0.730  -2.567  -0.222  0.00  0.00     0.003 A 
ATOM      5  C3  PXY d   1      -2.074  -2.832  -0.154  0.00  0.00     0.003 A 
ATOM      6  C4  PXY d   1      -2.720  -3.410  -1.213  0.00  0.00    -0.082 A 
ATOM      7  C5  PXY d   1      -2.018  -3.757  -2.313  0.00  0.00     0.003 A 
ATOM      8  C6  PXY d   1      -0.647  -3.516  -2.345  0.00  0.00     0.003 A 
ENDROOT
TORSDOF 0
ENDMDL
