MODEL 1
REMARK minimizedAffinity -3.83119202
REMARK minimizedRMSD -1
REMARK  0 active torsions:
REMARK  status: ('A' for Active; 'I' for Inactive)
ROOT
ATOM      1  C4' PXY d   1       0.325   2.485   0.171  0.00  0.00     0.077 C 
ATOM      2  C1' PXY d   1      -0.670  -3.209   0.203  0.00  0.00     0.077 C 
ATOM      3  C1  PXY d   1      -0.420  -1.713   0.201  0.00  0.00    -0.082 A 
ATOM      4  C2  PXY d   1       0.354  -1.181  -0.730  0.00  0.00     0.003 A 
ATOM      5  C3  PXY d   1       0.617   0.165  -0.727  0.00  0.00     0.003 A 
ATOM      6  C4  PXY d   1       0.037   0.982   0.206  0.00  0.00    -0.082 A 
ATOM      7  C5  PXY d   1      -0.763   0.448   1.153  0.00  0.00     0.003 A 
ATOM      8  C6  PXY d   1      -0.983  -0.927   1.158  0.00  0.00     0.003 A 
ENDROOT
TORSDOF 0
ENDMDL
