MODEL 1
REMARK minimizedAffinity -3.31586361
REMARK minimizedRMSD -1
REMARK  0 active torsions:
REMARK  status: ('A' for Active; 'I' for Inactive)
ROOT
ATOM      1  C4' PXY d   1       0.013  -3.267  -0.002  0.00  0.00     0.077 C 
ATOM      2  C1' PXY d   1       0.194   2.510  -0.076  0.00  0.00     0.077 C 
ATOM      3  C1  PXY d   1       0.147   0.995  -0.070  0.00  0.00    -0.082 A 
ATOM      4  C2  PXY d   1      -0.346   0.360   0.982  0.00  0.00     0.003 A 
ATOM      5  C3  PXY d   1      -0.367  -1.011   1.017  0.00  0.00     0.003 A 
ATOM      6  C4  PXY d   1       0.072  -1.738  -0.056  0.00  0.00    -0.082 A 
ATOM      7  C5  PXY d   1       0.566  -1.098  -1.137  0.00  0.00     0.003 A 
ATOM      8  C6  PXY d   1       0.617   0.293  -1.136  0.00  0.00     0.003 A 
ENDROOT
TORSDOF 0
ENDMDL
