MODEL 1
REMARK minimizedAffinity -4.81822777
REMARK minimizedRMSD -1
REMARK  0 active torsions:
REMARK  status: ('A' for Active; 'I' for Inactive)
ROOT
ATOM      1  C4' PXY d   1      -0.574   1.873  -0.815  0.00  0.00     0.077 C 
ATOM      2  C1' PXY d   1       0.043  -3.791   0.159  0.00  0.00     0.077 C 
ATOM      3  C1  PXY d   1      -0.127  -2.305  -0.086  0.00  0.00    -0.082 A 
ATOM      4  C2  PXY d   1       0.090  -1.812  -1.295  0.00  0.00     0.003 A 
ATOM      5  C3  PXY d   1      -0.028  -0.466  -1.527  0.00  0.00     0.003 A 
ATOM      6  C4  PXY d   1      -0.424   0.377  -0.524  0.00  0.00    -0.082 A 
ATOM      7  C5  PXY d   1      -0.658  -0.119   0.710  0.00  0.00     0.003 A 
ATOM      8  C6  PXY d   1      -0.492  -1.483   0.934  0.00  0.00     0.003 A 
ENDROOT
TORSDOF 0
ENDMDL
