MODEL 1
REMARK minimizedAffinity -0.147193611
REMARK minimizedRMSD -1
REMARK  0 active torsions:
REMARK  status: ('A' for Active; 'I' for Inactive)
ROOT
ATOM      1  C4' PXY d   1      -2.110   0.708   1.221  0.00  0.00     0.077 C 
ATOM      2  C1' PXY d   1       0.313  -4.359  -0.145  0.00  0.00     0.077 C 
ATOM      3  C1  PXY d   1      -0.311  -3.026   0.216  0.00  0.00    -0.082 A 
ATOM      4  C2  PXY d   1      -1.583  -2.975   0.577  0.00  0.00     0.003 A 
ATOM      5  C3  PXY d   1      -2.171  -1.773   0.876  0.00  0.00     0.003 A 
ATOM      6  C4  PXY d   1      -1.436  -0.618   0.857  0.00  0.00    -0.082 A 
ATOM      7  C5  PXY d   1      -0.135  -0.663   0.500  0.00  0.00     0.003 A 
ATOM      8  C6  PXY d   1       0.433  -1.887   0.160  0.00  0.00     0.003 A 
ENDROOT
TORSDOF 0
ENDMDL
