MODEL 1
REMARK minimizedAffinity 0.841805696
REMARK minimizedRMSD -1
REMARK  0 active torsions:
REMARK  status: ('A' for Active; 'I' for Inactive)
ROOT
ATOM      1  C4' PXY d   1      -3.060  -3.591   0.550  0.00  0.00     0.077 C 
ATOM      2  C1' PXY d   1       2.053  -1.345  -0.940  0.00  0.00     0.077 C 
ATOM      3  C1  PXY d   1       0.717  -1.946  -0.552  0.00  0.00    -0.082 A 
ATOM      4  C2  PXY d   1      -0.376  -1.202  -0.607  0.00  0.00     0.003 A 
ATOM      5  C3  PXY d   1      -1.588  -1.720  -0.229  0.00  0.00     0.003 A 
ATOM      6  C4  PXY d   1      -1.691  -3.029   0.159  0.00  0.00    -0.082 A 
ATOM      7  C5  PXY d   1      -0.583  -3.798   0.208  0.00  0.00     0.003 A 
ATOM      8  C6  PXY d   1       0.645  -3.241  -0.141  0.00  0.00     0.003 A 
ENDROOT
TORSDOF 0
ENDMDL
