MODEL 1
REMARK minimizedAffinity -3.75779819
REMARK minimizedRMSD -1
REMARK  0 active torsions:
REMARK  status: ('A' for Active; 'I' for Inactive)
ROOT
ATOM      1  C4' PXY d   1       0.209   1.714   0.111  0.00  0.00     0.077 C 
ATOM      2  C1' PXY d   1      -0.058  -4.056  -0.105  0.00  0.00     0.077 C 
ATOM      3  C1  PXY d   1       0.001  -2.543  -0.042  0.00  0.00    -0.082 A 
ATOM      4  C2  PXY d   1       0.685  -1.876  -0.957  0.00  0.00     0.003 A 
ATOM      5  C3  PXY d   1       0.775  -0.509  -0.896  0.00  0.00     0.003 A 
ATOM      6  C4  PXY d   1       0.114   0.186   0.081  0.00  0.00    -0.082 A 
ATOM      7  C5  PXY d   1      -0.595  -0.486   1.012  0.00  0.00     0.003 A 
ATOM      8  C6  PXY d   1      -0.640  -1.876   0.957  0.00  0.00     0.003 A 
ENDROOT
TORSDOF 0
ENDMDL
