MODEL 1
REMARK minimizedAffinity -2.23352337
REMARK minimizedRMSD -1
REMARK  0 active torsions:
REMARK  status: ('A' for Active; 'I' for Inactive)
ROOT
ATOM      1  C4' PXY d   1      -0.055   1.770  -0.494  0.00  0.00     0.077 C 
ATOM      2  C1' PXY d   1       0.054  -3.896   0.648  0.00  0.00     0.077 C 
ATOM      3  C1  PXY d   1       0.014  -2.409   0.354  0.00  0.00    -0.082 A 
ATOM      4  C2  PXY d   1       0.715  -1.922  -0.657  0.00  0.00     0.003 A 
ATOM      5  C3  PXY d   1       0.715  -0.576  -0.917  0.00  0.00     0.003 A 
ATOM      6  C4  PXY d   1      -0.052   0.274  -0.166  0.00  0.00    -0.082 A 
ATOM      7  C5  PXY d   1      -0.778  -0.216   0.861  0.00  0.00     0.003 A 
ATOM      8  C6  PXY d   1      -0.732  -1.580   1.133  0.00  0.00     0.003 A 
ENDROOT
TORSDOF 0
ENDMDL
