MODEL 1
REMARK minimizedAffinity -4.55918741
REMARK minimizedRMSD -1
REMARK  0 active torsions:
REMARK  status: ('A' for Active; 'I' for Inactive)
ROOT
ATOM      1  C4' PXY d   1       1.447   2.535   0.474  0.00  0.00     0.077 C 
ATOM      2  C1' PXY d   1      -1.225  -2.590   0.441  0.00  0.00     0.077 C 
ATOM      3  C1  PXY d   1      -0.519  -1.249   0.438  0.00  0.00    -0.082 A 
ATOM      4  C2  PXY d   1      -0.334  -0.605   1.579  0.00  0.00     0.003 A 
ATOM      5  C3  PXY d   1       0.275   0.624   1.591  0.00  0.00     0.003 A 
ATOM      6  C4  PXY d   1       0.747   1.174   0.430  0.00  0.00    -0.082 A 
ATOM      7  C5  PXY d   1       0.572   0.518  -0.737  0.00  0.00     0.003 A 
ATOM      8  C6  PXY d   1      -0.085  -0.709  -0.733  0.00  0.00     0.003 A 
ENDROOT
TORSDOF 0
ENDMDL
