MODEL 1
REMARK minimizedAffinity -5.06491756
REMARK minimizedRMSD -1
REMARK  0 active torsions:
REMARK  status: ('A' for Active; 'I' for Inactive)
ROOT
ATOM      1  C4' PXY d   1       0.015   2.328   0.542  0.00  0.00     0.077 C 
ATOM      2  C1' PXY d   1       0.092  -3.423  -0.039  0.00  0.00     0.077 C 
ATOM      3  C1  PXY d   1       0.082  -1.914   0.105  0.00  0.00    -0.082 A 
ATOM      4  C2  PXY d   1      -0.418  -1.365   1.200  0.00  0.00     0.003 A 
ATOM      5  C3  PXY d   1      -0.464  -0.001   1.333  0.00  0.00     0.003 A 
ATOM      6  C4  PXY d   1       0.055   0.808   0.358  0.00  0.00    -0.082 A 
ATOM      7  C5  PXY d   1       0.576   0.255  -0.758  0.00  0.00     0.003 A 
ATOM      8  C6  PXY d   1       0.576  -1.130  -0.891  0.00  0.00     0.003 A 
ENDROOT
TORSDOF 0
ENDMDL
