MODEL 1
REMARK minimizedAffinity -5.03090191
REMARK minimizedRMSD -1
REMARK  0 active torsions:
REMARK  status: ('A' for Active; 'I' for Inactive)
ROOT
ATOM      1  C4' PXY d   1      -0.213   2.070  -0.031  0.00  0.00     0.077 C 
ATOM      2  C1' PXY d   1       0.081  -3.659   0.679  0.00  0.00     0.077 C 
ATOM      3  C1  PXY d   1      -0.008  -2.157   0.497  0.00  0.00    -0.082 A 
ATOM      4  C2  PXY d   1       0.793  -1.554  -0.366  0.00  0.00     0.003 A 
ATOM      5  C3  PXY d   1       0.747  -0.192  -0.520  0.00  0.00     0.003 A 
ATOM      6  C4  PXY d   1      -0.164   0.554   0.178  0.00  0.00    -0.082 A 
ATOM      7  C5  PXY d   1      -0.992  -0.055   1.053  0.00  0.00     0.003 A 
ATOM      8  C6  PXY d   1      -0.901  -1.433   1.225  0.00  0.00     0.003 A 
ENDROOT
TORSDOF 0
ENDMDL
