MODEL 1
REMARK minimizedAffinity -1.25355268
REMARK minimizedRMSD -1
REMARK  0 active torsions:
REMARK  status: ('A' for Active; 'I' for Inactive)
ROOT
ATOM      1  C4' PXY d   1       0.756   2.138   0.181  0.00  0.00     0.077 C 
ATOM      2  C1' PXY d   1      -0.795  -3.406  -0.340  0.00  0.00     0.077 C 
ATOM      3  C1  PXY d   1      -0.379  -1.954  -0.213  0.00  0.00    -0.082 A 
ATOM      4  C2  PXY d   1      -0.583  -1.312   0.926  0.00  0.00     0.003 A 
ATOM      5  C3  PXY d   1      -0.243   0.010   1.048  0.00  0.00     0.003 A 
ATOM      6  C4  PXY d   1       0.361   0.668   0.011  0.00  0.00    -0.082 A 
ATOM      7  C5  PXY d   1       0.583   0.018  -1.151  0.00  0.00     0.003 A 
ATOM      8  C6  PXY d   1       0.192  -1.313  -1.268  0.00  0.00     0.003 A 
ENDROOT
TORSDOF 0
ENDMDL
