MODEL 1
REMARK minimizedAffinity -4.06947947
REMARK minimizedRMSD -1
REMARK  0 active torsions:
REMARK  status: ('A' for Active; 'I' for Inactive)
ROOT
ATOM      1  C4' PXY d   1       0.006   0.825   0.898  0.00  0.00     0.077 C 
ATOM      2  C1' PXY d   1       0.101  -4.603  -1.088  0.00  0.00     0.077 C 
ATOM      3  C1  PXY d   1       0.070  -3.184  -0.556  0.00  0.00    -0.082 A 
ATOM      4  C2  PXY d   1       0.161  -2.168  -1.399  0.00  0.00     0.003 A 
ATOM      5  C3  PXY d   1       0.166  -0.878  -0.933  0.00  0.00     0.003 A 
ATOM      6  C4  PXY d   1       0.023  -0.625   0.405  0.00  0.00    -0.082 A 
ATOM      7  C5  PXY d   1      -0.081  -1.656   1.270  0.00  0.00     0.003 A 
ATOM      8  C6  PXY d   1      -0.043  -2.958   0.781  0.00  0.00     0.003 A 
ENDROOT
TORSDOF 0
ENDMDL
