MODEL 1
REMARK minimizedAffinity -5.43564844
REMARK minimizedRMSD -1
REMARK  0 active torsions:
REMARK  status: ('A' for Active; 'I' for Inactive)
ROOT
ATOM      1  C4' PXY d   1       0.735  -2.965  -2.137  0.00  0.00     0.077 C 
ATOM      2  C1' PXY d   1      -1.054  -0.246   2.640  0.00  0.00     0.077 C 
ATOM      3  C1  PXY d   1      -0.581  -0.969   1.395  0.00  0.00    -0.082 A 
ATOM      4  C2  PXY d   1      -0.299  -0.276   0.303  0.00  0.00     0.003 A 
ATOM      5  C3  PXY d   1       0.100  -0.917  -0.841  0.00  0.00     0.003 A 
ATOM      6  C4  PXY d   1       0.263  -2.276  -0.853  0.00  0.00    -0.082 A 
ATOM      7  C5  PXY d   1      -0.013  -2.989   0.259  0.00  0.00     0.003 A 
ATOM      8  C6  PXY d   1      -0.456  -2.324   1.399  0.00  0.00     0.003 A 
ENDROOT
TORSDOF 0
ENDMDL
