MODEL 1
REMARK minimizedAffinity -4.63036537
REMARK minimizedRMSD -1
REMARK  0 active torsions:
REMARK  status: ('A' for Active; 'I' for Inactive)
ROOT
ATOM      1  C4' PXY d   1       0.366   2.322  -0.252  0.00  0.00     0.077 C 
ATOM      2  C1' PXY d   1      -0.139  -3.346   0.762  0.00  0.00     0.077 C 
ATOM      3  C1  PXY d   1       0.006  -1.861   0.493  0.00  0.00    -0.082 A 
ATOM      4  C2  PXY d   1      -0.865  -1.014   1.016  0.00  0.00     0.003 A 
ATOM      5  C3  PXY d   1      -0.768   0.329   0.758  0.00  0.00     0.003 A 
ATOM      6  C4  PXY d   1       0.264   0.816  -0.000  0.00  0.00    -0.082 A 
ATOM      7  C5  PXY d   1       1.163  -0.041  -0.528  0.00  0.00     0.003 A 
ATOM      8  C6  PXY d   1       1.023  -1.405  -0.288  0.00  0.00     0.003 A 
ENDROOT
TORSDOF 0
ENDMDL
