MODEL 1
REMARK minimizedAffinity -5.62636232
REMARK minimizedRMSD -1
REMARK  0 active torsions:
REMARK  status: ('A' for Active; 'I' for Inactive)
ROOT
ATOM      1  C4' PXY d   1       0.408   1.914  -0.701  0.00  0.00     0.077 C 
ATOM      2  C1' PXY d   1      -0.399  -3.781  -0.134  0.00  0.00     0.077 C 
ATOM      3  C1  PXY d   1      -0.178  -2.290  -0.292  0.00  0.00    -0.082 A 
ATOM      4  C2  PXY d   1      -0.520  -1.471   0.690  0.00  0.00     0.003 A 
ATOM      5  C3  PXY d   1      -0.357  -0.116   0.551  0.00  0.00     0.003 A 
ATOM      6  C4  PXY d   1       0.212   0.401  -0.582  0.00  0.00    -0.082 A 
ATOM      7  C5  PXY d   1       0.573  -0.429  -1.584  0.00  0.00     0.003 A 
ATOM      8  C6  PXY d   1       0.361  -1.798  -1.440  0.00  0.00     0.003 A 
ENDROOT
TORSDOF 0
ENDMDL
