MODEL 1
REMARK minimizedAffinity -4.38852978
REMARK minimizedRMSD -1
REMARK  0 active torsions:
REMARK  status: ('A' for Active; 'I' for Inactive)
ROOT
ATOM      1  C4' PXY d   1      -2.122   0.214   1.850  0.00  0.00     0.077 C 
ATOM      2  C1' PXY d   1       0.343  -2.231  -2.773  0.00  0.00     0.077 C 
ATOM      3  C1  PXY d   1      -0.311  -1.600  -1.559  0.00  0.00    -0.082 A 
ATOM      4  C2  PXY d   1      -0.294  -0.285  -1.416  0.00  0.00     0.003 A 
ATOM      5  C3  PXY d   1      -0.852   0.300  -0.309  0.00  0.00     0.003 A 
ATOM      6  C4  PXY d   1      -1.482  -0.466   0.636  0.00  0.00    -0.082 A 
ATOM      7  C5  PXY d   1      -1.514  -1.808   0.491  0.00  0.00     0.003 A 
ATOM      8  C6  PXY d   1      -0.905  -2.385  -0.619  0.00  0.00     0.003 A 
ENDROOT
TORSDOF 0
ENDMDL
