MODEL 1
REMARK minimizedAffinity -4.25540686
REMARK minimizedRMSD -1
REMARK  0 active torsions:
REMARK  status: ('A' for Active; 'I' for Inactive)
ROOT
ATOM      1  C4' PXY d   1      -1.354   0.302   2.162  0.00  0.00     0.077 C 
ATOM      2  C1' PXY d   1       0.078  -2.069  -2.912  0.00  0.00     0.077 C 
ATOM      3  C1  PXY d   1      -0.289  -1.438  -1.584  0.00  0.00    -0.082 A 
ATOM      4  C2  PXY d   1      -0.783  -2.192  -0.615  0.00  0.00     0.003 A 
ATOM      5  C3  PXY d   1      -1.151  -1.631   0.581  0.00  0.00     0.003 A 
ATOM      6  C4  PXY d   1      -0.961  -0.294   0.808  0.00  0.00    -0.082 A 
ATOM      7  C5  PXY d   1      -0.447   0.480  -0.172  0.00  0.00     0.003 A 
ATOM      8  C6  PXY d   1      -0.119  -0.101  -1.394  0.00  0.00     0.003 A 
ENDROOT
TORSDOF 0
ENDMDL
