MODEL 1
REMARK minimizedAffinity -4.0887146
REMARK minimizedRMSD -1
REMARK  0 active torsions:
REMARK  status: ('A' for Active; 'I' for Inactive)
ROOT
ATOM      1  C4' PXY d   1      -2.216   0.289   2.064  0.00  0.00     0.077 C 
ATOM      2  C1' PXY d   1       1.091  -1.857  -2.164  0.00  0.00     0.077 C 
ATOM      3  C1  PXY d   1       0.218  -1.305  -1.054  0.00  0.00    -0.082 A 
ATOM      4  C2  PXY d   1       0.003  -0.002  -0.977  0.00  0.00     0.003 A 
ATOM      5  C3  PXY d   1      -0.758   0.516   0.039  0.00  0.00     0.003 A 
ATOM      6  C4  PXY d   1      -1.349  -0.313   0.954  0.00  0.00    -0.082 A 
ATOM      7  C5  PXY d   1      -1.143  -1.645   0.876  0.00  0.00     0.003 A 
ATOM      8  C6  PXY d   1      -0.334  -2.147  -0.139  0.00  0.00     0.003 A 
ENDROOT
TORSDOF 0
ENDMDL
