MODEL 1
REMARK minimizedAffinity -3.92237616
REMARK minimizedRMSD -1
REMARK  1 active torsions:
REMARK  status: ('A' for Active; 'I' for Inactive)
REMARK    1  A    between atoms: N_2  and  C1_3 
ROOT
ATOM      1  C1  UNL d   1       0.132  -0.130  -0.189  0.00  0.00     0.143 A 
ATOM      2  C2  UNL d   1      -1.247  -0.348  -0.093  0.00  0.00    -0.057 A 
ATOM      3  C3  UNL d   1      -1.986   0.141   0.990  0.00  0.00     0.033 A 
ATOM      4  C4  UNL d   1      -1.352   0.834   2.016  0.00  0.00    -0.042 A 
ATOM      5  C5  UNL d   1       0.022   1.041   1.955  0.00  0.00     0.033 A 
ATOM      6  C6  UNL d   1       0.754   0.556   0.867  0.00  0.00    -0.057 A 
ENDROOT
BRANCH   1   7
ATOM      7  N   UNL d   1       0.938  -0.676  -1.191  0.00  0.00    -0.732 N 
ATOM      8  C   UNL d   1       0.694  -0.366  -2.583  0.00  0.00     0.284 C 
ATOM      9  H3  UNL d   1       1.923  -0.687  -0.934  0.00  0.00     0.395 HD
ENDBRANCH   1   7
TORSDOF 1
ENDMDL
