MODEL 1
REMARK minimizedAffinity -3.27066612
REMARK minimizedRMSD -1
REMARK  1 active torsions:
REMARK  status: ('A' for Active; 'I' for Inactive)
REMARK    1  A    between atoms: N_2  and  C1_3 
ROOT
ATOM      1  C1  UNL d   1       0.246  -0.515   0.104  0.00  0.00     0.143 A 
ATOM      2  C2  UNL d   1      -1.074  -0.106  -0.111  0.00  0.00    -0.057 A 
ATOM      3  C3  UNL d   1      -1.872   0.358   0.942  0.00  0.00     0.033 A 
ATOM      4  C4  UNL d   1      -1.370   0.393   2.239  0.00  0.00    -0.042 A 
ATOM      5  C5  UNL d   1      -0.069  -0.032   2.481  0.00  0.00     0.033 A 
ATOM      6  C6  UNL d   1       0.725  -0.489   1.424  0.00  0.00    -0.057 A 
ENDROOT
BRANCH   1   7
ATOM      7  N   UNL d   1       1.056  -1.079  -0.884  0.00  0.00    -0.732 N 
ATOM      8  C   UNL d   1       1.128  -0.489  -2.203  0.00  0.00     0.284 C 
ATOM      9  H3  UNL d   1       1.953  -1.392  -0.519  0.00  0.00     0.395 HD
ENDBRANCH   1   7
TORSDOF 1
ENDMDL
