MODEL 1
REMARK minimizedAffinity -4.20719147
REMARK minimizedRMSD -1
REMARK  1 active torsions:
REMARK  status: ('A' for Active; 'I' for Inactive)
REMARK    1  A    between atoms: N_2  and  C1_3 
ROOT
ATOM      1  C1  UNL d   1      -0.296  -0.297   0.224  0.00  0.00     0.143 A 
ATOM      2  C2  UNL d   1      -1.107  -0.805   1.244  0.00  0.00    -0.057 A 
ATOM      3  C3  UNL d   1      -1.535   0.005   2.303  0.00  0.00     0.033 A 
ATOM      4  C4  UNL d   1      -1.134   1.335   2.376  0.00  0.00    -0.042 A 
ATOM      5  C5  UNL d   1      -0.307   1.855   1.386  0.00  0.00     0.033 A 
ATOM      6  C6  UNL d   1       0.111   1.043   0.327  0.00  0.00    -0.057 A 
ENDROOT
BRANCH   1   7
ATOM      7  N   UNL d   1       0.242  -1.076  -0.803  0.00  0.00    -0.732 N 
ATOM      8  C   UNL d   1       0.426  -0.524  -2.128  0.00  0.00     0.284 C 
ATOM      9  H3  UNL d   1       1.013  -1.659  -0.485  0.00  0.00     0.395 HD
ENDBRANCH   1   7
TORSDOF 1
ENDMDL
