MODEL 1
REMARK minimizedAffinity -2.71812892
REMARK minimizedRMSD -1
REMARK  1 active torsions:
REMARK  status: ('A' for Active; 'I' for Inactive)
REMARK    1  A    between atoms: N_2  and  C1_3 
ROOT
ATOM      1  C1  UNL d   1       0.934  -0.592   1.520  0.00  0.00     0.143 A 
ATOM      2  C2  UNL d   1      -0.432  -0.822   1.714  0.00  0.00    -0.057 A 
ATOM      3  C3  UNL d   1      -1.316   0.231   1.978  0.00  0.00     0.033 A 
ATOM      4  C4  UNL d   1      -0.842   1.534   2.082  0.00  0.00    -0.042 A 
ATOM      5  C5  UNL d   1       0.515   1.784   1.918  0.00  0.00     0.033 A 
ATOM      6  C6  UNL d   1       1.392   0.729   1.648  0.00  0.00    -0.057 A 
ENDROOT
BRANCH   1   7
ATOM      7  N   UNL d   1       1.879  -1.607   1.352  0.00  0.00    -0.732 N 
ATOM      8  C   UNL d   1       3.037  -1.405   0.508  0.00  0.00     0.284 C 
ATOM      9  H3  UNL d   1       2.077  -2.100   2.219  0.00  0.00     0.395 HD
ENDBRANCH   1   7
TORSDOF 1
ENDMDL
