MODEL 1
REMARK minimizedAffinity -5.43888903
REMARK minimizedRMSD -1
REMARK  1 active torsions:
REMARK  status: ('A' for Active; 'I' for Inactive)
REMARK    1  A    between atoms: C3_4  and  O_7 
ROOT
ATOM      1  C   UNL d   1       0.548  -0.270  -0.756  0.00  0.00    -0.033 A 
ATOM      2  C1  UNL d   1       0.032  -0.541   0.513  0.00  0.00     0.039 A 
ATOM      3  C2  UNL d   1      -1.346  -0.673   0.695  0.00  0.00    -0.080 A 
ATOM      4  C3  UNL d   1      -2.196  -0.534  -0.398  0.00  0.00     0.150 A 
ATOM      5  C4  UNL d   1      -1.689  -0.267  -1.666  0.00  0.00    -0.007 A 
ATOM      6  C5  UNL d   1      -0.313  -0.134  -1.846  0.00  0.00     0.039 A 
ENDROOT
BRANCH   4   7
ATOM      7  O   UNL d   1      -3.548  -0.649  -0.269  0.00  0.00    -0.526 OA
ATOM      8  H5  UNL d   1      -3.756  -0.805   0.667  0.00  0.00     0.418 HD
ENDBRANCH   4   7
TORSDOF 1
ENDMDL
