MODEL 1
REMARK minimizedAffinity -2.38959837
REMARK minimizedRMSD -1
REMARK  1 active torsions:
REMARK  status: ('A' for Active; 'I' for Inactive)
REMARK    1  A    between atoms: C3_4  and  O_7 
ROOT
ATOM      1  C   UNL d   1      -5.054   5.071   1.868  0.00  0.00    -0.033 A 
ATOM      2  C1  UNL d   1      -4.106   4.381   2.625  0.00  0.00     0.039 A 
ATOM      3  C2  UNL d   1      -4.098   4.501   4.016  0.00  0.00    -0.080 A 
ATOM      4  C3  UNL d   1      -5.044   5.312   4.637  0.00  0.00     0.150 A 
ATOM      5  C4  UNL d   1      -5.995   6.000   3.889  0.00  0.00    -0.007 A 
ATOM      6  C5  UNL d   1      -6.000   5.879   2.500  0.00  0.00     0.039 A 
ENDROOT
BRANCH   4   7
ATOM      7  O   UNL d   1      -5.073   5.464   5.991  0.00  0.00    -0.526 OA
ATOM      8  H5  UNL d   1      -4.341   4.954   6.374  0.00  0.00     0.418 HD
ENDBRANCH   4   7
TORSDOF 1
ENDMDL
