MODEL 1
REMARK minimizedAffinity -2.82704449
REMARK minimizedRMSD -1
REMARK  1 active torsions:
REMARK  status: ('A' for Active; 'I' for Inactive)
REMARK    1  A    between atoms: C3_4  and  O_7 
ROOT
ATOM      1  C   UNL d   1       1.971   1.851   1.197  0.00  0.00    -0.033 A 
ATOM      2  C1  UNL d   1       2.445   3.119   1.538  0.00  0.00     0.039 A 
ATOM      3  C2  UNL d   1       3.227   3.841   0.634  0.00  0.00    -0.080 A 
ATOM      4  C3  UNL d   1       3.526   3.284  -0.606  0.00  0.00     0.150 A 
ATOM      5  C4  UNL d   1       3.054   2.023  -0.954  0.00  0.00    -0.007 A 
ATOM      6  C5  UNL d   1       2.274   1.304  -0.050  0.00  0.00     0.039 A 
ENDROOT
BRANCH   4   7
ATOM      7  O   UNL d   1       4.290   3.949  -1.519  0.00  0.00    -0.526 OA
ATOM      8  H5  UNL d   1       4.569   4.794  -1.130  0.00  0.00     0.418 HD
ENDBRANCH   4   7
TORSDOF 1
ENDMDL
