MODEL 1
REMARK minimizedAffinity -5.38438225
REMARK minimizedRMSD -1
REMARK  1 active torsions:
REMARK  status: ('A' for Active; 'I' for Inactive)
REMARK    1  A    between atoms: C3_4  and  O_7 
ROOT
ATOM      1  C   UNL d   1       0.071  -0.791  -0.199  0.00  0.00    -0.033 A 
ATOM      2  C1  UNL d   1      -0.556  -0.065  -1.214  0.00  0.00     0.039 A 
ATOM      3  C2  UNL d   1      -1.946   0.065  -1.225  0.00  0.00    -0.080 A 
ATOM      4  C3  UNL d   1      -2.697  -0.534  -0.217  0.00  0.00     0.150 A 
ATOM      5  C4  UNL d   1      -2.078  -1.255   0.799  0.00  0.00    -0.007 A 
ATOM      6  C5  UNL d   1      -0.690  -1.385   0.808  0.00  0.00     0.039 A 
ENDROOT
BRANCH   4   7
ATOM      7  O   UNL d   1      -4.056  -0.438  -0.188  0.00  0.00    -0.526 OA
ATOM      8  H5  UNL d   1      -4.346   0.065  -0.967  0.00  0.00     0.418 HD
ENDBRANCH   4   7
TORSDOF 1
ENDMDL
