MODEL 1
REMARK minimizedAffinity -3.84684801
REMARK minimizedRMSD -1
REMARK  1 active torsions:
REMARK  status: ('A' for Active; 'I' for Inactive)
REMARK    1  A    between atoms: C3_4  and  O_7 
ROOT
ATOM      1  C   UNL d   1       0.113   0.173  -0.861  0.00  0.00    -0.033 A 
ATOM      2  C1  UNL d   1      -0.385   0.001   0.432  0.00  0.00     0.039 A 
ATOM      3  C2  UNL d   1      -1.728  -0.328   0.627  0.00  0.00    -0.080 A 
ATOM      4  C3  UNL d   1      -2.561  -0.483  -0.478  0.00  0.00     0.150 A 
ATOM      5  C4  UNL d   1      -2.071  -0.317  -1.769  0.00  0.00    -0.007 A 
ATOM      6  C5  UNL d   1      -0.730   0.012  -1.962  0.00  0.00     0.039 A 
ENDROOT
BRANCH   4   7
ATOM      7  O   UNL d   1      -3.880  -0.799  -0.338  0.00  0.00    -0.526 OA
ATOM      8  H5  UNL d   1      -4.084  -0.854   0.611  0.00  0.00     0.418 HD
ENDBRANCH   4   7
TORSDOF 1
ENDMDL
