MODEL 1
REMARK minimizedAffinity -4.81637716
REMARK minimizedRMSD -1
REMARK  1 active torsions:
REMARK  status: ('A' for Active; 'I' for Inactive)
REMARK    1  A    between atoms: C3_4  and  O_7 
ROOT
ATOM      1  C   UNL d   1       0.097   0.214  -0.942  0.00  0.00    -0.033 A 
ATOM      2  C1  UNL d   1      -0.265  -0.200   0.342  0.00  0.00     0.039 A 
ATOM      3  C2  UNL d   1      -1.610  -0.395   0.661  0.00  0.00    -0.080 A 
ATOM      4  C3  UNL d   1      -2.582  -0.174  -0.311  0.00  0.00     0.150 A 
ATOM      5  C4  UNL d   1      -2.228   0.236  -1.593  0.00  0.00    -0.007 A 
ATOM      6  C5  UNL d   1      -0.884   0.431  -1.909  0.00  0.00     0.039 A 
ENDROOT
BRANCH   4   7
ATOM      7  O   UNL d   1      -3.908  -0.346  -0.046  0.00  0.00    -0.526 OA
ATOM      8  H5  UNL d   1      -4.004  -0.602   0.887  0.00  0.00     0.418 HD
ENDBRANCH   4   7
TORSDOF 1
ENDMDL
