MODEL 1
REMARK minimizedAffinity -3.88966584
REMARK minimizedRMSD -1
REMARK  1 active torsions:
REMARK  status: ('A' for Active; 'I' for Inactive)
REMARK    1  A    between atoms: C3_4  and  O_7 
ROOT
ATOM      1  C   UNL d   1       3.271   3.202   1.984  0.00  0.00    -0.033 A 
ATOM      2  C1  UNL d   1       3.371   3.318   0.596  0.00  0.00     0.039 A 
ATOM      3  C2  UNL d   1       2.894   2.296  -0.228  0.00  0.00    -0.080 A 
ATOM      4  C3  UNL d   1       2.319   1.166   0.348  0.00  0.00     0.150 A 
ATOM      5  C4  UNL d   1       2.213   1.046   1.730  0.00  0.00    -0.007 A 
ATOM      6  C5  UNL d   1       2.691   2.067   2.551  0.00  0.00     0.039 A 
ENDROOT
BRANCH   4   7
ATOM      7  O   UNL d   1       1.844   0.141  -0.415  0.00  0.00    -0.526 OA
ATOM      8  H5  UNL d   1       2.010   0.350  -1.349  0.00  0.00     0.418 HD
ENDBRANCH   4   7
TORSDOF 1
ENDMDL
