MODEL 1
REMARK minimizedAffinity -0.914195836
REMARK minimizedRMSD -1
REMARK  1 active torsions:
REMARK  status: ('A' for Active; 'I' for Inactive)
REMARK    1  A    between atoms: C3_4  and  O_7 
ROOT
ATOM      1  C   UNL d   1      -1.335  -1.763   1.724  0.00  0.00    -0.033 A 
ATOM      2  C1  UNL d   1       0.027  -2.065   1.666  0.00  0.00     0.039 A 
ATOM      3  C2  UNL d   1       0.914  -1.182   1.048  0.00  0.00    -0.080 A 
ATOM      4  C3  UNL d   1       0.428  -0.002   0.492  0.00  0.00     0.150 A 
ATOM      5  C4  UNL d   1      -0.928   0.307   0.549  0.00  0.00    -0.007 A 
ATOM      6  C5  UNL d   1      -1.812  -0.576   1.167  0.00  0.00     0.039 A 
ENDROOT
BRANCH   4   7
ATOM      7  O   UNL d   1       1.254   0.889  -0.126  0.00  0.00    -0.526 OA
ATOM      8  H5  UNL d   1       2.157   0.530  -0.115  0.00  0.00     0.418 HD
ENDBRANCH   4   7
TORSDOF 1
ENDMDL
