MODEL 1
REMARK minimizedAffinity -1.82039833
REMARK minimizedRMSD -1
REMARK  1 active torsions:
REMARK  status: ('A' for Active; 'I' for Inactive)
REMARK    1  A    between atoms: C3_4  and  O_7 
ROOT
ATOM      1  C   UNL d   1       0.467  -0.375  -0.550  0.00  0.00    -0.033 A 
ATOM      2  C1  UNL d   1       1.698  -0.559   0.083  0.00  0.00     0.039 A 
ATOM      3  C2  UNL d   1       2.407   0.542   0.568  0.00  0.00    -0.080 A 
ATOM      4  C3  UNL d   1       1.874   1.819   0.415  0.00  0.00     0.150 A 
ATOM      5  C4  UNL d   1       0.646   2.009  -0.211  0.00  0.00    -0.007 A 
ATOM      6  C5  UNL d   1      -0.059   0.909  -0.696  0.00  0.00     0.039 A 
ENDROOT
BRANCH   4   7
ATOM      7  O   UNL d   1       2.531   2.924   0.869  0.00  0.00    -0.526 OA
ATOM      8  H5  UNL d   1       3.378   2.643   1.253  0.00  0.00     0.418 HD
ENDBRANCH   4   7
TORSDOF 1
ENDMDL
