MODEL 1
REMARK minimizedAffinity -3.89041448
REMARK minimizedRMSD -1
REMARK  1 active torsions:
REMARK  status: ('A' for Active; 'I' for Inactive)
REMARK    1  A    between atoms: C3_4  and  O_7 
ROOT
ATOM      1  C   UNL d   1       0.464   0.418  -0.698  0.00  0.00    -0.033 A 
ATOM      2  C1  UNL d   1       0.130  -0.352   0.419  0.00  0.00     0.039 A 
ATOM      3  C2  UNL d   1      -1.196  -0.729   0.637  0.00  0.00    -0.080 A 
ATOM      4  C3  UNL d   1      -2.177  -0.332  -0.267  0.00  0.00     0.150 A 
ATOM      5  C4  UNL d   1      -1.851   0.431  -1.384  0.00  0.00    -0.007 A 
ATOM      6  C5  UNL d   1      -0.526   0.808  -1.600  0.00  0.00     0.039 A 
ENDROOT
BRANCH   4   7
ATOM      7  O   UNL d   1      -3.486  -0.672  -0.094  0.00  0.00    -0.526 OA
ATOM      8  H5  UNL d   1      -3.566  -1.175   0.734  0.00  0.00     0.418 HD
ENDBRANCH   4   7
TORSDOF 1
ENDMDL
