MODEL 1
REMARK minimizedAffinity -1.8987745
REMARK minimizedRMSD -1
REMARK  1 active torsions:
REMARK  status: ('A' for Active; 'I' for Inactive)
REMARK    1  A    between atoms: C3_4  and  O_7 
ROOT
ATOM      1  C   UNL d   1       1.083   0.383  -0.382  0.00  0.00    -0.033 A 
ATOM      2  C1  UNL d   1       0.453  -0.184   0.727  0.00  0.00     0.039 A 
ATOM      3  C2  UNL d   1      -0.841  -0.696   0.611  0.00  0.00    -0.080 A 
ATOM      4  C3  UNL d   1      -1.492  -0.635  -0.618  0.00  0.00     0.150 A 
ATOM      5  C4  UNL d   1      -0.868  -0.075  -1.728  0.00  0.00    -0.007 A 
ATOM      6  C5  UNL d   1       0.423   0.436  -1.610  0.00  0.00     0.039 A 
ENDROOT
BRANCH   4   7
ATOM      7  O   UNL d   1      -2.757  -1.117  -0.779  0.00  0.00    -0.526 OA
ATOM      8  H5  UNL d   1      -3.071  -1.448   0.079  0.00  0.00     0.418 HD
ENDBRANCH   4   7
TORSDOF 1
ENDMDL
