MODEL 1
REMARK minimizedAffinity -4.29967499
REMARK minimizedRMSD -1
REMARK  1 active torsions:
REMARK  status: ('A' for Active; 'I' for Inactive)
REMARK    1  A    between atoms: C3_4  and  O_7 
ROOT
ATOM      1  C   UNL d   1       0.469   0.415  -0.650  0.00  0.00    -0.033 A 
ATOM      2  C1  UNL d   1       0.148  -0.135   0.592  0.00  0.00     0.039 A 
ATOM      3  C2  UNL d   1      -1.149  -0.585   0.844  0.00  0.00    -0.080 A 
ATOM      4  C3  UNL d   1      -2.115  -0.480  -0.154  0.00  0.00     0.150 A 
ATOM      5  C4  UNL d   1      -1.801   0.063  -1.395  0.00  0.00    -0.007 A 
ATOM      6  C5  UNL d   1      -0.505   0.513  -1.645  0.00  0.00     0.039 A 
ENDROOT
BRANCH   4   7
ATOM      7  O   UNL d   1      -3.396  -0.901   0.047  0.00  0.00    -0.526 OA
ATOM      8  H5  UNL d   1      -3.473  -1.227   0.959  0.00  0.00     0.418 HD
ENDBRANCH   4   7
TORSDOF 1
ENDMDL
