MODEL 1
REMARK minimizedAffinity -3.99244547
REMARK minimizedRMSD -1
REMARK  1 active torsions:
REMARK  status: ('A' for Active; 'I' for Inactive)
REMARK    1  A    between atoms: C3_4  and  O_7 
ROOT
ATOM      1  C   UNL d   1       0.838   0.303  -0.763  0.00  0.00    -0.033 A 
ATOM      2  C1  UNL d   1       0.318  -0.027   0.490  0.00  0.00     0.039 A 
ATOM      3  C2  UNL d   1      -1.039  -0.326   0.628  0.00  0.00    -0.080 A 
ATOM      4  C3  UNL d   1      -1.864  -0.292  -0.494  0.00  0.00     0.150 A 
ATOM      5  C4  UNL d   1      -1.351   0.032  -1.745  0.00  0.00    -0.007 A 
ATOM      6  C5  UNL d   1       0.004   0.331  -1.881  0.00  0.00     0.039 A 
ENDROOT
BRANCH   4   7
ATOM      7  O   UNL d   1      -3.195  -0.572  -0.408  0.00  0.00    -0.526 OA
ATOM      8  H5  UNL d   1      -3.413  -0.750   0.522  0.00  0.00     0.418 HD
ENDBRANCH   4   7
TORSDOF 1
ENDMDL
