MODEL 1
REMARK minimizedAffinity -4.80375004
REMARK minimizedRMSD -1
REMARK  1 active torsions:
REMARK  status: ('A' for Active; 'I' for Inactive)
REMARK    1  A    between atoms: C3_4  and  O_7 
ROOT
ATOM      1  C   UNL d   1       0.269   0.089  -0.463  0.00  0.00    -0.033 A 
ATOM      2  C1  UNL d   1      -0.574   0.254  -1.564  0.00  0.00     0.039 A 
ATOM      3  C2  UNL d   1      -1.933  -0.048  -1.457  0.00  0.00    -0.080 A 
ATOM      4  C3  UNL d   1      -2.436  -0.512  -0.245  0.00  0.00     0.150 A 
ATOM      5  C4  UNL d   1      -1.604  -0.675   0.857  0.00  0.00    -0.007 A 
ATOM      6  C5  UNL d   1      -0.247  -0.374   0.748  0.00  0.00     0.039 A 
ENDROOT
BRANCH   4   7
ATOM      7  O   UNL d   1      -3.755  -0.825  -0.094  0.00  0.00    -0.526 OA
ATOM      8  H5  UNL d   1      -4.202  -0.690  -0.946  0.00  0.00     0.418 HD
ENDBRANCH   4   7
TORSDOF 1
ENDMDL
