MODEL 1
REMARK minimizedAffinity -3.21742177
REMARK minimizedRMSD -1
REMARK  1 active torsions:
REMARK  status: ('A' for Active; 'I' for Inactive)
REMARK    1  A    between atoms: C3_4  and  O_7 
ROOT
ATOM      1  C   UNL d   1       0.372   0.310  -0.514  0.00  0.00    -0.033 A 
ATOM      2  C1  UNL d   1      -0.212  -0.147   0.669  0.00  0.00     0.039 A 
ATOM      3  C2  UNL d   1      -1.540  -0.580   0.672  0.00  0.00    -0.080 A 
ATOM      4  C3  UNL d   1      -2.270  -0.552  -0.513  0.00  0.00     0.150 A 
ATOM      5  C4  UNL d   1      -1.693  -0.102  -1.696  0.00  0.00    -0.007 A 
ATOM      6  C5  UNL d   1      -0.367   0.331  -1.697  0.00  0.00     0.039 A 
ENDROOT
BRANCH   4   7
ATOM      7  O   UNL d   1      -3.570  -0.961  -0.559  0.00  0.00    -0.526 OA
ATOM      8  H5  UNL d   1      -3.843  -1.217   0.338  0.00  0.00     0.418 HD
ENDBRANCH   4   7
TORSDOF 1
ENDMDL
