MODEL 1
REMARK minimizedAffinity -4.74885702
REMARK minimizedRMSD -1
REMARK  1 active torsions:
REMARK  status: ('A' for Active; 'I' for Inactive)
REMARK    1  A    between atoms: C3_4  and  O_7 
ROOT
ATOM      1  C   UNL d   1       0.700   0.030  -0.366  0.00  0.00    -0.033 A 
ATOM      2  C1  UNL d   1       0.100  -0.412   0.815  0.00  0.00     0.039 A 
ATOM      3  C2  UNL d   1      -1.285  -0.579   0.876  0.00  0.00    -0.080 A 
ATOM      4  C3  UNL d   1      -2.057  -0.302  -0.249  0.00  0.00     0.150 A 
ATOM      5  C4  UNL d   1      -1.465   0.134  -1.430  0.00  0.00    -0.007 A 
ATOM      6  C5  UNL d   1      -0.083   0.301  -1.489  0.00  0.00     0.039 A 
ENDROOT
BRANCH   4   7
ATOM      7  O   UNL d   1      -3.413  -0.446  -0.236  0.00  0.00    -0.526 OA
ATOM      8  H5  UNL d   1      -3.684  -0.726   0.654  0.00  0.00     0.418 HD
ENDBRANCH   4   7
TORSDOF 1
ENDMDL
