MODEL 1
REMARK minimizedAffinity -1.17551768
REMARK minimizedRMSD -1
REMARK  1 active torsions:
REMARK  status: ('A' for Active; 'I' for Inactive)
REMARK    1  A    between atoms: C1_2  and  C2_3 
ROOT
ATOM      1  C2  UNL d   1       0.110  -3.383  -0.364  0.00  0.00    -0.077 A 
ATOM      2  C3  UNL d   1      -0.904  -2.432  -0.184  0.00  0.00     0.002 A 
ATOM      3  C4  UNL d   1      -1.294  -2.050   1.101  0.00  0.00     0.002 A 
ATOM      4  C5  UNL d   1      -0.674  -2.612   2.215  0.00  0.00    -0.004 A 
ATOM      5  C6  UNL d   1       0.334  -3.560   2.046  0.00  0.00     0.002 A 
ATOM      6  C7  UNL d   1       0.725  -3.944   0.763  0.00  0.00     0.002 A 
ENDROOT
BRANCH   1   7
ATOM      7  C1  UNL d   1       0.566  -3.759  -1.750  0.00  0.00     0.055 C 
ATOM      8  C   UNL d   1       0.517  -2.565  -2.692  0.00  0.00     0.019 C 
ENDBRANCH   1   7
TORSDOF 1
ENDMDL
