MODEL 1
REMARK minimizedAffinity -4.5600276
REMARK minimizedRMSD -1
REMARK  1 active torsions:
REMARK  status: ('A' for Active; 'I' for Inactive)
REMARK    1  A    between atoms: C1_2  and  C2_3 
ROOT
ATOM      1  C2  UNL d   1       0.094  -2.785   0.745  0.00  0.00    -0.077 A 
ATOM      2  C3  UNL d   1       0.296  -4.036   0.145  0.00  0.00     0.002 A 
ATOM      3  C4  UNL d   1       0.388  -4.146  -1.244  0.00  0.00     0.002 A 
ATOM      4  C5  UNL d   1       0.284  -3.009  -2.043  0.00  0.00    -0.004 A 
ATOM      5  C6  UNL d   1       0.081  -1.761  -1.455  0.00  0.00     0.002 A 
ATOM      6  C7  UNL d   1      -0.012  -1.649  -0.068  0.00  0.00     0.002 A 
ENDROOT
BRANCH   1   7
ATOM      7  C1  UNL d   1       0.043  -2.657   2.246  0.00  0.00     0.055 C 
ATOM      8  C   UNL d   1      -1.196  -1.897   2.695  0.00  0.00     0.019 C 
ENDBRANCH   1   7
TORSDOF 1
ENDMDL
