MODEL 1
REMARK minimizedAffinity 1.13002992
REMARK minimizedRMSD -1
REMARK  1 active torsions:
REMARK  status: ('A' for Active; 'I' for Inactive)
REMARK    1  A    between atoms: C1_2  and  C2_3 
ROOT
ATOM      1  C2  UNL d   1       0.388  -2.582  -1.961  0.00  0.00    -0.077 A 
ATOM      2  C3  UNL d   1       0.051  -1.770  -0.869  0.00  0.00     0.002 A 
ATOM      3  C4  UNL d   1      -0.067  -2.318   0.409  0.00  0.00     0.002 A 
ATOM      4  C5  UNL d   1       0.153  -3.679   0.608  0.00  0.00    -0.004 A 
ATOM      5  C6  UNL d   1       0.486  -4.496  -0.471  0.00  0.00     0.002 A 
ATOM      6  C7  UNL d   1       0.603  -3.950  -1.750  0.00  0.00     0.002 A 
ENDROOT
BRANCH   1   7
ATOM      7  C1  UNL d   1       0.564  -1.984  -3.332  0.00  0.00     0.055 C 
ATOM      8  C   UNL d   1       1.512  -2.818  -4.182  0.00  0.00     0.019 C 
ENDBRANCH   1   7
TORSDOF 1
ENDMDL
