MODEL 1
REMARK minimizedAffinity 2.537462
REMARK minimizedRMSD -1
REMARK  1 active torsions:
REMARK  status: ('A' for Active; 'I' for Inactive)
REMARK    1  A    between atoms: C1_2  and  C2_3 
ROOT
ATOM      1  C2  UNL d   1       0.627  -0.461  -2.204  0.00  0.00    -0.077 A 
ATOM      2  C3  UNL d   1       0.358  -0.988  -3.475  0.00  0.00     0.002 A 
ATOM      3  C4  UNL d   1      -0.134  -2.287  -3.611  0.00  0.00     0.002 A 
ATOM      4  C5  UNL d   1      -0.365  -3.069  -2.481  0.00  0.00    -0.004 A 
ATOM      5  C6  UNL d   1      -0.099  -2.554  -1.212  0.00  0.00     0.002 A 
ATOM      6  C7  UNL d   1       0.394  -1.256  -1.075  0.00  0.00     0.002 A 
ENDROOT
BRANCH   1   7
ATOM      7  C1  UNL d   1       1.111   0.958  -2.052  0.00  0.00     0.055 C 
ATOM      8  C   UNL d   1       2.442   1.013  -1.317  0.00  0.00     0.019 C 
ENDBRANCH   1   7
TORSDOF 1
ENDMDL
