MODEL 1
REMARK minimizedAffinity 4.18344545
REMARK minimizedRMSD -1
REMARK  1 active torsions:
REMARK  status: ('A' for Active; 'I' for Inactive)
REMARK    1  A    between atoms: C1_2  and  C2_3 
ROOT
ATOM      1  C2  UNL d   1      -0.027  -1.776  -1.300  0.00  0.00    -0.077 A 
ATOM      2  C3  UNL d   1      -0.181  -2.870  -0.437  0.00  0.00     0.002 A 
ATOM      3  C4  UNL d   1      -0.731  -2.695   0.834  0.00  0.00     0.002 A 
ATOM      4  C5  UNL d   1      -1.137  -1.429   1.251  0.00  0.00    -0.004 A 
ATOM      5  C6  UNL d   1      -0.987  -0.334   0.401  0.00  0.00     0.002 A 
ATOM      6  C7  UNL d   1      -0.435  -0.507  -0.869  0.00  0.00     0.002 A 
ENDROOT
BRANCH   1   7
ATOM      7  C1  UNL d   1       0.521  -1.971  -2.690  0.00  0.00     0.055 C 
ATOM      8  C   UNL d   1      -0.142  -3.150  -3.386  0.00  0.00     0.019 C 
ENDBRANCH   1   7
TORSDOF 1
ENDMDL
