MODEL 1
REMARK minimizedAffinity 6.17616463
REMARK minimizedRMSD -1
REMARK  1 active torsions:
REMARK  status: ('A' for Active; 'I' for Inactive)
REMARK    1  A    between atoms: C1_2  and  C2_3 
ROOT
ATOM      1  C2  UNL d   1       1.412  -0.720  -1.402  0.00  0.00    -0.077 A 
ATOM      2  C3  UNL d   1       1.099   0.633  -1.600  0.00  0.00     0.002 A 
ATOM      3  C4  UNL d   1       1.811   1.628  -0.928  0.00  0.00     0.002 A 
ATOM      4  C5  UNL d   1       2.843   1.282  -0.058  0.00  0.00    -0.004 A 
ATOM      5  C6  UNL d   1       3.161  -0.060   0.147  0.00  0.00     0.002 A 
ATOM      6  C7  UNL d   1       2.449  -1.056  -0.523  0.00  0.00     0.002 A 
ENDROOT
BRANCH   1   7
ATOM      7  C1  UNL d   1       0.678  -1.792  -2.163  0.00  0.00     0.055 C 
ATOM      8  C   UNL d   1      -0.229  -2.600  -1.246  0.00  0.00     0.019 C 
ENDBRANCH   1   7
TORSDOF 1
ENDMDL
