MODEL 1
REMARK minimizedAffinity 5.28024006
REMARK minimizedRMSD -1
REMARK  1 active torsions:
REMARK  status: ('A' for Active; 'I' for Inactive)
REMARK    1  A    between atoms: C1_2  and  C2_3 
ROOT
ATOM      1  C2  UNL d   1      -2.518   2.856  -0.152  0.00  0.00    -0.077 A 
ATOM      2  C3  UNL d   1      -3.448   3.402  -1.048  0.00  0.00     0.002 A 
ATOM      3  C4  UNL d   1      -3.836   4.739  -0.935  0.00  0.00     0.002 A 
ATOM      4  C5  UNL d   1      -3.296   5.541   0.068  0.00  0.00    -0.004 A 
ATOM      5  C6  UNL d   1      -2.372   5.006   0.965  0.00  0.00     0.002 A 
ATOM      6  C7  UNL d   1      -1.984   3.670   0.855  0.00  0.00     0.002 A 
ENDROOT
BRANCH   1   7
ATOM      7  C1  UNL d   1      -2.061   1.429  -0.302  0.00  0.00     0.055 C 
ATOM      8  C   UNL d   1      -2.981   0.472   0.442  0.00  0.00     0.019 C 
ENDBRANCH   1   7
TORSDOF 1
ENDMDL
