MODEL 1
REMARK minimizedAffinity 0.713095069
REMARK minimizedRMSD -1
REMARK  1 active torsions:
REMARK  status: ('A' for Active; 'I' for Inactive)
REMARK    1  A    between atoms: C1_2  and  C2_3 
ROOT
ATOM      1  C2  UNL d   1      -1.608  -1.131   0.157  0.00  0.00    -0.077 A 
ATOM      2  C3  UNL d   1      -0.820  -1.937   0.989  0.00  0.00     0.002 A 
ATOM      3  C4  UNL d   1      -1.329  -3.131   1.504  0.00  0.00     0.002 A 
ATOM      4  C5  UNL d   1      -2.626  -3.530   1.189  0.00  0.00    -0.004 A 
ATOM      5  C6  UNL d   1      -3.419  -2.734   0.364  0.00  0.00     0.002 A 
ATOM      6  C7  UNL d   1      -2.912  -1.540  -0.151  0.00  0.00     0.002 A 
ENDROOT
BRANCH   1   7
ATOM      7  C1  UNL d   1      -1.044   0.132  -0.439  0.00  0.00     0.055 C 
ATOM      8  C   UNL d   1       0.169  -0.160  -1.310  0.00  0.00     0.019 C 
ENDBRANCH   1   7
TORSDOF 1
ENDMDL
