MODEL 1
REMARK minimizedAffinity 12.9036627
REMARK minimizedRMSD -1
REMARK  1 active torsions:
REMARK  status: ('A' for Active; 'I' for Inactive)
REMARK    1  A    between atoms: C1_2  and  C2_3 
ROOT
ATOM      1  C2  UNL d   1       3.245  -1.049  -0.080  0.00  0.00    -0.077 A 
ATOM      2  C3  UNL d   1       3.608   0.304  -0.018  0.00  0.00     0.002 A 
ATOM      3  C4  UNL d   1       2.822   1.275  -0.642  0.00  0.00     0.002 A 
ATOM      4  C5  UNL d   1       1.667   0.905  -1.327  0.00  0.00    -0.004 A 
ATOM      5  C6  UNL d   1       1.299  -0.438  -1.395  0.00  0.00     0.002 A 
ATOM      6  C7  UNL d   1       2.084  -1.411  -0.774  0.00  0.00     0.002 A 
ENDROOT
BRANCH   1   7
ATOM      7  C1  UNL d   1       4.065  -2.092   0.634  0.00  0.00     0.055 C 
ATOM      8  C   UNL d   1       3.431  -2.481   1.961  0.00  0.00     0.019 C 
ENDBRANCH   1   7
TORSDOF 1
ENDMDL
