MODEL 1
REMARK minimizedAffinity -2.32606792
REMARK minimizedRMSD -1
REMARK  0 active torsions:
REMARK  status: ('A' for Active; 'I' for Inactive)
ROOT
ATOM      1  C   UNL d   1       1.637  -1.749  -0.793  0.00  0.00     0.124 A 
ATOM      2  C1  UNL d   1       0.407  -2.000  -0.200  0.00  0.00     0.062 A 
ATOM      3  C2  UNL d   1      -0.490  -0.958   0.017  0.00  0.00     0.162 A 
ATOM      4  C3  UNL d   1      -0.162   0.344  -0.359  0.00  0.00    -0.034 A 
ATOM      5  C4  UNL d   1       1.078   0.588  -0.954  0.00  0.00     0.162 A 
ATOM      6  C5  UNL d   1       1.971  -0.456  -1.169  0.00  0.00     0.062 A 
ATOM      7  F   UNL d   1       3.159  -0.212  -1.741  0.00  0.00    -0.097 F 
ATOM      8  F1  UNL d   1       1.426   1.828  -1.328  0.00  0.00    -0.096 F 
ATOM      9  I   UNL d   1      -1.501   1.904  -0.036  0.00  0.00    -0.060 I 
ATOM     10  F2  UNL d   1      -1.672  -1.230   0.592  0.00  0.00    -0.096 F 
ATOM     11  F3  UNL d   1       0.083  -3.248   0.165  0.00  0.00    -0.097 F 
ATOM     12  F4  UNL d   1       2.499  -2.753  -1.000  0.00  0.00    -0.092 F 
ENDROOT
TORSDOF 0
ENDMDL
