MODEL 1
REMARK minimizedAffinity -3.00883937
REMARK minimizedRMSD -1
REMARK  0 active torsions:
REMARK  status: ('A' for Active; 'I' for Inactive)
ROOT
ATOM      1  C   UNL d   1       1.251  -0.303  -1.522  0.00  0.00     0.124 A 
ATOM      2  C1  UNL d   1       1.290  -1.167  -0.436  0.00  0.00     0.062 A 
ATOM      3  C2  UNL d   1       0.308  -1.100   0.548  0.00  0.00     0.162 A 
ATOM      4  C3  UNL d   1      -0.723  -0.166   0.450  0.00  0.00    -0.034 A 
ATOM      5  C4  UNL d   1      -0.756   0.701  -0.644  0.00  0.00     0.162 A 
ATOM      6  C5  UNL d   1       0.229   0.630  -1.625  0.00  0.00     0.062 A 
ATOM      7  F   UNL d   1       0.189   1.465  -2.673  0.00  0.00    -0.097 F 
ATOM      8  F1  UNL d   1      -1.733   1.611  -0.769  0.00  0.00    -0.096 F 
ATOM      9  I   UNL d   1      -2.194  -0.062   1.919  0.00  0.00    -0.060 I 
ATOM     10  F2  UNL d   1       0.371  -1.947   1.586  0.00  0.00    -0.096 F 
ATOM     11  F3  UNL d   1       2.278  -2.068  -0.334  0.00  0.00    -0.097 F 
ATOM     12  F4  UNL d   1       2.198  -0.369  -2.466  0.00  0.00    -0.092 F 
ENDROOT
TORSDOF 0
ENDMDL
