MODEL 1
REMARK minimizedAffinity -1.63086009
REMARK minimizedRMSD -1
REMARK  0 active torsions:
REMARK  status: ('A' for Active; 'I' for Inactive)
ROOT
ATOM      1  C   UNL d   1       2.451  -0.806  -1.410  0.00  0.00     0.124 A 
ATOM      2  C1  UNL d   1       1.517  -1.790  -1.120  0.00  0.00     0.062 A 
ATOM      3  C2  UNL d   1       0.367  -1.474  -0.402  0.00  0.00     0.162 A 
ATOM      4  C3  UNL d   1       0.144  -0.166   0.029  0.00  0.00    -0.034 A 
ATOM      5  C4  UNL d   1       1.089   0.818  -0.266  0.00  0.00     0.162 A 
ATOM      6  C5  UNL d   1       2.237   0.497  -0.984  0.00  0.00     0.062 A 
ATOM      7  F   UNL d   1       3.138   1.450  -1.264  0.00  0.00    -0.097 F 
ATOM      8  F1  UNL d   1       0.906   2.086   0.133  0.00  0.00    -0.096 F 
ATOM      9  I   UNL d   1      -1.574   0.311   1.102  0.00  0.00    -0.060 I 
ATOM     10  F2  UNL d   1      -0.519  -2.445  -0.135  0.00  0.00    -0.096 F 
ATOM     11  F3  UNL d   1       1.723  -3.050  -1.530  0.00  0.00    -0.097 F 
ATOM     12  F4  UNL d   1       3.558  -1.113  -2.100  0.00  0.00    -0.092 F 
ENDROOT
TORSDOF 0
ENDMDL
