MODEL 1
REMARK minimizedAffinity 14.1397781
REMARK minimizedRMSD -1
REMARK  0 active torsions:
REMARK  status: ('A' for Active; 'I' for Inactive)
ROOT
ATOM      1  C   UNL d   1      -0.474  -0.675   0.361  0.00  0.00     0.124 A 
ATOM      2  C1  UNL d   1      -0.343   0.348  -0.568  0.00  0.00     0.062 A 
ATOM      3  C2  UNL d   1       0.139   0.076  -1.846  0.00  0.00     0.162 A 
ATOM      4  C3  UNL d   1       0.492  -1.225  -2.202  0.00  0.00    -0.034 A 
ATOM      5  C4  UNL d   1       0.358  -2.248  -1.262  0.00  0.00     0.162 A 
ATOM      6  C5  UNL d   1      -0.124  -1.972   0.013  0.00  0.00     0.062 A 
ATOM      7  F   UNL d   1      -0.250  -2.961   0.909  0.00  0.00    -0.097 F 
ATOM      8  F1  UNL d   1       0.688  -3.511  -1.572  0.00  0.00    -0.096 F 
ATOM      9  I   UNL d   1       1.212  -1.636  -4.111  0.00  0.00    -0.060 I 
ATOM     10  F2  UNL d   1       0.255   1.084  -2.723  0.00  0.00    -0.096 F 
ATOM     11  F3  UNL d   1      -0.680   1.602  -0.235  0.00  0.00    -0.097 F 
ATOM     12  F4  UNL d   1      -0.937  -0.410   1.589  0.00  0.00    -0.092 F 
ENDROOT
TORSDOF 0
ENDMDL
