MODEL 1
REMARK minimizedAffinity 11.7178421
REMARK minimizedRMSD -1
REMARK  0 active torsions:
REMARK  status: ('A' for Active; 'I' for Inactive)
ROOT
ATOM      1  C   UNL d   1       4.260   2.700   2.752  0.00  0.00     0.124 A 
ATOM      2  C1  UNL d   1       4.122   1.337   2.529  0.00  0.00     0.062 A 
ATOM      3  C2  UNL d   1       4.618   0.422   3.453  0.00  0.00     0.162 A 
ATOM      4  C3  UNL d   1       5.256   0.868   4.611  0.00  0.00    -0.034 A 
ATOM      5  C4  UNL d   1       5.392   2.240   4.828  0.00  0.00     0.162 A 
ATOM      6  C5  UNL d   1       4.895   3.150   3.901  0.00  0.00     0.062 A 
ATOM      7  F   UNL d   1       5.029   4.466   4.118  0.00  0.00    -0.097 F 
ATOM      8  F1  UNL d   1       6.000   2.703   5.930  0.00  0.00    -0.096 F 
ATOM      9  I   UNL d   1       5.999  -0.496   5.997  0.00  0.00    -0.060 I 
ATOM     10  F2  UNL d   1       4.471  -0.889   3.212  0.00  0.00    -0.096 F 
ATOM     11  F3  UNL d   1       3.511   0.899   1.419  0.00  0.00    -0.097 F 
ATOM     12  F4  UNL d   1       3.783   3.577   1.859  0.00  0.00    -0.092 F 
ENDROOT
TORSDOF 0
ENDMDL
