MODEL 1
REMARK minimizedAffinity 1.81825614
REMARK minimizedRMSD -1
REMARK  0 active torsions:
REMARK  status: ('A' for Active; 'I' for Inactive)
ROOT
ATOM      1  C   UNL d   1      -2.111   0.462   0.452  0.00  0.00     0.124 A 
ATOM      2  C1  UNL d   1      -1.798  -0.883   0.587  0.00  0.00     0.062 A 
ATOM      3  C2  UNL d   1      -0.579  -1.368   0.123  0.00  0.00     0.162 A 
ATOM      4  C3  UNL d   1       0.337  -0.507  -0.481  0.00  0.00    -0.034 A 
ATOM      5  C4  UNL d   1       0.015   0.845  -0.615  0.00  0.00     0.162 A 
ATOM      6  C5  UNL d   1      -1.205   1.325  -0.149  0.00  0.00     0.062 A 
ATOM      7  F   UNL d   1      -1.506   2.625  -0.281  0.00  0.00    -0.097 F 
ATOM      8  F1  UNL d   1       0.872   1.700  -1.191  0.00  0.00    -0.096 F 
ATOM      9  I   UNL d   1       2.161  -1.228  -1.177  0.00  0.00    -0.060 I 
ATOM     10  F2  UNL d   1      -0.302  -2.673   0.267  0.00  0.00    -0.096 F 
ATOM     11  F3  UNL d   1      -2.672  -1.719   1.167  0.00  0.00    -0.097 F 
ATOM     12  F4  UNL d   1      -3.285   0.926   0.898  0.00  0.00    -0.092 F 
ENDROOT
TORSDOF 0
ENDMDL
