MODEL 1
REMARK minimizedAffinity -2.19863224
REMARK minimizedRMSD -1
REMARK  0 active torsions:
REMARK  status: ('A' for Active; 'I' for Inactive)
ROOT
ATOM      1  C   UNL d   1       2.035  -1.469  -0.648  0.00  0.00     0.124 A 
ATOM      2  C1  UNL d   1       2.130  -0.167  -1.119  0.00  0.00     0.062 A 
ATOM      3  C2  UNL d   1       1.102   0.740  -0.881  0.00  0.00     0.162 A 
ATOM      4  C3  UNL d   1      -0.031   0.349  -0.169  0.00  0.00    -0.034 A 
ATOM      5  C4  UNL d   1      -0.121  -0.962   0.301  0.00  0.00     0.162 A 
ATOM      6  C5  UNL d   1       0.910  -1.866   0.061  0.00  0.00     0.062 A 
ATOM      7  F   UNL d   1       0.815  -3.123   0.517  0.00  0.00    -0.097 F 
ATOM      8  F1  UNL d   1      -1.196  -1.372   0.990  0.00  0.00    -0.096 F 
ATOM      9  I   UNL d   1      -1.571   1.703   0.188  0.00  0.00    -0.060 I 
ATOM     10  F2  UNL d   1       1.221   1.992  -1.348  0.00  0.00    -0.096 F 
ATOM     11  F3  UNL d   1       3.216   0.218  -1.805  0.00  0.00    -0.097 F 
ATOM     12  F4  UNL d   1       3.025  -2.341  -0.878  0.00  0.00    -0.092 F 
ENDROOT
TORSDOF 0
ENDMDL
