MODEL 1
REMARK minimizedAffinity 0.799386382
REMARK minimizedRMSD -1
REMARK  0 active torsions:
REMARK  status: ('A' for Active; 'I' for Inactive)
ROOT
ATOM      1  C   UNL d   1      -2.400  -0.123   3.258  0.00  0.00     0.124 A 
ATOM      2  C1  UNL d   1      -1.683   1.054   3.424  0.00  0.00     0.062 A 
ATOM      3  C2  UNL d   1      -0.949   1.582   2.366  0.00  0.00     0.162 A 
ATOM      4  C3  UNL d   1      -0.928   0.934   1.131  0.00  0.00    -0.034 A 
ATOM      5  C4  UNL d   1      -1.651  -0.250   0.971  0.00  0.00     0.162 A 
ATOM      6  C5  UNL d   1      -2.383  -0.774   2.032  0.00  0.00     0.062 A 
ATOM      7  F   UNL d   1      -3.075  -1.911   1.870  0.00  0.00    -0.097 F 
ATOM      8  F1  UNL d   1      -1.654  -0.899  -0.202  0.00  0.00    -0.096 F 
ATOM      9  I   UNL d   1       0.168   1.720  -0.454  0.00  0.00    -0.060 I 
ATOM     10  F2  UNL d   1      -0.265   2.721   2.555  0.00  0.00    -0.096 F 
ATOM     11  F3  UNL d   1      -1.696   1.684   4.607  0.00  0.00    -0.097 F 
ATOM     12  F4  UNL d   1      -3.104  -0.629   4.278  0.00  0.00    -0.092 F 
ENDROOT
TORSDOF 0
ENDMDL
