MODEL 1
REMARK minimizedAffinity -1.84617972
REMARK minimizedRMSD -1
REMARK  0 active torsions:
REMARK  status: ('A' for Active; 'I' for Inactive)
ROOT
ATOM      1  C   UNL d   1       1.861  -0.276  -1.207  0.00  0.00     0.124 A 
ATOM      2  C1  UNL d   1       1.233   0.929  -0.921  0.00  0.00     0.062 A 
ATOM      3  C2  UNL d   1       0.096   0.953  -0.119  0.00  0.00     0.162 A 
ATOM      4  C3  UNL d   1      -0.421  -0.233   0.404  0.00  0.00    -0.034 A 
ATOM      5  C4  UNL d   1       0.215  -1.440   0.112  0.00  0.00     0.162 A 
ATOM      6  C5  UNL d   1       1.351  -1.459  -0.690  0.00  0.00     0.062 A 
ATOM      7  F   UNL d   1       1.956  -2.624  -0.965  0.00  0.00    -0.097 F 
ATOM      8  F1  UNL d   1      -0.256  -2.598   0.598  0.00  0.00    -0.096 F 
ATOM      9  I   UNL d   1      -2.122  -0.202   1.604  0.00  0.00    -0.060 I 
ATOM     10  F2  UNL d   1      -0.490   2.131   0.141  0.00  0.00    -0.096 F 
ATOM     11  F3  UNL d   1       1.723   2.073  -1.419  0.00  0.00    -0.097 F 
ATOM     12  F4  UNL d   1       2.954  -0.296  -1.979  0.00  0.00    -0.092 F 
ENDROOT
TORSDOF 0
ENDMDL
