MODEL 1
REMARK minimizedAffinity 4.82252169
REMARK minimizedRMSD -1
REMARK  0 active torsions:
REMARK  status: ('A' for Active; 'I' for Inactive)
ROOT
ATOM      1  C   UNL d   1       0.489   1.201  -0.330  0.00  0.00     0.124 A 
ATOM      2  C1  UNL d   1      -0.872   1.462  -0.414  0.00  0.00     0.062 A 
ATOM      3  C2  UNL d   1      -1.730   1.036   0.596  0.00  0.00     0.162 A 
ATOM      4  C3  UNL d   1      -1.229   0.345   1.700  0.00  0.00    -0.034 A 
ATOM      5  C4  UNL d   1       0.140   0.085   1.777  0.00  0.00     0.162 A 
ATOM      6  C5  UNL d   1       0.993   0.513   0.765  0.00  0.00     0.062 A 
ATOM      7  F   UNL d   1       2.308   0.259   0.847  0.00  0.00    -0.097 F 
ATOM      8  F1  UNL d   1       0.655  -0.577   2.824  0.00  0.00    -0.096 F 
ATOM      9  I   UNL d   1      -2.509  -0.293   3.212  0.00  0.00    -0.060 I 
ATOM     10  F2  UNL d   1      -3.040   1.303   0.489  0.00  0.00    -0.096 F 
ATOM     11  F3  UNL d   1      -1.362   2.126  -1.471  0.00  0.00    -0.097 F 
ATOM     12  F4  UNL d   1       1.312   1.611  -1.304  0.00  0.00    -0.092 F 
ENDROOT
TORSDOF 0
ENDMDL
