MODEL 1
REMARK minimizedAffinity -2.38373542
REMARK minimizedRMSD -1
REMARK  0 active torsions:
REMARK  status: ('A' for Active; 'I' for Inactive)
ROOT
ATOM      1  C   UNL d   1      -0.468   1.708  -1.188  0.00  0.00     0.124 A 
ATOM      2  C1  UNL d   1      -1.213   0.666  -0.653  0.00  0.00     0.062 A 
ATOM      3  C2  UNL d   1      -0.601  -0.545  -0.344  0.00  0.00     0.162 A 
ATOM      4  C3  UNL d   1       0.765  -0.722  -0.569  0.00  0.00    -0.034 A 
ATOM      5  C4  UNL d   1       1.507   0.330  -1.108  0.00  0.00     0.162 A 
ATOM      6  C5  UNL d   1       0.891   1.539  -1.416  0.00  0.00     0.062 A 
ATOM      7  F   UNL d   1       1.612   2.544  -1.933  0.00  0.00    -0.097 F 
ATOM      8  F1  UNL d   1       2.821   0.195  -1.337  0.00  0.00    -0.096 F 
ATOM      9  I   UNL d   1       1.683  -2.531  -0.108  0.00  0.00    -0.060 I 
ATOM     10  F2  UNL d   1      -1.345  -1.535   0.173  0.00  0.00    -0.096 F 
ATOM     11  F3  UNL d   1      -2.526   0.826  -0.433  0.00  0.00    -0.097 F 
ATOM     12  F4  UNL d   1      -1.059   2.872  -1.486  0.00  0.00    -0.092 F 
ENDROOT
TORSDOF 0
ENDMDL
