MODEL 1
REMARK minimizedAffinity -4.53591776
REMARK minimizedRMSD -1
REMARK  0 active torsions:
REMARK  status: ('A' for Active; 'I' for Inactive)
ROOT
ATOM      1  C   UNL d   1      -0.096  -1.757   0.162  0.00  0.00     0.124 A 
ATOM      2  C1  UNL d   1       1.149  -1.825  -0.448  0.00  0.00     0.062 A 
ATOM      3  C2  UNL d   1       1.608  -0.761  -1.220  0.00  0.00     0.162 A 
ATOM      4  C3  UNL d   1       0.823   0.380  -1.385  0.00  0.00    -0.034 A 
ATOM      5  C4  UNL d   1      -0.428   0.440  -0.769  0.00  0.00     0.162 A 
ATOM      6  C5  UNL d   1      -0.883  -0.625   0.001  0.00  0.00     0.062 A 
ATOM      7  F   UNL d   1      -2.086  -0.558   0.591  0.00  0.00    -0.097 F 
ATOM      8  F1  UNL d   1      -1.209   1.522  -0.907  0.00  0.00    -0.096 F 
ATOM      9  I   UNL d   1       1.507   1.971  -2.539  0.00  0.00    -0.060 I 
ATOM     10  F2  UNL d   1       2.815  -0.854  -1.799  0.00  0.00    -0.096 F 
ATOM     11  F3  UNL d   1       1.910  -2.917  -0.295  0.00  0.00    -0.097 F 
ATOM     12  F4  UNL d   1      -0.536  -2.782   0.904  0.00  0.00    -0.092 F 
ENDROOT
TORSDOF 0
ENDMDL
