MODEL 1
REMARK minimizedAffinity -2.1958952
REMARK minimizedRMSD -1
REMARK  0 active torsions:
REMARK  status: ('A' for Active; 'I' for Inactive)
ROOT
ATOM      1  C   UNL d   1      -0.624   2.824   0.731  0.00  0.00     0.124 A 
ATOM      2  C1  UNL d   1      -0.996   1.623   0.143  0.00  0.00     0.062 A 
ATOM      3  C2  UNL d   1      -1.715   0.680   0.872  0.00  0.00     0.162 A 
ATOM      4  C3  UNL d   1      -2.068   0.935   2.197  0.00  0.00    -0.034 A 
ATOM      5  C4  UNL d   1      -1.690   2.145   2.782  0.00  0.00     0.162 A 
ATOM      6  C5  UNL d   1      -0.971   3.084   2.049  0.00  0.00     0.062 A 
ATOM      7  F   UNL d   1      -0.613   4.244   2.619  0.00  0.00    -0.097 F 
ATOM      8  F1  UNL d   1      -2.013   2.422   4.054  0.00  0.00    -0.096 F 
ATOM      9  I   UNL d   1      -3.143  -0.473   3.290  0.00  0.00    -0.060 I 
ATOM     10  F2  UNL d   1      -2.060  -0.472   0.279  0.00  0.00    -0.096 F 
ATOM     11  F3  UNL d   1      -0.660   1.369  -1.130  0.00  0.00    -0.097 F 
ATOM     12  F4  UNL d   1       0.069   3.729   0.028  0.00  0.00    -0.092 F 
ENDROOT
TORSDOF 0
ENDMDL
