MODEL 1
REMARK minimizedAffinity -4.09666634
REMARK minimizedRMSD -1
REMARK  0 active torsions:
REMARK  status: ('A' for Active; 'I' for Inactive)
ROOT
ATOM      1  C   UNL d   1       1.525   1.424  -1.721  0.00  0.00     0.124 A 
ATOM      2  C1  UNL d   1       2.519   0.457  -1.657  0.00  0.00     0.062 A 
ATOM      3  C2  UNL d   1       2.246  -0.791  -1.106  0.00  0.00     0.162 A 
ATOM      4  C3  UNL d   1       0.973  -1.081  -0.615  0.00  0.00    -0.034 A 
ATOM      5  C4  UNL d   1      -0.021  -0.103  -0.682  0.00  0.00     0.162 A 
ATOM      6  C5  UNL d   1       0.257   1.144  -1.234  0.00  0.00     0.062 A 
ATOM      7  F   UNL d   1      -0.705   2.077  -1.295  0.00  0.00    -0.097 F 
ATOM      8  F1  UNL d   1      -1.256  -0.348  -0.219  0.00  0.00    -0.096 F 
ATOM      9  I   UNL d   1       0.561  -2.947   0.210  0.00  0.00    -0.060 I 
ATOM     10  F2  UNL d   1       3.225  -1.707  -1.057  0.00  0.00    -0.096 F 
ATOM     11  F3  UNL d   1       3.746   0.727  -2.127  0.00  0.00    -0.097 F 
ATOM     12  F4  UNL d   1       1.791   2.625  -2.251  0.00  0.00    -0.092 F 
ENDROOT
TORSDOF 0
ENDMDL
