MODEL 1
REMARK minimizedAffinity -2.71696234
REMARK minimizedRMSD -1
REMARK  0 active torsions:
REMARK  status: ('A' for Active; 'I' for Inactive)
ROOT
ATOM      1  C   UNL d   1      -3.940   0.202   3.779  0.00  0.00     0.124 A 
ATOM      2  C1  UNL d   1      -3.691  -0.701   2.755  0.00  0.00     0.062 A 
ATOM      3  C2  UNL d   1      -2.760  -0.397   1.765  0.00  0.00     0.162 A 
ATOM      4  C3  UNL d   1      -2.071   0.815   1.794  0.00  0.00    -0.034 A 
ATOM      5  C4  UNL d   1      -2.328   1.719   2.827  0.00  0.00     0.162 A 
ATOM      6  C5  UNL d   1      -3.259   1.411   3.814  0.00  0.00     0.062 A 
ATOM      7  F   UNL d   1      -3.498   2.284   4.803  0.00  0.00    -0.097 F 
ATOM      8  F1  UNL d   1      -1.684   2.894   2.886  0.00  0.00    -0.096 F 
ATOM      9  I   UNL d   1      -0.680   1.273   0.316  0.00  0.00    -0.060 I 
ATOM     10  F2  UNL d   1      -2.540  -1.289   0.787  0.00  0.00    -0.096 F 
ATOM     11  F3  UNL d   1      -4.348  -1.869   2.718  0.00  0.00    -0.097 F 
ATOM     12  F4  UNL d   1      -4.836  -0.092   4.729  0.00  0.00    -0.092 F 
ENDROOT
TORSDOF 0
ENDMDL
