MODEL 1
REMARK minimizedAffinity -1.42846453
REMARK minimizedRMSD -1
REMARK  0 active torsions:
REMARK  status: ('A' for Active; 'I' for Inactive)
ROOT
ATOM      1  C   UNL d   1      -1.471   1.304  -0.173  0.00  0.00     0.124 A 
ATOM      2  C1  UNL d   1      -0.592   1.854  -1.096  0.00  0.00     0.062 A 
ATOM      3  C2  UNL d   1       0.619   1.226  -1.369  0.00  0.00     0.162 A 
ATOM      4  C3  UNL d   1       0.959   0.039  -0.720  0.00  0.00    -0.034 A 
ATOM      5  C4  UNL d   1       0.070  -0.508   0.208  0.00  0.00     0.162 A 
ATOM      6  C5  UNL d   1      -1.140   0.124   0.478  0.00  0.00     0.062 A 
ATOM      7  F   UNL d   1      -1.988  -0.409   1.369  0.00  0.00    -0.097 F 
ATOM      8  F1  UNL d   1       0.365  -1.648   0.850  0.00  0.00    -0.096 F 
ATOM      9  I   UNL d   1       2.769  -0.904  -1.126  0.00  0.00    -0.060 I 
ATOM     10  F2  UNL d   1       1.449   1.780  -2.265  0.00  0.00    -0.096 F 
ATOM     11  F3  UNL d   1      -0.910   2.994  -1.725  0.00  0.00    -0.097 F 
ATOM     12  F4  UNL d   1      -2.636   1.911   0.089  0.00  0.00    -0.092 F 
ENDROOT
TORSDOF 0
ENDMDL
