MODEL 1
REMARK minimizedAffinity 3.40012932
REMARK minimizedRMSD -1
REMARK  1 active torsions:
REMARK  status: ('A' for Active; 'I' for Inactive)
REMARK    1  A    between atoms: N_2  and  C1_3 
ROOT
ATOM      1  C1  UNL d   1       2.400  -5.961  -1.382  0.00  0.00     0.143 A 
ATOM      2  C2  UNL d   1       2.053  -5.903  -2.736  0.00  0.00    -0.057 A 
ATOM      3  C3  UNL d   1       3.030  -5.920  -3.738  0.00  0.00     0.033 A 
ATOM      4  C4  UNL d   1       4.379  -5.966  -3.401  0.00  0.00    -0.042 A 
ATOM      5  C5  UNL d   1       4.749  -5.999  -2.062  0.00  0.00     0.033 A 
ATOM      6  C6  UNL d   1       3.768  -5.988  -1.066  0.00  0.00    -0.057 A 
ENDROOT
BRANCH   1   7
ATOM      7  N   UNL d   1       1.480  -5.848  -0.337  0.00  0.00    -0.732 N 
ATOM      8  C   UNL d   1       1.904  -6.000   1.039  0.00  0.00     0.284 C 
ATOM      9  H3  UNL d   1       0.814  -5.094  -0.485  0.00  0.00     0.395 HD
ENDBRANCH   1   7
TORSDOF 1
ENDMDL
