MODEL 1
REMARK minimizedAffinity 5.05505991
REMARK minimizedRMSD -1
REMARK  1 active torsions:
REMARK  status: ('A' for Active; 'I' for Inactive)
REMARK    1  A    between atoms: N_2  and  C1_3 
ROOT
ATOM      1  C1  UNL d   1      -3.882   0.933  -3.420  0.00  0.00     0.143 A 
ATOM      2  C2  UNL d   1      -3.893  -0.437  -3.700  0.00  0.00    -0.057 A 
ATOM      3  C3  UNL d   1      -3.087  -1.331  -2.985  0.00  0.00     0.033 A 
ATOM      4  C4  UNL d   1      -2.230  -0.864  -1.994  0.00  0.00    -0.042 A 
ATOM      5  C5  UNL d   1      -2.184   0.497  -1.715  0.00  0.00     0.033 A 
ATOM      6  C6  UNL d   1      -2.996   1.384  -2.428  0.00  0.00    -0.057 A 
ENDROOT
BRANCH   1   7
ATOM      7  N   UNL d   1      -4.587   1.885  -4.161  0.00  0.00    -0.732 N 
ATOM      8  C   UNL d   1      -5.903   2.317  -3.744  0.00  0.00     0.284 C 
ATOM      9  H3  UNL d   1      -3.989   2.637  -4.496  0.00  0.00     0.395 HD
ENDBRANCH   1   7
TORSDOF 1
ENDMDL
