MODEL 1
REMARK minimizedAffinity -1.39505637
REMARK minimizedRMSD -1
REMARK  1 active torsions:
REMARK  status: ('A' for Active; 'I' for Inactive)
REMARK    1  A    between atoms: N_2  and  C1_3 
ROOT
ATOM      1  C1  UNL d   1       4.077  -5.913  -4.291  0.00  0.00     0.143 A 
ATOM      2  C2  UNL d   1       4.887  -5.939  -3.151  0.00  0.00    -0.057 A 
ATOM      3  C3  UNL d   1       4.332  -5.997  -1.867  0.00  0.00     0.033 A 
ATOM      4  C4  UNL d   1       2.951  -5.999  -1.699  0.00  0.00    -0.042 A 
ATOM      5  C5  UNL d   1       2.126  -5.948  -2.817  0.00  0.00     0.033 A 
ATOM      6  C6  UNL d   1       2.686  -5.898  -4.097  0.00  0.00    -0.057 A 
ENDROOT
BRANCH   1   7
ATOM      7  N   UNL d   1       4.566  -5.757  -5.590  0.00  0.00    -0.732 N 
ATOM      8  C   UNL d   1       5.868  -5.169  -5.821  0.00  0.00     0.284 C 
ATOM      9  H3  UNL d   1       4.362  -6.559  -6.182  0.00  0.00     0.395 HD
ENDBRANCH   1   7
TORSDOF 1
ENDMDL
