MODEL 1
REMARK minimizedAffinity -2.89726019
REMARK minimizedRMSD -1
REMARK  1 active torsions:
REMARK  status: ('A' for Active; 'I' for Inactive)
REMARK    1  A    between atoms: N_2  and  C1_3 
ROOT
ATOM      1  C1  UNL d   1       4.756  -2.016  -5.877  0.00  0.00     0.143 A 
ATOM      2  C2  UNL d   1       3.572  -2.757  -5.955  0.00  0.00    -0.057 A 
ATOM      3  C3  UNL d   1       3.593  -4.156  -6.000  0.00  0.00     0.033 A 
ATOM      4  C4  UNL d   1       4.804  -4.841  -5.996  0.00  0.00    -0.042 A 
ATOM      5  C5  UNL d   1       5.994  -4.124  -5.944  0.00  0.00     0.033 A 
ATOM      6  C6  UNL d   1       5.967  -2.727  -5.893  0.00  0.00    -0.057 A 
ENDROOT
BRANCH   1   7
ATOM      7  N   UNL d   1       4.806  -0.621  -5.929  0.00  0.00    -0.732 N 
ATOM      8  C   UNL d   1       4.900   0.159  -4.714  0.00  0.00     0.284 C 
ATOM      9  H3  UNL d   1       5.393  -0.281  -6.688  0.00  0.00     0.395 HD
ENDBRANCH   1   7
TORSDOF 1
ENDMDL
