MODEL 1
REMARK minimizedAffinity -0.670906663
REMARK minimizedRMSD -1
REMARK  1 active torsions:
REMARK  status: ('A' for Active; 'I' for Inactive)
REMARK    1  A    between atoms: N_2  and  C1_3 
ROOT
ATOM      1  C1  UNL d   1       5.669   0.188  -5.309  0.00  0.00     0.143 A 
ATOM      2  C2  UNL d   1       5.983  -0.992  -5.992  0.00  0.00    -0.057 A 
ATOM      3  C3  UNL d   1       5.902  -2.240  -5.362  0.00  0.00     0.033 A 
ATOM      4  C4  UNL d   1       5.532  -2.327  -4.024  0.00  0.00    -0.042 A 
ATOM      5  C5  UNL d   1       5.240  -1.165  -3.318  0.00  0.00     0.033 A 
ATOM      6  C6  UNL d   1       5.316   0.077  -3.955  0.00  0.00    -0.057 A 
ENDROOT
BRANCH   1   7
ATOM      7  N   UNL d   1       5.825   1.466  -5.851  0.00  0.00    -0.732 N 
ATOM      8  C   UNL d   1       4.690   2.354  -5.983  0.00  0.00     0.284 C 
ATOM      9  H3  UNL d   1       6.676   1.922  -5.531  0.00  0.00     0.395 HD
ENDBRANCH   1   7
TORSDOF 1
ENDMDL
