MODEL 1
REMARK minimizedAffinity 2.04284048
REMARK minimizedRMSD -1
REMARK  1 active torsions:
REMARK  status: ('A' for Active; 'I' for Inactive)
REMARK    1  A    between atoms: N_2  and  C1_3 
ROOT
ATOM      1  C1  UNL d   1       0.332   1.205   0.233  0.00  0.00     0.143 A 
ATOM      2  C2  UNL d   1       1.197   0.451   1.034  0.00  0.00    -0.057 A 
ATOM      3  C3  UNL d   1       1.855  -0.678   0.530  0.00  0.00     0.033 A 
ATOM      4  C4  UNL d   1       1.637  -1.090  -0.781  0.00  0.00    -0.042 A 
ATOM      5  C5  UNL d   1       0.763  -0.370  -1.588  0.00  0.00     0.033 A 
ATOM      6  C6  UNL d   1       0.114   0.760  -1.081  0.00  0.00    -0.057 A 
ENDROOT
BRANCH   1   7
ATOM      7  N   UNL d   1      -0.427   2.278   0.704  0.00  0.00    -0.732 N 
ATOM      8  C   UNL d   1      -0.109   3.635   0.313  0.00  0.00     0.284 C 
ATOM      9  H3  UNL d   1      -1.423   2.073   0.718  0.00  0.00     0.395 HD
ENDBRANCH   1   7
TORSDOF 1
ENDMDL
