MODEL 1
REMARK minimizedAffinity -2.52116966
REMARK minimizedRMSD -1
REMARK  0 active torsions:
REMARK  status: ('A' for Active; 'I' for Inactive)
ROOT
ATOM      1  C   UNL d   1      -1.309  -1.705   1.715  0.00  0.00     0.020 A 
ATOM      2  C1  UNL d   1      -1.025  -2.739   0.824  0.00  0.00     0.020 A 
ATOM      3  C2  UNL d   1      -0.353  -2.467  -0.370  0.00  0.00     0.034 A 
ATOM      4  C3  UNL d   1       0.036  -1.158  -0.676  0.00  0.00     0.017 A 
ATOM      5  C4  UNL d   1      -0.250  -0.121   0.219  0.00  0.00     0.017 A 
ATOM      6  C5  UNL d   1      -0.923  -0.399   1.413  0.00  0.00     0.034 A 
ATOM      7 Cl   UNL d   1       0.198   1.520  -0.089  0.00  0.00    -0.070 Cl
ATOM      8 Cl1  UNL d   1       0.863  -0.894  -2.170  0.00  0.00    -0.070 Cl
ENDROOT
TORSDOF 0
ENDMDL
