MODEL 1
REMARK minimizedAffinity -4.43345833
REMARK minimizedRMSD -1
REMARK  0 active torsions:
REMARK  status: ('A' for Active; 'I' for Inactive)
ROOT
ATOM      1  C   UNL d   1       0.547  -3.836  -1.616  0.00  0.00     0.020 A 
ATOM      2  C1  UNL d   1       1.382  -2.723  -1.539  0.00  0.00     0.020 A 
ATOM      3  C2  UNL d   1       0.942  -1.562  -0.899  0.00  0.00     0.034 A 
ATOM      4  C3  UNL d   1      -0.337  -1.513  -0.332  0.00  0.00     0.017 A 
ATOM      5  C4  UNL d   1      -1.175  -2.631  -0.410  0.00  0.00     0.017 A 
ATOM      6  C5  UNL d   1      -0.729  -3.791  -1.052  0.00  0.00     0.034 A 
ATOM      7 Cl   UNL d   1      -2.766  -2.646   0.265  0.00  0.00    -0.070 Cl
ATOM      8 Cl1  UNL d   1      -0.816  -0.046   0.445  0.00  0.00    -0.070 Cl
ENDROOT
TORSDOF 0
ENDMDL
