MODEL 1
REMARK minimizedAffinity -5.13837147
REMARK minimizedRMSD -1
REMARK  0 active torsions:
REMARK  status: ('A' for Active; 'I' for Inactive)
ROOT
ATOM      1  C   UNL d   1       0.267  -2.290  -1.089  0.00  0.00     0.020 A 
ATOM      2  C1  UNL d   1      -0.332  -2.929  -0.004  0.00  0.00     0.020 A 
ATOM      3  C2  UNL d   1      -1.036  -2.183   0.944  0.00  0.00     0.034 A 
ATOM      4  C3  UNL d   1      -1.143  -0.794   0.808  0.00  0.00     0.017 A 
ATOM      5  C4  UNL d   1      -0.542  -0.154  -0.282  0.00  0.00     0.017 A 
ATOM      6  C5  UNL d   1       0.162  -0.906  -1.227  0.00  0.00     0.034 A 
ATOM      7 Cl   UNL d   1      -0.631   1.556  -0.517  0.00  0.00    -0.070 Cl
ATOM      8 Cl1  UNL d   1      -2.029   0.065   2.017  0.00  0.00    -0.070 Cl
ENDROOT
TORSDOF 0
ENDMDL
