MODEL 1
REMARK minimizedAffinity -3.82518554
REMARK minimizedRMSD -1
REMARK  0 active torsions:
REMARK  status: ('A' for Active; 'I' for Inactive)
ROOT
ATOM      1  C   UNL d   1      -0.305  -2.623   0.831  0.00  0.00     0.020 A 
ATOM      2  C1  UNL d   1      -0.769  -1.523   1.551  0.00  0.00     0.020 A 
ATOM      3  C2  UNL d   1      -0.722  -0.247   0.984  0.00  0.00     0.034 A 
ATOM      4  C3  UNL d   1      -0.210  -0.069  -0.306  0.00  0.00     0.017 A 
ATOM      5  C4  UNL d   1       0.257  -1.174  -1.027  0.00  0.00     0.017 A 
ATOM      6  C5  UNL d   1       0.207  -2.449  -0.455  0.00  0.00     0.034 A 
ATOM      7 Cl   UNL d   1       0.903  -1.032  -2.624  0.00  0.00    -0.070 Cl
ATOM      8 Cl1  UNL d   1      -0.182   1.537  -0.944  0.00  0.00    -0.070 Cl
ENDROOT
TORSDOF 0
ENDMDL
