MODEL 1
REMARK minimizedAffinity 0.761168242
REMARK minimizedRMSD -1
REMARK  0 active torsions:
REMARK  status: ('A' for Active; 'I' for Inactive)
ROOT
ATOM      1  C   UNL d   1       0.750  -3.304  -0.266  0.00  0.00     0.020 A 
ATOM      2  C1  UNL d   1       1.127  -1.965  -0.167  0.00  0.00     0.020 A 
ATOM      3  C2  UNL d   1       0.184  -0.998   0.187  0.00  0.00     0.034 A 
ATOM      4  C3  UNL d   1      -1.141  -1.368   0.443  0.00  0.00     0.017 A 
ATOM      5  C4  UNL d   1      -1.519  -2.712   0.344  0.00  0.00     0.017 A 
ATOM      6  C5  UNL d   1      -0.571  -3.676  -0.011  0.00  0.00     0.034 A 
ATOM      7 Cl   UNL d   1      -3.136  -3.245   0.645  0.00  0.00    -0.070 Cl
ATOM      8 Cl1  UNL d   1      -2.255  -0.119   0.876  0.00  0.00    -0.070 Cl
ENDROOT
TORSDOF 0
ENDMDL
