MODEL 1
REMARK minimizedAffinity -0.501145899
REMARK minimizedRMSD -1
REMARK  0 active torsions:
REMARK  status: ('A' for Active; 'I' for Inactive)
ROOT
ATOM      1  C   UNL d   1       1.069  -1.747   0.159  0.00  0.00     0.020 A 
ATOM      2  C1  UNL d   1       0.687  -3.085   0.071  0.00  0.00     0.020 A 
ATOM      3  C2  UNL d   1      -0.649  -3.444   0.264  0.00  0.00     0.034 A 
ATOM      4  C3  UNL d   1      -1.607  -2.463   0.545  0.00  0.00     0.017 A 
ATOM      5  C4  UNL d   1      -1.222  -1.121   0.632  0.00  0.00     0.017 A 
ATOM      6  C5  UNL d   1       0.117  -0.767   0.439  0.00  0.00     0.034 A 
ATOM      7 Cl   UNL d   1      -2.348   0.146   0.976  0.00  0.00    -0.070 Cl
ATOM      8 Cl1  UNL d   1      -3.241  -2.978   0.772  0.00  0.00    -0.070 Cl
ENDROOT
TORSDOF 0
ENDMDL
