MODEL 1
REMARK minimizedAffinity -4.11091137
REMARK minimizedRMSD -1
REMARK  0 active torsions:
REMARK  status: ('A' for Active; 'I' for Inactive)
ROOT
ATOM      1  C   UNL d   1      -0.641  -2.281   1.760  0.00  0.00     0.020 A 
ATOM      2  C1  UNL d   1      -0.276  -3.286   0.865  0.00  0.00     0.020 A 
ATOM      3  C2  UNL d   1       0.214  -2.952  -0.399  0.00  0.00     0.034 A 
ATOM      4  C3  UNL d   1       0.341  -1.609  -0.772  0.00  0.00     0.017 A 
ATOM      5  C4  UNL d   1      -0.025  -0.601   0.126  0.00  0.00     0.017 A 
ATOM      6  C5  UNL d   1      -0.516  -0.941   1.391  0.00  0.00     0.034 A 
ATOM      7 Cl   UNL d   1       0.103   1.079  -0.263  0.00  0.00    -0.070 Cl
ATOM      8 Cl1  UNL d   1       0.955  -1.269  -2.351  0.00  0.00    -0.070 Cl
ENDROOT
TORSDOF 0
ENDMDL
