MODEL 1
REMARK minimizedAffinity -1.70189142
REMARK minimizedRMSD -1
REMARK  0 active torsions:
REMARK  status: ('A' for Active; 'I' for Inactive)
ROOT
ATOM      1  C   UNL d   1      -0.215  -2.764   1.177  0.00  0.00     0.020 A 
ATOM      2  C1  UNL d   1      -0.911  -1.589   1.459  0.00  0.00     0.020 A 
ATOM      3  C2  UNL d   1      -0.828  -0.502   0.586  0.00  0.00     0.034 A 
ATOM      4  C3  UNL d   1      -0.047  -0.587  -0.572  0.00  0.00     0.017 A 
ATOM      5  C4  UNL d   1       0.652  -1.767  -0.854  0.00  0.00     0.017 A 
ATOM      6  C5  UNL d   1       0.565  -2.853   0.024  0.00  0.00     0.034 A 
ATOM      7 Cl   UNL d   1       1.636  -1.948  -2.263  0.00  0.00    -0.070 Cl
ATOM      8 Cl1  UNL d   1       0.011   0.795  -1.607  0.00  0.00    -0.070 Cl
ENDROOT
TORSDOF 0
ENDMDL
