MODEL 1
REMARK minimizedAffinity -4.99955797
REMARK minimizedRMSD -1
REMARK  0 active torsions:
REMARK  status: ('A' for Active; 'I' for Inactive)
ROOT
ATOM      1  C   UNL d   1       0.083  -2.916   1.397  0.00  0.00     0.020 A 
ATOM      2  C1  UNL d   1       0.991  -2.824   0.343  0.00  0.00     0.020 A 
ATOM      3  C2  UNL d   1       0.974  -1.710  -0.498  0.00  0.00     0.034 A 
ATOM      4  C3  UNL d   1       0.047  -0.682  -0.286  0.00  0.00     0.017 A 
ATOM      5  C4  UNL d   1      -0.864  -0.775   0.772  0.00  0.00     0.017 A 
ATOM      6  C5  UNL d   1      -0.842  -1.894   1.611  0.00  0.00     0.034 A 
ATOM      7 Cl   UNL d   1      -2.037   0.452   1.096  0.00  0.00    -0.070 Cl
ATOM      8 Cl1  UNL d   1       0.083   0.667  -1.365  0.00  0.00    -0.070 Cl
ENDROOT
TORSDOF 0
ENDMDL
