MODEL 1
REMARK minimizedAffinity -4.71934509
REMARK minimizedRMSD -1
REMARK  0 active torsions:
REMARK  status: ('A' for Active; 'I' for Inactive)
ROOT
ATOM      1  C   UNL d   1       0.148  -2.823  -0.205  0.00  0.00     0.020 A 
ATOM      2  C1  UNL d   1       0.663  -1.977  -1.186  0.00  0.00     0.020 A 
ATOM      3  C2  UNL d   1       0.642  -0.593  -0.996  0.00  0.00     0.034 A 
ATOM      4  C3  UNL d   1       0.104  -0.052   0.178  0.00  0.00     0.017 A 
ATOM      5  C4  UNL d   1      -0.413  -0.903   1.161  0.00  0.00     0.017 A 
ATOM      6  C5  UNL d   1      -0.389  -2.287   0.966  0.00  0.00     0.034 A 
ATOM      7 Cl   UNL d   1      -1.093  -0.309   2.635  0.00  0.00    -0.070 Cl
ATOM      8 Cl1  UNL d   1       0.111   1.667   0.346  0.00  0.00    -0.070 Cl
ENDROOT
TORSDOF 0
ENDMDL
