MODEL 1
REMARK minimizedAffinity -0.784990847
REMARK minimizedRMSD -1
REMARK  0 active torsions:
REMARK  status: ('A' for Active; 'I' for Inactive)
ROOT
ATOM      1  C   UNL d   1      -0.764  -2.657  -0.119  0.00  0.00     0.020 A 
ATOM      2  C1  UNL d   1      -0.866  -1.927   1.065  0.00  0.00     0.020 A 
ATOM      3  C2  UNL d   1      -0.421  -0.604   1.110  0.00  0.00     0.034 A 
ATOM      4  C3  UNL d   1       0.128  -0.007  -0.030  0.00  0.00     0.017 A 
ATOM      5  C4  UNL d   1       0.230  -0.740  -1.218  0.00  0.00     0.017 A 
ATOM      6  C5  UNL d   1      -0.217  -2.064  -1.258  0.00  0.00     0.034 A 
ATOM      7 Cl   UNL d   1       0.896  -0.071  -2.666  0.00  0.00    -0.070 Cl
ATOM      8 Cl1  UNL d   1       0.658   1.633   0.098  0.00  0.00    -0.070 Cl
ENDROOT
TORSDOF 0
ENDMDL
