MODEL 1
REMARK minimizedAffinity -3.35224724
REMARK minimizedRMSD -1
REMARK  0 active torsions:
REMARK  status: ('A' for Active; 'I' for Inactive)
ROOT
ATOM      1  C   UNL d   1      -0.156  -1.591   1.466  0.00  0.00     0.020 A 
ATOM      2  C1  UNL d   1      -0.017  -0.474   0.644  0.00  0.00     0.020 A 
ATOM      3  C2  UNL d   1       0.165  -0.636  -0.731  0.00  0.00     0.034 A 
ATOM      4  C3  UNL d   1       0.208  -1.919  -1.288  0.00  0.00     0.017 A 
ATOM      5  C4  UNL d   1       0.068  -3.041  -0.462  0.00  0.00     0.017 A 
ATOM      6  C5  UNL d   1      -0.114  -2.872   0.914  0.00  0.00     0.034 A 
ATOM      7 Cl   UNL d   1       0.111  -4.656  -1.077  0.00  0.00    -0.070 Cl
ATOM      8 Cl1  UNL d   1       0.436  -2.046  -2.996  0.00  0.00    -0.070 Cl
ENDROOT
TORSDOF 0
ENDMDL
