MODEL 1
REMARK minimizedAffinity -5.56018782
REMARK minimizedRMSD -1
REMARK  0 active torsions:
REMARK  status: ('A' for Active; 'I' for Inactive)
ROOT
ATOM      1  C   UNL d   1       0.367  -3.081  -1.131  0.00  0.00     0.020 A 
ATOM      2  C1  UNL d   1       0.189  -3.591   0.154  0.00  0.00     0.020 A 
ATOM      3  C2  UNL d   1      -0.179  -2.740   1.198  0.00  0.00     0.034 A 
ATOM      4  C3  UNL d   1      -0.371  -1.374   0.959  0.00  0.00     0.017 A 
ATOM      5  C4  UNL d   1      -0.192  -0.863  -0.332  0.00  0.00     0.017 A 
ATOM      6  C5  UNL d   1       0.177  -1.720  -1.374  0.00  0.00     0.034 A 
ATOM      7 Cl   UNL d   1      -0.410   0.810  -0.704  0.00  0.00    -0.070 Cl
ATOM      8 Cl1  UNL d   1      -0.826  -0.380   2.297  0.00  0.00    -0.070 Cl
ENDROOT
TORSDOF 0
ENDMDL
