MODEL 1
REMARK minimizedAffinity -5.31207514
REMARK minimizedRMSD -1
REMARK  0 active torsions:
REMARK  status: ('A' for Active; 'I' for Inactive)
ROOT
ATOM      1  C   UNL d   1      -0.459  -3.272  -0.056  0.00  0.00     0.020 A 
ATOM      2  C1  UNL d   1       0.474  -2.720  -0.932  0.00  0.00     0.020 A 
ATOM      3  C2  UNL d   1       0.659  -1.336  -0.975  0.00  0.00     0.034 A 
ATOM      4  C3  UNL d   1      -0.090  -0.500  -0.139  0.00  0.00     0.017 A 
ATOM      5  C4  UNL d   1      -1.027  -1.055   0.741  0.00  0.00     0.017 A 
ATOM      6  C5  UNL d   1      -1.208  -2.441   0.779  0.00  0.00     0.034 A 
ATOM      7 Cl   UNL d   1      -1.988  -0.088   1.802  0.00  0.00    -0.070 Cl
ATOM      8 Cl1  UNL d   1       0.190   1.202  -0.244  0.00  0.00    -0.070 Cl
ENDROOT
TORSDOF 0
ENDMDL
