MODEL 1
REMARK minimizedAffinity -3.88204646
REMARK minimizedRMSD -1
REMARK  0 active torsions:
REMARK  status: ('A' for Active; 'I' for Inactive)
ROOT
ATOM      1  C   UNL d   1       0.134  -2.846   0.618  0.00  0.00     0.020 A 
ATOM      2  C1  UNL d   1       1.075  -2.236  -0.211  0.00  0.00     0.020 A 
ATOM      3  C2  UNL d   1       1.004  -0.864  -0.457  0.00  0.00     0.034 A 
ATOM      4  C3  UNL d   1      -0.010  -0.096   0.128  0.00  0.00     0.017 A 
ATOM      5  C4  UNL d   1      -0.954  -0.709   0.960  0.00  0.00     0.017 A 
ATOM      6  C5  UNL d   1      -0.878  -2.084   1.202  0.00  0.00     0.034 A 
ATOM      7 Cl   UNL d   1      -2.234   0.173   1.716  0.00  0.00    -0.070 Cl
ATOM      8 Cl1  UNL d   1      -0.037   1.597  -0.219  0.00  0.00    -0.070 Cl
ENDROOT
TORSDOF 0
ENDMDL
