MODEL 1
REMARK minimizedAffinity -4.01280117
REMARK minimizedRMSD -1
REMARK  0 active torsions:
REMARK  status: ('A' for Active; 'I' for Inactive)
ROOT
ATOM      1  C   UNL d   1      -0.686  -3.488  -1.152  0.00  0.00     0.020 A 
ATOM      2  C1  UNL d   1      -1.097  -3.048   0.105  0.00  0.00     0.020 A 
ATOM      3  C2  UNL d   1      -1.060  -1.687   0.416  0.00  0.00     0.034 A 
ATOM      4  C3  UNL d   1      -0.610  -0.761  -0.532  0.00  0.00     0.017 A 
ATOM      5  C4  UNL d   1      -0.197  -1.204  -1.794  0.00  0.00     0.017 A 
ATOM      6  C5  UNL d   1      -0.236  -2.567  -2.100  0.00  0.00     0.034 A 
ATOM      7 Cl   UNL d   1       0.371  -0.121  -3.016  0.00  0.00    -0.070 Cl
ATOM      8 Cl1  UNL d   1      -0.591   0.907  -0.080  0.00  0.00    -0.070 Cl
ENDROOT
TORSDOF 0
ENDMDL
