MODEL 1
REMARK minimizedAffinity -3.91678905
REMARK minimizedRMSD -1
REMARK  0 active torsions:
REMARK  status: ('A' for Active; 'I' for Inactive)
ROOT
ATOM      1  C   UNL d   1      -1.115  -1.214   1.137  0.00  0.00     0.020 A 
ATOM      2  C1  UNL d   1      -0.905   0.140   0.881  0.00  0.00     0.020 A 
ATOM      3  C2  UNL d   1      -0.519   0.558  -0.394  0.00  0.00     0.034 A 
ATOM      4  C3  UNL d   1      -0.341  -0.380  -1.418  0.00  0.00     0.017 A 
ATOM      5  C4  UNL d   1      -0.552  -1.739  -1.160  0.00  0.00     0.017 A 
ATOM      6  C5  UNL d   1      -0.938  -2.152   0.119  0.00  0.00     0.034 A 
ATOM      7 Cl   UNL d   1      -0.352  -2.954  -2.372  0.00  0.00    -0.070 Cl
ATOM      8 Cl1  UNL d   1       0.137   0.208  -2.971  0.00  0.00    -0.070 Cl
ENDROOT
TORSDOF 0
ENDMDL
