MODEL 1
REMARK minimizedAffinity -4.57477713
REMARK minimizedRMSD -1
REMARK  0 active torsions:
REMARK  status: ('A' for Active; 'I' for Inactive)
ROOT
ATOM      1  C   UNL d   1       0.540  -2.340  -0.715  0.00  0.00     0.020 A 
ATOM      2  C1  UNL d   1      -0.428  -2.873   0.135  0.00  0.00     0.020 A 
ATOM      3  C2  UNL d   1      -1.236  -2.022   0.893  0.00  0.00     0.034 A 
ATOM      4  C3  UNL d   1      -1.076  -0.635   0.803  0.00  0.00     0.017 A 
ATOM      5  C4  UNL d   1      -0.103  -0.101  -0.050  0.00  0.00     0.017 A 
ATOM      6  C5  UNL d   1       0.702  -0.957  -0.808  0.00  0.00     0.034 A 
ATOM      7 Cl   UNL d   1       0.153   1.600  -0.215  0.00  0.00    -0.070 Cl
ATOM      8 Cl1  UNL d   1      -2.109   0.358   1.770  0.00  0.00    -0.070 Cl
ENDROOT
TORSDOF 0
ENDMDL
