MODEL 1
REMARK minimizedAffinity -3.30935407
REMARK minimizedRMSD -1
REMARK  1 active torsions:
REMARK  status: ('A' for Active; 'I' for Inactive)
REMARK    1  A    between atoms: C1_2  and  C2_3 
ROOT
ATOM      1  C2  UNL d   1      -1.146   0.444  -0.005  0.00  0.00    -0.077 A 
ATOM      2  C3  UNL d   1      -1.603   0.805   1.270  0.00  0.00     0.002 A 
ATOM      3  C4  UNL d   1      -2.962   1.042   1.492  0.00  0.00     0.002 A 
ATOM      4  C5  UNL d   1      -3.873   0.915   0.446  0.00  0.00    -0.004 A 
ATOM      5  C6  UNL d   1      -3.427   0.558  -0.826  0.00  0.00     0.002 A 
ATOM      6  C7  UNL d   1      -2.070   0.322  -1.050  0.00  0.00     0.002 A 
ENDROOT
BRANCH   1   7
ATOM      7  C1  UNL d   1       0.312   0.140  -0.235  0.00  0.00     0.055 C 
ATOM      8  C   UNL d   1       0.580  -1.357  -0.186  0.00  0.00     0.019 C 
ENDBRANCH   1   7
TORSDOF 1
ENDMDL
