MODEL 1
REMARK minimizedAffinity -5.02278757
REMARK minimizedRMSD -1
REMARK  1 active torsions:
REMARK  status: ('A' for Active; 'I' for Inactive)
REMARK    1  A    between atoms: C1_2  and  C2_3 
ROOT
ATOM      1  C2  UNL d   1       0.938   0.088   0.032  0.00  0.00    -0.077 A 
ATOM      2  C3  UNL d   1       1.837   1.159   0.141  0.00  0.00     0.002 A 
ATOM      3  C4  UNL d   1       3.214   0.934   0.078  0.00  0.00     0.002 A 
ATOM      4  C5  UNL d   1       3.703  -0.358  -0.097  0.00  0.00    -0.004 A 
ATOM      5  C6  UNL d   1       2.818  -1.430  -0.204  0.00  0.00     0.002 A 
ATOM      6  C7  UNL d   1       1.442  -1.208  -0.141  0.00  0.00     0.002 A 
ENDROOT
BRANCH   1   7
ATOM      7  C1  UNL d   1      -0.548   0.334   0.050  0.00  0.00     0.055 C 
ATOM      8  C   UNL d   1      -0.879   1.754  -0.384  0.00  0.00     0.019 C 
ENDBRANCH   1   7
TORSDOF 1
ENDMDL
