MODEL 1
REMARK minimizedAffinity -3.43980837
REMARK minimizedRMSD -1
REMARK  1 active torsions:
REMARK  status: ('A' for Active; 'I' for Inactive)
REMARK    1  A    between atoms: C1_2  and  C2_3 
ROOT
ATOM      1  C2  UNL d   1       0.568  -0.017  -0.006  0.00  0.00    -0.077 A 
ATOM      2  C3  UNL d   1       1.479   1.049  -0.029  0.00  0.00     0.002 A 
ATOM      3  C4  UNL d   1       2.851   0.804  -0.105  0.00  0.00     0.002 A 
ATOM      4  C5  UNL d   1       3.325  -0.505  -0.163  0.00  0.00    -0.004 A 
ATOM      5  C6  UNL d   1       2.427  -1.572  -0.139  0.00  0.00     0.002 A 
ATOM      6  C7  UNL d   1       1.055  -1.329  -0.062  0.00  0.00     0.002 A 
ENDROOT
BRANCH   1   7
ATOM      7  C1  UNL d   1      -0.914   0.246   0.026  0.00  0.00     0.055 C 
ATOM      8  C   UNL d   1      -1.271   1.500  -0.760  0.00  0.00     0.019 C 
ENDBRANCH   1   7
TORSDOF 1
ENDMDL
