MODEL 1
REMARK minimizedAffinity -2.35942602
REMARK minimizedRMSD -1
REMARK  1 active torsions:
REMARK  status: ('A' for Active; 'I' for Inactive)
REMARK    1  A    between atoms: C1_2  and  C2_3 
ROOT
ATOM      1  C2  UNL d   1      -0.704   0.748  -0.264  0.00  0.00    -0.077 A 
ATOM      2  C3  UNL d   1       0.040  -0.215   0.433  0.00  0.00     0.002 A 
ATOM      3  C4  UNL d   1       1.408  -0.034   0.645  0.00  0.00     0.002 A 
ATOM      4  C5  UNL d   1       2.043   1.111   0.168  0.00  0.00    -0.004 A 
ATOM      5  C6  UNL d   1       1.312   2.074  -0.527  0.00  0.00     0.002 A 
ATOM      6  C7  UNL d   1      -0.055   1.894  -0.741  0.00  0.00     0.002 A 
ENDROOT
BRANCH   1   7
ATOM      7  C1  UNL d   1      -2.189   0.578  -0.451  0.00  0.00     0.055 C 
ATOM      8  C   UNL d   1      -2.964   1.138   0.733  0.00  0.00     0.019 C 
ENDBRANCH   1   7
TORSDOF 1
ENDMDL
