MODEL 1
REMARK minimizedAffinity -3.35453749
REMARK minimizedRMSD -1
REMARK  1 active torsions:
REMARK  status: ('A' for Active; 'I' for Inactive)
REMARK    1  A    between atoms: C1_2  and  C2_3 
ROOT
ATOM      1  C2  UNL d   1      -1.439   0.218   0.154  0.00  0.00    -0.077 A 
ATOM      2  C3  UNL d   1      -1.877   0.160   1.485  0.00  0.00     0.002 A 
ATOM      3  C4  UNL d   1      -3.235   0.275   1.787  0.00  0.00     0.002 A 
ATOM      4  C5  UNL d   1      -4.166   0.445   0.765  0.00  0.00    -0.004 A 
ATOM      5  C6  UNL d   1      -3.741   0.506  -0.561  0.00  0.00     0.002 A 
ATOM      6  C7  UNL d   1      -2.384   0.393  -0.866  0.00  0.00     0.002 A 
ENDROOT
BRANCH   1   7
ATOM      7  C1  UNL d   1       0.020   0.045  -0.178  0.00  0.00     0.055 C 
ATOM      8  C   UNL d   1       0.433  -1.418  -0.110  0.00  0.00     0.019 C 
ENDBRANCH   1   7
TORSDOF 1
ENDMDL
