MODEL 1
REMARK minimizedAffinity 13.281538
REMARK minimizedRMSD -1
REMARK  0 active torsions:
REMARK  status: ('A' for Active; 'I' for Inactive)
ROOT
ATOM      1  C   UNL d   1       4.612  -0.062  -3.174  0.00  0.00     0.023 A 
ATOM      2  C1  UNL d   1       5.556  -0.976  -2.706  0.00  0.00     0.003 A 
ATOM      3  C2  UNL d   1       5.955  -2.044  -3.512  0.00  0.00     0.048 A 
ATOM      4  C3  UNL d   1       5.406  -2.191  -4.786  0.00  0.00     0.023 A 
ATOM      5  C4  UNL d   1       4.462  -1.278  -5.258  0.00  0.00     0.048 A 
ATOM      6  C5  UNL d   1       4.066  -0.213  -4.448  0.00  0.00     0.003 A 
ATOM      7  I   UNL d   1       5.999  -3.779  -5.988  0.00  0.00    -0.146 I 
ENDROOT
TORSDOF 0
ENDMDL
