MODEL 1
REMARK minimizedAffinity 14.2915373
REMARK minimizedRMSD -1
REMARK  0 active torsions:
REMARK  status: ('A' for Active; 'I' for Inactive)
ROOT
ATOM      1  C   UNL d   1      -2.620   5.504  -5.388  0.00  0.00     0.023 A 
ATOM      2  C1  UNL d   1      -2.086   6.000  -4.198  0.00  0.00     0.003 A 
ATOM      3  C2  UNL d   1      -1.549   5.123  -3.254  0.00  0.00     0.048 A 
ATOM      4  C3  UNL d   1      -1.547   3.752  -3.505  0.00  0.00     0.023 A 
ATOM      5  C4  UNL d   1      -2.079   3.251  -4.695  0.00  0.00     0.048 A 
ATOM      6  C5  UNL d   1      -2.616   4.131  -5.636  0.00  0.00     0.003 A 
ATOM      7  I   UNL d   1      -0.748   2.445  -2.100  0.00  0.00    -0.146 I 
ENDROOT
TORSDOF 0
ENDMDL
