MODEL 1
REMARK minimizedAffinity 16.0892544
REMARK minimizedRMSD -1
REMARK  0 active torsions:
REMARK  status: ('A' for Active; 'I' for Inactive)
ROOT
ATOM      1  C   UNL d   1      -1.907   5.031  -4.294  0.00  0.00     0.023 A 
ATOM      2  C1  UNL d   1      -2.171   5.966  -3.293  0.00  0.00     0.003 A 
ATOM      3  C2  UNL d   1      -2.922   5.600  -2.175  0.00  0.00     0.048 A 
ATOM      4  C3  UNL d   1      -3.406   4.297  -2.064  0.00  0.00     0.023 A 
ATOM      5  C4  UNL d   1      -3.144   3.358  -3.062  0.00  0.00     0.048 A 
ATOM      6  C5  UNL d   1      -2.393   3.729  -4.179  0.00  0.00     0.003 A 
ATOM      7  I   UNL d   1      -4.525   3.750  -0.400  0.00  0.00    -0.146 I 
ENDROOT
TORSDOF 0
ENDMDL
