MODEL 1
REMARK minimizedAffinity 8.66237068
REMARK minimizedRMSD -1
REMARK  0 active torsions:
REMARK  status: ('A' for Active; 'I' for Inactive)
ROOT
ATOM      1  C   UNL d   1       0.760  -6.000  -4.946  0.00  0.00     0.023 A 
ATOM      2  C1  UNL d   1       1.594  -5.625  -6.000  0.00  0.00     0.003 A 
ATOM      3  C2  UNL d   1       2.405  -4.494  -5.882  0.00  0.00     0.048 A 
ATOM      4  C3  UNL d   1       2.380  -3.745  -4.706  0.00  0.00     0.023 A 
ATOM      5  C4  UNL d   1       1.548  -4.117  -3.649  0.00  0.00     0.048 A 
ATOM      6  C5  UNL d   1       0.738  -5.247  -3.772  0.00  0.00     0.003 A 
ATOM      7  I   UNL d   1       3.587  -2.063  -4.528  0.00  0.00    -0.146 I 
ENDROOT
TORSDOF 0
ENDMDL
