MODEL 1
REMARK minimizedAffinity 14.2900848
REMARK minimizedRMSD -1
REMARK  0 active torsions:
REMARK  status: ('A' for Active; 'I' for Inactive)
ROOT
ATOM      1  C   UNL d   1       2.378  -0.414   2.286  0.00  0.00     0.023 A 
ATOM      2  C1  UNL d   1       1.464  -0.174   3.312  0.00  0.00     0.003 A 
ATOM      3  C2  UNL d   1       0.274  -0.902   3.373  0.00  0.00     0.048 A 
ATOM      4  C3  UNL d   1       0.004  -1.869   2.405  0.00  0.00     0.023 A 
ATOM      5  C4  UNL d   1       0.916  -2.113   1.377  0.00  0.00     0.048 A 
ATOM      6  C5  UNL d   1       2.104  -1.382   1.319  0.00  0.00     0.003 A 
ATOM      7  I   UNL d   1      -1.767  -2.953   2.493  0.00  0.00    -0.146 I 
ENDROOT
TORSDOF 0
ENDMDL
