MODEL 1
REMARK minimizedAffinity 17.0156441
REMARK minimizedRMSD -1
REMARK  0 active torsions:
REMARK  status: ('A' for Active; 'I' for Inactive)
ROOT
ATOM      1  C   UNL d   1      -1.781   4.927  -4.100  0.00  0.00     0.023 A 
ATOM      2  C1  UNL d   1      -2.245   5.998  -3.337  0.00  0.00     0.003 A 
ATOM      3  C2  UNL d   1      -3.162   5.779  -2.308  0.00  0.00     0.048 A 
ATOM      4  C3  UNL d   1      -3.610   4.485  -2.045  0.00  0.00     0.023 A 
ATOM      5  C4  UNL d   1      -3.147   3.409  -2.805  0.00  0.00     0.048 A 
ATOM      6  C5  UNL d   1      -2.231   3.634  -3.834  0.00  0.00     0.003 A 
ATOM      7  I   UNL d   1      -4.975   4.155  -0.513  0.00  0.00    -0.146 I 
ENDROOT
TORSDOF 0
ENDMDL
