MODEL 1
REMARK minimizedAffinity 20.0416107
REMARK minimizedRMSD -1
REMARK  0 active torsions:
REMARK  status: ('A' for Active; 'I' for Inactive)
ROOT
ATOM      1  C   UNL d   1       0.571   5.105  -0.045  0.00  0.00     0.023 A 
ATOM      2  C1  UNL d   1       1.788   5.387   0.575  0.00  0.00     0.003 A 
ATOM      3  C2  UNL d   1       2.648   4.347   0.936  0.00  0.00     0.048 A 
ATOM      4  C3  UNL d   1       2.284   3.027   0.673  0.00  0.00     0.023 A 
ATOM      5  C4  UNL d   1       1.068   2.740   0.051  0.00  0.00     0.048 A 
ATOM      6  C5  UNL d   1       0.212   3.783  -0.307  0.00  0.00     0.003 A 
ATOM      7  I   UNL d   1       3.561   1.478   1.209  0.00  0.00    -0.146 I 
ENDROOT
TORSDOF 0
ENDMDL
