MODEL 1
REMARK minimizedAffinity 6.28858852
REMARK minimizedRMSD -1
REMARK  0 active torsions:
REMARK  status: ('A' for Active; 'I' for Inactive)
ROOT
ATOM      1  C   UNL d   1      -1.543  -2.098   2.846  0.00  0.00     0.023 A 
ATOM      2  C1  UNL d   1      -0.846  -2.577   1.737  0.00  0.00     0.003 A 
ATOM      3  C2  UNL d   1       0.440  -2.107   1.463  0.00  0.00     0.048 A 
ATOM      4  C3  UNL d   1       1.024  -1.159   2.302  0.00  0.00     0.023 A 
ATOM      5  C4  UNL d   1       0.330  -0.677   3.414  0.00  0.00     0.048 A 
ATOM      6  C5  UNL d   1      -0.956  -1.150   3.684  0.00  0.00     0.003 A 
ATOM      7  I   UNL d   1       2.938  -0.458   1.896  0.00  0.00    -0.146 I 
ENDROOT
TORSDOF 0
ENDMDL
