MODEL 1
REMARK minimizedAffinity 22.1408367
REMARK minimizedRMSD -1
REMARK  0 active torsions:
REMARK  status: ('A' for Active; 'I' for Inactive)
ROOT
ATOM      1  C   UNL d   1      -0.456  -1.530   2.680  0.00  0.00     0.023 A 
ATOM      2  C1  UNL d   1      -0.166  -0.362   3.385  0.00  0.00     0.003 A 
ATOM      3  C2  UNL d   1       0.971   0.383   3.067  0.00  0.00     0.048 A 
ATOM      4  C3  UNL d   1       1.814  -0.045   2.041  0.00  0.00     0.023 A 
ATOM      5  C4  UNL d   1       1.527  -1.213   1.332  0.00  0.00     0.048 A 
ATOM      6  C5  UNL d   1       0.390  -1.955   1.655  0.00  0.00     0.003 A 
ATOM      7  I   UNL d   1       3.507   1.063   1.566  0.00  0.00    -0.146 I 
ENDROOT
TORSDOF 0
ENDMDL
