MODEL 1
REMARK minimizedAffinity 17.3084717
REMARK minimizedRMSD -1
REMARK  0 active torsions:
REMARK  status: ('A' for Active; 'I' for Inactive)
ROOT
ATOM      1  C   UNL d   1      -3.123  -2.264   2.619  0.00  0.00     0.023 A 
ATOM      2  C1  UNL d   1      -2.150  -3.185   2.233  0.00  0.00     0.003 A 
ATOM      3  C2  UNL d   1      -2.458  -4.181   1.305  0.00  0.00     0.048 A 
ATOM      4  C3  UNL d   1      -3.742  -4.249   0.765  0.00  0.00     0.023 A 
ATOM      5  C4  UNL d   1      -4.719  -3.328   1.147  0.00  0.00     0.048 A 
ATOM      6  C5  UNL d   1      -4.406  -2.335   2.076  0.00  0.00     0.003 A 
ATOM      7  I   UNL d   1      -4.204  -5.731  -0.618  0.00  0.00    -0.146 I 
ENDROOT
TORSDOF 0
ENDMDL
