MODEL 1
REMARK minimizedAffinity 12.6064768
REMARK minimizedRMSD -1
REMARK  0 active torsions:
REMARK  status: ('A' for Active; 'I' for Inactive)
ROOT
ATOM      1  C   UNL d   1      -0.636  -2.239   3.074  0.00  0.00     0.023 A 
ATOM      2  C1  UNL d   1      -0.231  -1.135   3.824  0.00  0.00     0.003 A 
ATOM      3  C2  UNL d   1       0.824  -0.336   3.378  0.00  0.00     0.048 A 
ATOM      4  C3  UNL d   1       1.468  -0.645   2.181  0.00  0.00     0.023 A 
ATOM      5  C4  UNL d   1       1.065  -1.749   1.426  0.00  0.00     0.048 A 
ATOM      6  C5  UNL d   1       0.011  -2.546   1.877  0.00  0.00     0.003 A 
ATOM      7  I   UNL d   1       3.038   0.543   1.515  0.00  0.00    -0.146 I 
ENDROOT
TORSDOF 0
ENDMDL
