MODEL 1
REMARK minimizedAffinity 13.5229721
REMARK minimizedRMSD -1
REMARK  0 active torsions:
REMARK  status: ('A' for Active; 'I' for Inactive)
ROOT
ATOM      1  C   UNL d   1      -0.183  -0.842   3.708  0.00  0.00     0.023 A 
ATOM      2  C1  UNL d   1       0.165  -1.175   2.399  0.00  0.00     0.003 A 
ATOM      3  C2  UNL d   1       1.478  -0.999   1.958  0.00  0.00     0.048 A 
ATOM      4  C3  UNL d   1       2.439  -0.491   2.832  0.00  0.00     0.023 A 
ATOM      5  C4  UNL d   1       2.095  -0.157   4.143  0.00  0.00     0.048 A 
ATOM      6  C5  UNL d   1       0.781  -0.333   4.579  0.00  0.00     0.003 A 
ATOM      7  I   UNL d   1       4.394  -0.228   2.179  0.00  0.00    -0.146 I 
ENDROOT
TORSDOF 0
ENDMDL
