MODEL 1
REMARK minimizedAffinity 7.36957741
REMARK minimizedRMSD -1
REMARK  0 active torsions:
REMARK  status: ('A' for Active; 'I' for Inactive)
ROOT
ATOM      1  C   UNL d   1       2.297  -0.889   1.851  0.00  0.00     0.023 A 
ATOM      2  C1  UNL d   1       1.931  -2.030   1.136  0.00  0.00     0.003 A 
ATOM      3  C2  UNL d   1       0.726  -2.676   1.419  0.00  0.00     0.048 A 
ATOM      4  C3  UNL d   1      -0.109  -2.175   2.416  0.00  0.00     0.023 A 
ATOM      5  C4  UNL d   1       0.251  -1.033   3.133  0.00  0.00     0.048 A 
ATOM      6  C5  UNL d   1       1.458  -0.391   2.848  0.00  0.00     0.003 A 
ATOM      7  I   UNL d   1      -1.904  -3.135   2.839  0.00  0.00    -0.146 I 
ENDROOT
TORSDOF 0
ENDMDL
