MODEL 1
REMARK minimizedAffinity 8.44379997
REMARK minimizedRMSD -1
REMARK  0 active torsions:
REMARK  status: ('A' for Active; 'I' for Inactive)
ROOT
ATOM      1  C   UNL d   1       2.762  -0.552   2.290  0.00  0.00     0.023 A 
ATOM      2  C1  UNL d   1       2.370  -1.565   1.414  0.00  0.00     0.003 A 
ATOM      3  C2  UNL d   1       1.144  -2.210   1.594  0.00  0.00     0.048 A 
ATOM      4  C3  UNL d   1       0.315  -1.836   2.651  0.00  0.00     0.023 A 
ATOM      5  C4  UNL d   1       0.702  -0.823   3.529  0.00  0.00     0.048 A 
ATOM      6  C5  UNL d   1       1.929  -0.182   3.346  0.00  0.00     0.003 A 
ATOM      7  I   UNL d   1      -1.510  -2.795   2.921  0.00  0.00    -0.146 I 
ENDROOT
TORSDOF 0
ENDMDL
