MODEL 1
REMARK minimizedAffinity 5.17212009
REMARK minimizedRMSD -1
REMARK  0 active torsions:
REMARK  status: ('A' for Active; 'I' for Inactive)
ROOT
ATOM      1  C   UNL d   1      -1.288  -2.100   3.573  0.00  0.00     0.023 A 
ATOM      2  C1  UNL d   1      -0.510  -1.213   4.318  0.00  0.00     0.003 A 
ATOM      3  C2  UNL d   1       0.709  -0.757   3.812  0.00  0.00     0.048 A 
ATOM      4  C3  UNL d   1       1.144  -1.191   2.560  0.00  0.00     0.023 A 
ATOM      5  C4  UNL d   1       0.369  -2.078   1.811  0.00  0.00     0.048 A 
ATOM      6  C5  UNL d   1      -0.849  -2.532   2.321  0.00  0.00     0.003 A 
ATOM      7  I   UNL d   1       2.957  -0.513   1.805  0.00  0.00    -0.146 I 
ENDROOT
TORSDOF 0
ENDMDL
