MODEL 1
REMARK minimizedAffinity 9.19477844
REMARK minimizedRMSD -1
REMARK  0 active torsions:
REMARK  status: ('A' for Active; 'I' for Inactive)
ROOT
ATOM      1  C   UNL d   1      -5.630  -4.129   3.425  0.00  0.00     0.023 A 
ATOM      2  C1  UNL d   1      -5.884  -5.459   3.091  0.00  0.00     0.003 A 
ATOM      3  C2  UNL d   1      -5.358  -5.997   1.915  0.00  0.00     0.048 A 
ATOM      4  C3  UNL d   1      -4.578  -5.200   1.078  0.00  0.00     0.023 A 
ATOM      5  C4  UNL d   1      -4.320  -3.869   1.409  0.00  0.00     0.048 A 
ATOM      6  C5  UNL d   1      -4.849  -3.334   2.586  0.00  0.00     0.003 A 
ATOM      7  I   UNL d   1      -3.793  -5.999  -0.673  0.00  0.00    -0.146 I 
ENDROOT
TORSDOF 0
ENDMDL
