MODEL 1
REMARK minimizedAffinity -0.700449705
REMARK minimizedRMSD -1
REMARK  1 active torsions:
REMARK  status: ('A' for Active; 'I' for Inactive)
REMARK    1  A    between atoms: C1_2  and  C2_3 
ROOT
ATOM      1  C2  UNL d   1       5.999   0.344   4.115  0.00  0.00    -0.081 A 
ATOM      2  C3  UNL d   1       5.959  -0.752   3.244  0.00  0.00     0.006 A 
ATOM      3  C4  UNL d   1       5.904  -2.054   3.747  0.00  0.00     0.002 A 
ATOM      4  C5  UNL d   1       5.879  -2.281   5.127  0.00  0.00    -0.080 A 
ATOM      5  C6  UNL d   1       5.790  -3.673   5.680  0.00  0.00     0.076 C 
ATOM      6  C7  UNL d   1       5.937  -1.187   5.997  0.00  0.00     0.002 A 
ATOM      7  C8  UNL d   1       5.993   0.115   5.495  0.00  0.00     0.006 A 
ENDROOT
BRANCH   1   8
ATOM      8  C1  UNL d   1       5.993   1.752   3.575  0.00  0.00     0.054 C 
ATOM      9  C   UNL d   1       5.996   2.776   4.701  0.00  0.00     0.018 C 
ENDBRANCH   1   8
TORSDOF 1
ENDMDL
