MODEL 1
REMARK minimizedAffinity -2.39926505
REMARK minimizedRMSD -1
REMARK  1 active torsions:
REMARK  status: ('A' for Active; 'I' for Inactive)
REMARK    1  A    between atoms: C1_2  and  C2_3 
ROOT
ATOM      1  C2  UNL d   1       5.920   3.125   3.905  0.00  0.00    -0.081 A 
ATOM      2  C3  UNL d   1       5.926   2.088   2.964  0.00  0.00     0.006 A 
ATOM      3  C4  UNL d   1       5.963   0.755   3.379  0.00  0.00     0.002 A 
ATOM      4  C5  UNL d   1       5.987   0.436   4.741  0.00  0.00    -0.080 A 
ATOM      5  C6  UNL d   1       5.997  -0.992   5.200  0.00  0.00     0.076 C 
ATOM      6  C7  UNL d   1       5.999   1.472   5.681  0.00  0.00     0.002 A 
ATOM      7  C8  UNL d   1       5.962   2.805   5.267  0.00  0.00     0.006 A 
ENDROOT
BRANCH   1   8
ATOM      8  C1  UNL d   1       5.814   4.562   3.462  0.00  0.00     0.054 C 
ATOM      9  C   UNL d   1       5.997   4.692   1.957  0.00  0.00     0.018 C 
ENDBRANCH   1   8
TORSDOF 1
ENDMDL
