MODEL 1
REMARK minimizedAffinity -1.02790153
REMARK minimizedRMSD -1
REMARK  1 active torsions:
REMARK  status: ('A' for Active; 'I' for Inactive)
REMARK    1  A    between atoms: C1_2  and  C2_3 
ROOT
ATOM      1  C2  UNL d   1       5.934   0.151   4.089  0.00  0.00    -0.081 A 
ATOM      2  C3  UNL d   1       5.868   0.538   2.745  0.00  0.00     0.006 A 
ATOM      3  C4  UNL d   1       5.873   1.890   2.396  0.00  0.00     0.002 A 
ATOM      4  C5  UNL d   1       5.952   2.878   3.384  0.00  0.00    -0.080 A 
ATOM      5  C6  UNL d   1       5.988   4.333   3.022  0.00  0.00     0.076 C 
ATOM      6  C7  UNL d   1       6.000   2.491   4.728  0.00  0.00     0.002 A 
ATOM      7  C8  UNL d   1       5.994   1.139   5.077  0.00  0.00     0.006 A 
ENDROOT
BRANCH   1   8
ATOM      8  C1  UNL d   1       5.994  -1.308   4.464  0.00  0.00     0.054 C 
ATOM      9  C   UNL d   1       5.986  -1.491   5.975  0.00  0.00     0.018 C 
ENDBRANCH   1   8
TORSDOF 1
ENDMDL
