MODEL 1
REMARK minimizedAffinity -2.66457653
REMARK minimizedRMSD -1
REMARK  1 active torsions:
REMARK  status: ('A' for Active; 'I' for Inactive)
REMARK    1  A    between atoms: C1_2  and  C2_3 
ROOT
ATOM      1  C2  UNL d   1       5.579   2.755   4.125  0.00  0.00    -0.081 A 
ATOM      2  C3  UNL d   1       5.972   1.866   3.117  0.00  0.00     0.006 A 
ATOM      3  C4  UNL d   1       6.000   0.490   3.358  0.00  0.00     0.002 A 
ATOM      4  C5  UNL d   1       5.629  -0.020   4.607  0.00  0.00    -0.080 A 
ATOM      5  C6  UNL d   1       5.626  -1.497   4.869  0.00  0.00     0.076 C 
ATOM      6  C7  UNL d   1       5.254   0.870   5.620  0.00  0.00     0.002 A 
ATOM      7  C8  UNL d   1       5.226   2.245   5.379  0.00  0.00     0.006 A 
ENDROOT
BRANCH   1   8
ATOM      8  C1  UNL d   1       5.485   4.234   3.849  0.00  0.00     0.054 C 
ATOM      9  C   UNL d   1       5.953   5.051   5.045  0.00  0.00     0.018 C 
ENDBRANCH   1   8
TORSDOF 1
ENDMDL
