MODEL 1
REMARK minimizedAffinity 1.32429433
REMARK minimizedRMSD -1
REMARK  1 active torsions:
REMARK  status: ('A' for Active; 'I' for Inactive)
REMARK    1  A    between atoms: C1_2  and  C2_3 
ROOT
ATOM      1  C2  UNL d   1       5.999   2.804   4.118  0.00  0.00    -0.081 A 
ATOM      2  C3  UNL d   1       6.000   2.003   2.969  0.00  0.00     0.006 A 
ATOM      3  C4  UNL d   1       5.991   0.611   3.077  0.00  0.00     0.002 A 
ATOM      4  C5  UNL d   1       5.973  -0.004   4.334  0.00  0.00    -0.080 A 
ATOM      5  C6  UNL d   1       5.933  -1.497   4.464  0.00  0.00     0.076 C 
ATOM      6  C7  UNL d   1       5.990   0.796   5.481  0.00  0.00     0.002 A 
ATOM      7  C8  UNL d   1       6.000   2.189   5.374  0.00  0.00     0.006 A 
ENDROOT
BRANCH   1   8
ATOM      8  C1  UNL d   1       5.944   4.307   4.004  0.00  0.00     0.054 C 
ATOM      9  C   UNL d   1       5.908   4.751   2.549  0.00  0.00     0.018 C 
ENDBRANCH   1   8
TORSDOF 1
ENDMDL
