MODEL 1
REMARK minimizedAffinity -0.761605144
REMARK minimizedRMSD -1
REMARK  1 active torsions:
REMARK  status: ('A' for Active; 'I' for Inactive)
REMARK    1  A    between atoms: C1_2  and  C2_3 
ROOT
ATOM      1  C2  UNL d   1       5.940   2.435   4.093  0.00  0.00    -0.081 A 
ATOM      2  C3  UNL d   1       5.989   2.192   5.472  0.00  0.00     0.006 A 
ATOM      3  C4  UNL d   1       5.995   0.884   5.961  0.00  0.00     0.002 A 
ATOM      4  C5  UNL d   1       5.960  -0.203   5.081  0.00  0.00    -0.080 A 
ATOM      5  C6  UNL d   1       5.997  -1.613   5.591  0.00  0.00     0.076 C 
ATOM      6  C7  UNL d   1       5.894   0.039   3.704  0.00  0.00     0.002 A 
ATOM      7  C8  UNL d   1       5.887   1.347   3.215  0.00  0.00     0.006 A 
ENDROOT
BRANCH   1   8
ATOM      8  C1  UNL d   1       5.999   3.844   3.560  0.00  0.00     0.054 C 
ATOM      9  C   UNL d   1       4.605   4.435   3.404  0.00  0.00     0.018 C 
ENDBRANCH   1   8
TORSDOF 1
ENDMDL
