MODEL 1
REMARK minimizedAffinity -0.528177738
REMARK minimizedRMSD -1
REMARK  1 active torsions:
REMARK  status: ('A' for Active; 'I' for Inactive)
REMARK    1  A    between atoms: C1_2  and  C2_3 
ROOT
ATOM      1  C2  UNL d   1       5.826   0.634   4.958  0.00  0.00    -0.081 A 
ATOM      2  C3  UNL d   1       5.923   1.865   5.618  0.00  0.00     0.006 A 
ATOM      3  C4  UNL d   1       5.991   3.056   4.890  0.00  0.00     0.002 A 
ATOM      4  C5  UNL d   1       5.955   3.036   3.492  0.00  0.00    -0.080 A 
ATOM      5  C6  UNL d   1       5.997   4.308   2.699  0.00  0.00     0.076 C 
ATOM      6  C7  UNL d   1       5.876   1.805   2.832  0.00  0.00     0.002 A 
ATOM      7  C8  UNL d   1       5.808   0.614   3.559  0.00  0.00     0.006 A 
ENDROOT
BRANCH   1   8
ATOM      8  C1  UNL d   1       5.687  -0.646   5.741  0.00  0.00     0.054 C 
ATOM      9  C   UNL d   1       5.999  -1.860   4.877  0.00  0.00     0.018 C 
ENDBRANCH   1   8
TORSDOF 1
ENDMDL
