MODEL 1
REMARK minimizedAffinity 9.35772324
REMARK minimizedRMSD -1
REMARK  1 active torsions:
REMARK  status: ('A' for Active; 'I' for Inactive)
REMARK    1  A    between atoms: C1_2  and  C2_3 
ROOT
ATOM      1  C2  UNL d   1       3.059   1.056   0.854  0.00  0.00    -0.081 A 
ATOM      2  C3  UNL d   1       3.049   2.450   0.717  0.00  0.00     0.006 A 
ATOM      3  C4  UNL d   1       1.848   3.131   0.501  0.00  0.00     0.002 A 
ATOM      4  C5  UNL d   1       0.639   2.432   0.427  0.00  0.00    -0.080 A 
ATOM      5  C6  UNL d   1      -0.660   3.155   0.225  0.00  0.00     0.076 C 
ATOM      6  C7  UNL d   1       0.651   1.038   0.546  0.00  0.00     0.002 A 
ATOM      7  C8  UNL d   1       1.851   0.356   0.761  0.00  0.00     0.006 A 
ENDROOT
BRANCH   1   8
ATOM      8  C1  UNL d   1       4.343   0.325   1.151  0.00  0.00     0.054 C 
ATOM      9  C   UNL d   1       4.379  -0.168   2.591  0.00  0.00     0.018 C 
ENDBRANCH   1   8
TORSDOF 1
ENDMDL
