MODEL 1
REMARK minimizedAffinity 0.69669044
REMARK minimizedRMSD -1
REMARK  1 active torsions:
REMARK  status: ('A' for Active; 'I' for Inactive)
REMARK    1  A    between atoms: C1_2  and  C2_3 
ROOT
ATOM      1  C2  UNL d   1       5.924  -0.397   4.213  0.00  0.00    -0.081 A 
ATOM      2  C3  UNL d   1       5.937   0.455   5.323  0.00  0.00     0.006 A 
ATOM      3  C4  UNL d   1       5.973   1.841   5.151  0.00  0.00     0.002 A 
ATOM      4  C5  UNL d   1       5.990   2.397   3.868  0.00  0.00    -0.080 A 
ATOM      5  C6  UNL d   1       5.998   3.884   3.670  0.00  0.00     0.076 C 
ATOM      6  C7  UNL d   1       5.995   1.545   2.758  0.00  0.00     0.002 A 
ATOM      7  C8  UNL d   1       5.959   0.159   2.929  0.00  0.00     0.006 A 
ENDROOT
BRANCH   1   8
ATOM      8  C1  UNL d   1       5.820  -1.890   4.394  0.00  0.00     0.054 C 
ATOM      9  C   UNL d   1       5.994  -2.284   5.854  0.00  0.00     0.018 C 
ENDBRANCH   1   8
TORSDOF 1
ENDMDL
