MODEL 1
REMARK minimizedAffinity -1.44736552
REMARK minimizedRMSD -1
REMARK  1 active torsions:
REMARK  status: ('A' for Active; 'I' for Inactive)
REMARK    1  A    between atoms: C1_2  and  C2_3 
ROOT
ATOM      1  C2  UNL d   1       5.926   2.548   3.695  0.00  0.00    -0.081 A 
ATOM      2  C3  UNL d   1       5.993   1.871   4.918  0.00  0.00     0.006 A 
ATOM      3  C4  UNL d   1       6.000   0.475   4.956  0.00  0.00     0.002 A 
ATOM      4  C5  UNL d   1       5.947  -0.267   3.771  0.00  0.00    -0.080 A 
ATOM      5  C6  UNL d   1       5.983  -1.766   3.796  0.00  0.00     0.076 C 
ATOM      6  C7  UNL d   1       5.861   0.409   2.549  0.00  0.00     0.002 A 
ATOM      7  C8  UNL d   1       5.854   1.805   2.511  0.00  0.00     0.006 A 
ENDROOT
BRANCH   1   8
ATOM      8  C1  UNL d   1       5.984   4.054   3.647  0.00  0.00     0.054 C 
ATOM      9  C   UNL d   1       5.972   4.563   2.213  0.00  0.00     0.018 C 
ENDBRANCH   1   8
TORSDOF 1
ENDMDL
