MODEL 1
REMARK minimizedAffinity 4.21563816
REMARK minimizedRMSD -1
REMARK  0 active torsions:
REMARK  status: ('A' for Active; 'I' for Inactive)
ROOT
ATOM      1  C1  BNZ d   1      -0.351   1.436   2.162  0.00  0.00     0.000 A 
ATOM      2  C2  BNZ d   1      -0.579   2.396   1.212  0.00  0.00     0.000 A 
ATOM      3  C3  BNZ d   1       0.416   3.251   0.829  0.00  0.00     0.000 A 
ATOM      4  C4  BNZ d   1       1.624   3.172   1.423  0.00  0.00     0.000 A 
ATOM      5  C5  BNZ d   1       1.867   2.215   2.389  0.00  0.00     0.000 A 
ATOM      6  C6  BNZ d   1       0.875   1.331   2.744  0.00  0.00     0.000 A 
ENDROOT
TORSDOF 0
ENDMDL
