MODEL 1
REMARK minimizedAffinity -0.855801046
REMARK minimizedRMSD -1
REMARK  0 active torsions:
REMARK  status: ('A' for Active; 'I' for Inactive)
ROOT
ATOM      1  C1  BNZ d   1       3.103  -2.973   5.974  0.00  0.00     0.000 A 
ATOM      2  C2  BNZ d   1       3.705  -4.201   5.908  0.00  0.00     0.000 A 
ATOM      3  C3  BNZ d   1       5.068  -4.312   5.879  0.00  0.00     0.000 A 
ATOM      4  C4  BNZ d   1       5.824  -3.196   5.875  0.00  0.00     0.000 A 
ATOM      5  C5  BNZ d   1       5.231  -1.950   5.931  0.00  0.00     0.000 A 
ATOM      6  C6  BNZ d   1       3.861  -1.843   6.000  0.00  0.00     0.000 A 
ENDROOT
TORSDOF 0
ENDMDL
