MODEL 1
REMARK minimizedAffinity 2.87019134
REMARK minimizedRMSD -1
REMARK  0 active torsions:
REMARK  status: ('A' for Active; 'I' for Inactive)
ROOT
ATOM      1  C1  BNZ d   1       1.026   0.997   1.026  0.00  0.00     0.000 A 
ATOM      2  C2  BNZ d   1       0.701   2.327   1.079  0.00  0.00     0.000 A 
ATOM      3  C3  BNZ d   1       0.353   3.008  -0.053  0.00  0.00     0.000 A 
ATOM      4  C4  BNZ d   1       0.369   2.371  -1.242  0.00  0.00     0.000 A 
ATOM      5  C5  BNZ d   1       0.703   1.033  -1.313  0.00  0.00     0.000 A 
ATOM      6  C6  BNZ d   1       1.015   0.341  -0.166  0.00  0.00     0.000 A 
ENDROOT
TORSDOF 0
ENDMDL
