MODEL 1
REMARK minimizedAffinity -0.20842199
REMARK minimizedRMSD -1
REMARK  0 active torsions:
REMARK  status: ('A' for Active; 'I' for Inactive)
ROOT
ATOM      1  C1  BNZ d   1       0.665   2.276  -0.114  0.00  0.00     0.000 A 
ATOM      2  C2  BNZ d   1      -0.476   1.611  -0.478  0.00  0.00     0.000 A 
ATOM      3  C3  BNZ d   1      -1.698   2.215  -0.385  0.00  0.00     0.000 A 
ATOM      4  C4  BNZ d   1      -1.783   3.467   0.109  0.00  0.00     0.000 A 
ATOM      5  C5  BNZ d   1      -0.644   4.148   0.489  0.00  0.00     0.000 A 
ATOM      6  C6  BNZ d   1       0.589   3.551   0.357  0.00  0.00     0.000 A 
ENDROOT
TORSDOF 0
ENDMDL
