MODEL 1
REMARK minimizedAffinity -4.17521238
REMARK minimizedRMSD -1
REMARK  0 active torsions:
REMARK  status: ('A' for Active; 'I' for Inactive)
ROOT
ATOM      1  C1  BNZ d   1      -3.466   2.738  -3.795  0.00  0.00     0.000 A 
ATOM      2  C2  BNZ d   1      -4.551   1.905  -3.859  0.00  0.00     0.000 A 
ATOM      3  C3  BNZ d   1      -5.796   2.398  -4.132  0.00  0.00     0.000 A 
ATOM      4  C4  BNZ d   1      -5.961   3.726  -4.301  0.00  0.00     0.000 A 
ATOM      5  C5  BNZ d   1      -4.878   4.580  -4.230  0.00  0.00     0.000 A 
ATOM      6  C6  BNZ d   1      -3.620   4.075  -3.993  0.00  0.00     0.000 A 
ENDROOT
TORSDOF 0
ENDMDL
