MODEL 1
REMARK minimizedAffinity 9.94309998
REMARK minimizedRMSD -1
REMARK  0 active torsions:
REMARK  status: ('A' for Active; 'I' for Inactive)
ROOT
ATOM      1  C1  BNZ d   1       0.548   3.017  -0.420  0.00  0.00     0.000 A 
ATOM      2  C2  BNZ d   1       1.162   4.050  -1.077  0.00  0.00     0.000 A 
ATOM      3  C3  BNZ d   1       0.428   4.992  -1.742  0.00  0.00     0.000 A 
ATOM      4  C4  BNZ d   1      -0.915   4.878  -1.784  0.00  0.00     0.000 A 
ATOM      5  C5  BNZ d   1      -1.549   3.837  -1.135  0.00  0.00     0.000 A 
ATOM      6  C6  BNZ d   1      -0.809   2.913  -0.433  0.00  0.00     0.000 A 
ENDROOT
TORSDOF 0
ENDMDL
