MODEL 1
REMARK minimizedAffinity 3.67193866
REMARK minimizedRMSD -1
REMARK  0 active torsions:
REMARK  status: ('A' for Active; 'I' for Inactive)
ROOT
ATOM      1  C1  BNZ d   1      -6.000   3.567  -3.715  0.00  0.00     0.000 A 
ATOM      2  C2  BNZ d   1      -4.844   2.955  -3.309  0.00  0.00     0.000 A 
ATOM      3  C3  BNZ d   1      -3.659   3.636  -3.297  0.00  0.00     0.000 A 
ATOM      4  C4  BNZ d   1      -3.624   4.914  -3.728  0.00  0.00     0.000 A 
ATOM      5  C5  BNZ d   1      -4.779   5.541  -4.149  0.00  0.00     0.000 A 
ATOM      6  C6  BNZ d   1      -5.977   4.865  -4.123  0.00  0.00     0.000 A 
ENDROOT
TORSDOF 0
ENDMDL
