MODEL 1
REMARK minimizedAffinity -3.22364569
REMARK minimizedRMSD -1
REMARK  0 active torsions:
REMARK  status: ('A' for Active; 'I' for Inactive)
ROOT
ATOM      1  C1  BNZ d   1      -3.781   0.372   2.687  0.00  0.00     0.000 A 
ATOM      2  C2  BNZ d   1      -4.158  -0.445   3.718  0.00  0.00     0.000 A 
ATOM      3  C3  BNZ d   1      -5.257  -1.251   3.607  0.00  0.00     0.000 A 
ATOM      4  C4  BNZ d   1      -5.998  -1.209   2.481  0.00  0.00     0.000 A 
ATOM      5  C5  BNZ d   1      -5.636  -0.383   1.436  0.00  0.00     0.000 A 
ATOM      6  C6  BNZ d   1      -4.508   0.398   1.537  0.00  0.00     0.000 A 
ENDROOT
TORSDOF 0
ENDMDL
