MODEL 1
REMARK minimizedAffinity -2.31138086
REMARK minimizedRMSD -1
REMARK  1 active torsions:
REMARK  status: ('A' for Active; 'I' for Inactive)
REMARK    1  A    between atoms: C1_2  and  C2_3 
ROOT
ATOM      1  C2  UNL d   1       2.315  -3.236   0.096  0.00  0.00    -0.081 A 
ATOM      2  C3  UNL d   1       1.440  -3.735  -0.876  0.00  0.00     0.006 A 
ATOM      3  C4  UNL d   1       0.097  -3.350  -0.885  0.00  0.00     0.002 A 
ATOM      4  C5  UNL d   1      -0.390  -2.453   0.072  0.00  0.00    -0.080 A 
ATOM      5  C6  UNL d   1      -1.822  -2.007   0.055  0.00  0.00     0.076 C 
ATOM      6  C7  UNL d   1       0.480  -1.968   1.054  0.00  0.00     0.002 A 
ATOM      7  C8  UNL d   1       1.822  -2.354   1.063  0.00  0.00     0.006 A 
ENDROOT
BRANCH   1   8
ATOM      8  C1  UNL d   1       3.778  -3.600   0.069  0.00  0.00     0.054 C 
ATOM      9  C   UNL d   1       3.978  -5.101   0.227  0.00  0.00     0.018 C 
ENDBRANCH   1   8
TORSDOF 1
ENDMDL
