MODEL 1
REMARK minimizedAffinity -3.68101335
REMARK minimizedRMSD -1
REMARK  1 active torsions:
REMARK  status: ('A' for Active; 'I' for Inactive)
REMARK    1  A    between atoms: C1_2  and  C2_3 
ROOT
ATOM      1  C2  UNL d   1       3.212  -3.251  -0.059  0.00  0.00    -0.081 A 
ATOM      2  C3  UNL d   1       2.017  -3.972  -0.163  0.00  0.00     0.006 A 
ATOM      3  C4  UNL d   1       0.792  -3.355   0.104  0.00  0.00     0.002 A 
ATOM      4  C5  UNL d   1       0.742  -2.006   0.471  0.00  0.00    -0.080 A 
ATOM      5  C6  UNL d   1      -0.568  -1.323   0.731  0.00  0.00     0.076 C 
ATOM      6  C7  UNL d   1       1.938  -1.290   0.591  0.00  0.00     0.002 A 
ATOM      7  C8  UNL d   1       3.163  -1.906   0.325  0.00  0.00     0.006 A 
ENDROOT
BRANCH   1   8
ATOM      8  C1  UNL d   1       4.529  -3.896  -0.409  0.00  0.00     0.054 C 
ATOM      9  C   UNL d   1       4.656  -5.274   0.224  0.00  0.00     0.018 C 
ENDBRANCH   1   8
TORSDOF 1
ENDMDL
