MODEL 1
REMARK minimizedAffinity -1.87431383
REMARK minimizedRMSD -1
REMARK  1 active torsions:
REMARK  status: ('A' for Active; 'I' for Inactive)
REMARK    1  A    between atoms: C1_2  and  C2_3 
ROOT
ATOM      1  C2  UNL d   1      -1.051  -0.323   1.336  0.00  0.00    -0.081 A 
ATOM      2  C3  UNL d   1      -1.422  -1.333   0.441  0.00  0.00     0.006 A 
ATOM      3  C4  UNL d   1      -0.504  -2.316   0.063  0.00  0.00     0.002 A 
ATOM      4  C5  UNL d   1       0.796  -2.310   0.579  0.00  0.00    -0.080 A 
ATOM      5  C6  UNL d   1       1.781  -3.377   0.205  0.00  0.00     0.076 C 
ATOM      6  C7  UNL d   1       1.172  -1.290   1.460  0.00  0.00     0.002 A 
ATOM      7  C8  UNL d   1       0.255  -0.306   1.837  0.00  0.00     0.006 A 
ENDROOT
BRANCH   1   8
ATOM      8  C1  UNL d   1      -2.057   0.701   1.796  0.00  0.00     0.054 C 
ATOM      9  C   UNL d   1      -3.201   0.838   0.801  0.00  0.00     0.018 C 
ENDBRANCH   1   8
TORSDOF 1
ENDMDL
