MODEL 1
REMARK minimizedAffinity -1.57611966
REMARK minimizedRMSD -1
REMARK  1 active torsions:
REMARK  status: ('A' for Active; 'I' for Inactive)
REMARK    1  A    between atoms: C1_2  and  C2_3 
ROOT
ATOM      1  C2  UNL d   1       2.624  -3.323   0.420  0.00  0.00    -0.081 A 
ATOM      2  C3  UNL d   1       3.737  -2.981  -0.358  0.00  0.00     0.006 A 
ATOM      3  C4  UNL d   1       4.836  -3.839  -0.438  0.00  0.00     0.002 A 
ATOM      4  C5  UNL d   1       4.839  -5.056   0.252  0.00  0.00    -0.080 A 
ATOM      5  C6  UNL d   1       6.000  -6.000   0.151  0.00  0.00     0.076 C 
ATOM      6  C7  UNL d   1       3.735  -5.390   1.044  0.00  0.00     0.002 A 
ATOM      7  C8  UNL d   1       2.635  -4.532   1.124  0.00  0.00     0.006 A 
ENDROOT
BRANCH   1   8
ATOM      8  C1  UNL d   1       1.411  -2.430   0.457  0.00  0.00     0.054 C 
ATOM      9  C   UNL d   1       0.312  -2.953  -0.457  0.00  0.00     0.018 C 
ENDBRANCH   1   8
TORSDOF 1
ENDMDL
