MODEL 1
REMARK minimizedAffinity -2.47440743
REMARK minimizedRMSD -1
REMARK  1 active torsions:
REMARK  status: ('A' for Active; 'I' for Inactive)
REMARK    1  A    between atoms: C1_2  and  C2_3 
ROOT
ATOM      1  C2  UNL d   1       2.974  -1.470   0.183  0.00  0.00    -0.081 A 
ATOM      2  C3  UNL d   1       2.357  -0.261   0.523  0.00  0.00     0.006 A 
ATOM      3  C4  UNL d   1       0.975  -0.202   0.723  0.00  0.00     0.002 A 
ATOM      4  C5  UNL d   1       0.190  -1.353   0.593  0.00  0.00    -0.080 A 
ATOM      5  C6  UNL d   1      -1.289  -1.311   0.833  0.00  0.00     0.076 C 
ATOM      6  C7  UNL d   1       0.805  -2.558   0.236  0.00  0.00     0.002 A 
ATOM      7  C8  UNL d   1       2.186  -2.617   0.036  0.00  0.00     0.006 A 
ENDROOT
BRANCH   1   8
ATOM      8  C1  UNL d   1       4.472  -1.550   0.031  0.00  0.00     0.054 C 
ATOM      9  C   UNL d   1       5.181  -0.719   1.091  0.00  0.00     0.018 C 
ENDBRANCH   1   8
TORSDOF 1
ENDMDL
