MODEL 1
REMARK minimizedAffinity 5.77471542
REMARK minimizedRMSD -1
REMARK  1 active torsions:
REMARK  status: ('A' for Active; 'I' for Inactive)
REMARK    1  A    between atoms: C1_2  and  C2_3 
ROOT
ATOM      1  C2  UNL d   1       2.611  -1.453   0.550  0.00  0.00    -0.081 A 
ATOM      2  C3  UNL d   1       1.919  -2.318  -0.306  0.00  0.00     0.006 A 
ATOM      3  C4  UNL d   1       0.569  -2.603  -0.085  0.00  0.00     0.002 A 
ATOM      4  C5  UNL d   1      -0.112  -2.023   0.991  0.00  0.00    -0.080 A 
ATOM      5  C6  UNL d   1      -1.568  -2.298   1.222  0.00  0.00     0.076 C 
ATOM      6  C7  UNL d   1       0.584  -1.173   1.856  0.00  0.00     0.002 A 
ATOM      7  C8  UNL d   1       1.933  -0.887   1.636  0.00  0.00     0.006 A 
ENDROOT
BRANCH   1   8
ATOM      8  C1  UNL d   1       4.049  -1.092   0.277  0.00  0.00     0.054 C 
ATOM      9  C   UNL d   1       4.942  -1.444   1.458  0.00  0.00     0.018 C 
ENDBRANCH   1   8
TORSDOF 1
ENDMDL
