MODEL 1
REMARK minimizedAffinity 1.084499
REMARK minimizedRMSD -1
REMARK  1 active torsions:
REMARK  status: ('A' for Active; 'I' for Inactive)
REMARK    1  A    between atoms: C1_2  and  C2_3 
ROOT
ATOM      1  C2  UNL d   1       0.609  -0.786   1.180  0.00  0.00    -0.081 A 
ATOM      2  C3  UNL d   1       1.782  -0.884   0.421  0.00  0.00     0.006 A 
ATOM      3  C4  UNL d   1       1.849  -1.753  -0.670  0.00  0.00     0.002 A 
ATOM      4  C5  UNL d   1       0.743  -2.533  -1.026  0.00  0.00    -0.080 A 
ATOM      5  C6  UNL d   1       0.792  -3.448  -2.213  0.00  0.00     0.076 C 
ATOM      6  C7  UNL d   1      -0.423  -2.449  -0.257  0.00  0.00     0.002 A 
ATOM      7  C8  UNL d   1      -0.490  -1.580   0.835  0.00  0.00     0.006 A 
ENDROOT
BRANCH   1   8
ATOM      8  C1  UNL d   1       0.512   0.198   2.318  0.00  0.00     0.054 C 
ATOM      9  C   UNL d   1       1.196  -0.334   3.569  0.00  0.00     0.018 C 
ENDBRANCH   1   8
TORSDOF 1
ENDMDL
