MODEL 1
REMARK minimizedAffinity 1.46806848
REMARK minimizedRMSD -1
REMARK  1 active torsions:
REMARK  status: ('A' for Active; 'I' for Inactive)
REMARK    1  A    between atoms: C1_2  and  C2_3 
ROOT
ATOM      1  C2  UNL d   1       4.499  -4.106   0.011  0.00  0.00    -0.081 A 
ATOM      2  C3  UNL d   1       4.239  -2.732   0.077  0.00  0.00     0.006 A 
ATOM      3  C4  UNL d   1       2.925  -2.261   0.126  0.00  0.00     0.002 A 
ATOM      4  C5  UNL d   1       1.849  -3.156   0.119  0.00  0.00    -0.080 A 
ATOM      5  C6  UNL d   1       0.435  -2.666   0.202  0.00  0.00     0.076 C 
ATOM      6  C7  UNL d   1       2.108  -4.529   0.035  0.00  0.00     0.002 A 
ATOM      7  C8  UNL d   1       3.422  -5.000  -0.015  0.00  0.00     0.006 A 
ENDROOT
BRANCH   1   8
ATOM      8  C1  UNL d   1       5.916  -4.620   0.022  0.00  0.00     0.054 C 
ATOM      9  C   UNL d   1       5.999  -5.999   0.660  0.00  0.00     0.018 C 
ENDBRANCH   1   8
TORSDOF 1
ENDMDL
