MODEL 1
REMARK minimizedAffinity 14.9863663
REMARK minimizedRMSD -1
REMARK  1 active torsions:
REMARK  status: ('A' for Active; 'I' for Inactive)
REMARK    1  A    between atoms: C1_2  and  C2_3 
ROOT
ATOM      1  C2  UNL d   1       4.823  -0.274  -1.863  0.00  0.00    -0.081 A 
ATOM      2  C3  UNL d   1       4.948  -0.059  -3.241  0.00  0.00     0.006 A 
ATOM      3  C4  UNL d   1       3.874   0.444  -3.979  0.00  0.00     0.002 A 
ATOM      4  C5  UNL d   1       2.661   0.747  -3.351  0.00  0.00    -0.080 A 
ATOM      5  C6  UNL d   1       1.510   1.316  -4.127  0.00  0.00     0.076 C 
ATOM      6  C7  UNL d   1       2.531   0.516  -1.978  0.00  0.00     0.002 A 
ATOM      7  C8  UNL d   1       3.604   0.013  -1.239  0.00  0.00     0.006 A 
ENDROOT
BRANCH   1   8
ATOM      8  C1  UNL d   1       6.000  -0.755  -1.052  0.00  0.00     0.054 C 
ATOM      9  C   UNL d   1       5.678  -0.772   0.435  0.00  0.00     0.018 C 
ENDBRANCH   1   8
TORSDOF 1
ENDMDL
