MODEL 1
REMARK minimizedAffinity 4.58291817
REMARK minimizedRMSD -1
REMARK  1 active torsions:
REMARK  status: ('A' for Active; 'I' for Inactive)
REMARK    1  A    between atoms: C1_2  and  C2_3 
ROOT
ATOM      1  C2  UNL d   1       2.540  -3.321  -0.034  0.00  0.00    -0.081 A 
ATOM      2  C3  UNL d   1       1.360  -4.002  -0.357  0.00  0.00     0.006 A 
ATOM      3  C4  UNL d   1       0.118  -3.388  -0.181  0.00  0.00     0.002 A 
ATOM      4  C5  UNL d   1       0.035  -2.082   0.312  0.00  0.00    -0.080 A 
ATOM      5  C6  UNL d   1      -1.291  -1.400   0.477  0.00  0.00     0.076 C 
ATOM      6  C7  UNL d   1       1.213  -1.408   0.652  0.00  0.00     0.002 A 
ATOM      7  C8  UNL d   1       2.455  -2.021   0.477  0.00  0.00     0.006 A 
ENDROOT
BRANCH   1   8
ATOM      8  C1  UNL d   1       3.884  -3.957  -0.283  0.00  0.00     0.054 C 
ATOM      9  C   UNL d   1       3.842  -5.457  -0.030  0.00  0.00     0.018 C 
ENDBRANCH   1   8
TORSDOF 1
ENDMDL
