MODEL 1
REMARK minimizedAffinity -4.47657537
REMARK minimizedRMSD -1
REMARK  1 active torsions:
REMARK  status: ('A' for Active; 'I' for Inactive)
REMARK    1  A    between atoms: C1_2  and  C2_3 
ROOT
ATOM      1  C2  UNL d   1       0.883  -1.733   0.290  0.00  0.00    -0.081 A 
ATOM      2  C3  UNL d   1       0.619  -3.107   0.244  0.00  0.00     0.006 A 
ATOM      3  C4  UNL d   1       1.664  -4.025   0.108  0.00  0.00     0.002 A 
ATOM      4  C5  UNL d   1       2.989  -3.584   0.025  0.00  0.00    -0.080 A 
ATOM      5  C6  UNL d   1       4.123  -4.560  -0.090  0.00  0.00     0.076 C 
ATOM      6  C7  UNL d   1       3.251  -2.210   0.053  0.00  0.00     0.002 A 
ATOM      7  C8  UNL d   1       2.207  -1.292   0.188  0.00  0.00     0.006 A 
ENDROOT
BRANCH   1   8
ATOM      8  C1  UNL d   1      -0.236  -0.745   0.500  0.00  0.00     0.054 C 
ATOM      9  C   UNL d   1       0.120   0.272   1.575  0.00  0.00     0.018 C 
ENDBRANCH   1   8
TORSDOF 1
ENDMDL
