MODEL 1
REMARK minimizedAffinity -0.131156713
REMARK minimizedRMSD -1
REMARK  1 active torsions:
REMARK  status: ('A' for Active; 'I' for Inactive)
REMARK    1  A    between atoms: C1_2  and  C2_3 
ROOT
ATOM      1  C2  UNL d   1       2.697  -3.212   0.035  0.00  0.00    -0.081 A 
ATOM      2  C3  UNL d   1       1.449  -3.829   0.191  0.00  0.00     0.006 A 
ATOM      3  C4  UNL d   1       0.325  -3.075   0.537  0.00  0.00     0.002 A 
ATOM      4  C5  UNL d   1       0.428  -1.692   0.724  0.00  0.00    -0.080 A 
ATOM      5  C6  UNL d   1      -0.777  -0.867   1.065  0.00  0.00     0.076 C 
ATOM      6  C7  UNL d   1       1.678  -1.079   0.585  0.00  0.00     0.002 A 
ATOM      7  C8  UNL d   1       2.802  -1.832   0.240  0.00  0.00     0.006 A 
ENDROOT
BRANCH   1   8
ATOM      8  C1  UNL d   1       3.898  -4.012  -0.401  0.00  0.00     0.054 C 
ATOM      9  C   UNL d   1       3.998  -5.322   0.367  0.00  0.00     0.018 C 
ENDBRANCH   1   8
TORSDOF 1
ENDMDL
