MODEL 1
REMARK minimizedAffinity 3.95813632
REMARK minimizedRMSD -1
REMARK  1 active torsions:
REMARK  status: ('A' for Active; 'I' for Inactive)
REMARK    1  A    between atoms: C1_2  and  C2_3 
ROOT
ATOM      1  C2  UNL d   1       3.762  -4.517   0.142  0.00  0.00    -0.081 A 
ATOM      2  C3  UNL d   1       3.737  -3.129   0.318  0.00  0.00     0.006 A 
ATOM      3  C4  UNL d   1       2.521  -2.443   0.365  0.00  0.00     0.002 A 
ATOM      4  C5  UNL d   1       1.311  -3.135   0.245  0.00  0.00    -0.080 A 
ATOM      5  C6  UNL d   1      -0.003  -2.414   0.324  0.00  0.00     0.076 C 
ATOM      6  C7  UNL d   1       1.336  -4.520   0.050  0.00  0.00     0.002 A 
ATOM      7  C8  UNL d   1       2.552  -5.206   0.003  0.00  0.00     0.006 A 
ENDROOT
BRANCH   1   8
ATOM      8  C1  UNL d   1       5.069  -5.268   0.155  0.00  0.00     0.054 C 
ATOM      9  C   UNL d   1       5.276  -5.995   1.476  0.00  0.00     0.018 C 
ENDBRANCH   1   8
TORSDOF 1
ENDMDL
