MODEL 1
REMARK minimizedAffinity -3.05726409
REMARK minimizedRMSD -1
REMARK  2 active torsions:
REMARK  status: ('A' for Active; 'I' for Inactive)
REMARK    1  A    between atoms: C1_2  and  C2_3 
REMARK    2  A    between atoms: C2_3  and  C3_4 
ROOT
ATOM      1  C3  UNL d   1       0.193   0.165  -0.026  0.00  0.00    -0.075 A 
ATOM      2  C4  UNL d   1       1.088   1.217   0.220  0.00  0.00     0.002 A 
ATOM      3  C5  UNL d   1       2.366   0.958   0.716  0.00  0.00     0.002 A 
ATOM      4  C6  UNL d   1       2.761  -0.351   0.982  0.00  0.00    -0.004 A 
ATOM      5  C7  UNL d   1       1.875  -1.402   0.758  0.00  0.00     0.002 A 
ATOM      6  C8  UNL d   1       0.597  -1.146   0.257  0.00  0.00     0.002 A 
ENDROOT
BRANCH   1   7
ATOM      7  C2  UNL d   1      -1.181   0.436  -0.591  0.00  0.00     0.056 C 
BRANCH   7   8
ATOM      8  C1  UNL d   1      -1.479  -0.317  -1.892  0.00  0.00     0.007 C 
ATOM      9  C   UNL d   1      -2.227   0.527  -2.916  0.00  0.00     0.009 C 
ENDBRANCH   7   8
ENDBRANCH   1   7
TORSDOF 2
ENDMDL
