MODEL 1
REMARK minimizedAffinity -4.72376728
REMARK minimizedRMSD -1
REMARK  2 active torsions:
REMARK  status: ('A' for Active; 'I' for Inactive)
REMARK    1  A    between atoms: C1_2  and  C2_3 
REMARK    2  A    between atoms: C2_3  and  C3_4 
ROOT
ATOM      1  C3  UNL d   1       0.084   0.175   0.140  0.00  0.00    -0.075 A 
ATOM      2  C4  UNL d   1       1.263   0.907   0.341  0.00  0.00     0.002 A 
ATOM      3  C5  UNL d   1       2.390   0.296   0.890  0.00  0.00     0.002 A 
ATOM      4  C6  UNL d   1       2.350  -1.048   1.255  0.00  0.00    -0.004 A 
ATOM      5  C7  UNL d   1       1.178  -1.780   1.075  0.00  0.00     0.002 A 
ATOM      6  C8  UNL d   1       0.050  -1.173   0.521  0.00  0.00     0.002 A 
ENDROOT
BRANCH   1   7
ATOM      7  C2  UNL d   1      -1.131   0.823  -0.482  0.00  0.00     0.056 C 
BRANCH   7   8
ATOM      8  C1  UNL d   1      -2.060  -0.158  -1.204  0.00  0.00     0.007 C 
ATOM      9  C   UNL d   1      -2.794   0.466  -2.383  0.00  0.00     0.009 C 
ENDBRANCH   7   8
ENDBRANCH   1   7
TORSDOF 2
ENDMDL
