MODEL 1
REMARK minimizedAffinity -5.84666252
REMARK minimizedRMSD -1
REMARK  2 active torsions:
REMARK  status: ('A' for Active; 'I' for Inactive)
REMARK    1  A    between atoms: C1_2  and  C2_3 
REMARK    2  A    between atoms: C2_3  and  C3_4 
ROOT
ATOM      1  C3  UNL d   1       0.042   0.085   0.197  0.00  0.00    -0.075 A 
ATOM      2  C4  UNL d   1       0.886  -0.916   0.699  0.00  0.00     0.002 A 
ATOM      3  C5  UNL d   1       2.263  -0.710   0.775  0.00  0.00     0.002 A 
ATOM      4  C6  UNL d   1       2.816   0.493   0.341  0.00  0.00    -0.004 A 
ATOM      5  C7  UNL d   1       1.989   1.488  -0.175  0.00  0.00     0.002 A 
ATOM      6  C8  UNL d   1       0.610   1.287  -0.248  0.00  0.00     0.002 A 
ENDROOT
BRANCH   1   7
ATOM      7  C2  UNL d   1      -1.453  -0.120   0.140  0.00  0.00     0.056 C 
BRANCH   7   8
ATOM      8  C1  UNL d   1      -2.095   0.338  -1.174  0.00  0.00     0.007 C 
ATOM      9  C   UNL d   1      -2.067  -0.729  -2.260  0.00  0.00     0.009 C 
ENDBRANCH   7   8
ENDBRANCH   1   7
TORSDOF 2
ENDMDL
