MODEL 1
REMARK minimizedAffinity -3.13241196
REMARK minimizedRMSD -1
REMARK  2 active torsions:
REMARK  status: ('A' for Active; 'I' for Inactive)
REMARK    1  A    between atoms: C1_2  and  C2_3 
REMARK    2  A    between atoms: C2_3  and  C3_4 
ROOT
ATOM      1  C3  UNL d   1      -0.161   0.477   0.117  0.00  0.00    -0.075 A 
ATOM      2  C4  UNL d   1       0.151  -0.796   0.615  0.00  0.00     0.002 A 
ATOM      3  C5  UNL d   1       1.445  -1.091   1.045  0.00  0.00     0.002 A 
ATOM      4  C6  UNL d   1       2.444  -0.123   0.973  0.00  0.00    -0.004 A 
ATOM      5  C7  UNL d   1       2.150   1.140   0.463  0.00  0.00     0.002 A 
ATOM      6  C8  UNL d   1       0.855   1.440   0.037  0.00  0.00     0.002 A 
ENDROOT
BRANCH   1   7
ATOM      7  C2  UNL d   1      -1.566   0.812  -0.323  0.00  0.00     0.056 C 
BRANCH   7   8
ATOM      8  C1  UNL d   1      -1.890   0.385  -1.758  0.00  0.00     0.007 C 
ATOM      9  C   UNL d   1      -3.034   1.177  -2.377  0.00  0.00     0.009 C 
ENDBRANCH   7   8
ENDBRANCH   1   7
TORSDOF 2
ENDMDL
