MODEL 1
REMARK minimizedAffinity -6.31480885
REMARK minimizedRMSD -1
REMARK  2 active torsions:
REMARK  status: ('A' for Active; 'I' for Inactive)
REMARK    1  A    between atoms: C1_2  and  C2_3 
REMARK    2  A    between atoms: C2_3  and  C3_4 
ROOT
ATOM      1  C3  UNL d   1       0.386   0.479   0.414  0.00  0.00    -0.075 A 
ATOM      2  C4  UNL d   1       1.194  -0.648   0.207  0.00  0.00     0.002 A 
ATOM      3  C5  UNL d   1       2.494  -0.689   0.710  0.00  0.00     0.002 A 
ATOM      4  C6  UNL d   1       3.006   0.397   1.417  0.00  0.00    -0.004 A 
ATOM      5  C7  UNL d   1       2.218   1.528   1.615  0.00  0.00     0.002 A 
ATOM      6  C8  UNL d   1       0.915   1.571   1.116  0.00  0.00     0.002 A 
ENDROOT
BRANCH   1   7
ATOM      7  C2  UNL d   1      -1.033   0.519  -0.103  0.00  0.00     0.056 C 
BRANCH   7   8
ATOM      8  C1  UNL d   1      -1.139   0.542  -1.631  0.00  0.00     0.007 C 
ATOM      9  C   UNL d   1      -2.526   0.173  -2.142  0.00  0.00     0.009 C 
ENDBRANCH   7   8
ENDBRANCH   1   7
TORSDOF 2
ENDMDL
