MODEL 1
REMARK minimizedAffinity -0.956756949
REMARK minimizedRMSD -1
REMARK  2 active torsions:
REMARK  status: ('A' for Active; 'I' for Inactive)
REMARK    1  A    between atoms: C1_2  and  C2_3 
REMARK    2  A    between atoms: C2_3  and  C3_4 
ROOT
ATOM      1  C3  UNL d   1       0.438   0.384  -0.211  0.00  0.00    -0.075 A 
ATOM      2  C4  UNL d   1       1.527   1.235  -0.452  0.00  0.00     0.002 A 
ATOM      3  C5  UNL d   1       2.805   0.894  -0.008  0.00  0.00     0.002 A 
ATOM      4  C6  UNL d   1       3.008  -0.293   0.692  0.00  0.00    -0.004 A 
ATOM      5  C7  UNL d   1       1.931  -1.138   0.952  0.00  0.00     0.002 A 
ATOM      6  C8  UNL d   1       0.653  -0.802   0.504  0.00  0.00     0.002 A 
ENDROOT
BRANCH   1   7
ATOM      7  C2  UNL d   1      -0.942   0.733  -0.715  0.00  0.00     0.056 C 
BRANCH   7   8
ATOM      8  C1  UNL d   1      -1.435  -0.166  -1.854  0.00  0.00     0.007 C 
ATOM      9  C   UNL d   1      -1.767   0.604  -3.125  0.00  0.00     0.009 C 
ENDBRANCH   7   8
ENDBRANCH   1   7
TORSDOF 2
ENDMDL
