MODEL 1
REMARK minimizedAffinity 6.22959852
REMARK minimizedRMSD -1
REMARK  2 active torsions:
REMARK  status: ('A' for Active; 'I' for Inactive)
REMARK    1  A    between atoms: C1_2  and  C2_3 
REMARK    2  A    between atoms: C2_3  and  C3_4 
ROOT
ATOM      1  C3  UNL d   1      -5.018   2.780  -1.688  0.00  0.00    -0.075 A 
ATOM      2  C4  UNL d   1      -5.141   4.070  -1.152  0.00  0.00     0.002 A 
ATOM      3  C5  UNL d   1      -5.624   4.256   0.144  0.00  0.00     0.002 A 
ATOM      4  C6  UNL d   1      -5.998   3.158   0.915  0.00  0.00    -0.004 A 
ATOM      5  C7  UNL d   1      -5.895   1.873   0.387  0.00  0.00     0.002 A 
ATOM      6  C8  UNL d   1      -5.409   1.684  -0.908  0.00  0.00     0.002 A 
ENDROOT
BRANCH   1   7
ATOM      7  C2  UNL d   1      -4.469   2.571  -3.078  0.00  0.00     0.056 C 
BRANCH   7   8
ATOM      8  C1  UNL d   1      -3.389   1.487  -3.166  0.00  0.00     0.007 C 
ATOM      9  C   UNL d   1      -3.755   0.351  -4.112  0.00  0.00     0.009 C 
ENDBRANCH   7   8
ENDBRANCH   1   7
TORSDOF 2
ENDMDL
