MODEL 1
REMARK minimizedAffinity 5.96745348
REMARK minimizedRMSD -1
REMARK  1 active torsions:
REMARK  status: ('A' for Active; 'I' for Inactive)
REMARK    1  A    between atoms: C1_2  and  C2_3 
ROOT
ATOM      1  C2  UNL d   1       4.864   4.612   1.426  0.00  0.00    -0.076 A 
ATOM      2  C3  UNL d   1       5.973   4.275   0.631  0.00  0.00     0.004 A 
ATOM      3  C4  UNL d   1       5.999   3.089  -0.099  0.00  0.00    -0.003 A 
ATOM      4  C5  UNL d   1       4.915   2.219  -0.047  0.00  0.00     0.000 A 
ATOM      5  C6  UNL d   1       3.798   2.546   0.723  0.00  0.00     0.000 A 
ATOM      6  C7  UNL d   1       3.750   3.746   1.452  0.00  0.00    -0.073 A 
ATOM      7  C8  UNL d   1       2.524   4.045   2.270  0.00  0.00     0.078 C 
ENDROOT
BRANCH   1   8
ATOM      8  C1  UNL d   1       4.905   5.900   2.218  0.00  0.00     0.053 C 
ATOM      9  C   UNL d   1       5.999   5.900   3.274  0.00  0.00     0.018 C 
ENDBRANCH   1   8
TORSDOF 1
ENDMDL
