MODEL 1
REMARK minimizedAffinity -0.255686015
REMARK minimizedRMSD -1
REMARK  1 active torsions:
REMARK  status: ('A' for Active; 'I' for Inactive)
REMARK    1  A    between atoms: C1_2  and  C2_3 
ROOT
ATOM      1  C2  UNL d   1      -1.907   0.093   1.761  0.00  0.00    -0.076 A 
ATOM      2  C3  UNL d   1      -2.555  -1.144   1.919  0.00  0.00     0.004 A 
ATOM      3  C4  UNL d   1      -2.881  -1.627   3.185  0.00  0.00    -0.003 A 
ATOM      4  C5  UNL d   1      -2.564  -0.880   4.315  0.00  0.00     0.000 A 
ATOM      5  C6  UNL d   1      -1.937   0.358   4.176  0.00  0.00     0.000 A 
ATOM      6  C7  UNL d   1      -1.617   0.867   2.905  0.00  0.00    -0.073 A 
ATOM      7  C8  UNL d   1      -0.936   2.204   2.815  0.00  0.00     0.078 C 
ENDROOT
BRANCH   1   8
ATOM      8  C1  UNL d   1      -1.555   0.553   0.365  0.00  0.00     0.053 C 
ATOM      9  C   UNL d   1      -0.356  -0.188  -0.208  0.00  0.00     0.018 C 
ENDBRANCH   1   8
TORSDOF 1
ENDMDL
