MODEL 1
REMARK minimizedAffinity 2.44180918
REMARK minimizedRMSD -1
REMARK  1 active torsions:
REMARK  status: ('A' for Active; 'I' for Inactive)
REMARK    1  A    between atoms: C1_2  and  C2_3 
ROOT
ATOM      1  C2  UNL d   1       0.043  -0.252   1.148  0.00  0.00    -0.076 A 
ATOM      2  C3  UNL d   1       1.065   0.711   1.220  0.00  0.00     0.004 A 
ATOM      3  C4  UNL d   1       1.906   0.947   0.135  0.00  0.00    -0.003 A 
ATOM      4  C5  UNL d   1       1.739   0.225  -1.042  0.00  0.00     0.000 A 
ATOM      5  C6  UNL d   1       0.720  -0.721  -1.137  0.00  0.00     0.000 A 
ATOM      6  C7  UNL d   1      -0.148  -0.960  -0.057  0.00  0.00    -0.073 A 
ATOM      7  C8  UNL d   1      -1.226  -1.997  -0.213  0.00  0.00     0.078 C 
ENDROOT
BRANCH   1   8
ATOM      8  C1  UNL d   1      -0.821  -0.484   2.367  0.00  0.00     0.053 C 
ATOM      9  C   UNL d   1      -1.140   0.805   3.109  0.00  0.00     0.018 C 
ENDBRANCH   1   8
TORSDOF 1
ENDMDL
