MODEL 1
REMARK minimizedAffinity -2.92165017
REMARK minimizedRMSD -1
REMARK  1 active torsions:
REMARK  status: ('A' for Active; 'I' for Inactive)
REMARK    1  A    between atoms: C1_2  and  C2_3 
ROOT
ATOM      1  C2  UNL d   1       0.418  -0.089  -0.236  0.00  0.00    -0.076 A 
ATOM      2  C3  UNL d   1       1.464   0.835  -0.404  0.00  0.00     0.004 A 
ATOM      3  C4  UNL d   1       2.736   0.416  -0.793  0.00  0.00    -0.003 A 
ATOM      4  C5  UNL d   1       2.981  -0.933  -1.022  0.00  0.00     0.000 A 
ATOM      5  C6  UNL d   1       1.951  -1.861  -0.878  0.00  0.00     0.000 A 
ATOM      6  C7  UNL d   1       0.659  -1.454  -0.502  0.00  0.00    -0.073 A 
ATOM      7  C8  UNL d   1      -0.413  -2.499  -0.356  0.00  0.00     0.078 C 
ENDROOT
BRANCH   1   8
ATOM      8  C1  UNL d   1      -0.932   0.420   0.214  0.00  0.00     0.053 C 
ATOM      9  C   UNL d   1      -0.945   0.820   1.681  0.00  0.00     0.018 C 
ENDBRANCH   1   8
TORSDOF 1
ENDMDL
