MODEL 1
REMARK minimizedAffinity -1.04312599
REMARK minimizedRMSD -1
REMARK  1 active torsions:
REMARK  status: ('A' for Active; 'I' for Inactive)
REMARK    1  A    between atoms: C1_2  and  C2_3 
ROOT
ATOM      1  C2  UNL d   1       1.334  -1.011  -0.590  0.00  0.00    -0.076 A 
ATOM      2  C3  UNL d   1       0.970   0.345  -0.663  0.00  0.00     0.004 A 
ATOM      3  C4  UNL d   1      -0.209   0.803  -0.078  0.00  0.00    -0.003 A 
ATOM      4  C5  UNL d   1      -1.043  -0.086   0.591  0.00  0.00     0.000 A 
ATOM      5  C6  UNL d   1      -0.689  -1.432   0.688  0.00  0.00     0.000 A 
ATOM      6  C7  UNL d   1       0.504  -1.907   0.117  0.00  0.00    -0.073 A 
ATOM      7  C8  UNL d   1       0.834  -3.369   0.247  0.00  0.00     0.078 C 
ENDROOT
BRANCH   1   8
ATOM      8  C1  UNL d   1       2.611  -1.456  -1.267  0.00  0.00     0.053 C 
ATOM      9  C   UNL d   1       3.822  -0.658  -0.808  0.00  0.00     0.018 C 
ENDBRANCH   1   8
TORSDOF 1
ENDMDL
