MODEL 1
REMARK minimizedAffinity -4.42041492
REMARK minimizedRMSD -1
REMARK  1 active torsions:
REMARK  status: ('A' for Active; 'I' for Inactive)
REMARK    1  A    between atoms: C1_2  and  C2_3 
ROOT
ATOM      1  C2  UNL d   1       0.198  -0.306  -0.573  0.00  0.00    -0.076 A 
ATOM      2  C3  UNL d   1       0.380  -1.685  -0.375  0.00  0.00     0.004 A 
ATOM      3  C4  UNL d   1       1.603  -2.295  -0.650  0.00  0.00    -0.003 A 
ATOM      4  C5  UNL d   1       2.665  -1.534  -1.127  0.00  0.00     0.000 A 
ATOM      5  C6  UNL d   1       2.508  -0.161  -1.313  0.00  0.00     0.000 A 
ATOM      6  C7  UNL d   1       1.286   0.472  -1.025  0.00  0.00    -0.073 A 
ATOM      7  C8  UNL d   1       1.171   1.955  -1.250  0.00  0.00     0.078 C 
ENDROOT
BRANCH   1   8
ATOM      8  C1  UNL d   1      -1.159   0.295  -0.284  0.00  0.00     0.053 C 
ATOM      9  C   UNL d   1      -1.392   0.518   1.202  0.00  0.00     0.018 C 
ENDBRANCH   1   8
TORSDOF 1
ENDMDL
