MODEL 1
REMARK minimizedAffinity -3.49726319
REMARK minimizedRMSD -1
REMARK  1 active torsions:
REMARK  status: ('A' for Active; 'I' for Inactive)
REMARK    1  A    between atoms: C1_2  and  C2_3 
ROOT
ATOM      1  C2  UNL d   1       1.352   0.312  -0.903  0.00  0.00    -0.076 A 
ATOM      2  C3  UNL d   1       1.831  -0.912  -0.405  0.00  0.00     0.004 A 
ATOM      3  C4  UNL d   1       3.016  -1.467  -0.886  0.00  0.00    -0.003 A 
ATOM      4  C5  UNL d   1       3.741  -0.807  -1.872  0.00  0.00     0.000 A 
ATOM      5  C6  UNL d   1       3.289   0.417  -2.365  0.00  0.00     0.000 A 
ATOM      6  C7  UNL d   1       2.105   0.999  -1.879  0.00  0.00    -0.073 A 
ATOM      7  C8  UNL d   1       1.662   2.318  -2.451  0.00  0.00     0.078 C 
ENDROOT
BRANCH   1   8
ATOM      8  C1  UNL d   1       0.047   0.853  -0.363  0.00  0.00     0.053 C 
ATOM      9  C   UNL d   1      -0.830  -0.235   0.237  0.00  0.00     0.018 C 
ENDBRANCH   1   8
TORSDOF 1
ENDMDL
