MODEL 1
REMARK minimizedAffinity -5.55729771
REMARK minimizedRMSD -1
REMARK  1 active torsions:
REMARK  status: ('A' for Active; 'I' for Inactive)
REMARK    1  A    between atoms: C1_2  and  C2_3 
ROOT
ATOM      1  C2  UNL d   1       0.781   0.220  -0.816  0.00  0.00    -0.076 A 
ATOM      2  C3  UNL d   1       0.601   1.521  -1.316  0.00  0.00     0.004 A 
ATOM      3  C4  UNL d   1       1.527   2.088  -2.190  0.00  0.00    -0.003 A 
ATOM      4  C5  UNL d   1       2.648   1.362  -2.578  0.00  0.00     0.000 A 
ATOM      5  C6  UNL d   1       2.834   0.064  -2.105  0.00  0.00     0.000 A 
ATOM      6  C7  UNL d   1       1.901  -0.529  -1.236  0.00  0.00    -0.073 A 
ATOM      7  C8  UNL d   1       2.154  -1.930  -0.752  0.00  0.00     0.078 C 
ENDROOT
BRANCH   1   8
ATOM      8  C1  UNL d   1      -0.243  -0.333   0.150  0.00  0.00     0.053 C 
ATOM      9  C   UNL d   1      -1.393   0.631   0.394  0.00  0.00     0.018 C 
ENDBRANCH   1   8
TORSDOF 1
ENDMDL
