MODEL 1
REMARK minimizedAffinity -4.3465476
REMARK minimizedRMSD -1
REMARK  1 active torsions:
REMARK  status: ('A' for Active; 'I' for Inactive)
REMARK    1  A    between atoms: C1_2  and  C2_3 
ROOT
ATOM      1  C2  UNL d   1       0.986   0.885  -1.480  0.00  0.00    -0.076 A 
ATOM      2  C3  UNL d   1       2.147   0.245  -1.946  0.00  0.00     0.004 A 
ATOM      3  C4  UNL d   1       2.464  -1.051  -1.541  0.00  0.00    -0.003 A 
ATOM      4  C5  UNL d   1       1.624  -1.728  -0.664  0.00  0.00     0.000 A 
ATOM      5  C6  UNL d   1       0.459  -1.114  -0.205  0.00  0.00     0.000 A 
ATOM      6  C7  UNL d   1       0.116   0.185  -0.616  0.00  0.00    -0.073 A 
ATOM      7  C8  UNL d   1      -1.150   0.800  -0.085  0.00  0.00     0.078 C 
ENDROOT
BRANCH   1   8
ATOM      8  C1  UNL d   1       0.708   2.300  -1.933  0.00  0.00     0.053 C 
ATOM      9  C   UNL d   1       1.973   3.139  -2.034  0.00  0.00     0.018 C 
ENDBRANCH   1   8
TORSDOF 1
ENDMDL
