MODEL 1
REMARK minimizedAffinity -5.22674036
REMARK minimizedRMSD -1
REMARK  1 active torsions:
REMARK  status: ('A' for Active; 'I' for Inactive)
REMARK    1  A    between atoms: C1_2  and  C2_3 
ROOT
ATOM      1  C2  UNL d   1      -0.095  -0.359  -0.073  0.00  0.00    -0.076 A 
ATOM      2  C3  UNL d   1       0.663   0.783  -0.382  0.00  0.00     0.004 A 
ATOM      3  C4  UNL d   1       1.767   0.705  -1.230  0.00  0.00    -0.003 A 
ATOM      4  C5  UNL d   1       2.130  -0.518  -1.783  0.00  0.00     0.000 A 
ATOM      5  C6  UNL d   1       1.379  -1.659  -1.501  0.00  0.00     0.000 A 
ATOM      6  C7  UNL d   1       0.253  -1.594  -0.661  0.00  0.00    -0.073 A 
ATOM      7  C8  UNL d   1      -0.517  -2.856  -0.387  0.00  0.00     0.078 C 
ENDROOT
BRANCH   1   8
ATOM      8  C1  UNL d   1      -1.265  -0.218   0.874  0.00  0.00     0.053 C 
ATOM      9  C   UNL d   1      -1.306   1.144   1.550  0.00  0.00     0.018 C 
ENDBRANCH   1   8
TORSDOF 1
ENDMDL
