MODEL 1
REMARK minimizedAffinity 4.99792862
REMARK minimizedRMSD -1
REMARK  0 active torsions:
REMARK  status: ('A' for Active; 'I' for Inactive)
ROOT
ATOM      1  C2' OXE d   1       2.490  -2.157   1.995  0.00  0.00     0.078 C 
ATOM      2  C1' OXE d   1       2.981  -3.986  -0.077  0.00  0.00     0.078 C 
ATOM      3  C1  OXE d   1       2.610  -2.574  -0.458  0.00  0.00    -0.078 A 
ATOM      4  C2  OXE d   1       2.326  -1.698   0.562  0.00  0.00    -0.078 A 
ATOM      5  C3  OXE d   1       2.032  -0.370   0.267  0.00  0.00     0.003 A 
ATOM      6  C4  OXE d   1       1.873   0.043  -1.061  0.00  0.00    -0.002 A 
ATOM      7  C5  OXE d   1       2.118  -0.843  -2.115  0.00  0.00    -0.002 A 
ATOM      8  C6  OXE d   1       2.529  -2.141  -1.831  0.00  0.00     0.003 A 
ENDROOT
TORSDOF 0
ENDMDL
