MODEL 1
REMARK minimizedAffinity 4.82784224
REMARK minimizedRMSD -1
REMARK  0 active torsions:
REMARK  status: ('A' for Active; 'I' for Inactive)
ROOT
ATOM      1  C2' OXE d   1      -1.432  -1.548   0.890  0.00  0.00     0.078 C 
ATOM      2  C1' OXE d   1      -0.728  -0.383   3.345  0.00  0.00     0.078 C 
ATOM      3  C1  OXE d   1       0.381  -0.937   2.485  0.00  0.00    -0.078 A 
ATOM      4  C2  OXE d   1       0.023  -1.547   1.307  0.00  0.00    -0.078 A 
ATOM      5  C3  OXE d   1       1.010  -2.026   0.451  0.00  0.00     0.003 A 
ATOM      6  C4  OXE d   1       2.352  -2.030   0.849  0.00  0.00    -0.002 A 
ATOM      7  C5  OXE d   1       2.735  -1.450   2.062  0.00  0.00    -0.002 A 
ATOM      8  C6  OXE d   1       1.768  -0.862   2.871  0.00  0.00     0.003 A 
ENDROOT
TORSDOF 0
ENDMDL
