MODEL 1
REMARK minimizedAffinity 7.54501295
REMARK minimizedRMSD -1
REMARK  0 active torsions:
REMARK  status: ('A' for Active; 'I' for Inactive)
ROOT
ATOM      1  C2' OXE d   1       1.768  -1.512  -1.963  0.00  0.00     0.078 C 
ATOM      2  C1' OXE d   1       3.795  -1.887  -0.058  0.00  0.00     0.078 C 
ATOM      3  C1  OXE d   1       2.383  -1.712   0.442  0.00  0.00    -0.078 A 
ATOM      4  C2  OXE d   1       1.405  -1.482  -0.495  0.00  0.00    -0.078 A 
ATOM      5  C3  OXE d   1       0.077  -1.368  -0.091  0.00  0.00     0.003 A 
ATOM      6  C4  OXE d   1      -0.249  -1.331   1.270  0.00  0.00    -0.002 A 
ATOM      7  C5  OXE d   1       0.738  -1.524   2.242  0.00  0.00    -0.002 A 
ATOM      8  C6  OXE d   1       2.050  -1.757   1.844  0.00  0.00     0.003 A 
ENDROOT
TORSDOF 0
ENDMDL
