MODEL 1
REMARK minimizedAffinity -0.00469631329
REMARK minimizedRMSD -1
REMARK  0 active torsions:
REMARK  status: ('A' for Active; 'I' for Inactive)
ROOT
ATOM      1  C2' OXE d   1       2.733  -2.066   3.121  0.00  0.00     0.078 C 
ATOM      2  C1' OXE d   1       0.178  -0.914   2.956  0.00  0.00     0.078 C 
ATOM      3  C1  OXE d   1       0.908  -1.195   1.666  0.00  0.00    -0.078 A 
ATOM      4  C2  OXE d   1       2.176  -1.715   1.758  0.00  0.00    -0.078 A 
ATOM      5  C3  OXE d   1       2.872  -2.043   0.598  0.00  0.00     0.003 A 
ATOM      6  C4  OXE d   1       2.355  -1.706  -0.658  0.00  0.00    -0.002 A 
ATOM      7  C5  OXE d   1       1.081  -1.139  -0.773  0.00  0.00    -0.002 A 
ATOM      8  C6  OXE d   1       0.329  -0.917   0.375  0.00  0.00     0.003 A 
ENDROOT
TORSDOF 0
ENDMDL
