MODEL 1
REMARK minimizedAffinity 6.66252327
REMARK minimizedRMSD -1
REMARK  0 active torsions:
REMARK  status: ('A' for Active; 'I' for Inactive)
ROOT
ATOM      1  C2' OXE d   1       1.578  -0.981   0.625  0.00  0.00     0.078 C 
ATOM      2  C1' OXE d   1       2.661   1.592   0.918  0.00  0.00     0.078 C 
ATOM      3  C1  OXE d   1       2.197   1.177  -0.455  0.00  0.00    -0.078 A 
ATOM      4  C2  OXE d   1       1.712  -0.101  -0.599  0.00  0.00    -0.078 A 
ATOM      5  C3  OXE d   1       1.220  -0.516  -1.833  0.00  0.00     0.003 A 
ATOM      6  C4  OXE d   1       1.357   0.300  -2.962  0.00  0.00    -0.002 A 
ATOM      7  C5  OXE d   1       1.885   1.590  -2.846  0.00  0.00    -0.002 A 
ATOM      8  C6  OXE d   1       2.270   2.058  -1.594  0.00  0.00     0.003 A 
ENDROOT
TORSDOF 0
ENDMDL
