MODEL 1
REMARK minimizedAffinity 4.1741724
REMARK minimizedRMSD -1
REMARK  0 active torsions:
REMARK  status: ('A' for Active; 'I' for Inactive)
ROOT
ATOM      1  C2' OXE d   1       3.133  -2.261   2.305  0.00  0.00     0.078 C 
ATOM      2  C1' OXE d   1       0.739  -0.841   2.671  0.00  0.00     0.078 C 
ATOM      3  C1  OXE d   1       1.127  -1.216   1.262  0.00  0.00    -0.078 A 
ATOM      4  C2  OXE d   1       2.323  -1.870   1.088  0.00  0.00    -0.078 A 
ATOM      5  C3  OXE d   1       2.702  -2.287  -0.184  0.00  0.00     0.003 A 
ATOM      6  C4  OXE d   1       1.952  -1.912  -1.306  0.00  0.00    -0.002 A 
ATOM      7  C5  OXE d   1       0.751  -1.212  -1.154  0.00  0.00    -0.002 A 
ATOM      8  C6  OXE d   1       0.303  -0.894   0.123  0.00  0.00     0.003 A 
ENDROOT
TORSDOF 0
ENDMDL
