MODEL 1
REMARK minimizedAffinity 10.619463
REMARK minimizedRMSD -1
REMARK  0 active torsions:
REMARK  status: ('A' for Active; 'I' for Inactive)
ROOT
ATOM      1  C2' OXE d   1       1.156  -0.780  -1.216  0.00  0.00     0.078 C 
ATOM      2  C1' OXE d   1       3.110  -2.196   0.218  0.00  0.00     0.078 C 
ATOM      3  C1  OXE d   1       1.825  -1.854   0.930  0.00  0.00    -0.078 A 
ATOM      4  C2  OXE d   1       0.893  -1.120   0.235  0.00  0.00    -0.078 A 
ATOM      5  C3  OXE d   1      -0.331  -0.824   0.826  0.00  0.00     0.003 A 
ATOM      6  C4  OXE d   1      -0.562  -1.133   2.172  0.00  0.00    -0.002 A 
ATOM      7  C5  OXE d   1       0.390  -1.846   2.910  0.00  0.00    -0.002 A 
ATOM      8  C6  OXE d   1       1.568  -2.250   2.292  0.00  0.00     0.003 A 
ENDROOT
TORSDOF 0
ENDMDL
