MODEL 1
REMARK minimizedAffinity 6.94869804
REMARK minimizedRMSD -1
REMARK  0 active torsions:
REMARK  status: ('A' for Active; 'I' for Inactive)
ROOT
ATOM      1  C2' OXE d   1      -1.415  -3.005   2.230  0.00  0.00     0.078 C 
ATOM      2  C1' OXE d   1      -1.815  -0.425   3.262  0.00  0.00     0.078 C 
ATOM      3  C1  OXE d   1      -0.397  -0.863   2.990  0.00  0.00    -0.078 A 
ATOM      4  C2  OXE d   1      -0.208  -2.143   2.530  0.00  0.00    -0.078 A 
ATOM      5  C3  OXE d   1       1.076  -2.579   2.211  0.00  0.00     0.003 A 
ATOM      6  C4  OXE d   1       2.188  -1.779   2.500  0.00  0.00    -0.002 A 
ATOM      7  C5  OXE d   1       2.020  -0.486   3.007  0.00  0.00    -0.002 A 
ATOM      8  C6  OXE d   1       0.734   0.002   3.217  0.00  0.00     0.003 A 
ENDROOT
TORSDOF 0
ENDMDL
