MODEL 1
REMARK minimizedAffinity -0.102782249
REMARK minimizedRMSD -1
REMARK  0 active torsions:
REMARK  status: ('A' for Active; 'I' for Inactive)
ROOT
ATOM      1  C2' OXE d   1       2.607  -1.110   0.472  0.00  0.00     0.078 C 
ATOM      2  C1' OXE d   1       2.907  -1.731  -2.249  0.00  0.00     0.078 C 
ATOM      3  C1  OXE d   1       2.700  -0.284  -1.876  0.00  0.00    -0.078 A 
ATOM      4  C2  OXE d   1       2.507   0.005  -0.547  0.00  0.00    -0.078 A 
ATOM      5  C3  OXE d   1       2.366   1.329  -0.143  0.00  0.00     0.003 A 
ATOM      6  C4  OXE d   1       2.265   2.353  -1.092  0.00  0.00    -0.002 A 
ATOM      7  C5  OXE d   1       2.418   2.075  -2.455  0.00  0.00    -0.002 A 
ATOM      8  C6  OXE d   1       2.679   0.771  -2.859  0.00  0.00     0.003 A 
ENDROOT
TORSDOF 0
ENDMDL
