MODEL 1
REMARK minimizedAffinity -3.28758121
REMARK minimizedRMSD -1
REMARK  1 active torsions:
REMARK  status: ('A' for Active; 'I' for Inactive)
REMARK    1  A    between atoms: C3_4  and  O_7 
ROOT
ATOM      1  C   UNL d   1       1.888   2.077  -5.782  0.00  0.00    -0.033 A 
ATOM      2  C1  UNL d   1       3.143   1.991  -5.176  0.00  0.00     0.039 A 
ATOM      3  C2  UNL d   1       3.251   1.571  -3.848  0.00  0.00    -0.080 A 
ATOM      4  C3  UNL d   1       2.099   1.240  -3.140  0.00  0.00     0.150 A 
ATOM      5  C4  UNL d   1       0.846   1.320  -3.739  0.00  0.00    -0.007 A 
ATOM      6  C5  UNL d   1       0.740   1.740  -5.064  0.00  0.00     0.039 A 
ENDROOT
BRANCH   4   7
ATOM      7  O   UNL d   1       2.154   0.830  -1.841  0.00  0.00    -0.526 OA
ATOM      8  H5  UNL d   1       3.082   0.851  -1.551  0.00  0.00     0.418 HD
ENDBRANCH   4   7
TORSDOF 1
ENDMDL
