MODEL 1
REMARK minimizedAffinity -0.123597771
REMARK minimizedRMSD -1
REMARK  1 active torsions:
REMARK  status: ('A' for Active; 'I' for Inactive)
REMARK    1  A    between atoms: C3_4  and  O_7 
ROOT
ATOM      1  C   UNL d   1       3.894   5.912   3.856  0.00  0.00    -0.033 A 
ATOM      2  C1  UNL d   1       5.286   5.806   3.872  0.00  0.00     0.039 A 
ATOM      3  C2  UNL d   1       6.000   5.781   2.672  0.00  0.00    -0.080 A 
ATOM      4  C3  UNL d   1       5.311   5.864   1.466  0.00  0.00     0.150 A 
ATOM      5  C4  UNL d   1       3.925   5.974   1.442  0.00  0.00    -0.007 A 
ATOM      6  C5  UNL d   1       3.213   5.998   2.641  0.00  0.00     0.039 A 
ENDROOT
BRANCH   4   7
ATOM      7  O   UNL d   1       5.964   5.839   0.269  0.00  0.00    -0.526 OA
ATOM      8  H5  UNL d   1       6.915   5.731   0.440  0.00  0.00     0.418 HD
ENDBRANCH   4   7
TORSDOF 1
ENDMDL
