MODEL 1
REMARK minimizedAffinity -0.00399108185
REMARK minimizedRMSD -1
REMARK  1 active torsions:
REMARK  status: ('A' for Active; 'I' for Inactive)
REMARK    1  A    between atoms: C3_4  and  O_7 
ROOT
ATOM      1  C   UNL d   1       5.280   5.033   5.021  0.00  0.00    -0.033 A 
ATOM      2  C1  UNL d   1       6.000   4.068   4.314  0.00  0.00     0.039 A 
ATOM      3  C2  UNL d   1       5.984   4.066   2.918  0.00  0.00    -0.080 A 
ATOM      4  C3  UNL d   1       5.246   5.033   2.241  0.00  0.00     0.150 A 
ATOM      5  C4  UNL d   1       4.529   6.000   2.939  0.00  0.00    -0.007 A 
ATOM      6  C5  UNL d   1       4.546   6.000   4.333  0.00  0.00     0.039 A 
ENDROOT
BRANCH   4   7
ATOM      7  O   UNL d   1       5.196   5.068   0.880  0.00  0.00    -0.526 OA
ATOM      8  H5  UNL d   1       5.715   4.323   0.533  0.00  0.00     0.418 HD
ENDBRANCH   4   7
TORSDOF 1
ENDMDL
