MODEL 1
REMARK minimizedAffinity -1.188586
REMARK minimizedRMSD -1
REMARK  1 active torsions:
REMARK  status: ('A' for Active; 'I' for Inactive)
REMARK    1  A    between atoms: C3_4  and  O_7 
ROOT
ATOM      1  C   UNL d   1       3.000   2.032  -3.611  0.00  0.00    -0.033 A 
ATOM      2  C1  UNL d   1       1.683   1.972  -4.071  0.00  0.00     0.039 A 
ATOM      3  C2  UNL d   1       0.750   1.164  -3.420  0.00  0.00    -0.080 A 
ATOM      4  C3  UNL d   1       1.145   0.422  -2.310  0.00  0.00     0.150 A 
ATOM      5  C4  UNL d   1       2.454   0.480  -1.843  0.00  0.00    -0.007 A 
ATOM      6  C5  UNL d   1       3.385   1.287  -2.496  0.00  0.00     0.039 A 
ENDROOT
BRANCH   4   7
ATOM      7  O   UNL d   1       0.271  -0.385  -1.644  0.00  0.00    -0.526 OA
ATOM      8  H5  UNL d   1      -0.589  -0.347  -2.096  0.00  0.00     0.418 HD
ENDBRANCH   4   7
TORSDOF 1
ENDMDL
