MODEL 1
REMARK minimizedAffinity -1.75363684
REMARK minimizedRMSD -1
REMARK  1 active torsions:
REMARK  status: ('A' for Active; 'I' for Inactive)
REMARK    1  A    between atoms: C3_4  and  O_7 
ROOT
ATOM      1  C   UNL d   1       3.868   2.012  -4.654  0.00  0.00    -0.033 A 
ATOM      2  C1  UNL d   1       2.698   2.257  -5.376  0.00  0.00     0.039 A 
ATOM      3  C2  UNL d   1       1.452   2.049  -4.781  0.00  0.00    -0.080 A 
ATOM      4  C3  UNL d   1       1.390   1.597  -3.466  0.00  0.00     0.150 A 
ATOM      5  C4  UNL d   1       2.551   1.355  -2.739  0.00  0.00    -0.007 A 
ATOM      6  C5  UNL d   1       3.794   1.562  -3.335  0.00  0.00     0.039 A 
ENDROOT
BRANCH   4   7
ATOM      7  O   UNL d   1       0.196   1.375  -2.845  0.00  0.00    -0.526 OA
ATOM      8  H5  UNL d   1      -0.518   1.557  -3.478  0.00  0.00     0.418 HD
ENDBRANCH   4   7
TORSDOF 1
ENDMDL
