MODEL 1
REMARK minimizedAffinity -3.09806824
REMARK minimizedRMSD -1
REMARK  1 active torsions:
REMARK  status: ('A' for Active; 'I' for Inactive)
REMARK    1  A    between atoms: C3_4  and  O_7 
ROOT
ATOM      1  C   UNL d   1       2.949  -0.100  -2.072  0.00  0.00    -0.033 A 
ATOM      2  C1  UNL d   1       1.566  -0.081  -1.880  0.00  0.00     0.039 A 
ATOM      3  C2  UNL d   1       0.775   0.829  -2.583  0.00  0.00    -0.080 A 
ATOM      4  C3  UNL d   1       1.377   1.712  -3.474  0.00  0.00     0.150 A 
ATOM      5  C4  UNL d   1       2.754   1.697  -3.673  0.00  0.00    -0.007 A 
ATOM      6  C5  UNL d   1       3.543   0.788  -2.969  0.00  0.00     0.039 A 
ENDROOT
BRANCH   4   7
ATOM      7  O   UNL d   1       0.646   2.622  -4.180  0.00  0.00    -0.526 OA
ATOM      8  H5  UNL d   1      -0.286   2.536  -3.919  0.00  0.00     0.418 HD
ENDBRANCH   4   7
TORSDOF 1
ENDMDL
