MODEL 1
REMARK minimizedAffinity -2.00707221
REMARK minimizedRMSD -1
REMARK  1 active torsions:
REMARK  status: ('A' for Active; 'I' for Inactive)
REMARK    1  A    between atoms: C3_4  and  O_7 
ROOT
ATOM      1  C   UNL d   1       2.636   1.919  -5.039  0.00  0.00    -0.033 A 
ATOM      2  C1  UNL d   1       1.331   1.489  -5.287  0.00  0.00     0.039 A 
ATOM      3  C2  UNL d   1       0.564   0.947  -4.253  0.00  0.00    -0.080 A 
ATOM      4  C3  UNL d   1       1.112   0.844  -2.978  0.00  0.00     0.150 A 
ATOM      5  C4  UNL d   1       2.409   1.274  -2.722  0.00  0.00    -0.007 A 
ATOM      6  C5  UNL d   1       3.174   1.813  -3.756  0.00  0.00     0.039 A 
ENDROOT
BRANCH   4   7
ATOM      7  O   UNL d   1       0.403   0.318  -1.938  0.00  0.00    -0.526 OA
ATOM      8  H5  UNL d   1      -0.466   0.037  -2.270  0.00  0.00     0.418 HD
ENDBRANCH   4   7
TORSDOF 1
ENDMDL
