MODEL 1
REMARK minimizedAffinity 3.07214379
REMARK minimizedRMSD -1
REMARK  1 active torsions:
REMARK  status: ('A' for Active; 'I' for Inactive)
REMARK    1  A    between atoms: C3_4  and  O_7 
ROOT
ATOM      1  C   UNL d   1       3.657   2.206  -4.666  0.00  0.00    -0.033 A 
ATOM      2  C1  UNL d   1       3.636   1.921  -3.299  0.00  0.00     0.039 A 
ATOM      3  C2  UNL d   1       2.423   1.663  -2.657  0.00  0.00    -0.080 A 
ATOM      4  C3  UNL d   1       1.241   1.691  -3.392  0.00  0.00     0.150 A 
ATOM      5  C4  UNL d   1       1.256   1.971  -4.755  0.00  0.00    -0.007 A 
ATOM      6  C5  UNL d   1       2.467   2.229  -5.394  0.00  0.00     0.039 A 
ENDROOT
BRANCH   4   7
ATOM      7  O   UNL d   1       0.033   1.451  -2.808  0.00  0.00    -0.526 OA
ATOM      8  H5  UNL d   1       0.174   1.301  -1.859  0.00  0.00     0.418 HD
ENDBRANCH   4   7
TORSDOF 1
ENDMDL
