MODEL 1
REMARK minimizedAffinity 3.11054349
REMARK minimizedRMSD -1
REMARK  1 active torsions:
REMARK  status: ('A' for Active; 'I' for Inactive)
REMARK    1  A    between atoms: C3_4  and  O_7 
ROOT
ATOM      1  C   UNL d   1       1.721   1.361  -2.473  0.00  0.00    -0.033 A 
ATOM      2  C1  UNL d   1       2.919   0.748  -2.101  0.00  0.00     0.039 A 
ATOM      3  C2  UNL d   1       2.939  -0.611  -1.780  0.00  0.00    -0.080 A 
ATOM      4  C3  UNL d   1       1.757  -1.344  -1.837  0.00  0.00     0.150 A 
ATOM      5  C4  UNL d   1       0.561  -0.741  -2.210  0.00  0.00    -0.007 A 
ATOM      6  C5  UNL d   1       0.542   0.616  -2.529  0.00  0.00     0.039 A 
ENDROOT
BRANCH   4   7
ATOM      7  O   UNL d   1       1.727  -2.672  -1.528  0.00  0.00    -0.526 OA
ATOM      8  H5  UNL d   1       2.620  -2.946  -1.261  0.00  0.00     0.418 HD
ENDBRANCH   4   7
TORSDOF 1
ENDMDL
