MODEL 1
REMARK minimizedAffinity -3.1676302
REMARK minimizedRMSD -1
REMARK  1 active torsions:
REMARK  status: ('A' for Active; 'I' for Inactive)
REMARK    1  A    between atoms: C3_4  and  O_7 
ROOT
ATOM      1  C   UNL d   1       3.270   1.048  -3.442  0.00  0.00    -0.033 A 
ATOM      2  C1  UNL d   1       2.666   0.801  -2.208  0.00  0.00     0.039 A 
ATOM      3  C2  UNL d   1       1.359   1.231  -1.970  0.00  0.00    -0.080 A 
ATOM      4  C3  UNL d   1       0.669   1.907  -2.972  0.00  0.00     0.150 A 
ATOM      5  C4  UNL d   1       1.263   2.153  -4.205  0.00  0.00    -0.007 A 
ATOM      6  C5  UNL d   1       2.568   1.723  -4.441  0.00  0.00     0.039 A 
ENDROOT
BRANCH   4   7
ATOM      7  O   UNL d   1      -0.607   2.350  -2.785  0.00  0.00    -0.526 OA
ATOM      8  H5  UNL d   1      -0.877   2.134  -1.877  0.00  0.00     0.418 HD
ENDBRANCH   4   7
TORSDOF 1
ENDMDL
