MODEL 1
REMARK minimizedAffinity 0.620599091
REMARK minimizedRMSD -1
REMARK  1 active torsions:
REMARK  status: ('A' for Active; 'I' for Inactive)
REMARK    1  A    between atoms: C3_4  and  O_7 
ROOT
ATOM      1  C   UNL d   1       4.008   5.492  -0.081  0.00  0.00    -0.033 A 
ATOM      2  C1  UNL d   1       5.308   5.997  -0.013  0.00  0.00     0.039 A 
ATOM      3  C2  UNL d   1       5.995   6.000   1.203  0.00  0.00    -0.080 A 
ATOM      4  C3  UNL d   1       5.372   5.495   2.341  0.00  0.00     0.150 A 
ATOM      5  C4  UNL d   1       4.078   4.988   2.279  0.00  0.00    -0.007 A 
ATOM      6  C5  UNL d   1       3.394   4.986   1.064  0.00  0.00     0.039 A 
ENDROOT
BRANCH   4   7
ATOM      7  O   UNL d   1       6.000   5.481   3.551  0.00  0.00    -0.526 OA
ATOM      8  H5  UNL d   1       6.876   5.889   3.447  0.00  0.00     0.418 HD
ENDBRANCH   4   7
TORSDOF 1
ENDMDL
