MODEL 1
REMARK minimizedAffinity 0.598526537
REMARK minimizedRMSD -1
REMARK  1 active torsions:
REMARK  status: ('A' for Active; 'I' for Inactive)
REMARK    1  A    between atoms: C3_4  and  O_7 
ROOT
ATOM      1  C   UNL d   1      -5.534  -1.804   2.400  0.00  0.00    -0.033 A 
ATOM      2  C1  UNL d   1      -5.750  -0.443   2.625  0.00  0.00     0.039 A 
ATOM      3  C2  UNL d   1      -4.685   0.385   2.985  0.00  0.00    -0.080 A 
ATOM      4  C3  UNL d   1      -3.410  -0.160   3.116  0.00  0.00     0.150 A 
ATOM      5  C4  UNL d   1      -3.187  -1.514   2.890  0.00  0.00    -0.007 A 
ATOM      6  C5  UNL d   1      -4.252  -2.339   2.531  0.00  0.00     0.039 A 
ENDROOT
BRANCH   4   7
ATOM      7  O   UNL d   1      -2.341   0.607   3.471  0.00  0.00    -0.526 OA
ATOM      8  H5  UNL d   1      -2.650   1.516   3.623  0.00  0.00     0.418 HD
ENDBRANCH   4   7
TORSDOF 1
ENDMDL
