MODEL 1
REMARK minimizedAffinity -5.49539042
REMARK minimizedRMSD -1
REMARK  1 active torsions:
REMARK  status: ('A' for Active; 'I' for Inactive)
REMARK    1  A    between atoms: C3_4  and  O_7 
ROOT
ATOM      1  C   UNL d   1       3.396   1.838  -3.508  0.00  0.00    -0.033 A 
ATOM      2  C1  UNL d   1       2.200   1.404  -2.934  0.00  0.00     0.039 A 
ATOM      3  C2  UNL d   1       1.027   1.381  -3.691  0.00  0.00    -0.080 A 
ATOM      4  C3  UNL d   1       1.064   1.794  -5.020  0.00  0.00     0.150 A 
ATOM      5  C4  UNL d   1       2.253   2.225  -5.600  0.00  0.00    -0.007 A 
ATOM      6  C5  UNL d   1       3.423   2.247  -4.842  0.00  0.00     0.039 A 
ENDROOT
BRANCH   4   7
ATOM      7  O   UNL d   1      -0.056   1.794  -5.797  0.00  0.00    -0.526 OA
ATOM      8  H5  UNL d   1      -0.807   1.500  -5.255  0.00  0.00     0.418 HD
ENDBRANCH   4   7
TORSDOF 1
ENDMDL
