MODEL 1
REMARK minimizedAffinity 0.102029555
REMARK minimizedRMSD -1
REMARK  1 active torsions:
REMARK  status: ('A' for Active; 'I' for Inactive)
REMARK    1  A    between atoms: C3_4  and  O_7 
ROOT
ATOM      1  C   UNL d   1       2.681   1.436  -2.566  0.00  0.00    -0.033 A 
ATOM      2  C1  UNL d   1       3.156   2.024  -3.740  0.00  0.00     0.039 A 
ATOM      3  C2  UNL d   1       2.388   1.980  -4.905  0.00  0.00    -0.080 A 
ATOM      4  C3  UNL d   1       1.149   1.347  -4.883  0.00  0.00     0.150 A 
ATOM      5  C4  UNL d   1       0.667   0.762  -3.717  0.00  0.00    -0.007 A 
ATOM      6  C5  UNL d   1       1.436   0.806  -2.554  0.00  0.00     0.039 A 
ENDROOT
BRANCH   4   7
ATOM      7  O   UNL d   1       0.366   1.275  -5.997  0.00  0.00    -0.526 OA
ATOM      8  H5  UNL d   1       0.839   1.696  -6.734  0.00  0.00     0.418 HD
ENDBRANCH   4   7
TORSDOF 1
ENDMDL
