MODEL 1
REMARK minimizedAffinity -1.49635494
REMARK minimizedRMSD -1
REMARK  1 active torsions:
REMARK  status: ('A' for Active; 'I' for Inactive)
REMARK    1  A    between atoms: C3_4  and  O_7 
ROOT
ATOM      1  C   UNL d   1       4.852   5.633   0.681  0.00  0.00    -0.033 A 
ATOM      2  C1  UNL d   1       5.995   5.206   1.360  0.00  0.00     0.039 A 
ATOM      3  C2  UNL d   1       6.000   5.149   2.755  0.00  0.00    -0.080 A 
ATOM      4  C3  UNL d   1       4.857   5.521   3.458  0.00  0.00     0.150 A 
ATOM      5  C4  UNL d   1       3.714   5.943   2.788  0.00  0.00    -0.007 A 
ATOM      6  C5  UNL d   1       3.711   6.000   1.394  0.00  0.00     0.039 A 
ENDROOT
BRANCH   4   7
ATOM      7  O   UNL d   1       4.816   5.487   4.820  0.00  0.00    -0.526 OA
ATOM      8  H5  UNL d   1       5.686   5.203   5.147  0.00  0.00     0.418 HD
ENDBRANCH   4   7
TORSDOF 1
ENDMDL
