MODEL 1
REMARK minimizedAffinity -5.17562914
REMARK minimizedRMSD -1
REMARK  1 active torsions:
REMARK  status: ('A' for Active; 'I' for Inactive)
REMARK    1  A    between atoms: C3_4  and  O_7 
ROOT
ATOM      1  C   UNL d   1      -0.786  -0.009   0.252  0.00  0.00    -0.033 A 
ATOM      2  C1  UNL d   1      -0.360  -1.339   0.216  0.00  0.00     0.039 A 
ATOM      3  C2  UNL d   1       0.892  -1.659  -0.312  0.00  0.00    -0.080 A 
ATOM      4  C3  UNL d   1       1.708  -0.642  -0.800  0.00  0.00     0.150 A 
ATOM      5  C4  UNL d   1       1.292   0.685  -0.765  0.00  0.00    -0.007 A 
ATOM      6  C5  UNL d   1       0.041   1.003  -0.238  0.00  0.00     0.039 A 
ENDROOT
BRANCH   4   7
ATOM      7  O   UNL d   1       2.936  -0.906  -1.330  0.00  0.00    -0.526 OA
ATOM      8  H5  UNL d   1       3.078  -1.867  -1.315  0.00  0.00     0.418 HD
ENDBRANCH   4   7
TORSDOF 1
ENDMDL
