MODEL 1
REMARK minimizedAffinity 9.85333824
REMARK minimizedRMSD -1
REMARK  2 active torsions:
REMARK  status: ('A' for Active; 'I' for Inactive)
REMARK    1  A    between atoms: C1_2  and  C2_3 
REMARK    2  A    between atoms: C2_3  and  C3_4 
ROOT
ATOM      1  C3  UNL d   1       3.909  -2.628   4.779  0.00  0.00    -0.075 A 
ATOM      2  C4  UNL d   1       3.865  -3.758   3.948  0.00  0.00     0.002 A 
ATOM      3  C5  UNL d   1       4.746  -4.820   4.150  0.00  0.00     0.002 A 
ATOM      4  C6  UNL d   1       5.687  -4.763   5.175  0.00  0.00    -0.004 A 
ATOM      5  C7  UNL d   1       5.751  -3.639   5.996  0.00  0.00     0.002 A 
ATOM      6  C8  UNL d   1       4.867  -2.577   5.800  0.00  0.00     0.002 A 
ENDROOT
BRANCH   1   7
ATOM      7  C2  UNL d   1       2.938  -1.488   4.584  0.00  0.00     0.056 C 
BRANCH   7   8
ATOM      8  C1  UNL d   1       1.476  -1.862   4.849  0.00  0.00     0.007 C 
ATOM      9  C   UNL d   1       0.711  -0.789   5.612  0.00  0.00     0.009 C 
ENDBRANCH   7   8
ENDBRANCH   1   7
TORSDOF 2
ENDMDL
