MODEL 1
REMARK minimizedAffinity 10.495223
REMARK minimizedRMSD -1
REMARK  2 active torsions:
REMARK  status: ('A' for Active; 'I' for Inactive)
REMARK    1  A    between atoms: C1_2  and  C2_3 
REMARK    2  A    between atoms: C2_3  and  C3_4 
ROOT
ATOM      1  C3  UNL d   1      -0.173   4.120  -0.744  0.00  0.00    -0.075 A 
ATOM      2  C4  UNL d   1      -1.121   5.072  -0.344  0.00  0.00     0.002 A 
ATOM      3  C5  UNL d   1      -1.623   5.999  -1.258  0.00  0.00     0.002 A 
ATOM      4  C6  UNL d   1      -1.176   5.993  -2.577  0.00  0.00    -0.004 A 
ATOM      5  C7  UNL d   1      -0.222   5.062  -2.981  0.00  0.00     0.002 A 
ATOM      6  C8  UNL d   1       0.278   4.130  -2.070  0.00  0.00     0.002 A 
ENDROOT
BRANCH   1   7
ATOM      7  C2  UNL d   1       0.352   3.095   0.233  0.00  0.00     0.056 C 
BRANCH   7   8
ATOM      8  C1  UNL d   1      -0.723   2.495   1.145  0.00  0.00     0.007 C 
ATOM      9  C   UNL d   1      -0.161   1.923   2.440  0.00  0.00     0.009 C 
ENDBRANCH   7   8
ENDBRANCH   1   7
TORSDOF 2
ENDMDL
