MODEL 1
REMARK minimizedAffinity 6.43349457
REMARK minimizedRMSD -1
REMARK  2 active torsions:
REMARK  status: ('A' for Active; 'I' for Inactive)
REMARK    1  A    between atoms: C1_2  and  C2_3 
REMARK    2  A    between atoms: C2_3  and  C3_4 
ROOT
ATOM      1  C3  UNL d   1      -0.064   4.240  -0.723  0.00  0.00    -0.075 A 
ATOM      2  C4  UNL d   1       0.013   4.104  -2.116  0.00  0.00     0.002 A 
ATOM      3  C5  UNL d   1      -0.755   4.917  -2.951  0.00  0.00     0.002 A 
ATOM      4  C6  UNL d   1      -1.615   5.867  -2.403  0.00  0.00    -0.004 A 
ATOM      5  C7  UNL d   1      -1.711   6.000  -1.020  0.00  0.00     0.002 A 
ATOM      6  C8  UNL d   1      -0.940   5.191  -0.183  0.00  0.00     0.002 A 
ENDROOT
BRANCH   1   7
ATOM      7  C2  UNL d   1       0.787   3.384   0.185  0.00  0.00     0.056 C 
BRANCH   7   8
ATOM      8  C1  UNL d   1       0.007   2.286   0.917  0.00  0.00     0.007 C 
ATOM      9  C   UNL d   1       0.116   2.381   2.433  0.00  0.00     0.009 C 
ENDBRANCH   7   8
ENDBRANCH   1   7
TORSDOF 2
ENDMDL
