MODEL 1
REMARK minimizedAffinity 6.21953249
REMARK minimizedRMSD -1
REMARK  2 active torsions:
REMARK  status: ('A' for Active; 'I' for Inactive)
REMARK    1  A    between atoms: C1_2  and  C2_3 
REMARK    2  A    between atoms: C2_3  and  C3_4 
ROOT
ATOM      1  C3  UNL d   1       1.109   3.787   1.380  0.00  0.00    -0.075 A 
ATOM      2  C4  UNL d   1       2.032   3.549   2.408  0.00  0.00     0.002 A 
ATOM      3  C5  UNL d   1       1.765   2.596   3.392  0.00  0.00     0.002 A 
ATOM      4  C6  UNL d   1       0.571   1.879   3.367  0.00  0.00    -0.004 A 
ATOM      5  C7  UNL d   1      -0.360   2.119   2.359  0.00  0.00     0.002 A 
ATOM      6  C8  UNL d   1      -0.094   3.068   1.370  0.00  0.00     0.002 A 
ENDROOT
BRANCH   1   7
ATOM      7  C2  UNL d   1       1.404   4.795   0.295  0.00  0.00     0.056 C 
BRANCH   7   8
ATOM      8  C1  UNL d   1       0.153   5.398  -0.353  0.00  0.00     0.007 C 
ATOM      9  C   UNL d   1      -0.277   4.670  -1.620  0.00  0.00     0.009 C 
ENDBRANCH   7   8
ENDBRANCH   1   7
TORSDOF 2
ENDMDL
