MODEL 1
REMARK minimizedAffinity 6.55966473
REMARK minimizedRMSD -1
REMARK  2 active torsions:
REMARK  status: ('A' for Active; 'I' for Inactive)
REMARK    1  A    between atoms: C1_2  and  C2_3 
REMARK    2  A    between atoms: C2_3  and  C3_4 
ROOT
ATOM      1  C3  UNL d   1      -0.415   4.866  -1.213  0.00  0.00    -0.075 A 
ATOM      2  C4  UNL d   1      -0.002   3.557  -1.496  0.00  0.00     0.002 A 
ATOM      3  C5  UNL d   1       0.006   2.585  -0.495  0.00  0.00     0.002 A 
ATOM      4  C6  UNL d   1      -0.389   2.911   0.800  0.00  0.00    -0.004 A 
ATOM      5  C7  UNL d   1      -0.786   4.213   1.097  0.00  0.00     0.002 A 
ATOM      6  C8  UNL d   1      -0.799   5.187   0.096  0.00  0.00     0.002 A 
ENDROOT
BRANCH   1   7
ATOM      7  C2  UNL d   1      -0.454   5.916  -2.298  0.00  0.00     0.056 C 
BRANCH   7   8
ATOM      8  C1  UNL d   1      -1.793   5.997  -3.040  0.00  0.00     0.007 C 
ATOM      9  C   UNL d   1      -2.665   4.765  -2.841  0.00  0.00     0.009 C 
ENDBRANCH   7   8
ENDBRANCH   1   7
TORSDOF 2
ENDMDL
