MODEL 1
REMARK minimizedAffinity 9.30928707
REMARK minimizedRMSD -1
REMARK  2 active torsions:
REMARK  status: ('A' for Active; 'I' for Inactive)
REMARK    1  A    between atoms: C1_2  and  C2_3 
REMARK    2  A    between atoms: C2_3  and  C3_4 
ROOT
ATOM      1  C3  UNL d   1      -0.147   1.081   3.421  0.00  0.00    -0.075 A 
ATOM      2  C4  UNL d   1      -1.224   1.500   2.627  0.00  0.00     0.002 A 
ATOM      3  C5  UNL d   1      -1.005   2.269   1.484  0.00  0.00     0.002 A 
ATOM      4  C6  UNL d   1       0.290   2.638   1.127  0.00  0.00    -0.004 A 
ATOM      5  C7  UNL d   1       1.366   2.242   1.917  0.00  0.00     0.002 A 
ATOM      6  C8  UNL d   1       1.151   1.468   3.059  0.00  0.00     0.002 A 
ENDROOT
BRANCH   1   7
ATOM      7  C2  UNL d   1      -0.374   0.224   4.643  0.00  0.00     0.056 C 
BRANCH   7   8
ATOM      8  C1  UNL d   1       0.479  -1.048   4.680  0.00  0.00     0.007 C 
ATOM      9  C   UNL d   1       0.377  -1.801   6.000  0.00  0.00     0.009 C 
ENDBRANCH   7   8
ENDBRANCH   1   7
TORSDOF 2
ENDMDL
