MODEL 1
REMARK minimizedAffinity 0.960673094
REMARK minimizedRMSD -1
REMARK  2 active torsions:
REMARK  status: ('A' for Active; 'I' for Inactive)
REMARK    1  A    between atoms: C1_2  and  C2_3 
REMARK    2  A    between atoms: C2_3  and  C3_4 
ROOT
ATOM      1  C3  UNL d   1      -1.016   4.772  -0.236  0.00  0.00    -0.075 A 
ATOM      2  C4  UNL d   1       0.119   4.252  -0.876  0.00  0.00     0.002 A 
ATOM      3  C5  UNL d   1       0.741   3.101  -0.390  0.00  0.00     0.002 A 
ATOM      4  C6  UNL d   1       0.245   2.463   0.744  0.00  0.00    -0.004 A 
ATOM      5  C7  UNL d   1      -0.872   2.981   1.398  0.00  0.00     0.002 A 
ATOM      6  C8  UNL d   1      -1.499   4.129   0.912  0.00  0.00     0.002 A 
ENDROOT
BRANCH   1   7
ATOM      7  C2  UNL d   1      -1.711   6.000  -0.774  0.00  0.00     0.056 C 
BRANCH   7   8
ATOM      8  C1  UNL d   1      -1.889   6.000  -2.295  0.00  0.00     0.007 C 
ATOM      9  C   UNL d   1      -2.382   4.667  -2.842  0.00  0.00     0.009 C 
ENDBRANCH   7   8
ENDBRANCH   1   7
TORSDOF 2
ENDMDL
