MODEL 1
REMARK minimizedAffinity 11.906496
REMARK minimizedRMSD -1
REMARK  2 active torsions:
REMARK  status: ('A' for Active; 'I' for Inactive)
REMARK    1  A    between atoms: C1_2  and  C2_3 
REMARK    2  A    between atoms: C2_3  and  C3_4 
ROOT
ATOM      1  C3  UNL d   1      -1.432  -4.188  -3.864  0.00  0.00    -0.075 A 
ATOM      2  C4  UNL d   1      -2.625  -4.924  -3.834  0.00  0.00     0.002 A 
ATOM      3  C5  UNL d   1      -2.941  -5.804  -4.870  0.00  0.00     0.002 A 
ATOM      4  C6  UNL d   1      -2.075  -5.951  -5.951  0.00  0.00    -0.004 A 
ATOM      5  C7  UNL d   1      -0.895  -5.212  -5.999  0.00  0.00     0.002 A 
ATOM      6  C8  UNL d   1      -0.574  -4.334  -4.962  0.00  0.00     0.002 A 
ENDROOT
BRANCH   1   7
ATOM      7  C2  UNL d   1      -1.070  -3.257  -2.731  0.00  0.00     0.056 C 
BRANCH   7   8
ATOM      8  C1  UNL d   1      -0.196  -3.900  -1.649  0.00  0.00     0.007 C 
ATOM      9  C   UNL d   1       0.421  -2.887  -0.695  0.00  0.00     0.009 C 
ENDBRANCH   7   8
ENDBRANCH   1   7
TORSDOF 2
ENDMDL
