MODEL 1
REMARK minimizedAffinity 7.7757597
REMARK minimizedRMSD -1
REMARK  2 active torsions:
REMARK  status: ('A' for Active; 'I' for Inactive)
REMARK    1  A    between atoms: C1_2  and  C2_3 
REMARK    2  A    between atoms: C2_3  and  C3_4 
ROOT
ATOM      1  C3  UNL d   1      -5.272   4.488  -3.243  0.00  0.00    -0.075 A 
ATOM      2  C4  UNL d   1      -4.306   3.858  -4.042  0.00  0.00     0.002 A 
ATOM      3  C5  UNL d   1      -4.059   4.304  -5.340  0.00  0.00     0.002 A 
ATOM      4  C6  UNL d   1      -4.780   5.377  -5.860  0.00  0.00    -0.004 A 
ATOM      5  C7  UNL d   1      -5.753   6.000  -5.082  0.00  0.00     0.002 A 
ATOM      6  C8  UNL d   1      -5.999   5.558  -3.781  0.00  0.00     0.002 A 
ENDROOT
BRANCH   1   7
ATOM      7  C2  UNL d   1      -5.523   4.028  -1.827  0.00  0.00     0.056 C 
BRANCH   7   8
ATOM      8  C1  UNL d   1      -6.000   2.576  -1.717  0.00  0.00     0.007 C 
ATOM      9  C   UNL d   1      -5.857   2.002  -0.314  0.00  0.00     0.009 C 
ENDBRANCH   7   8
ENDBRANCH   1   7
TORSDOF 2
ENDMDL
