MODEL 1
REMARK minimizedAffinity 8.93252373
REMARK minimizedRMSD -1
REMARK  2 active torsions:
REMARK  status: ('A' for Active; 'I' for Inactive)
REMARK    1  A    between atoms: C1_2  and  C2_3 
REMARK    2  A    between atoms: C2_3  and  C3_4 
ROOT
ATOM      1  C3  UNL d   1       1.536  -2.968  -0.026  0.00  0.00    -0.075 A 
ATOM      2  C4  UNL d   1       1.448  -4.285  -0.498  0.00  0.00     0.002 A 
ATOM      3  C5  UNL d   1       0.429  -4.657  -1.375  0.00  0.00     0.002 A 
ATOM      4  C6  UNL d   1      -0.520  -3.722  -1.782  0.00  0.00    -0.004 A 
ATOM      5  C7  UNL d   1      -0.453  -2.414  -1.305  0.00  0.00     0.002 A 
ATOM      6  C8  UNL d   1       0.569  -2.038  -0.431  0.00  0.00     0.002 A 
ENDROOT
BRANCH   1   7
ATOM      7  C2  UNL d   1       2.653  -2.551   0.900  0.00  0.00     0.056 C 
BRANCH   7   8
ATOM      8  C1  UNL d   1       3.740  -1.706   0.226  0.00  0.00     0.007 C 
ATOM      9  C   UNL d   1       4.963  -2.516  -0.182  0.00  0.00     0.009 C 
ENDBRANCH   7   8
ENDBRANCH   1   7
TORSDOF 2
ENDMDL
