MODEL 1
REMARK minimizedAffinity 0.442224801
REMARK minimizedRMSD -1
REMARK  0 active torsions:
REMARK  status: ('A' for Active; 'I' for Inactive)
ROOT
ATOM      1  C   UNL d   1      -0.143   5.591   5.998  0.00  0.00     0.172 C 
ATOM      2  N   UNL d   1      -1.507   5.246   5.671  0.00  0.00    -0.070 N 
ATOM      3  C1  UNL d   1      -1.907   4.127   4.991  0.00  0.00    -0.004 A 
ATOM      4  C2  UNL d   1      -3.280   4.166   4.884  0.00  0.00    -0.047 A 
ATOM      5  C3  UNL d   1      -3.721   5.350   5.522  0.00  0.00    -0.047 A 
ATOM      6  C4  UNL d   1      -2.603   6.000   6.000  0.00  0.00    -0.004 A 
ENDROOT
TORSDOF 0
ENDMDL
