MODEL 1
REMARK minimizedAffinity -1.4834044
REMARK minimizedRMSD -1
REMARK  0 active torsions:
REMARK  status: ('A' for Active; 'I' for Inactive)
ROOT
ATOM      1  C   UNL d   1       0.405   6.000   4.558  0.00  0.00     0.172 C 
ATOM      2  N   UNL d   1      -0.929   5.575   4.909  0.00  0.00    -0.070 N 
ATOM      3  C1  UNL d   1      -1.641   5.998   6.000  0.00  0.00    -0.004 A 
ATOM      4  C2  UNL d   1      -2.864   5.363   5.978  0.00  0.00    -0.047 A 
ATOM      5  C3  UNL d   1      -2.887   4.528   4.836  0.00  0.00    -0.047 A 
ATOM      6  C4  UNL d   1      -1.677   4.678   4.192  0.00  0.00    -0.004 A 
ENDROOT
TORSDOF 0
ENDMDL
