MODEL 1
REMARK minimizedAffinity -2.41485643
REMARK minimizedRMSD -1
REMARK  0 active torsions:
REMARK  status: ('A' for Active; 'I' for Inactive)
ROOT
ATOM      1  C   UNL d   1       1.129   5.998   4.946  0.00  0.00     0.172 C 
ATOM      2  N   UNL d   1      -0.160   5.350   4.998  0.00  0.00    -0.070 N 
ATOM      3  C1  UNL d   1      -1.164   5.493   4.078  0.00  0.00    -0.004 A 
ATOM      4  C2  UNL d   1      -2.224   4.713   4.485  0.00  0.00    -0.047 A 
ATOM      5  C3  UNL d   1      -1.845   4.079   5.692  0.00  0.00    -0.047 A 
ATOM      6  C4  UNL d   1      -0.562   4.491   5.987  0.00  0.00    -0.004 A 
ENDROOT
TORSDOF 0
ENDMDL
