MODEL 1
REMARK minimizedAffinity -1.99741805
REMARK minimizedRMSD -1
REMARK  0 active torsions:
REMARK  status: ('A' for Active; 'I' for Inactive)
ROOT
ATOM      1  C   UNL d   1       1.085   5.987   4.797  0.00  0.00     0.172 C 
ATOM      2  N   UNL d   1      -0.249   5.523   5.093  0.00  0.00    -0.070 N 
ATOM      3  C1  UNL d   1      -1.403   5.993   4.525  0.00  0.00    -0.004 A 
ATOM      4  C2  UNL d   1      -2.458   5.295   5.071  0.00  0.00    -0.047 A 
ATOM      5  C3  UNL d   1      -1.920   4.373   6.000  0.00  0.00    -0.047 A 
ATOM      6  C4  UNL d   1      -0.551   4.535   5.994  0.00  0.00    -0.004 A 
ENDROOT
TORSDOF 0
ENDMDL
