MODEL 1
REMARK minimizedAffinity -2.12605929
REMARK minimizedRMSD -1
REMARK  0 active torsions:
REMARK  status: ('A' for Active; 'I' for Inactive)
ROOT
ATOM      1  C   UNL d   1       2.993   5.892   4.855  0.00  0.00     0.172 C 
ATOM      2  N   UNL d   1       1.553   5.794   4.877  0.00  0.00    -0.070 N 
ATOM      3  C1  UNL d   1       0.769   5.798   6.000  0.00  0.00    -0.004 A 
ATOM      4  C2  UNL d   1      -0.545   5.687   5.598  0.00  0.00    -0.047 A 
ATOM      5  C3  UNL d   1      -0.550   5.614   4.185  0.00  0.00    -0.047 A 
ATOM      6  C4  UNL d   1       0.761   5.682   3.764  0.00  0.00    -0.004 A 
ENDROOT
TORSDOF 0
ENDMDL
