MODEL 1
REMARK minimizedAffinity -1.94703865
REMARK minimizedRMSD -1
REMARK  0 active torsions:
REMARK  status: ('A' for Active; 'I' for Inactive)
ROOT
ATOM      1  C   UNL d   1       1.248   6.000   5.997  0.00  0.00     0.172 C 
ATOM      2  N   UNL d   1       0.009   5.546   5.409  0.00  0.00    -0.070 N 
ATOM      3  C1  UNL d   1      -0.479   5.922   4.187  0.00  0.00    -0.004 A 
ATOM      4  C2  UNL d   1      -1.679   5.272   3.993  0.00  0.00    -0.047 A 
ATOM      5  C3  UNL d   1      -1.919   4.477   5.139  0.00  0.00    -0.047 A 
ATOM      6  C4  UNL d   1      -0.859   4.666   6.000  0.00  0.00    -0.004 A 
ENDROOT
TORSDOF 0
ENDMDL
