MODEL 1
REMARK minimizedAffinity 0.723064423
REMARK minimizedRMSD -1
REMARK  0 active torsions:
REMARK  status: ('A' for Active; 'I' for Inactive)
ROOT
ATOM      1  C   UNL d   1       3.163   5.988   5.014  0.00  0.00     0.172 C 
ATOM      2  N   UNL d   1       1.721   5.956   4.934  0.00  0.00    -0.070 N 
ATOM      3  C1  UNL d   1       0.862   6.000   5.999  0.00  0.00    -0.004 A 
ATOM      4  C2  UNL d   1      -0.424   5.947   5.506  0.00  0.00    -0.047 A 
ATOM      5  C3  UNL d   1      -0.334   5.869   4.096  0.00  0.00    -0.047 A 
ATOM      6  C4  UNL d   1       1.005   5.876   3.769  0.00  0.00    -0.004 A 
ENDROOT
TORSDOF 0
ENDMDL
