MODEL 1
REMARK minimizedAffinity -2.3365407
REMARK minimizedRMSD -1
REMARK  0 active torsions:
REMARK  status: ('A' for Active; 'I' for Inactive)
ROOT
ATOM      1  C   UNL d   1       0.564   6.000   4.495  0.00  0.00     0.172 C 
ATOM      2  N   UNL d   1       1.820   5.390   4.866  0.00  0.00    -0.070 N 
ATOM      3  C1  UNL d   1       2.231   4.132   4.513  0.00  0.00    -0.004 A 
ATOM      4  C2  UNL d   1       3.479   3.927   5.061  0.00  0.00    -0.047 A 
ATOM      5  C3  UNL d   1       3.829   5.102   5.767  0.00  0.00    -0.047 A 
ATOM      6  C4  UNL d   1       2.784   5.991   5.630  0.00  0.00    -0.004 A 
ENDROOT
TORSDOF 0
ENDMDL
