MODEL 1
REMARK minimizedAffinity -1.76269805
REMARK minimizedRMSD -1
REMARK  0 active torsions:
REMARK  status: ('A' for Active; 'I' for Inactive)
ROOT
ATOM      1  C   UNL d   1       2.383   5.941   5.248  0.00  0.00     0.172 C 
ATOM      2  N   UNL d   1       0.965   5.755   5.051  0.00  0.00    -0.070 N 
ATOM      3  C1  UNL d   1       0.370   5.313   3.900  0.00  0.00    -0.004 A 
ATOM      4  C2  UNL d   1      -0.990   5.272   4.116  0.00  0.00    -0.047 A 
ATOM      5  C3  UNL d   1      -1.221   5.705   5.444  0.00  0.00    -0.047 A 
ATOM      6  C4  UNL d   1       0.006   5.997   6.000  0.00  0.00    -0.004 A 
ENDROOT
TORSDOF 0
ENDMDL
