MODEL 1
REMARK minimizedAffinity -3.43819451
REMARK minimizedRMSD -1
REMARK  1 active torsions:
REMARK  status: ('A' for Active; 'I' for Inactive)
REMARK    1  A    between atoms: C3_4  and  O_7 
ROOT
ATOM      1  C   UNL d   1      -4.549   0.140  -5.431  0.00  0.00    -0.033 A 
ATOM      2  C1  UNL d   1      -3.289  -0.420  -5.210  0.00  0.00     0.039 A 
ATOM      3  C2  UNL d   1      -2.977  -0.972  -3.966  0.00  0.00    -0.080 A 
ATOM      4  C3  UNL d   1      -3.931  -0.957  -2.953  0.00  0.00     0.150 A 
ATOM      5  C4  UNL d   1      -5.190  -0.404  -3.167  0.00  0.00    -0.007 A 
ATOM      6  C5  UNL d   1      -5.500   0.147  -4.410  0.00  0.00     0.039 A 
ENDROOT
BRANCH   4   7
ATOM      7  O   UNL d   1      -3.671  -1.479  -1.721  0.00  0.00    -0.526 OA
ATOM      8  H5  UNL d   1      -2.754  -1.800  -1.710  0.00  0.00     0.418 HD
ENDBRANCH   4   7
TORSDOF 1
ENDMDL
