MODEL 1
REMARK minimizedAffinity -0.405772924
REMARK minimizedRMSD -1
REMARK  1 active torsions:
REMARK  status: ('A' for Active; 'I' for Inactive)
REMARK    1  A    between atoms: C3_4  and  O_7 
ROOT
ATOM      1  C   UNL d   1      -4.156   0.346  -5.351  0.00  0.00    -0.033 A 
ATOM      2  C1  UNL d   1      -5.140   0.460  -4.367  0.00  0.00     0.039 A 
ATOM      3  C2  UNL d   1      -5.023  -0.254  -3.174  0.00  0.00    -0.080 A 
ATOM      4  C3  UNL d   1      -3.918  -1.077  -2.976  0.00  0.00     0.150 A 
ATOM      5  C4  UNL d   1      -2.932  -1.193  -3.950  0.00  0.00    -0.007 A 
ATOM      6  C5  UNL d   1      -3.051  -0.479  -5.142  0.00  0.00     0.039 A 
ENDROOT
BRANCH   4   7
ATOM      7  O   UNL d   1      -3.762  -1.798  -1.829  0.00  0.00    -0.526 OA
ATOM      8  H5  UNL d   1      -4.534  -1.641  -1.260  0.00  0.00     0.418 HD
ENDBRANCH   4   7
TORSDOF 1
ENDMDL
