MODEL 1
REMARK minimizedAffinity -3.50841904
REMARK minimizedRMSD -1
REMARK  1 active torsions:
REMARK  status: ('A' for Active; 'I' for Inactive)
REMARK    1  A    between atoms: C3_4  and  O_7 
ROOT
ATOM      1  C   UNL d   1      -4.232   0.491  -5.877  0.00  0.00    -0.033 A 
ATOM      2  C1  UNL d   1      -5.409   0.139  -5.214  0.00  0.00     0.039 A 
ATOM      3  C2  UNL d   1      -5.373  -0.784  -4.167  0.00  0.00    -0.080 A 
ATOM      4  C3  UNL d   1      -4.156  -1.345  -3.792  0.00  0.00     0.150 A 
ATOM      5  C4  UNL d   1      -2.979  -0.995  -4.445  0.00  0.00    -0.007 A 
ATOM      6  C5  UNL d   1      -3.016  -0.075  -5.491  0.00  0.00     0.039 A 
ENDROOT
BRANCH   4   7
ATOM      7  O   UNL d   1      -4.072  -2.253  -2.778  0.00  0.00    -0.526 OA
ATOM      8  H5  UNL d   1      -4.967  -2.420  -2.439  0.00  0.00     0.418 HD
ENDBRANCH   4   7
TORSDOF 1
ENDMDL
