MODEL 1
REMARK minimizedAffinity -1.52196288
REMARK minimizedRMSD -1
REMARK  1 active torsions:
REMARK  status: ('A' for Active; 'I' for Inactive)
REMARK    1  A    between atoms: C3_4  and  O_7 
ROOT
ATOM      1  C   UNL d   1      -4.459   1.130  -5.960  0.00  0.00    -0.033 A 
ATOM      2  C1  UNL d   1      -5.237   0.455  -5.017  0.00  0.00     0.039 A 
ATOM      3  C2  UNL d   1      -4.634  -0.421  -4.111  0.00  0.00    -0.080 A 
ATOM      4  C3  UNL d   1      -3.256  -0.612  -4.158  0.00  0.00     0.150 A 
ATOM      5  C4  UNL d   1      -2.475   0.061  -5.093  0.00  0.00    -0.007 A 
ATOM      6  C5  UNL d   1      -3.078   0.934  -5.997  0.00  0.00     0.039 A 
ENDROOT
BRANCH   4   7
ATOM      7  O   UNL d   1      -2.624  -1.460  -3.298  0.00  0.00    -0.526 OA
ATOM      8  H5  UNL d   1      -3.293  -1.876  -2.729  0.00  0.00     0.418 HD
ENDBRANCH   4   7
TORSDOF 1
ENDMDL
