MODEL 1
REMARK minimizedAffinity -0.665081024
REMARK minimizedRMSD -1
REMARK  1 active torsions:
REMARK  status: ('A' for Active; 'I' for Inactive)
REMARK    1  A    between atoms: C3_4  and  O_7 
ROOT
ATOM      1  C   UNL d   1      -5.230   1.002  -4.895  0.00  0.00    -0.033 A 
ATOM      2  C1  UNL d   1      -5.279  -0.001  -5.865  0.00  0.00     0.039 A 
ATOM      3  C2  UNL d   1      -4.217  -0.898  -6.000  0.00  0.00    -0.080 A 
ATOM      4  C3  UNL d   1      -3.115  -0.782  -5.158  0.00  0.00     0.150 A 
ATOM      5  C4  UNL d   1      -3.061   0.212  -4.187  0.00  0.00    -0.007 A 
ATOM      6  C5  UNL d   1      -4.121   1.107  -4.055  0.00  0.00     0.039 A 
ENDROOT
BRANCH   4   7
ATOM      7  O   UNL d   1      -2.052  -1.631  -5.254  0.00  0.00    -0.526 OA
ATOM      8  H5  UNL d   1      -2.216  -2.248  -5.987  0.00  0.00     0.418 HD
ENDBRANCH   4   7
TORSDOF 1
ENDMDL
