MODEL 1
REMARK minimizedAffinity -1.66361594
REMARK minimizedRMSD -1
REMARK  1 active torsions:
REMARK  status: ('A' for Active; 'I' for Inactive)
REMARK    1  A    between atoms: C3_4  and  O_7 
ROOT
ATOM      1  C   UNL d   1       5.149   1.149   0.181  0.00  0.00    -0.033 A 
ATOM      2  C1  UNL d   1       5.676  -0.141   0.268  0.00  0.00     0.039 A 
ATOM      3  C2  UNL d   1       4.826  -1.248   0.233  0.00  0.00    -0.080 A 
ATOM      4  C3  UNL d   1       3.453  -1.052   0.110  0.00  0.00     0.150 A 
ATOM      5  C4  UNL d   1       2.921   0.231   0.019  0.00  0.00    -0.007 A 
ATOM      6  C5  UNL d   1       3.772   1.335   0.055  0.00  0.00     0.039 A 
ENDROOT
BRANCH   4   7
ATOM      7  O   UNL d   1       2.583  -2.101   0.076  0.00  0.00    -0.526 OA
ATOM      8  H5  UNL d   1       3.090  -2.924   0.177  0.00  0.00     0.418 HD
ENDBRANCH   4   7
TORSDOF 1
ENDMDL
