MODEL 1
REMARK minimizedAffinity -2.77626777
REMARK minimizedRMSD -1
REMARK  1 active torsions:
REMARK  status: ('A' for Active; 'I' for Inactive)
REMARK    1  A    between atoms: C3_4  and  O_7 
ROOT
ATOM      1  C   UNL d   1      -4.378  -0.656  -4.292  0.00  0.00    -0.033 A 
ATOM      2  C1  UNL d   1      -4.047  -0.557  -2.939  0.00  0.00     0.039 A 
ATOM      3  C2  UNL d   1      -3.654   0.671  -2.403  0.00  0.00    -0.080 A 
ATOM      4  C3  UNL d   1      -3.597   1.791  -3.229  0.00  0.00     0.150 A 
ATOM      5  C4  UNL d   1      -3.930   1.700  -4.576  0.00  0.00    -0.007 A 
ATOM      6  C5  UNL d   1      -4.320   0.472  -5.110  0.00  0.00     0.039 A 
ENDROOT
BRANCH   4   7
ATOM      7  O   UNL d   1      -3.215   3.009  -2.752  0.00  0.00    -0.526 OA
ATOM      8  H5  UNL d   1      -2.988   2.914  -1.812  0.00  0.00     0.418 HD
ENDBRANCH   4   7
TORSDOF 1
ENDMDL
