MODEL 1
REMARK minimizedAffinity -3.7541337
REMARK minimizedRMSD -1
REMARK  1 active torsions:
REMARK  status: ('A' for Active; 'I' for Inactive)
REMARK    1  A    between atoms: C3_4  and  O_7 
ROOT
ATOM      1  C   UNL d   1      -5.014   0.798  -5.697  0.00  0.00    -0.033 A 
ATOM      2  C1  UNL d   1      -3.655   0.508  -5.834  0.00  0.00     0.039 A 
ATOM      3  C2  UNL d   1      -3.014  -0.300  -4.893  0.00  0.00    -0.080 A 
ATOM      4  C3  UNL d   1      -3.742  -0.812  -3.822  0.00  0.00     0.150 A 
ATOM      5  C4  UNL d   1      -5.096  -0.530  -3.681  0.00  0.00    -0.007 A 
ATOM      6  C5  UNL d   1      -5.735   0.278  -4.621  0.00  0.00     0.039 A 
ENDROOT
BRANCH   4   7
ATOM      7  O   UNL d   1      -3.158  -1.601  -2.876  0.00  0.00    -0.526 OA
ATOM      8  H5  UNL d   1      -2.213  -1.687  -3.087  0.00  0.00     0.418 HD
ENDBRANCH   4   7
TORSDOF 1
ENDMDL
