MODEL 1
REMARK minimizedAffinity 1.10281575
REMARK minimizedRMSD -1
REMARK  1 active torsions:
REMARK  status: ('A' for Active; 'I' for Inactive)
REMARK    1  A    between atoms: C3_4  and  O_7 
ROOT
ATOM      1  C   UNL d   1       5.175  -3.957   5.984  0.00  0.00    -0.033 A 
ATOM      2  C1  UNL d   1       4.362  -4.995   5.527  0.00  0.00     0.039 A 
ATOM      3  C2  UNL d   1       4.311  -5.296   4.164  0.00  0.00    -0.080 A 
ATOM      4  C3  UNL d   1       5.078  -4.553   3.271  0.00  0.00     0.150 A 
ATOM      5  C4  UNL d   1       5.894  -3.520   3.721  0.00  0.00    -0.007 A 
ATOM      6  C5  UNL d   1       5.943  -3.221   5.082  0.00  0.00     0.039 A 
ENDROOT
BRANCH   4   7
ATOM      7  O   UNL d   1       5.057  -4.806   1.932  0.00  0.00    -0.526 OA
ATOM      8  H5  UNL d   1       4.428  -5.527   1.765  0.00  0.00     0.418 HD
ENDBRANCH   4   7
TORSDOF 1
ENDMDL
