MODEL 1
REMARK minimizedAffinity 3.6978507
REMARK minimizedRMSD -1
REMARK  0 active torsions:
REMARK  status: ('A' for Active; 'I' for Inactive)
ROOT
ATOM      1  C   UNL d   1      -2.529  -3.870  -3.208  0.00  0.00     0.124 A 
ATOM      2  C1  UNL d   1      -2.250  -4.166  -1.881  0.00  0.00     0.062 A 
ATOM      3  C2  UNL d   1      -1.837  -3.162  -1.011  0.00  0.00     0.162 A 
ATOM      4  C3  UNL d   1      -1.701  -1.850  -1.465  0.00  0.00    -0.034 A 
ATOM      5  C4  UNL d   1      -1.982  -1.559  -2.801  0.00  0.00     0.162 A 
ATOM      6  C5  UNL d   1      -2.395  -2.567  -3.667  0.00  0.00     0.062 A 
ATOM      7  F   UNL d   1      -2.664  -2.278  -4.948  0.00  0.00    -0.097 F 
ATOM      8  F1  UNL d   1      -1.862  -0.309  -3.271  0.00  0.00    -0.096 F 
ATOM      9  I   UNL d   1      -1.084  -0.344  -0.167  0.00  0.00    -0.060 I 
ATOM     10  F2  UNL d   1      -1.574  -3.477   0.266  0.00  0.00    -0.096 F 
ATOM     11  F3  UNL d   1      -2.378  -5.425  -1.436  0.00  0.00    -0.097 F 
ATOM     12  F4  UNL d   1      -2.925  -4.839  -4.043  0.00  0.00    -0.092 F 
ENDROOT
TORSDOF 0
ENDMDL
