MODEL 1
REMARK minimizedAffinity 3.16664433
REMARK minimizedRMSD -1
REMARK  0 active torsions:
REMARK  status: ('A' for Active; 'I' for Inactive)
ROOT
ATOM      1  C   UNL d   1      -2.645  -3.242  -2.466  0.00  0.00     0.124 A 
ATOM      2  C1  UNL d   1      -1.926  -3.063  -1.292  0.00  0.00     0.062 A 
ATOM      3  C2  UNL d   1      -1.284  -1.854  -1.041  0.00  0.00     0.162 A 
ATOM      4  C3  UNL d   1      -1.358  -0.813  -1.966  0.00  0.00    -0.034 A 
ATOM      5  C4  UNL d   1      -2.082  -1.000  -3.145  0.00  0.00     0.162 A 
ATOM      6  C5  UNL d   1      -2.722  -2.210  -3.391  0.00  0.00     0.062 A 
ATOM      7  F   UNL d   1      -3.415  -2.381  -4.526  0.00  0.00    -0.097 F 
ATOM      8  F1  UNL d   1      -2.173  -0.020  -4.056  0.00  0.00    -0.096 F 
ATOM      9  I   UNL d   1      -0.399   0.997  -1.596  0.00  0.00    -0.060 I 
ATOM     10  F2  UNL d   1      -0.597  -1.709   0.102  0.00  0.00    -0.096 F 
ATOM     11  F3  UNL d   1      -1.849  -4.058  -0.396  0.00  0.00    -0.097 F 
ATOM     12  F4  UNL d   1      -3.261  -4.406  -2.705  0.00  0.00    -0.092 F 
ENDROOT
TORSDOF 0
ENDMDL
