MODEL 1
REMARK minimizedAffinity -2.83027935
REMARK minimizedRMSD -1
REMARK  0 active torsions:
REMARK  status: ('A' for Active; 'I' for Inactive)
ROOT
ATOM      1  C   UNL d   1      -4.228   2.511   2.455  0.00  0.00     0.124 A 
ATOM      2  C1  UNL d   1      -4.485   3.837   2.135  0.00  0.00     0.062 A 
ATOM      3  C2  UNL d   1      -4.920   4.723   3.116  0.00  0.00     0.162 A 
ATOM      4  C3  UNL d   1      -5.099   4.286   4.429  0.00  0.00    -0.034 A 
ATOM      5  C4  UNL d   1      -4.840   2.951   4.744  0.00  0.00     0.162 A 
ATOM      6  C5  UNL d   1      -4.405   2.069   3.759  0.00  0.00     0.062 A 
ATOM      7  F   UNL d   1      -4.158   0.789   4.071  0.00  0.00    -0.097 F 
ATOM      8  F1  UNL d   1      -5.002   2.498   5.996  0.00  0.00    -0.096 F 
ATOM      9  I   UNL d   1      -5.749   5.608   5.899  0.00  0.00    -0.060 I 
ATOM     10  F2  UNL d   1      -5.161   5.998   2.778  0.00  0.00    -0.096 F 
ATOM     11  F3  UNL d   1      -4.316   4.265   0.876  0.00  0.00    -0.097 F 
ATOM     12  F4  UNL d   1      -3.811   1.660   1.509  0.00  0.00    -0.092 F 
ENDROOT
TORSDOF 0
ENDMDL
