MODEL 1
REMARK minimizedAffinity 5.93166542
REMARK minimizedRMSD -1
REMARK  0 active torsions:
REMARK  status: ('A' for Active; 'I' for Inactive)
ROOT
ATOM      1  C   UNL d   1      -0.326  -0.192   0.789  0.00  0.00     0.124 A 
ATOM      2  C1  UNL d   1       0.063   0.163   2.074  0.00  0.00     0.062 A 
ATOM      3  C2  UNL d   1      -0.874   0.209   3.101  0.00  0.00     0.162 A 
ATOM      4  C3  UNL d   1      -2.211  -0.101   2.850  0.00  0.00    -0.034 A 
ATOM      5  C4  UNL d   1      -2.595  -0.456   1.555  0.00  0.00     0.162 A 
ATOM      6  C5  UNL d   1      -1.654  -0.501   0.531  0.00  0.00     0.062 A 
ATOM      7  F   UNL d   1      -2.032  -0.844  -0.709  0.00  0.00    -0.097 F 
ATOM      8  F1  UNL d   1      -3.872  -0.761   1.278  0.00  0.00    -0.096 F 
ATOM      9  I   UNL d   1      -3.616  -0.033   4.384  0.00  0.00    -0.060 I 
ATOM     10  F2  UNL d   1      -0.470   0.555   4.333  0.00  0.00    -0.096 F 
ATOM     11  F3  UNL d   1       1.345   0.463   2.325  0.00  0.00    -0.097 F 
ATOM     12  F4  UNL d   1       0.578  -0.234  -0.198  0.00  0.00    -0.092 F 
ENDROOT
TORSDOF 0
ENDMDL
