MODEL 1
REMARK minimizedAffinity 6.15803862
REMARK minimizedRMSD -1
REMARK  0 active torsions:
REMARK  status: ('A' for Active; 'I' for Inactive)
ROOT
ATOM      1  C   UNL d   1       0.898  -0.198  -1.240  0.00  0.00     0.124 A 
ATOM      2  C1  UNL d   1       2.048  -0.712  -1.823  0.00  0.00     0.062 A 
ATOM      3  C2  UNL d   1       2.287  -0.527  -3.181  0.00  0.00     0.162 A 
ATOM      4  C3  UNL d   1       1.374   0.176  -3.967  0.00  0.00    -0.034 A 
ATOM      5  C4  UNL d   1       0.219   0.689  -3.374  0.00  0.00     0.162 A 
ATOM      6  C5  UNL d   1      -0.015   0.502  -2.016  0.00  0.00     0.062 A 
ATOM      7  F   UNL d   1      -1.127   0.999  -1.454  0.00  0.00    -0.097 F 
ATOM      8  F1  UNL d   1      -0.680   1.370  -4.100  0.00  0.00    -0.096 F 
ATOM      9  I   UNL d   1       1.727   0.455  -5.999  0.00  0.00    -0.060 I 
ATOM     10  F2  UNL d   1       3.407  -1.034  -3.718  0.00  0.00    -0.096 F 
ATOM     11  F3  UNL d   1       2.932  -1.389  -1.075  0.00  0.00    -0.097 F 
ATOM     12  F4  UNL d   1       0.671  -0.378   0.068  0.00  0.00    -0.092 F 
ENDROOT
TORSDOF 0
ENDMDL
