MODEL 1
REMARK minimizedAffinity 4.56707001
REMARK minimizedRMSD -1
REMARK  0 active torsions:
REMARK  status: ('A' for Active; 'I' for Inactive)
ROOT
ATOM      1  C   UNL d   1      -1.330  -0.223   0.600  0.00  0.00     0.124 A 
ATOM      2  C1  UNL d   1      -1.294  -0.127  -0.785  0.00  0.00     0.062 A 
ATOM      3  C2  UNL d   1      -0.074  -0.131  -1.455  0.00  0.00     0.162 A 
ATOM      4  C3  UNL d   1       1.120  -0.233  -0.743  0.00  0.00    -0.034 A 
ATOM      5  C4  UNL d   1       1.076  -0.328   0.650  0.00  0.00     0.162 A 
ATOM      6  C5  UNL d   1      -0.145  -0.323   1.315  0.00  0.00     0.062 A 
ATOM      7  F   UNL d   1      -0.178  -0.416   2.653  0.00  0.00    -0.097 F 
ATOM      8  F1  UNL d   1       2.206  -0.427   1.366  0.00  0.00    -0.096 F 
ATOM      9  I   UNL d   1       2.946  -0.239  -1.742  0.00  0.00    -0.060 I 
ATOM     10  F2  UNL d   1      -0.070  -0.037  -2.793  0.00  0.00    -0.096 F 
ATOM     11  F3  UNL d   1      -2.437  -0.029  -1.478  0.00  0.00    -0.097 F 
ATOM     12  F4  UNL d   1      -2.505  -0.218   1.242  0.00  0.00    -0.092 F 
ENDROOT
TORSDOF 0
ENDMDL
