MODEL 1
REMARK minimizedAffinity 13.4957628
REMARK minimizedRMSD -1
REMARK  0 active torsions:
REMARK  status: ('A' for Active; 'I' for Inactive)
ROOT
ATOM      1  C   UNL d   1       2.912  -0.932  -4.000  0.00  0.00     0.124 A 
ATOM      2  C1  UNL d   1       1.787  -0.246  -4.438  0.00  0.00     0.062 A 
ATOM      3  C2  UNL d   1       0.843   0.207  -3.521  0.00  0.00     0.162 A 
ATOM      4  C3  UNL d   1       1.020  -0.023  -2.157  0.00  0.00    -0.034 A 
ATOM      5  C4  UNL d   1       2.153  -0.714  -1.724  0.00  0.00     0.162 A 
ATOM      6  C5  UNL d   1       3.094  -1.165  -2.644  0.00  0.00     0.062 A 
ATOM      7  F   UNL d   1       4.179  -1.828  -2.220  0.00  0.00    -0.097 F 
ATOM      8  F1  UNL d   1       2.354  -0.952  -0.420  0.00  0.00    -0.096 F 
ATOM      9  I   UNL d   1      -0.389   0.654  -0.783  0.00  0.00    -0.060 I 
ATOM     10  F2  UNL d   1      -0.233   0.868  -3.972  0.00  0.00    -0.096 F 
ATOM     11  F3  UNL d   1       1.609  -0.020  -5.747  0.00  0.00    -0.097 F 
ATOM     12  F4  UNL d   1       3.818  -1.369  -4.884  0.00  0.00    -0.092 F 
ENDROOT
TORSDOF 0
ENDMDL
