MODEL 1
REMARK minimizedAffinity 18.9972553
REMARK minimizedRMSD -1
REMARK  0 active torsions:
REMARK  status: ('A' for Active; 'I' for Inactive)
ROOT
ATOM      1  C   UNL d   1      -0.896  -0.272  -0.723  0.00  0.00     0.124 A 
ATOM      2  C1  UNL d   1       0.343  -0.398  -0.110  0.00  0.00     0.062 A 
ATOM      3  C2  UNL d   1       0.447  -0.335   1.276  0.00  0.00     0.162 A 
ATOM      4  C3  UNL d   1      -0.691  -0.146   2.060  0.00  0.00    -0.034 A 
ATOM      5  C4  UNL d   1      -1.934  -0.020   1.437  0.00  0.00     0.162 A 
ATOM      6  C5  UNL d   1      -2.033  -0.083   0.050  0.00  0.00     0.062 A 
ATOM      7  F   UNL d   1      -3.231   0.039  -0.540  0.00  0.00    -0.097 F 
ATOM      8  F1  UNL d   1      -3.048   0.163   2.160  0.00  0.00    -0.096 F 
ATOM      9  I   UNL d   1      -0.539  -0.052   4.134  0.00  0.00    -0.060 I 
ATOM     10  F2  UNL d   1       1.657  -0.460   1.842  0.00  0.00    -0.096 F 
ATOM     11  F3  UNL d   1       1.442  -0.579  -0.855  0.00  0.00    -0.097 F 
ATOM     12  F4  UNL d   1      -0.994  -0.331  -2.057  0.00  0.00    -0.092 F 
ENDROOT
TORSDOF 0
ENDMDL
