MODEL 1
REMARK minimizedAffinity 14.8503227
REMARK minimizedRMSD -1
REMARK  0 active torsions:
REMARK  status: ('A' for Active; 'I' for Inactive)
ROOT
ATOM      1  C   UNL d   1       2.337   2.765   3.533  0.00  0.00     0.124 A 
ATOM      2  C1  UNL d   1       2.699   3.320   2.313  0.00  0.00     0.062 A 
ATOM      3  C2  UNL d   1       2.222   2.773   1.126  0.00  0.00     0.162 A 
ATOM      4  C3  UNL d   1       1.375   1.665   1.152  0.00  0.00    -0.034 A 
ATOM      5  C4  UNL d   1       1.015   1.112   2.382  0.00  0.00     0.162 A 
ATOM      6  C5  UNL d   1       1.496   1.662   3.566  0.00  0.00     0.062 A 
ATOM      7  F   UNL d   1       1.144   1.125   4.744  0.00  0.00    -0.097 F 
ATOM      8  F1  UNL d   1       0.203   0.046   2.444  0.00  0.00    -0.096 F 
ATOM      9  I   UNL d   1       0.658   0.844  -0.621  0.00  0.00    -0.060 I 
ATOM     10  F2  UNL d   1       2.588   3.329  -0.038  0.00  0.00    -0.096 F 
ATOM     11  F3  UNL d   1       3.513   4.385   2.278  0.00  0.00    -0.097 F 
ATOM     12  F4  UNL d   1       2.799   3.293   4.674  0.00  0.00    -0.092 F 
ENDROOT
TORSDOF 0
ENDMDL
