MODEL 1
REMARK minimizedAffinity 3.0819664
REMARK minimizedRMSD -1
REMARK  0 active torsions:
REMARK  status: ('A' for Active; 'I' for Inactive)
ROOT
ATOM      1  C   UNL d   1      -2.246  -2.210  -1.441  0.00  0.00     0.124 A 
ATOM      2  C1  UNL d   1      -1.997  -1.169  -2.325  0.00  0.00     0.062 A 
ATOM      3  C2  UNL d   1      -0.951  -0.282  -2.085  0.00  0.00     0.162 A 
ATOM      4  C3  UNL d   1      -0.145  -0.434  -0.957  0.00  0.00    -0.034 A 
ATOM      5  C4  UNL d   1      -0.402  -1.483  -0.072  0.00  0.00     0.162 A 
ATOM      6  C5  UNL d   1      -1.448  -2.366  -0.317  0.00  0.00     0.062 A 
ATOM      7  F   UNL d   1      -1.687  -3.372   0.538  0.00  0.00    -0.097 F 
ATOM      8  F1  UNL d   1       0.354  -1.658   1.022  0.00  0.00    -0.096 F 
ATOM      9  I   UNL d   1       1.420   0.890  -0.594  0.00  0.00    -0.060 I 
ATOM     10  F2  UNL d   1      -0.734   0.715  -2.955  0.00  0.00    -0.096 F 
ATOM     11  F3  UNL d   1      -2.767  -1.015  -3.412  0.00  0.00    -0.097 F 
ATOM     12  F4  UNL d   1      -3.253  -3.061  -1.674  0.00  0.00    -0.092 F 
ENDROOT
TORSDOF 0
ENDMDL
