MODEL 1
REMARK minimizedAffinity 1.99691153
REMARK minimizedRMSD -1
REMARK  0 active torsions:
REMARK  status: ('A' for Active; 'I' for Inactive)
ROOT
ATOM      1  C   UNL d   1      -2.058  -1.967  -1.837  0.00  0.00     0.124 A 
ATOM      2  C1  UNL d   1      -2.145  -3.133  -2.585  0.00  0.00     0.062 A 
ATOM      3  C2  UNL d   1      -2.689  -4.286  -2.025  0.00  0.00     0.162 A 
ATOM      4  C3  UNL d   1      -3.151  -4.278  -0.709  0.00  0.00    -0.034 A 
ATOM      5  C4  UNL d   1      -3.059  -3.102   0.038  0.00  0.00     0.162 A 
ATOM      6  C5  UNL d   1      -2.515  -1.952  -0.527  0.00  0.00     0.062 A 
ATOM      7  F   UNL d   1      -2.432  -0.827   0.197  0.00  0.00    -0.097 F 
ATOM      8  F1  UNL d   1      -3.494  -3.059   1.306  0.00  0.00    -0.096 F 
ATOM      9  I   UNL d   1      -3.964  -5.999   0.133  0.00  0.00    -0.060 I 
ATOM     10  F2  UNL d   1      -2.760  -5.398  -2.771  0.00  0.00    -0.096 F 
ATOM     11  F3  UNL d   1      -1.704  -3.151  -3.851  0.00  0.00    -0.097 F 
ATOM     12  F4  UNL d   1      -1.534  -0.860  -2.379  0.00  0.00    -0.092 F 
ENDROOT
TORSDOF 0
ENDMDL
