MODEL 1
REMARK minimizedAffinity -4.96810675
REMARK minimizedRMSD -1
REMARK  0 active torsions:
REMARK  status: ('A' for Active; 'I' for Inactive)
ROOT
ATOM      1  C   UNL d   1      -5.053  -4.149   1.199  0.00  0.00     0.124 A 
ATOM      2  C1  UNL d   1      -4.438  -4.459  -0.006  0.00  0.00     0.062 A 
ATOM      3  C2  UNL d   1      -3.455  -3.622  -0.526  0.00  0.00     0.162 A 
ATOM      4  C3  UNL d   1      -3.080  -2.467   0.159  0.00  0.00    -0.034 A 
ATOM      5  C4  UNL d   1      -3.703  -2.161   1.371  0.00  0.00     0.162 A 
ATOM      6  C5  UNL d   1      -4.685  -3.001   1.886  0.00  0.00     0.062 A 
ATOM      7  F   UNL d   1      -5.278  -2.700   3.051  0.00  0.00    -0.097 F 
ATOM      8  F1  UNL d   1      -3.367  -1.059   2.056  0.00  0.00    -0.096 F 
ATOM      9  I   UNL d   1      -1.611  -1.213  -0.615  0.00  0.00    -0.060 I 
ATOM     10  F2  UNL d   1      -2.878  -3.947  -1.693  0.00  0.00    -0.096 F 
ATOM     11  F3  UNL d   1      -4.793  -5.568  -0.672  0.00  0.00    -0.097 F 
ATOM     12  F4  UNL d   1      -5.999  -4.956   1.697  0.00  0.00    -0.092 F 
ENDROOT
TORSDOF 0
ENDMDL
