MODEL 1
REMARK minimizedAffinity 16.9283428
REMARK minimizedRMSD -1
REMARK  0 active torsions:
REMARK  status: ('A' for Active; 'I' for Inactive)
ROOT
ATOM      1  C   UNL d   1      -2.580  -1.885  -3.119  0.00  0.00     0.124 A 
ATOM      2  C1  UNL d   1      -2.271  -0.556  -2.864  0.00  0.00     0.062 A 
ATOM      3  C2  UNL d   1      -1.697  -0.191  -1.650  0.00  0.00     0.162 A 
ATOM      4  C3  UNL d   1      -1.426  -1.157  -0.681  0.00  0.00    -0.034 A 
ATOM      5  C4  UNL d   1      -1.740  -2.492  -0.944  0.00  0.00     0.162 A 
ATOM      6  C5  UNL d   1      -2.314  -2.851  -2.159  0.00  0.00     0.062 A 
ATOM      7  F   UNL d   1      -2.612  -4.136  -2.404  0.00  0.00    -0.097 F 
ATOM      8  F1  UNL d   1      -1.494  -3.446  -0.035  0.00  0.00    -0.096 F 
ATOM      9  I   UNL d   1      -0.568  -0.616   1.136  0.00  0.00    -0.060 I 
ATOM     10  F2  UNL d   1      -1.409   1.101  -1.430  0.00  0.00    -0.096 F 
ATOM     11  F3  UNL d   1      -2.527   0.380  -3.789  0.00  0.00    -0.097 F 
ATOM     12  F4  UNL d   1      -3.133  -2.233  -4.288  0.00  0.00    -0.092 F 
ENDROOT
TORSDOF 0
ENDMDL
