MODEL 1
REMARK minimizedAffinity 1.41191077
REMARK minimizedRMSD -1
REMARK  0 active torsions:
REMARK  status: ('A' for Active; 'I' for Inactive)
ROOT
ATOM      1  C   UNL d   1      -3.828   1.282   3.663  0.00  0.00     0.124 A 
ATOM      2  C1  UNL d   1      -3.919   1.990   2.473  0.00  0.00     0.062 A 
ATOM      3  C2  UNL d   1      -4.449   3.277   2.464  0.00  0.00     0.162 A 
ATOM      4  C3  UNL d   1      -4.893   3.864   3.649  0.00  0.00    -0.034 A 
ATOM      5  C4  UNL d   1      -4.799   3.145   4.841  0.00  0.00     0.162 A 
ATOM      6  C5  UNL d   1      -4.268   1.859   4.846  0.00  0.00     0.062 A 
ATOM      7  F   UNL d   1      -4.181   1.176   5.996  0.00  0.00    -0.097 F 
ATOM      8  F1  UNL d   1      -5.216   3.679   5.999  0.00  0.00    -0.096 F 
ATOM      9  I   UNL d   1      -5.687   5.788   3.638  0.00  0.00    -0.060 I 
ATOM     10  F2  UNL d   1      -4.525   3.939   1.299  0.00  0.00    -0.096 F 
ATOM     11  F3  UNL d   1      -3.495   1.434   1.329  0.00  0.00    -0.097 F 
ATOM     12  F4  UNL d   1      -3.318   0.043   3.669  0.00  0.00    -0.092 F 
ENDROOT
TORSDOF 0
ENDMDL
