MODEL 1
REMARK minimizedAffinity 13.5095396
REMARK minimizedRMSD -1
REMARK  0 active torsions:
REMARK  status: ('A' for Active; 'I' for Inactive)
ROOT
ATOM      1  C   UNL d   1       1.884   0.975   4.837  0.00  0.00     0.124 A 
ATOM      2  C1  UNL d   1       2.896   1.924   4.773  0.00  0.00     0.062 A 
ATOM      3  C2  UNL d   1       3.192   2.551   3.567  0.00  0.00     0.162 A 
ATOM      4  C3  UNL d   1       2.475   2.232   2.413  0.00  0.00    -0.034 A 
ATOM      5  C4  UNL d   1       1.460   1.276   2.485  0.00  0.00     0.162 A 
ATOM      6  C5  UNL d   1       1.168   0.653   3.694  0.00  0.00     0.062 A 
ATOM      7  F   UNL d   1       0.190  -0.264   3.754  0.00  0.00    -0.097 F 
ATOM      8  F1  UNL d   1       0.750   0.946   1.396  0.00  0.00    -0.096 F 
ATOM      9  I   UNL d   1       2.914   3.168   0.607  0.00  0.00    -0.060 I 
ATOM     10  F2  UNL d   1       4.174   3.464   3.534  0.00  0.00    -0.096 F 
ATOM     11  F3  UNL d   1       3.590   2.237   5.877  0.00  0.00    -0.097 F 
ATOM     12  F4  UNL d   1       1.602   0.373   6.000  0.00  0.00    -0.092 F 
ENDROOT
TORSDOF 0
ENDMDL
