MODEL 1
REMARK minimizedAffinity 18.3140869
REMARK minimizedRMSD -1
REMARK  0 active torsions:
REMARK  status: ('A' for Active; 'I' for Inactive)
ROOT
ATOM      1  C   UNL d   1      -2.634  -3.362  -3.626  0.00  0.00     0.124 A 
ATOM      2  C1  UNL d   1      -2.526  -3.494  -2.248  0.00  0.00     0.062 A 
ATOM      3  C2  UNL d   1      -1.867  -2.521  -1.502  0.00  0.00     0.162 A 
ATOM      4  C3  UNL d   1      -1.312  -1.407  -2.131  0.00  0.00    -0.034 A 
ATOM      5  C4  UNL d   1      -1.423  -1.282  -3.516  0.00  0.00     0.162 A 
ATOM      6  C5  UNL d   1      -2.083  -2.256  -4.258  0.00  0.00     0.062 A 
ATOM      7  F   UNL d   1      -2.186  -2.127  -5.589  0.00  0.00    -0.097 F 
ATOM      8  F1  UNL d   1      -0.901  -0.223  -4.153  0.00  0.00    -0.096 F 
ATOM      9  I   UNL d   1      -0.326   0.049  -1.017  0.00  0.00    -0.060 I 
ATOM     10  F2  UNL d   1      -1.778  -2.675  -0.172  0.00  0.00    -0.096 F 
ATOM     11  F3  UNL d   1      -3.056  -4.561  -1.635  0.00  0.00    -0.097 F 
ATOM     12  F4  UNL d   1      -3.267  -4.299  -4.342  0.00  0.00    -0.092 F 
ENDROOT
TORSDOF 0
ENDMDL
