MODEL 1
REMARK minimizedAffinity 3.36723924
REMARK minimizedRMSD -1
REMARK  2 active torsions:
REMARK  status: ('A' for Active; 'I' for Inactive)
REMARK    1  A    between atoms: C1_2  and  C2_3 
REMARK    2  A    between atoms: C2_3  and  C3_4 
ROOT
ATOM      1  C3  UNL d   1       5.416   2.073   5.394  0.00  0.00    -0.075 A 
ATOM      2  C4  UNL d   1       5.955   1.532   4.218  0.00  0.00     0.002 A 
ATOM      3  C5  UNL d   1       5.402   0.385   3.648  0.00  0.00     0.002 A 
ATOM      4  C6  UNL d   1       4.313  -0.241   4.250  0.00  0.00    -0.004 A 
ATOM      5  C7  UNL d   1       3.780   0.279   5.428  0.00  0.00     0.002 A 
ATOM      6  C8  UNL d   1       4.328   1.429   5.998  0.00  0.00     0.002 A 
ENDROOT
BRANCH   1   7
ATOM      7  C2  UNL d   1       5.991   3.331   6.000  0.00  0.00     0.056 C 
BRANCH   7   8
ATOM      8  C1  UNL d   1       5.026   4.521   6.000  0.00  0.00     0.007 C 
ATOM      9  C   UNL d   1       5.734   5.869   5.965  0.00  0.00     0.009 C 
ENDBRANCH   7   8
ENDBRANCH   1   7
TORSDOF 2
ENDMDL
