MODEL 1
REMARK minimizedAffinity 0.8104918
REMARK minimizedRMSD -1
REMARK  2 active torsions:
REMARK  status: ('A' for Active; 'I' for Inactive)
REMARK    1  A    between atoms: C1_2  and  C2_3 
REMARK    2  A    between atoms: C2_3  and  C3_4 
ROOT
ATOM      1  C3  UNL d   1      -1.019  -2.909   1.707  0.00  0.00    -0.075 A 
ATOM      2  C4  UNL d   1      -0.881  -4.106   0.989  0.00  0.00     0.002 A 
ATOM      3  C5  UNL d   1      -1.083  -4.132  -0.391  0.00  0.00     0.002 A 
ATOM      4  C6  UNL d   1      -1.434  -2.967  -1.069  0.00  0.00    -0.004 A 
ATOM      5  C7  UNL d   1      -1.590  -1.775  -0.364  0.00  0.00     0.002 A 
ATOM      6  C8  UNL d   1      -1.385  -1.745   1.016  0.00  0.00     0.002 A 
ENDROOT
BRANCH   1   7
ATOM      7  C2  UNL d   1      -0.774  -2.867   3.196  0.00  0.00     0.056 C 
BRANCH   7   8
ATOM      8  C1  UNL d   1      -1.549  -1.766   3.926  0.00  0.00     0.007 C 
ATOM      9  C   UNL d   1      -2.982  -2.160   4.259  0.00  0.00     0.009 C 
ENDBRANCH   7   8
ENDBRANCH   1   7
TORSDOF 2
ENDMDL
