MODEL 1
REMARK minimizedAffinity 12.4298563
REMARK minimizedRMSD -1
REMARK  2 active torsions:
REMARK  status: ('A' for Active; 'I' for Inactive)
REMARK    1  A    between atoms: C1_2  and  C2_3 
REMARK    2  A    between atoms: C2_3  and  C3_4 
ROOT
ATOM      1  C3  UNL d   1      -2.951  -1.537  -1.158  0.00  0.00    -0.075 A 
ATOM      2  C4  UNL d   1      -3.220  -0.921  -2.389  0.00  0.00     0.002 A 
ATOM      3  C5  UNL d   1      -2.603  -1.372  -3.556  0.00  0.00     0.002 A 
ATOM      4  C6  UNL d   1      -1.705  -2.435  -3.507  0.00  0.00    -0.004 A 
ATOM      5  C7  UNL d   1      -1.418  -3.045  -2.287  0.00  0.00     0.002 A 
ATOM      6  C8  UNL d   1      -2.037  -2.598  -1.118  0.00  0.00     0.002 A 
ENDROOT
BRANCH   1   7
ATOM      7  C2  UNL d   1      -3.638  -1.073   0.105  0.00  0.00     0.056 C 
BRANCH   7   8
ATOM      8  C1  UNL d   1      -4.509  -2.144   0.771  0.00  0.00     0.007 C 
ATOM      9  C   UNL d   1      -5.999  -1.840   0.692  0.00  0.00     0.009 C 
ENDBRANCH   7   8
ENDBRANCH   1   7
TORSDOF 2
ENDMDL
