MODEL 1
REMARK minimizedAffinity 19.2357006
REMARK minimizedRMSD -1
REMARK  2 active torsions:
REMARK  status: ('A' for Active; 'I' for Inactive)
REMARK    1  A    between atoms: C1_2  and  C2_3 
REMARK    2  A    between atoms: C2_3  and  C3_4 
ROOT
ATOM      1  C3  UNL d   1      -1.364  -2.403   2.109  0.00  0.00    -0.075 A 
ATOM      2  C4  UNL d   1      -2.118  -1.494   1.352  0.00  0.00     0.002 A 
ATOM      3  C5  UNL d   1      -2.102  -1.548  -0.042  0.00  0.00     0.002 A 
ATOM      4  C6  UNL d   1      -1.327  -2.503  -0.696  0.00  0.00    -0.004 A 
ATOM      5  C7  UNL d   1      -0.562  -3.401   0.045  0.00  0.00     0.002 A 
ATOM      6  C8  UNL d   1      -0.579  -3.351   1.440  0.00  0.00     0.002 A 
ENDROOT
BRANCH   1   7
ATOM      7  C2  UNL d   1      -1.400  -2.368   3.618  0.00  0.00     0.056 C 
BRANCH   7   8
ATOM      8  C1  UNL d   1      -2.599  -1.610   4.196  0.00  0.00     0.007 C 
ATOM      9  C   UNL d   1      -2.204  -0.549   5.215  0.00  0.00     0.009 C 
ENDBRANCH   7   8
ENDBRANCH   1   7
TORSDOF 2
ENDMDL
