MODEL 1
REMARK minimizedAffinity 12.5313845
REMARK minimizedRMSD -1
REMARK  2 active torsions:
REMARK  status: ('A' for Active; 'I' for Inactive)
REMARK    1  A    between atoms: C1_2  and  C2_3 
REMARK    2  A    between atoms: C2_3  and  C3_4 
ROOT
ATOM      1  C3  UNL d   1      -0.071  -1.160  -1.494  0.00  0.00    -0.075 A 
ATOM      2  C4  UNL d   1      -1.322  -1.172  -2.129  0.00  0.00     0.002 A 
ATOM      3  C5  UNL d   1      -2.490  -1.353  -1.389  0.00  0.00     0.002 A 
ATOM      4  C6  UNL d   1      -2.424  -1.535  -0.009  0.00  0.00    -0.004 A 
ATOM      5  C7  UNL d   1      -1.186  -1.541   0.630  0.00  0.00     0.002 A 
ATOM      6  C8  UNL d   1      -0.015  -1.355  -0.108  0.00  0.00     0.002 A 
ENDROOT
BRANCH   1   7
ATOM      7  C2  UNL d   1       1.195  -0.935  -2.286  0.00  0.00     0.056 C 
BRANCH   7   8
ATOM      8  C1  UNL d   1       2.270  -0.145  -1.531  0.00  0.00     0.007 C 
ATOM      9  C   UNL d   1       2.284   1.337  -1.884  0.00  0.00     0.009 C 
ENDBRANCH   7   8
ENDBRANCH   1   7
TORSDOF 2
ENDMDL
