MODEL 1
REMARK minimizedAffinity 8.31088924
REMARK minimizedRMSD -1
REMARK  2 active torsions:
REMARK  status: ('A' for Active; 'I' for Inactive)
REMARK    1  A    between atoms: C1_2  and  C2_3 
REMARK    2  A    between atoms: C2_3  and  C3_4 
ROOT
ATOM      1  C3  UNL d   1      -0.781  -0.686  -1.946  0.00  0.00    -0.075 A 
ATOM      2  C4  UNL d   1      -0.690  -1.500  -0.808  0.00  0.00     0.002 A 
ATOM      3  C5  UNL d   1      -1.843  -1.974  -0.181  0.00  0.00     0.002 A 
ATOM      4  C6  UNL d   1      -3.099  -1.632  -0.678  0.00  0.00    -0.004 A 
ATOM      5  C7  UNL d   1      -3.202  -0.811  -1.799  0.00  0.00     0.002 A 
ATOM      6  C8  UNL d   1      -2.049  -0.339  -2.430  0.00  0.00     0.002 A 
ENDROOT
BRANCH   1   7
ATOM      7  C2  UNL d   1       0.464  -0.195  -2.646  0.00  0.00     0.056 C 
BRANCH   7   8
ATOM      8  C1  UNL d   1       1.635   0.099  -1.702  0.00  0.00     0.007 C 
ATOM      9  C   UNL d   1       2.230   1.487  -1.899  0.00  0.00     0.009 C 
ENDBRANCH   7   8
ENDBRANCH   1   7
TORSDOF 2
ENDMDL
