MODEL 1
REMARK minimizedAffinity 19.2391357
REMARK minimizedRMSD -1
REMARK  2 active torsions:
REMARK  status: ('A' for Active; 'I' for Inactive)
REMARK    1  A    between atoms: C1_2  and  C2_3 
REMARK    2  A    between atoms: C2_3  and  C3_4 
ROOT
ATOM      1  C3  UNL d   1      -1.485  -3.549   4.159  0.00  0.00    -0.075 A 
ATOM      2  C4  UNL d   1      -0.886  -3.889   5.381  0.00  0.00     0.002 A 
ATOM      3  C5  UNL d   1      -1.177  -5.107   5.997  0.00  0.00     0.002 A 
ATOM      4  C6  UNL d   1      -2.075  -5.993   5.407  0.00  0.00    -0.004 A 
ATOM      5  C7  UNL d   1      -2.689  -5.658   4.202  0.00  0.00     0.002 A 
ATOM      6  C8  UNL d   1      -2.397  -4.442   3.580  0.00  0.00     0.002 A 
ENDROOT
BRANCH   1   7
ATOM      7  C2  UNL d   1      -1.153  -2.246   3.472  0.00  0.00     0.056 C 
BRANCH   7   8
ATOM      8  C1  UNL d   1      -2.319  -1.254   3.418  0.00  0.00     0.007 C 
ATOM      9  C   UNL d   1      -2.073   0.007   4.236  0.00  0.00     0.009 C 
ENDBRANCH   7   8
ENDBRANCH   1   7
TORSDOF 2
ENDMDL
