MODEL 1
REMARK minimizedAffinity 12.3642092
REMARK minimizedRMSD -1
REMARK  2 active torsions:
REMARK  status: ('A' for Active; 'I' for Inactive)
REMARK    1  A    between atoms: C1_2  and  C2_3 
REMARK    2  A    between atoms: C2_3  and  C3_4 
ROOT
ATOM      1  C3  UNL d   1      -4.095   3.803  -4.596  0.00  0.00    -0.075 A 
ATOM      2  C4  UNL d   1      -3.993   4.868  -3.689  0.00  0.00     0.002 A 
ATOM      3  C5  UNL d   1      -4.893   5.932  -3.742  0.00  0.00     0.002 A 
ATOM      4  C6  UNL d   1      -5.899   5.950  -4.706  0.00  0.00    -0.004 A 
ATOM      5  C7  UNL d   1      -6.000   4.905  -5.623  0.00  0.00     0.002 A 
ATOM      6  C8  UNL d   1      -5.103   3.837  -5.569  0.00  0.00     0.002 A 
ENDROOT
BRANCH   1   7
ATOM      7  C2  UNL d   1      -3.142   2.634  -4.525  0.00  0.00     0.056 C 
BRANCH   7   8
ATOM      8  C1  UNL d   1      -1.671   3.036  -4.379  0.00  0.00     0.007 C 
ATOM      9  C   UNL d   1      -0.802   2.570  -5.540  0.00  0.00     0.009 C 
ENDBRANCH   7   8
ENDBRANCH   1   7
TORSDOF 2
ENDMDL
