MODEL 1
REMARK minimizedAffinity 13.4159365
REMARK minimizedRMSD -1
REMARK  2 active torsions:
REMARK  status: ('A' for Active; 'I' for Inactive)
REMARK    1  A    between atoms: C1_2  and  C2_3 
REMARK    2  A    between atoms: C2_3  and  C3_4 
ROOT
ATOM      1  C3  UNL d   1      -4.295   4.785  -0.584  0.00  0.00    -0.075 A 
ATOM      2  C4  UNL d   1      -5.224   5.713  -0.090  0.00  0.00     0.002 A 
ATOM      3  C5  UNL d   1      -5.914   5.462   1.096  0.00  0.00     0.002 A 
ATOM      4  C6  UNL d   1      -5.692   4.279   1.797  0.00  0.00    -0.004 A 
ATOM      5  C7  UNL d   1      -4.784   3.343   1.307  0.00  0.00     0.002 A 
ATOM      6  C8  UNL d   1      -4.089   3.593   0.123  0.00  0.00     0.002 A 
ENDROOT
BRANCH   1   7
ATOM      7  C2  UNL d   1      -3.524   5.064  -1.852  0.00  0.00     0.056 C 
BRANCH   7   8
ATOM      8  C1  UNL d   1      -4.250   5.991  -2.833  0.00  0.00     0.007 C 
ATOM      9  C   UNL d   1      -3.951   5.673  -4.292  0.00  0.00     0.009 C 
ENDBRANCH   7   8
ENDBRANCH   1   7
TORSDOF 2
ENDMDL
