MODEL 1
REMARK minimizedAffinity 16.6202698
REMARK minimizedRMSD -1
REMARK  2 active torsions:
REMARK  status: ('A' for Active; 'I' for Inactive)
REMARK    1  A    between atoms: C1_2  and  C2_3 
REMARK    2  A    between atoms: C2_3  and  C3_4 
ROOT
ATOM      1  C3  UNL d   1      -2.575  -0.328  -2.833  0.00  0.00    -0.075 A 
ATOM      2  C4  UNL d   1      -3.301  -0.296  -1.634  0.00  0.00     0.002 A 
ATOM      3  C5  UNL d   1      -2.930  -1.104  -0.559  0.00  0.00     0.002 A 
ATOM      4  C6  UNL d   1      -1.838  -1.961  -0.672  0.00  0.00    -0.004 A 
ATOM      5  C7  UNL d   1      -1.120  -2.014  -1.865  0.00  0.00     0.002 A 
ATOM      6  C8  UNL d   1      -1.486  -1.203  -2.941  0.00  0.00     0.002 A 
ENDROOT
BRANCH   1   7
ATOM      7  C2  UNL d   1      -2.953   0.566  -3.990  0.00  0.00     0.056 C 
BRANCH   7   8
ATOM      8  C1  UNL d   1      -2.633   2.047  -3.764  0.00  0.00     0.007 C 
ATOM      9  C   UNL d   1      -1.392   2.514  -4.512  0.00  0.00     0.009 C 
ENDBRANCH   7   8
ENDBRANCH   1   7
TORSDOF 2
ENDMDL
