MODEL 1
REMARK minimizedAffinity 7.64785242
REMARK minimizedRMSD -1
REMARK  2 active torsions:
REMARK  status: ('A' for Active; 'I' for Inactive)
REMARK    1  A    between atoms: C1_2  and  C2_3 
REMARK    2  A    between atoms: C2_3  and  C3_4 
ROOT
ATOM      1  C3  UNL d   1       5.329   3.043  -1.388  0.00  0.00    -0.075 A 
ATOM      2  C4  UNL d   1       5.688   4.391  -1.236  0.00  0.00     0.002 A 
ATOM      3  C5  UNL d   1       5.084   5.178  -0.255  0.00  0.00     0.002 A 
ATOM      4  C6  UNL d   1       4.109   4.634   0.577  0.00  0.00    -0.004 A 
ATOM      5  C7  UNL d   1       3.733   3.301   0.424  0.00  0.00     0.002 A 
ATOM      6  C8  UNL d   1       4.339   2.509  -0.553  0.00  0.00     0.002 A 
ENDROOT
BRANCH   1   7
ATOM      7  C2  UNL d   1       6.000   2.177  -2.427  0.00  0.00     0.056 C 
BRANCH   7   8
ATOM      8  C1  UNL d   1       5.277   2.152  -3.778  0.00  0.00     0.007 C 
ATOM      9  C   UNL d   1       6.000   2.941  -4.861  0.00  0.00     0.009 C 
ENDBRANCH   7   8
ENDBRANCH   1   7
TORSDOF 2
ENDMDL
