MODEL 1
REMARK minimizedAffinity 11.2323351
REMARK minimizedRMSD -1
REMARK  2 active torsions:
REMARK  status: ('A' for Active; 'I' for Inactive)
REMARK    1  A    between atoms: C1_2  and  C2_3 
REMARK    2  A    between atoms: C2_3  and  C3_4 
ROOT
ATOM      1  C3  UNL d   1      -1.655  -2.425   2.161  0.00  0.00    -0.075 A 
ATOM      2  C4  UNL d   1      -1.030  -3.165   1.147  0.00  0.00     0.002 A 
ATOM      3  C5  UNL d   1      -1.346  -2.939  -0.193  0.00  0.00     0.002 A 
ATOM      4  C6  UNL d   1      -2.295  -1.978  -0.535  0.00  0.00    -0.004 A 
ATOM      5  C7  UNL d   1      -2.934  -1.248   0.464  0.00  0.00     0.002 A 
ATOM      6  C8  UNL d   1      -2.617  -1.470   1.806  0.00  0.00     0.002 A 
ENDROOT
BRANCH   1   7
ATOM      7  C2  UNL d   1      -1.297  -2.644   3.612  0.00  0.00     0.056 C 
BRANCH   7   8
ATOM      8  C1  UNL d   1      -2.166  -1.854   4.595  0.00  0.00     0.007 C 
ATOM      9  C   UNL d   1      -2.171  -2.443   5.999  0.00  0.00     0.009 C 
ENDBRANCH   7   8
ENDBRANCH   1   7
TORSDOF 2
ENDMDL
