MODEL 1
REMARK minimizedAffinity 13.1222868
REMARK minimizedRMSD -1
REMARK  2 active torsions:
REMARK  status: ('A' for Active; 'I' for Inactive)
REMARK    1  A    between atoms: C1_2  and  C2_3 
REMARK    2  A    between atoms: C2_3  and  C3_4 
ROOT
ATOM      1  C3  UNL d   1      -4.129   3.668  -4.856  0.00  0.00    -0.075 A 
ATOM      2  C4  UNL d   1      -3.792   4.625  -3.888  0.00  0.00     0.002 A 
ATOM      3  C5  UNL d   1      -4.559   5.781  -3.738  0.00  0.00     0.002 A 
ATOM      4  C6  UNL d   1      -5.664   5.999  -4.558  0.00  0.00    -0.004 A 
ATOM      5  C7  UNL d   1      -5.999   5.062  -5.533  0.00  0.00     0.002 A 
ATOM      6  C8  UNL d   1      -5.236   3.902  -5.683  0.00  0.00     0.002 A 
ENDROOT
BRANCH   1   7
ATOM      7  C2  UNL d   1      -3.321   2.401  -5.003  0.00  0.00     0.056 C 
BRANCH   7   8
ATOM      8  C1  UNL d   1      -2.099   2.329  -4.081  0.00  0.00     0.007 C 
ATOM      9  C   UNL d   1      -0.793   2.665  -4.788  0.00  0.00     0.009 C 
ENDBRANCH   7   8
ENDBRANCH   1   7
TORSDOF 2
ENDMDL
