MODEL 1
REMARK minimizedAffinity 7.00606394
REMARK minimizedRMSD -1
REMARK  2 active torsions:
REMARK  status: ('A' for Active; 'I' for Inactive)
REMARK    1  A    between atoms: C1_2  and  C2_3 
REMARK    2  A    between atoms: C2_3  and  C3_4 
ROOT
ATOM      1  C3  UNL d   1      -1.506  -2.507   2.883  0.00  0.00    -0.075 A 
ATOM      2  C4  UNL d   1      -0.486  -3.084   2.113  0.00  0.00     0.002 A 
ATOM      3  C5  UNL d   1      -0.600  -3.153   0.724  0.00  0.00     0.002 A 
ATOM      4  C6  UNL d   1      -1.736  -2.656   0.090  0.00  0.00    -0.004 A 
ATOM      5  C7  UNL d   1      -2.763  -2.095   0.846  0.00  0.00     0.002 A 
ATOM      6  C8  UNL d   1      -2.650  -2.021   2.235  0.00  0.00     0.002 A 
ENDROOT
BRANCH   1   7
ATOM      7  C2  UNL d   1      -1.377  -2.403   4.384  0.00  0.00     0.056 C 
BRANCH   7   8
ATOM      8  C1  UNL d   1      -2.585  -1.758   5.071  0.00  0.00     0.007 C 
ATOM      9  C   UNL d   1      -2.218  -0.548   5.919  0.00  0.00     0.009 C 
ENDBRANCH   7   8
ENDBRANCH   1   7
TORSDOF 2
ENDMDL
