MODEL 1
REMARK minimizedAffinity -0.882099032
REMARK minimizedRMSD -1
REMARK  1 active torsions:
REMARK  status: ('A' for Active; 'I' for Inactive)
REMARK    1  A    between atoms: C3_4  and  O_7 
ROOT
ATOM      1  C   UNL d   1       5.247   4.646  -5.976  0.00  0.00    -0.033 A 
ATOM      2  C1  UNL d   1       4.496   5.641  -5.346  0.00  0.00     0.039 A 
ATOM      3  C2  UNL d   1       4.494   5.739  -3.953  0.00  0.00    -0.080 A 
ATOM      4  C3  UNL d   1       5.246   4.839  -3.204  0.00  0.00     0.150 A 
ATOM      5  C4  UNL d   1       6.000   3.849  -3.825  0.00  0.00    -0.007 A 
ATOM      6  C5  UNL d   1       6.000   3.751  -5.216  0.00  0.00     0.039 A 
ENDROOT
BRANCH   4   7
ATOM      7  O   UNL d   1       5.272   4.893  -1.842  0.00  0.00    -0.526 OA
ATOM      8  H5  UNL d   1       4.682   5.608  -1.551  0.00  0.00     0.418 HD
ENDBRANCH   4   7
TORSDOF 1
ENDMDL
