MODEL 1
REMARK minimizedAffinity 0.98346293
REMARK minimizedRMSD -1
REMARK  1 active torsions:
REMARK  status: ('A' for Active; 'I' for Inactive)
REMARK    1  A    between atoms: C3_4  and  O_7 
ROOT
ATOM      1  C   UNL d   1       4.512   4.169  -4.469  0.00  0.00    -0.033 A 
ATOM      2  C1  UNL d   1       3.975   5.389  -4.052  0.00  0.00     0.039 A 
ATOM      3  C2  UNL d   1       4.446   6.000  -2.888  0.00  0.00    -0.080 A 
ATOM      4  C3  UNL d   1       5.453   5.383  -2.152  0.00  0.00     0.150 A 
ATOM      5  C4  UNL d   1       5.996   4.170  -2.563  0.00  0.00    -0.007 A 
ATOM      6  C5  UNL d   1       5.523   3.560  -3.725  0.00  0.00     0.039 A 
ENDROOT
BRANCH   4   7
ATOM      7  O   UNL d   1       5.942   5.938  -1.007  0.00  0.00    -0.526 OA
ATOM      8  H5  UNL d   1       5.453   6.760  -0.831  0.00  0.00     0.418 HD
ENDBRANCH   4   7
TORSDOF 1
ENDMDL
