MODEL 1
REMARK minimizedAffinity 1.59066713
REMARK minimizedRMSD -1
REMARK  1 active torsions:
REMARK  status: ('A' for Active; 'I' for Inactive)
REMARK    1  A    between atoms: C3_4  and  O_7 
ROOT
ATOM      1  C   UNL d   1       5.255  -2.262   6.000  0.00  0.00    -0.033 A 
ATOM      2  C1  UNL d   1       4.502  -1.376   5.227  0.00  0.00     0.039 A 
ATOM      3  C2  UNL d   1       4.493  -1.494   3.836  0.00  0.00    -0.080 A 
ATOM      4  C3  UNL d   1       5.238  -2.502   3.231  0.00  0.00     0.150 A 
ATOM      5  C4  UNL d   1       5.987  -3.391   3.994  0.00  0.00    -0.007 A 
ATOM      6  C5  UNL d   1       5.996  -3.271   5.383  0.00  0.00     0.039 A 
ENDROOT
BRANCH   4   7
ATOM      7  O   UNL d   1       5.263  -2.654   1.876  0.00  0.00    -0.526 OA
ATOM      8  H5  UNL d   1       4.722  -1.951   1.478  0.00  0.00     0.418 HD
ENDBRANCH   4   7
TORSDOF 1
ENDMDL
