MODEL 1
REMARK minimizedAffinity 1.19897103
REMARK minimizedRMSD -1
REMARK  1 active torsions:
REMARK  status: ('A' for Active; 'I' for Inactive)
REMARK    1  A    between atoms: C3_4  and  O_7 
ROOT
ATOM      1  C   UNL d   1       5.691  -3.734   5.254  0.00  0.00    -0.033 A 
ATOM      2  C1  UNL d   1       4.503  -3.797   4.524  0.00  0.00     0.039 A 
ATOM      3  C2  UNL d   1       3.619  -2.716   4.532  0.00  0.00    -0.080 A 
ATOM      4  C3  UNL d   1       3.935  -1.580   5.273  0.00  0.00     0.150 A 
ATOM      5  C4  UNL d   1       5.119  -1.510   6.000  0.00  0.00    -0.007 A 
ATOM      6  C5  UNL d   1       6.000  -2.590   5.991  0.00  0.00     0.039 A 
ENDROOT
BRANCH   4   7
ATOM      7  O   UNL d   1       3.101  -0.502   5.316  0.00  0.00    -0.526 OA
ATOM      8  H5  UNL d   1       2.309  -0.705   4.790  0.00  0.00     0.418 HD
ENDBRANCH   4   7
TORSDOF 1
ENDMDL
