MODEL 1
REMARK minimizedAffinity -2.12140322
REMARK minimizedRMSD -1
REMARK  1 active torsions:
REMARK  status: ('A' for Active; 'I' for Inactive)
REMARK    1  A    between atoms: C3_4  and  O_7 
ROOT
ATOM      1  C   UNL d   1       5.544  -1.871   5.630  0.00  0.00    -0.033 A 
ATOM      2  C1  UNL d   1       5.992  -3.140   5.999  0.00  0.00     0.039 A 
ATOM      3  C2  UNL d   1       5.260  -4.273   5.639  0.00  0.00    -0.080 A 
ATOM      4  C3  UNL d   1       4.084  -4.123   4.909  0.00  0.00     0.150 A 
ATOM      5  C4  UNL d   1       3.633  -2.862   4.534  0.00  0.00    -0.007 A 
ATOM      6  C5  UNL d   1       4.365  -1.732   4.896  0.00  0.00     0.039 A 
ENDROOT
BRANCH   4   7
ATOM      7  O   UNL d   1       3.333  -5.199   4.539  0.00  0.00    -0.526 OA
ATOM      8  H5  UNL d   1       3.751  -6.003   4.892  0.00  0.00     0.418 HD
ENDBRANCH   4   7
TORSDOF 1
ENDMDL
