MODEL 1
REMARK minimizedAffinity -3.82285547
REMARK minimizedRMSD -1
REMARK  1 active torsions:
REMARK  status: ('A' for Active; 'I' for Inactive)
REMARK    1  A    between atoms: C3_4  and  O_7 
ROOT
ATOM      1  C   UNL d   1       4.481   4.886  -5.995  0.00  0.00    -0.033 A 
ATOM      2  C1  UNL d   1       4.216   5.968  -5.154  0.00  0.00     0.039 A 
ATOM      3  C2  UNL d   1       4.721   5.983  -3.852  0.00  0.00    -0.080 A 
ATOM      4  C3  UNL d   1       5.489   4.911  -3.405  0.00  0.00     0.150 A 
ATOM      5  C4  UNL d   1       5.760   3.831  -4.239  0.00  0.00    -0.007 A 
ATOM      6  C5  UNL d   1       5.254   3.818  -5.538  0.00  0.00     0.039 A 
ENDROOT
BRANCH   4   7
ATOM      7  O   UNL d   1       6.000   4.878  -2.142  0.00  0.00    -0.526 OA
ATOM      8  H5  UNL d   1       5.708   5.677  -1.671  0.00  0.00     0.418 HD
ENDBRANCH   4   7
TORSDOF 1
ENDMDL
