MODEL 1
REMARK minimizedAffinity -2.87999439
REMARK minimizedRMSD -1
REMARK  1 active torsions:
REMARK  status: ('A' for Active; 'I' for Inactive)
REMARK    1  A    between atoms: C3_4  and  O_7 
ROOT
ATOM      1  C   UNL d   1       4.596   4.569  -4.871  0.00  0.00    -0.033 A 
ATOM      2  C1  UNL d   1       4.127   5.692  -4.187  0.00  0.00     0.039 A 
ATOM      3  C2  UNL d   1       4.591   5.971  -2.899  0.00  0.00    -0.080 A 
ATOM      4  C3  UNL d   1       5.522   5.122  -2.309  0.00  0.00     0.150 A 
ATOM      5  C4  UNL d   1       5.997   4.003  -2.987  0.00  0.00    -0.007 A 
ATOM      6  C5  UNL d   1       5.532   3.726  -4.272  0.00  0.00     0.039 A 
ENDROOT
BRANCH   4   7
ATOM      7  O   UNL d   1       6.000   5.350  -1.053  0.00  0.00    -0.526 OA
ATOM      8  H5  UNL d   1       5.562   6.141  -0.697  0.00  0.00     0.418 HD
ENDBRANCH   4   7
TORSDOF 1
ENDMDL
