MODEL 1
REMARK minimizedAffinity 2.43951678
REMARK minimizedRMSD -1
REMARK  1 active torsions:
REMARK  status: ('A' for Active; 'I' for Inactive)
REMARK    1  A    between atoms: C3_4  and  O_7 
ROOT
ATOM      1  C   UNL d   1      -0.359  -3.095  -0.242  0.00  0.00    -0.033 A 
ATOM      2  C1  UNL d   1      -1.451  -2.392  -0.755  0.00  0.00     0.039 A 
ATOM      3  C2  UNL d   1      -1.511  -2.089  -2.117  0.00  0.00    -0.080 A 
ATOM      4  C3  UNL d   1      -0.476  -2.497  -2.954  0.00  0.00     0.150 A 
ATOM      5  C4  UNL d   1       0.613  -3.201  -2.450  0.00  0.00    -0.007 A 
ATOM      6  C5  UNL d   1       0.672  -3.501  -1.090  0.00  0.00     0.039 A 
ENDROOT
BRANCH   4   7
ATOM      7  O   UNL d   1      -0.488  -2.221  -4.289  0.00  0.00    -0.526 OA
ATOM      8  H5  UNL d   1      -1.287  -1.704  -4.489  0.00  0.00     0.418 HD
ENDBRANCH   4   7
TORSDOF 1
ENDMDL
