MODEL 1
REMARK minimizedAffinity 0.23448661
REMARK minimizedRMSD -1
REMARK  1 active torsions:
REMARK  status: ('A' for Active; 'I' for Inactive)
REMARK    1  A    between atoms: C3_4  and  O_7 
ROOT
ATOM      1  C   UNL d   1       6.000   4.601  -1.834  0.00  0.00    -0.033 A 
ATOM      2  C1  UNL d   1       5.999   4.061  -3.121  0.00  0.00     0.039 A 
ATOM      3  C2  UNL d   1       5.057   4.487  -4.059  0.00  0.00    -0.080 A 
ATOM      4  C3  UNL d   1       4.123   5.454  -3.698  0.00  0.00     0.150 A 
ATOM      5  C4  UNL d   1       4.120   6.000  -2.418  0.00  0.00    -0.007 A 
ATOM      6  C5  UNL d   1       5.061   5.572  -1.483  0.00  0.00     0.039 A 
ENDROOT
BRANCH   4   7
ATOM      7  O   UNL d   1       3.181   5.898  -4.577  0.00  0.00    -0.526 OA
ATOM      8  H5  UNL d   1       3.285   5.412  -5.412  0.00  0.00     0.418 HD
ENDBRANCH   4   7
TORSDOF 1
ENDMDL
