MODEL 1
REMARK minimizedAffinity 4.59390402
REMARK minimizedRMSD -1
REMARK  1 active torsions:
REMARK  status: ('A' for Active; 'I' for Inactive)
REMARK    1  A    between atoms: C3_4  and  O_7 
ROOT
ATOM      1  C   UNL d   1       0.453  -2.340  -3.236  0.00  0.00    -0.033 A 
ATOM      2  C1  UNL d   1       0.828  -1.599  -2.114  0.00  0.00     0.039 A 
ATOM      3  C2  UNL d   1       0.111  -1.722  -0.922  0.00  0.00    -0.080 A 
ATOM      4  C3  UNL d   1      -0.977  -2.588  -0.866  0.00  0.00     0.150 A 
ATOM      5  C4  UNL d   1      -1.354  -3.332  -1.979  0.00  0.00    -0.007 A 
ATOM      6  C5  UNL d   1      -0.638  -3.207  -3.169  0.00  0.00     0.039 A 
ENDROOT
BRANCH   4   7
ATOM      7  O   UNL d   1      -1.711  -2.738   0.273  0.00  0.00    -0.526 OA
ATOM      8  H5  UNL d   1      -1.352  -2.141   0.951  0.00  0.00     0.418 HD
ENDBRANCH   4   7
TORSDOF 1
ENDMDL
