MODEL 1
REMARK minimizedAffinity -3.74629831
REMARK minimizedRMSD -1
REMARK  1 active torsions:
REMARK  status: ('A' for Active; 'I' for Inactive)
REMARK    1  A    between atoms: C3_4  and  O_7 
ROOT
ATOM      1  C   UNL d   1       4.715   5.990  -2.300  0.00  0.00    -0.033 A 
ATOM      2  C1  UNL d   1       5.943   5.796  -2.936  0.00  0.00     0.039 A 
ATOM      3  C2  UNL d   1       5.994   5.168  -4.182  0.00  0.00    -0.080 A 
ATOM      4  C3  UNL d   1       4.812   4.742  -4.781  0.00  0.00     0.150 A 
ATOM      5  C4  UNL d   1       3.585   4.936  -4.155  0.00  0.00    -0.007 A 
ATOM      6  C5  UNL d   1       3.536   5.562  -2.910  0.00  0.00     0.039 A 
ENDROOT
BRANCH   4   7
ATOM      7  O   UNL d   1       4.812   4.121  -5.995  0.00  0.00    -0.526 OA
ATOM      8  H5  UNL d   1       5.732   4.029  -6.294  0.00  0.00     0.418 HD
ENDBRANCH   4   7
TORSDOF 1
ENDMDL
