MODEL 1
REMARK minimizedAffinity -0.989788413
REMARK minimizedRMSD -1
REMARK  1 active torsions:
REMARK  status: ('A' for Active; 'I' for Inactive)
REMARK    1  A    between atoms: C3_4  and  O_7 
ROOT
ATOM      1  C   UNL d   1       1.788  -3.336  -3.375  0.00  0.00    -0.033 A 
ATOM      2  C1  UNL d   1       1.501  -2.124  -2.744  0.00  0.00     0.039 A 
ATOM      3  C2  UNL d   1       0.221  -1.882  -2.242  0.00  0.00    -0.080 A 
ATOM      4  C3  UNL d   1      -0.762  -2.860  -2.377  0.00  0.00     0.150 A 
ATOM      5  C4  UNL d   1      -0.481  -4.071  -3.001  0.00  0.00    -0.007 A 
ATOM      6  C5  UNL d   1       0.797  -4.310  -3.502  0.00  0.00     0.039 A 
ENDROOT
BRANCH   4   7
ATOM      7  O   UNL d   1      -2.027  -2.668  -1.907  0.00  0.00    -0.526 OA
ATOM      8  H5  UNL d   1      -2.082  -1.775  -1.527  0.00  0.00     0.418 HD
ENDBRANCH   4   7
TORSDOF 1
ENDMDL
