MODEL 1
REMARK minimizedAffinity 8.69698143
REMARK minimizedRMSD -1
REMARK  0 active torsions:
REMARK  status: ('A' for Active; 'I' for Inactive)
ROOT
ATOM      1  C2' OXE d   1      -4.176   4.572   2.364  0.00  0.00     0.078 C 
ATOM      2  C1' OXE d   1      -5.788   5.392   4.511  0.00  0.00     0.078 C 
ATOM      3  C1  OXE d   1      -4.292   5.486   4.679  0.00  0.00    -0.078 A 
ATOM      4  C2  OXE d   1      -3.511   5.039   3.641  0.00  0.00    -0.078 A 
ATOM      5  C3  OXE d   1      -2.126   5.153   3.722  0.00  0.00     0.003 A 
ATOM      6  C4  OXE d   1      -1.518   5.576   4.910  0.00  0.00    -0.002 A 
ATOM      7  C5  OXE d   1      -2.295   5.999   5.994  0.00  0.00    -0.002 A 
ATOM      8  C6  OXE d   1      -3.681   6.000   5.879  0.00  0.00     0.003 A 
ENDROOT
TORSDOF 0
ENDMDL
