MODEL 1
REMARK minimizedAffinity 8.11875725
REMARK minimizedRMSD -1
REMARK  0 active torsions:
REMARK  status: ('A' for Active; 'I' for Inactive)
ROOT
ATOM      1  C2' OXE d   1      -3.369  -0.241   2.548  0.00  0.00     0.078 C 
ATOM      2  C1' OXE d   1      -6.000  -1.129   2.961  0.00  0.00     0.078 C 
ATOM      3  C1  OXE d   1      -5.335  -1.482   1.654  0.00  0.00    -0.078 A 
ATOM      4  C2  OXE d   1      -4.065  -1.003   1.441  0.00  0.00    -0.078 A 
ATOM      5  C3  OXE d   1      -3.386  -1.346   0.275  0.00  0.00     0.003 A 
ATOM      6  C4  OXE d   1      -4.040  -2.043  -0.748  0.00  0.00    -0.002 A 
ATOM      7  C5  OXE d   1      -5.348  -2.506  -0.567  0.00  0.00    -0.002 A 
ATOM      8  C6  OXE d   1      -5.993  -2.271   0.642  0.00  0.00     0.003 A 
ENDROOT
TORSDOF 0
ENDMDL
