MODEL 1
REMARK minimizedAffinity 5.26046515
REMARK minimizedRMSD -1
REMARK  0 active torsions:
REMARK  status: ('A' for Active; 'I' for Inactive)
ROOT
ATOM      1  C2' OXE d   1       4.942   4.171   0.410  0.00  0.00     0.078 C 
ATOM      2  C1' OXE d   1       2.892   5.869   1.301  0.00  0.00     0.078 C 
ATOM      3  C1  OXE d   1       3.973   5.495   2.284  0.00  0.00    -0.078 A 
ATOM      4  C2  OXE d   1       4.947   4.627   1.854  0.00  0.00    -0.078 A 
ATOM      5  C3  OXE d   1       5.997   4.293   2.703  0.00  0.00     0.003 A 
ATOM      6  C4  OXE d   1       5.988   4.711   4.040  0.00  0.00    -0.002 A 
ATOM      7  C5  OXE d   1       4.984   5.564   4.510  0.00  0.00    -0.002 A 
ATOM      8  C6  OXE d   1       3.995   5.999   3.635  0.00  0.00     0.003 A 
ENDROOT
TORSDOF 0
ENDMDL
