MODEL 1
REMARK minimizedAffinity 1.76679695
REMARK minimizedRMSD -1
REMARK  0 active torsions:
REMARK  status: ('A' for Active; 'I' for Inactive)
ROOT
ATOM      1  C2' OXE d   1      -2.897  -1.990  -0.428  0.00  0.00     0.078 C 
ATOM      2  C1' OXE d   1      -0.812  -0.127  -0.673  0.00  0.00     0.078 C 
ATOM      3  C1  OXE d   1      -1.620  -0.115   0.600  0.00  0.00    -0.078 A 
ATOM      4  C2  OXE d   1      -2.668  -0.999   0.692  0.00  0.00    -0.078 A 
ATOM      5  C3  OXE d   1      -3.412  -1.067   1.867  0.00  0.00     0.003 A 
ATOM      6  C4  OXE d   1      -3.199  -0.139   2.895  0.00  0.00    -0.002 A 
ATOM      7  C5  OXE d   1      -2.163   0.795   2.804  0.00  0.00    -0.002 A 
ATOM      8  C6  OXE d   1      -1.338   0.793   1.685  0.00  0.00     0.003 A 
ENDROOT
TORSDOF 0
ENDMDL
