MODEL 1
REMARK minimizedAffinity -0.452043355
REMARK minimizedRMSD -1
REMARK  0 active torsions:
REMARK  status: ('A' for Active; 'I' for Inactive)
ROOT
ATOM      1  C2' OXE d   1       5.940  -1.978   5.587  0.00  0.00     0.078 C 
ATOM      2  C1' OXE d   1       3.770  -2.349   3.846  0.00  0.00     0.078 C 
ATOM      3  C1  OXE d   1       4.360  -3.570   4.505  0.00  0.00    -0.078 A 
ATOM      4  C2  OXE d   1       5.451  -3.385   5.319  0.00  0.00    -0.078 A 
ATOM      5  C3  OXE d   1       6.000  -4.471   5.995  0.00  0.00     0.003 A 
ATOM      6  C4  OXE d   1       5.548  -5.770   5.733  0.00  0.00    -0.002 A 
ATOM      7  C5  OXE d   1       4.463  -5.986   4.877  0.00  0.00    -0.002 A 
ATOM      8  C6  OXE d   1       3.832  -4.895   4.289  0.00  0.00     0.003 A 
ENDROOT
TORSDOF 0
ENDMDL
