MODEL 1
REMARK minimizedAffinity 9.91109085
REMARK minimizedRMSD -1
REMARK  0 active torsions:
REMARK  status: ('A' for Active; 'I' for Inactive)
ROOT
ATOM      1  C2' OXE d   1       5.996   3.238   5.360  0.00  0.00     0.078 C 
ATOM      2  C1' OXE d   1       5.047   5.872   5.566  0.00  0.00     0.078 C 
ATOM      3  C1  OXE d   1       5.166   5.273   4.187  0.00  0.00    -0.078 A 
ATOM      4  C2  OXE d   1       5.675   4.000   4.092  0.00  0.00    -0.078 A 
ATOM      5  C3  OXE d   1       5.754   3.379   2.849  0.00  0.00     0.003 A 
ATOM      6  C4  OXE d   1       5.464   4.095   1.680  0.00  0.00    -0.002 A 
ATOM      7  C5  OXE d   1       4.982   5.406   1.752  0.00  0.00    -0.002 A 
ATOM      8  C6  OXE d   1       4.787   5.993   2.997  0.00  0.00     0.003 A 
ENDROOT
TORSDOF 0
ENDMDL
