MODEL 1
REMARK minimizedAffinity 14.3310709
REMARK minimizedRMSD -1
REMARK  0 active torsions:
REMARK  status: ('A' for Active; 'I' for Inactive)
ROOT
ATOM      1  C2' OXE d   1       0.505   1.489  -2.989  0.00  0.00     0.078 C 
ATOM      2  C1' OXE d   1       0.323   1.451  -5.790  0.00  0.00     0.078 C 
ATOM      3  C1  OXE d   1       1.672   1.730  -5.176  0.00  0.00    -0.078 A 
ATOM      4  C2  OXE d   1       1.743   1.793  -3.805  0.00  0.00    -0.078 A 
ATOM      5  C3  OXE d   1       2.974   1.993  -3.187  0.00  0.00     0.003 A 
ATOM      6  C4  OXE d   1       4.111   2.283  -3.949  0.00  0.00    -0.002 A 
ATOM      7  C5  OXE d   1       4.053   2.263  -5.347  0.00  0.00    -0.002 A 
ATOM      8  C6  OXE d   1       2.853   1.947  -5.975  0.00  0.00     0.003 A 
ENDROOT
TORSDOF 0
ENDMDL
