MODEL 1
REMARK minimizedAffinity 8.55731583
REMARK minimizedRMSD -1
REMARK  0 active torsions:
REMARK  status: ('A' for Active; 'I' for Inactive)
ROOT
ATOM      1  C2' OXE d   1       5.664   4.628   4.232  0.00  0.00     0.078 C 
ATOM      2  C1' OXE d   1       3.198   5.930   3.913  0.00  0.00     0.078 C 
ATOM      3  C1  OXE d   1       4.009   5.646   2.673  0.00  0.00    -0.078 A 
ATOM      4  C2  OXE d   1       5.235   5.051   2.843  0.00  0.00    -0.078 A 
ATOM      5  C3  OXE d   1       6.000   4.717   1.729  0.00  0.00     0.003 A 
ATOM      6  C4  OXE d   1       5.601   5.121   0.449  0.00  0.00    -0.002 A 
ATOM      7  C5  OXE d   1       4.373   5.764   0.258  0.00  0.00    -0.002 A 
ATOM      8  C6  OXE d   1       3.548   5.995   1.352  0.00  0.00     0.003 A 
ENDROOT
TORSDOF 0
ENDMDL
