MODEL 1
REMARK minimizedAffinity 17.7899666
REMARK minimizedRMSD -1
REMARK  0 active torsions:
REMARK  status: ('A' for Active; 'I' for Inactive)
ROOT
ATOM      1  C2' OXE d   1      -1.047   2.290   3.110  0.00  0.00     0.078 C 
ATOM      2  C1' OXE d   1      -2.266   4.337   1.626  0.00  0.00     0.078 C 
ATOM      3  C1  OXE d   1      -1.992   4.595   3.086  0.00  0.00    -0.078 A 
ATOM      4  C2  OXE d   1      -1.438   3.570   3.816  0.00  0.00    -0.078 A 
ATOM      5  C3  OXE d   1      -1.115   3.774   5.154  0.00  0.00     0.003 A 
ATOM      6  C4  OXE d   1      -1.488   4.957   5.802  0.00  0.00    -0.002 A 
ATOM      7  C5  OXE d   1      -2.089   5.999   5.087  0.00  0.00    -0.002 A 
ATOM      8  C6  OXE d   1      -2.309   5.850   3.722  0.00  0.00     0.003 A 
ENDROOT
TORSDOF 0
ENDMDL
