MODEL 1
REMARK minimizedAffinity 14.2603817
REMARK minimizedRMSD -1
REMARK  0 active torsions:
REMARK  status: ('A' for Active; 'I' for Inactive)
ROOT
ATOM      1  C2' OXE d   1      -1.429   5.334   3.244  0.00  0.00     0.078 C 
ATOM      2  C1' OXE d   1      -1.420   5.935   5.986  0.00  0.00     0.078 C 
ATOM      3  C1  OXE d   1      -2.755   5.827   5.294  0.00  0.00    -0.078 A 
ATOM      4  C2  OXE d   1      -2.749   5.579   3.942  0.00  0.00    -0.078 A 
ATOM      5  C3  OXE d   1      -3.954   5.415   3.266  0.00  0.00     0.003 A 
ATOM      6  C4  OXE d   1      -5.171   5.653   3.917  0.00  0.00    -0.002 A 
ATOM      7  C5  OXE d   1      -5.198   5.946   5.284  0.00  0.00    -0.002 A 
ATOM      8  C6  OXE d   1      -4.004   5.995   5.995  0.00  0.00     0.003 A 
ENDROOT
TORSDOF 0
ENDMDL
