MODEL 1
REMARK minimizedAffinity 15.4861498
REMARK minimizedRMSD -1
REMARK  0 active torsions:
REMARK  status: ('A' for Active; 'I' for Inactive)
ROOT
ATOM      1  C2' OXE d   1       1.866  -2.473  -2.344  0.00  0.00     0.078 C 
ATOM      2  C1' OXE d   1       4.018  -1.083  -1.196  0.00  0.00     0.078 C 
ATOM      3  C1  OXE d   1       2.882  -0.273  -1.769  0.00  0.00    -0.078 A 
ATOM      4  C2  OXE d   1       1.855  -0.960  -2.370  0.00  0.00    -0.078 A 
ATOM      5  C3  OXE d   1       0.757  -0.264  -2.866  0.00  0.00     0.003 A 
ATOM      6  C4  OXE d   1       0.759   1.136  -2.895  0.00  0.00    -0.002 A 
ATOM      7  C5  OXE d   1       1.814   1.856  -2.324  0.00  0.00    -0.002 A 
ATOM      8  C6  OXE d   1       2.860   1.168  -1.720  0.00  0.00     0.003 A 
ENDROOT
TORSDOF 0
ENDMDL
