MODEL 1
REMARK minimizedAffinity 11.5652323
REMARK minimizedRMSD -1
REMARK  0 active torsions:
REMARK  status: ('A' for Active; 'I' for Inactive)
ROOT
ATOM      1  C2' OXE d   1      -3.393  -1.243  -0.371  0.00  0.00     0.078 C 
ATOM      2  C1' OXE d   1      -0.676  -0.579  -0.610  0.00  0.00     0.078 C 
ATOM      3  C1  OXE d   1      -1.367  -0.255   0.691  0.00  0.00    -0.078 A 
ATOM      4  C2  OXE d   1      -2.708  -0.541   0.782  0.00  0.00    -0.078 A 
ATOM      5  C3  OXE d   1      -3.382  -0.313   1.979  0.00  0.00     0.003 A 
ATOM      6  C4  OXE d   1      -2.743   0.345   3.037  0.00  0.00    -0.002 A 
ATOM      7  C5  OXE d   1      -1.388   0.681   2.950  0.00  0.00    -0.002 A 
ATOM      8  C6  OXE d   1      -0.676   0.350   1.803  0.00  0.00     0.003 A 
ENDROOT
TORSDOF 0
ENDMDL
