MODEL 1
REMARK minimizedAffinity 7.12286139
REMARK minimizedRMSD -1
REMARK  0 active torsions:
REMARK  status: ('A' for Active; 'I' for Inactive)
ROOT
ATOM      1  C2' OXE d   1      -2.541   0.451   2.980  0.00  0.00     0.078 C 
ATOM      2  C1' OXE d   1      -3.793   2.722   1.906  0.00  0.00     0.078 C 
ATOM      3  C1  OXE d   1      -2.957   1.875   0.979  0.00  0.00    -0.078 A 
ATOM      4  C2  OXE d   1      -2.311   0.791   1.524  0.00  0.00    -0.078 A 
ATOM      5  C3  OXE d   1      -1.572  -0.055   0.702  0.00  0.00     0.003 A 
ATOM      6  C4  OXE d   1      -1.355   0.273  -0.642  0.00  0.00    -0.002 A 
ATOM      7  C5  OXE d   1      -1.972   1.394  -1.207  0.00  0.00    -0.002 A 
ATOM      8  C6  OXE d   1      -2.809   2.180  -0.422  0.00  0.00     0.003 A 
ENDROOT
TORSDOF 0
ENDMDL
