MODEL 1
REMARK minimizedAffinity 7.44628906
REMARK minimizedRMSD -1
REMARK  0 active torsions:
REMARK  status: ('A' for Active; 'I' for Inactive)
ROOT
ATOM      1  C2' OXE d   1      -2.132  -1.829   1.028  0.00  0.00     0.078 C 
ATOM      2  C1' OXE d   1      -2.580   0.315  -0.728  0.00  0.00     0.078 C 
ATOM      3  C1  OXE d   1      -2.724   0.574   0.751  0.00  0.00    -0.078 A 
ATOM      4  C2  OXE d   1      -2.549  -0.492   1.600  0.00  0.00    -0.078 A 
ATOM      5  C3  OXE d   1      -2.617  -0.295   2.976  0.00  0.00     0.003 A 
ATOM      6  C4  OXE d   1      -3.012   0.942   3.497  0.00  0.00    -0.002 A 
ATOM      7  C5  OXE d   1      -3.234   2.032   2.648  0.00  0.00    -0.002 A 
ATOM      8  C6  OXE d   1      -3.053   1.876   1.278  0.00  0.00     0.003 A 
ENDROOT
TORSDOF 0
ENDMDL
