MODEL 1
REMARK minimizedAffinity 6.98072147
REMARK minimizedRMSD -1
REMARK  0 active torsions:
REMARK  status: ('A' for Active; 'I' for Inactive)
ROOT
ATOM      1  C2' OXE d   1      -3.378  -1.242  -0.384  0.00  0.00     0.078 C 
ATOM      2  C1' OXE d   1      -0.734  -0.339  -0.653  0.00  0.00     0.078 C 
ATOM      3  C1  OXE d   1      -1.437  -0.076   0.655  0.00  0.00    -0.078 A 
ATOM      4  C2  OXE d   1      -2.746  -0.480   0.761  0.00  0.00    -0.078 A 
ATOM      5  C3  OXE d   1      -3.424  -0.311   1.965  0.00  0.00     0.003 A 
ATOM      6  C4  OXE d   1      -2.836   0.404   3.016  0.00  0.00    -0.002 A 
ATOM      7  C5  OXE d   1      -1.517   0.859   2.914  0.00  0.00    -0.002 A 
ATOM      8  C6  OXE d   1      -0.791   0.591   1.759  0.00  0.00     0.003 A 
ENDROOT
TORSDOF 0
ENDMDL
