MODEL 1
REMARK minimizedAffinity 10.1654854
REMARK minimizedRMSD -1
REMARK  0 active torsions:
REMARK  status: ('A' for Active; 'I' for Inactive)
ROOT
ATOM      1  C2' OXE d   1       1.973  -2.013  -2.292  0.00  0.00     0.078 C 
ATOM      2  C1' OXE d   1       4.038  -0.431  -3.345  0.00  0.00     0.078 C 
ATOM      3  C1  OXE d   1       2.781   0.266  -2.889  0.00  0.00    -0.078 A 
ATOM      4  C2  OXE d   1       1.757  -0.521  -2.419  0.00  0.00    -0.078 A 
ATOM      5  C3  OXE d   1       0.596   0.075  -1.935  0.00  0.00     0.003 A 
ATOM      6  C4  OXE d   1       0.400   1.456  -2.065  0.00  0.00    -0.002 A 
ATOM      7  C5  OXE d   1       1.415   2.271  -2.578  0.00  0.00    -0.002 A 
ATOM      8  C6  OXE d   1       2.624   1.698  -2.954  0.00  0.00     0.003 A 
ENDROOT
TORSDOF 0
ENDMDL
