MODEL 1
REMARK minimizedAffinity 8.85848999
REMARK minimizedRMSD -1
REMARK  0 active torsions:
REMARK  status: ('A' for Active; 'I' for Inactive)
ROOT
ATOM      1  C2' OXE d   1       2.102   6.000  -0.276  0.00  0.00     0.078 C 
ATOM      2  C1' OXE d   1       3.816   4.450  -1.871  0.00  0.00     0.078 C 
ATOM      3  C1  OXE d   1       4.301   4.850  -0.499  0.00  0.00    -0.078 A 
ATOM      4  C2  OXE d   1       3.475   5.647   0.256  0.00  0.00    -0.078 A 
ATOM      5  C3  OXE d   1       3.850   5.999   1.549  0.00  0.00     0.003 A 
ATOM      6  C4  OXE d   1       5.125   5.678   2.029  0.00  0.00    -0.002 A 
ATOM      7  C5  OXE d   1       5.998   4.900   1.261  0.00  0.00    -0.002 A 
ATOM      8  C6  OXE d   1       5.585   4.443   0.014  0.00  0.00     0.003 A 
ENDROOT
TORSDOF 0
ENDMDL
