MODEL 1
REMARK minimizedAffinity 10.0130186
REMARK minimizedRMSD -1
REMARK  0 active torsions:
REMARK  status: ('A' for Active; 'I' for Inactive)
ROOT
ATOM      1  C2' OXE d   1       5.025   5.954   2.660  0.00  0.00     0.078 C 
ATOM      2  C1' OXE d   1       2.516   6.000   1.401  0.00  0.00     0.078 C 
ATOM      3  C1  OXE d   1       3.675   5.407   0.639  0.00  0.00    -0.078 A 
ATOM      4  C2  OXE d   1       4.908   5.431   1.245  0.00  0.00    -0.078 A 
ATOM      5  C3  OXE d   1       6.000   4.847   0.608  0.00  0.00     0.003 A 
ATOM      6  C4  OXE d   1       5.886   4.374  -0.704  0.00  0.00    -0.002 A 
ATOM      7  C5  OXE d   1       4.647   4.377  -1.355  0.00  0.00    -0.002 A 
ATOM      8  C6  OXE d   1       3.525   4.849  -0.682  0.00  0.00     0.003 A 
ENDROOT
TORSDOF 0
ENDMDL
