MODEL 1
REMARK minimizedAffinity -4.259058
REMARK minimizedRMSD -1
REMARK  1 active torsions:
REMARK  status: ('A' for Active; 'I' for Inactive)
REMARK    1  A    between atoms: C3_4  and  O_7 
ROOT
ATOM      1  C   UNL d   1       1.186   0.728   0.907  0.00  0.00    -0.033 A 
ATOM      2  C1  UNL d   1       0.386  -0.401   0.720  0.00  0.00     0.039 A 
ATOM      3  C2  UNL d   1      -0.264  -0.986   1.808  0.00  0.00    -0.080 A 
ATOM      4  C3  UNL d   1      -0.106  -0.434   3.076  0.00  0.00     0.150 A 
ATOM      5  C4  UNL d   1       0.687   0.693   3.269  0.00  0.00    -0.007 A 
ATOM      6  C5  UNL d   1       1.336   1.276   2.181  0.00  0.00     0.039 A 
ENDROOT
BRANCH   4   7
ATOM      7  O   UNL d   1      -0.716  -0.973   4.169  0.00  0.00    -0.526 OA
ATOM      8  H5  UNL d   1      -1.207  -1.763   3.889  0.00  0.00     0.418 HD
ENDBRANCH   4   7
TORSDOF 1
ENDMDL
