MODEL 1
REMARK minimizedAffinity -4.96573305
REMARK minimizedRMSD -1
REMARK  1 active torsions:
REMARK  status: ('A' for Active; 'I' for Inactive)
REMARK    1  A    between atoms: C3_4  and  O_7 
ROOT
ATOM      1  C   UNL d   1      -2.257   0.382   2.861  0.00  0.00    -0.033 A 
ATOM      2  C1  UNL d   1      -2.684   0.419   1.532  0.00  0.00     0.039 A 
ATOM      3  C2  UNL d   1      -1.766   0.230   0.497  0.00  0.00    -0.080 A 
ATOM      4  C3  UNL d   1      -0.427   0.004   0.804  0.00  0.00     0.150 A 
ATOM      5  C4  UNL d   1       0.004  -0.039   2.125  0.00  0.00    -0.007 A 
ATOM      6  C5  UNL d   1      -0.913   0.151   3.158  0.00  0.00     0.039 A 
ENDROOT
BRANCH   4   7
ATOM      7  O   UNL d   1       0.506  -0.181  -0.173  0.00  0.00    -0.526 OA
ATOM      8  H5  UNL d   1       0.068  -0.097  -1.037  0.00  0.00     0.418 HD
ENDBRANCH   4   7
TORSDOF 1
ENDMDL
