MODEL 1
REMARK minimizedAffinity -5.05777407
REMARK minimizedRMSD -1
REMARK  1 active torsions:
REMARK  status: ('A' for Active; 'I' for Inactive)
REMARK    1  A    between atoms: C3_4  and  O_7 
ROOT
ATOM      1  C   UNL d   1      -1.264   0.299  -0.115  0.00  0.00    -0.033 A 
ATOM      2  C1  UNL d   1       0.070  -0.105  -0.030  0.00  0.00     0.039 A 
ATOM      3  C2  UNL d   1       0.588  -0.559   1.184  0.00  0.00    -0.080 A 
ATOM      4  C3  UNL d   1      -0.237  -0.606   2.305  0.00  0.00     0.150 A 
ATOM      5  C4  UNL d   1      -1.568  -0.208   2.227  0.00  0.00    -0.007 A 
ATOM      6  C5  UNL d   1      -2.083   0.246   1.013  0.00  0.00     0.039 A 
ENDROOT
BRANCH   4   7
ATOM      7  O   UNL d   1       0.225  -1.037   3.512  0.00  0.00    -0.526 OA
ATOM      8  H5  UNL d   1       1.169  -1.251   3.422  0.00  0.00     0.418 HD
ENDBRANCH   4   7
TORSDOF 1
ENDMDL
