MODEL 1
REMARK minimizedAffinity -2.89739108
REMARK minimizedRMSD -1
REMARK  1 active torsions:
REMARK  status: ('A' for Active; 'I' for Inactive)
REMARK    1  A    between atoms: C3_4  and  O_7 
ROOT
ATOM      1  C   UNL d   1       0.160   1.218  -2.123  0.00  0.00    -0.033 A 
ATOM      2  C1  UNL d   1      -0.350   0.123  -1.422  0.00  0.00     0.039 A 
ATOM      3  C2  UNL d   1      -0.103  -1.174  -1.876  0.00  0.00    -0.080 A 
ATOM      4  C3  UNL d   1       0.653  -1.363  -3.029  0.00  0.00     0.150 A 
ATOM      5  C4  UNL d   1       1.167  -0.277  -3.730  0.00  0.00    -0.007 A 
ATOM      6  C5  UNL d   1       0.919   1.018  -3.276  0.00  0.00     0.039 A 
ENDROOT
BRANCH   4   7
ATOM      7  O   UNL d   1       0.916  -2.610  -3.513  0.00  0.00    -0.526 OA
ATOM      8  H5  UNL d   1       0.474  -3.261  -2.943  0.00  0.00     0.418 HD
ENDBRANCH   4   7
TORSDOF 1
ENDMDL
