MODEL 1
REMARK minimizedAffinity -4.04871511
REMARK minimizedRMSD -1
REMARK  1 active torsions:
REMARK  status: ('A' for Active; 'I' for Inactive)
REMARK    1  A    between atoms: C3_4  and  O_7 
ROOT
ATOM      1  C   UNL d   1       0.849   0.287   0.137  0.00  0.00    -0.033 A 
ATOM      2  C1  UNL d   1      -0.530   0.065   0.118  0.00  0.00     0.039 A 
ATOM      3  C2  UNL d   1      -1.202  -0.261   1.298  0.00  0.00    -0.080 A 
ATOM      4  C3  UNL d   1      -0.486  -0.362   2.487  0.00  0.00     0.150 A 
ATOM      5  C4  UNL d   1       0.887  -0.138   2.514  0.00  0.00    -0.007 A 
ATOM      6  C5  UNL d   1       1.557   0.186   1.335  0.00  0.00     0.039 A 
ENDROOT
BRANCH   4   7
ATOM      7  O   UNL d   1      -1.098  -0.682   3.662  0.00  0.00    -0.526 OA
ATOM      8  H5  UNL d   1      -2.041  -0.836   3.486  0.00  0.00     0.418 HD
ENDBRANCH   4   7
TORSDOF 1
ENDMDL
