MODEL 1
REMARK minimizedAffinity -4.36397743
REMARK minimizedRMSD -1
REMARK  1 active torsions:
REMARK  status: ('A' for Active; 'I' for Inactive)
REMARK    1  A    between atoms: C3_4  and  O_7 
ROOT
ATOM      1  C   UNL d   1       0.363   0.280   0.480  0.00  0.00    -0.033 A 
ATOM      2  C1  UNL d   1       0.777   0.922   1.649  0.00  0.00     0.039 A 
ATOM      3  C2  UNL d   1       0.313   0.482   2.891  0.00  0.00    -0.080 A 
ATOM      4  C3  UNL d   1      -0.562  -0.599   2.949  0.00  0.00     0.150 A 
ATOM      5  C4  UNL d   1      -0.976  -1.245   1.789  0.00  0.00    -0.007 A 
ATOM      6  C5  UNL d   1      -0.513  -0.804   0.550  0.00  0.00     0.039 A 
ENDROOT
BRANCH   4   7
ATOM      7  O   UNL d   1      -1.045  -1.061   4.138  0.00  0.00    -0.526 OA
ATOM      8  H5  UNL d   1      -0.697  -0.500   4.850  0.00  0.00     0.418 HD
ENDBRANCH   4   7
TORSDOF 1
ENDMDL
