MODEL 1
REMARK minimizedAffinity -4.33473301
REMARK minimizedRMSD -1
REMARK  1 active torsions:
REMARK  status: ('A' for Active; 'I' for Inactive)
REMARK    1  A    between atoms: C3_4  and  O_7 
ROOT
ATOM      1  C   UNL d   1      -0.061  -0.846   2.760  0.00  0.00    -0.033 A 
ATOM      2  C1  UNL d   1       0.812   0.183   2.401  0.00  0.00     0.039 A 
ATOM      3  C2  UNL d   1       0.923   0.571   1.065  0.00  0.00    -0.080 A 
ATOM      4  C3  UNL d   1       0.157  -0.076   0.099  0.00  0.00     0.150 A 
ATOM      5  C4  UNL d   1      -0.717  -1.099   0.450  0.00  0.00    -0.007 A 
ATOM      6  C5  UNL d   1      -0.826  -1.486   1.785  0.00  0.00     0.039 A 
ENDROOT
BRANCH   4   7
ATOM      7  O   UNL d   1       0.236   0.265  -1.219  0.00  0.00    -0.526 OA
ATOM      8  H5  UNL d   1       0.901   0.967  -1.316  0.00  0.00     0.418 HD
ENDBRANCH   4   7
TORSDOF 1
ENDMDL
