MODEL 1
REMARK minimizedAffinity -4.96874428
REMARK minimizedRMSD -1
REMARK  1 active torsions:
REMARK  status: ('A' for Active; 'I' for Inactive)
REMARK    1  A    between atoms: C3_4  and  O_7 
ROOT
ATOM      1  C   UNL d   1      -0.171  -0.708   2.519  0.00  0.00    -0.033 A 
ATOM      2  C1  UNL d   1      -0.030  -0.565   1.138  0.00  0.00     0.039 A 
ATOM      3  C2  UNL d   1      -1.083  -0.055   0.376  0.00  0.00    -0.080 A 
ATOM      4  C3  UNL d   1      -2.270   0.309   1.007  0.00  0.00     0.150 A 
ATOM      5  C4  UNL d   1      -2.416   0.173   2.383  0.00  0.00    -0.007 A 
ATOM      6  C5  UNL d   1      -1.363  -0.338   3.142  0.00  0.00     0.039 A 
ENDROOT
BRANCH   4   7
ATOM      7  O   UNL d   1      -3.327   0.807   0.304  0.00  0.00    -0.526 OA
ATOM      8  H5  UNL d   1      -3.092   0.818  -0.638  0.00  0.00     0.418 HD
ENDBRANCH   4   7
TORSDOF 1
ENDMDL
