MODEL 1
REMARK minimizedAffinity -3.89633894
REMARK minimizedRMSD -1
REMARK  1 active torsions:
REMARK  status: ('A' for Active; 'I' for Inactive)
REMARK    1  A    between atoms: C3_4  and  O_7 
ROOT
ATOM      1  C   UNL d   1      -1.096   0.690  -0.505  0.00  0.00    -0.033 A 
ATOM      2  C1  UNL d   1       0.182   0.397  -0.023  0.00  0.00     0.039 A 
ATOM      3  C2  UNL d   1       0.337  -0.196   1.232  0.00  0.00    -0.080 A 
ATOM      4  C3  UNL d   1      -0.791  -0.491   1.992  0.00  0.00     0.150 A 
ATOM      5  C4  UNL d   1      -2.067  -0.206   1.516  0.00  0.00    -0.007 A 
ATOM      6  C5  UNL d   1      -2.220   0.387   0.263  0.00  0.00     0.039 A 
ENDROOT
BRANCH   4   7
ATOM      7  O   UNL d   1      -0.690  -1.065   3.225  0.00  0.00    -0.526 OA
ATOM      8  H5  UNL d   1       0.252  -1.179   3.434  0.00  0.00     0.418 HD
ENDBRANCH   4   7
TORSDOF 1
ENDMDL
