MODEL 1
REMARK minimizedAffinity -4.63056326
REMARK minimizedRMSD -1
REMARK  1 active torsions:
REMARK  status: ('A' for Active; 'I' for Inactive)
REMARK    1  A    between atoms: C3_4  and  O_7 
ROOT
ATOM      1  C   UNL d   1      -0.299   0.969  -0.990  0.00  0.00    -0.033 A 
ATOM      2  C1  UNL d   1       0.798   0.837  -0.136  0.00  0.00     0.039 A 
ATOM      3  C2  UNL d   1       0.624   0.336   1.156  0.00  0.00    -0.080 A 
ATOM      4  C3  UNL d   1      -0.650  -0.029   1.580  0.00  0.00     0.150 A 
ATOM      5  C4  UNL d   1      -1.747   0.096   0.734  0.00  0.00    -0.007 A 
ATOM      6  C5  UNL d   1      -1.571   0.597  -0.555  0.00  0.00     0.039 A 
ENDROOT
BRANCH   4   7
ATOM      7  O   UNL d   1      -0.871  -0.518   2.834  0.00  0.00    -0.526 OA
ATOM      8  H5  UNL d   1      -0.027  -0.522   3.316  0.00  0.00     0.418 HD
ENDBRANCH   4   7
TORSDOF 1
ENDMDL
