MODEL 1
REMARK minimizedAffinity -3.89703774
REMARK minimizedRMSD -1
REMARK  1 active torsions:
REMARK  status: ('A' for Active; 'I' for Inactive)
REMARK    1  A    between atoms: C3_4  and  O_7 
ROOT
ATOM      1  C   UNL d   1      -0.519   0.172  -0.939  0.00  0.00    -0.033 A 
ATOM      2  C1  UNL d   1       0.772   0.447  -0.482  0.00  0.00     0.039 A 
ATOM      3  C2  UNL d   1       1.072   0.329   0.877  0.00  0.00    -0.080 A 
ATOM      4  C3  UNL d   1       0.076  -0.065   1.765  0.00  0.00     0.150 A 
ATOM      5  C4  UNL d   1      -1.210  -0.344   1.316  0.00  0.00    -0.007 A 
ATOM      6  C5  UNL d   1      -1.509  -0.225  -0.041  0.00  0.00     0.039 A 
ENDROOT
BRANCH   4   7
ATOM      7  O   UNL d   1       0.321  -0.190   3.101  0.00  0.00    -0.526 OA
ATOM      8  H5  UNL d   1       1.244   0.063   3.269  0.00  0.00     0.418 HD
ENDBRANCH   4   7
TORSDOF 1
ENDMDL
