MODEL 1
REMARK minimizedAffinity 9.42526913
REMARK minimizedRMSD -1
REMARK  0 active torsions:
REMARK  status: ('A' for Active; 'I' for Inactive)
ROOT
ATOM      1  N1  IND d   1       2.592   0.068  -1.000  0.00  0.00    -0.196 N 
ATOM      2  C2  IND d   1       3.675   0.239  -1.816  0.00  0.00     0.054 A 
ATOM      3  C3  IND d   1       4.659   0.893  -1.160  0.00  0.00    -0.031 A 
ATOM      4  C4  IND d   1       4.746   1.686   1.288  0.00  0.00     0.051 A 
ATOM      5  C5  IND d   1       3.981   1.786   2.416  0.00  0.00    -0.031 A 
ATOM      6  C6  IND d   1       2.688   1.307   2.464  0.00  0.00     0.015 A 
ATOM      7  C7  IND d   1       2.114   0.696   1.385  0.00  0.00    -0.016 A 
ATOM      8  C8  IND d   1       2.886   0.599   0.237  0.00  0.00    -0.047 A 
ATOM      9  C9  IND d   1       4.184   1.121   0.168  0.00  0.00    -0.096 A 
ATOM     10  HN1 IND d   1       1.851  -0.309  -1.222  0.00  0.00     0.298 HD
ENDROOT
TORSDOF 0
ENDMDL
