MODEL 1
REMARK minimizedAffinity 7.73534393
REMARK minimizedRMSD -1
REMARK  0 active torsions:
REMARK  status: ('A' for Active; 'I' for Inactive)
ROOT
ATOM      1  N1  IND d   1       3.817   1.562  -1.575  0.00  0.00    -0.196 N 
ATOM      2  C2  IND d   1       3.762   0.311  -1.028  0.00  0.00     0.054 A 
ATOM      3  C3  IND d   1       4.442   0.278   0.140  0.00  0.00    -0.031 A 
ATOM      4  C4  IND d   1       5.636   2.185   1.392  0.00  0.00     0.051 A 
ATOM      5  C5  IND d   1       5.987   3.499   1.269  0.00  0.00    -0.031 A 
ATOM      6  C6  IND d   1       5.624   4.252   0.171  0.00  0.00     0.015 A 
ATOM      7  C7  IND d   1       4.882   3.718  -0.844  0.00  0.00    -0.016 A 
ATOM      8  C8  IND d   1       4.529   2.381  -0.726  0.00  0.00    -0.047 A 
ATOM      9  C9  IND d   1       4.931   1.601   0.366  0.00  0.00    -0.096 A 
ATOM     10  HN1 IND d   1       3.466   1.798  -2.323  0.00  0.00     0.298 HD
ENDROOT
TORSDOF 0
ENDMDL
