MODEL 1
REMARK minimizedAffinity 19.4025669
REMARK minimizedRMSD -1
REMARK  0 active torsions:
REMARK  status: ('A' for Active; 'I' for Inactive)
ROOT
ATOM      1  N1  IND d   1       2.131   0.206  -1.572  0.00  0.00    -0.196 N 
ATOM      2  C2  IND d   1       3.218  -0.354  -0.960  0.00  0.00     0.054 A 
ATOM      3  C3  IND d   1       3.018  -0.429   0.375  0.00  0.00    -0.031 A 
ATOM      4  C4  IND d   1       0.944   0.212   1.758  0.00  0.00     0.051 A 
ATOM      5  C5  IND d   1      -0.286   0.799   1.647  0.00  0.00    -0.031 A 
ATOM      6  C6  IND d   1      -0.784   1.224   0.432  0.00  0.00     0.015 A 
ATOM      7  C7  IND d   1      -0.072   1.067  -0.724  0.00  0.00    -0.016 A 
ATOM      8  C8  IND d   1       1.180   0.479  -0.614  0.00  0.00    -0.047 A 
ATOM      9  C9  IND d   1       1.708   0.084   0.622  0.00  0.00    -0.096 A 
ATOM     10  HN1 IND d   1       2.055   0.363  -2.414  0.00  0.00     0.298 HD
ENDROOT
TORSDOF 0
ENDMDL
