MODEL 1
REMARK minimizedAffinity 18.9254513
REMARK minimizedRMSD -1
REMARK  0 active torsions:
REMARK  status: ('A' for Active; 'I' for Inactive)
ROOT
ATOM      1  N1  IND d   1       4.571   2.111  -1.376  0.00  0.00    -0.196 N 
ATOM      2  C2  IND d   1       5.465   1.756  -2.348  0.00  0.00     0.054 A 
ATOM      3  C3  IND d   1       5.368   0.434  -2.617  0.00  0.00    -0.031 A 
ATOM      4  C4  IND d   1       3.744  -1.315  -1.654  0.00  0.00     0.051 A 
ATOM      5  C5  IND d   1       2.768  -1.475  -0.710  0.00  0.00    -0.031 A 
ATOM      6  C6  IND d   1       2.332  -0.426   0.073  0.00  0.00     0.015 A 
ATOM      7  C7  IND d   1       2.851   0.830  -0.066  0.00  0.00    -0.016 A 
ATOM      8  C8  IND d   1       3.847   0.995  -1.018  0.00  0.00    -0.047 A 
ATOM      9  C9  IND d   1       4.323  -0.076  -1.786  0.00  0.00    -0.096 A 
ATOM     10  HN1 IND d   1       4.478   2.898  -1.044  0.00  0.00     0.298 HD
ENDROOT
TORSDOF 0
ENDMDL
