MODEL 1
REMARK minimizedAffinity 11.3521051
REMARK minimizedRMSD -1
REMARK  0 active torsions:
REMARK  status: ('A' for Active; 'I' for Inactive)
ROOT
ATOM      1  N1  IND d   1       5.997   5.516   0.271  0.00  0.00    -0.196 N 
ATOM      2  C2  IND d   1       5.993   5.991  -1.011  0.00  0.00     0.054 A 
ATOM      3  C3  IND d   1       5.995   4.966  -1.893  0.00  0.00    -0.031 A 
ATOM      4  C4  IND d   1       5.904   2.431  -1.453  0.00  0.00     0.051 A 
ATOM      5  C5  IND d   1       5.932   1.511  -0.443  0.00  0.00    -0.031 A 
ATOM      6  C6  IND d   1       5.981   1.887   0.884  0.00  0.00     0.015 A 
ATOM      7  C7  IND d   1       5.993   3.203   1.252  0.00  0.00    -0.016 A 
ATOM      8  C8  IND d   1       5.972   4.139   0.228  0.00  0.00    -0.047 A 
ATOM      9  C9  IND d   1       5.965   3.764  -1.122  0.00  0.00    -0.096 A 
ATOM     10  HN1 IND d   1       6.013   5.997   0.983  0.00  0.00     0.298 HD
ENDROOT
TORSDOF 0
ENDMDL
