MODEL 1
REMARK minimizedAffinity 12.2899246
REMARK minimizedRMSD -1
REMARK  0 active torsions:
REMARK  status: ('A' for Active; 'I' for Inactive)
ROOT
ATOM      1  N1  IND d   1      -2.957   2.064   1.018  0.00  0.00    -0.196 N 
ATOM      2  C2  IND d   1      -2.110   2.916   1.670  0.00  0.00     0.054 A 
ATOM      3  C3  IND d   1      -0.886   2.894   1.096  0.00  0.00    -0.031 A 
ATOM      4  C4  IND d   1      -0.080   1.612  -0.986  0.00  0.00     0.051 A 
ATOM      5  C5  IND d   1      -0.483   0.680  -1.900  0.00  0.00    -0.031 A 
ATOM      6  C6  IND d   1      -1.758   0.152  -1.890  0.00  0.00     0.015 A 
ATOM      7  C7  IND d   1      -2.685   0.548  -0.968  0.00  0.00    -0.016 A 
ATOM      8  C8  IND d   1      -2.277   1.490  -0.034  0.00  0.00    -0.047 A 
ATOM      9  C9  IND d   1      -0.971   1.997  -0.013  0.00  0.00    -0.096 A 
ATOM     10  HN1 IND d   1      -3.777   1.913   1.228  0.00  0.00     0.298 HD
ENDROOT
TORSDOF 0
ENDMDL
