MODEL 1
REMARK minimizedAffinity 17.2523556
REMARK minimizedRMSD -1
REMARK  0 active torsions:
REMARK  status: ('A' for Active; 'I' for Inactive)
ROOT
ATOM      1  N1  IND d   1       2.629   0.020  -1.502  0.00  0.00    -0.196 N 
ATOM      2  C2  IND d   1       1.901  -0.018  -0.346  0.00  0.00     0.054 A 
ATOM      3  C3  IND d   1       2.606   0.525   0.672  0.00  0.00    -0.031 A 
ATOM      4  C4  IND d   1       4.931   1.629   0.645  0.00  0.00     0.051 A 
ATOM      5  C5  IND d   1       6.000   1.870  -0.172  0.00  0.00    -0.031 A 
ATOM      6  C6  IND d   1       5.999   1.501  -1.502  0.00  0.00     0.015 A 
ATOM      7  C7  IND d   1       4.919   0.885  -2.069  0.00  0.00    -0.016 A 
ATOM      8  C8  IND d   1       3.835   0.633  -1.241  0.00  0.00    -0.047 A 
ATOM      9  C9  IND d   1       3.847   0.967   0.120  0.00  0.00    -0.096 A 
ATOM     10  HN1 IND d   1       2.376  -0.287  -2.265  0.00  0.00     0.298 HD
ENDROOT
TORSDOF 0
ENDMDL
