MODEL 1
REMARK minimizedAffinity 15.8444605
REMARK minimizedRMSD -1
REMARK  0 active torsions:
REMARK  status: ('A' for Active; 'I' for Inactive)
ROOT
ATOM      1  N1  IND d   1      -5.679   0.827  -4.867  0.00  0.00    -0.196 N 
ATOM      2  C2  IND d   1      -5.999   1.474  -3.707  0.00  0.00     0.054 A 
ATOM      3  C3  IND d   1      -4.973   1.403  -2.829  0.00  0.00    -0.031 A 
ATOM      4  C4  IND d   1      -2.637   0.363  -3.126  0.00  0.00     0.051 A 
ATOM      5  C5  IND d   1      -1.889  -0.374  -4.001  0.00  0.00    -0.031 A 
ATOM      6  C6  IND d   1      -2.375  -0.754  -5.235  0.00  0.00     0.015 A 
ATOM      7  C7  IND d   1      -3.629  -0.400  -5.647  0.00  0.00    -0.016 A 
ATOM      8  C8  IND d   1      -4.393   0.343  -4.759  0.00  0.00    -0.047 A 
ATOM      9  C9  IND d   1      -3.921   0.695  -3.488  0.00  0.00    -0.096 A 
ATOM     10  HN1 IND d   1      -6.193   0.737  -5.550  0.00  0.00     0.298 HD
ENDROOT
TORSDOF 0
ENDMDL
