MODEL 1
REMARK minimizedAffinity 12.0437069
REMARK minimizedRMSD -1
REMARK  0 active torsions:
REMARK  status: ('A' for Active; 'I' for Inactive)
ROOT
ATOM      1  N1  IND d   1       2.127   1.141  -0.752  0.00  0.00    -0.196 N 
ATOM      2  C2  IND d   1       1.493  -0.048  -0.521  0.00  0.00     0.054 A 
ATOM      3  C3  IND d   1       2.396  -1.020  -0.265  0.00  0.00    -0.031 A 
ATOM      4  C4  IND d   1       4.959  -0.863  -0.071  0.00  0.00     0.051 A 
ATOM      5  C5  IND d   1       6.000   0.007  -0.234  0.00  0.00    -0.031 A 
ATOM      6  C6  IND d   1       5.799   1.327  -0.583  0.00  0.00     0.015 A 
ATOM      7  C7  IND d   1       4.543   1.831  -0.771  0.00  0.00    -0.016 A 
ATOM      8  C8  IND d   1       3.484   0.949  -0.613  0.00  0.00    -0.047 A 
ATOM      9  C9  IND d   1       3.684  -0.402  -0.301  0.00  0.00    -0.096 A 
ATOM     10  HN1 IND d   1       1.743   1.884  -0.950  0.00  0.00     0.298 HD
ENDROOT
TORSDOF 0
ENDMDL
