MODEL 1
REMARK minimizedAffinity 18.3828449
REMARK minimizedRMSD -1
REMARK  0 active torsions:
REMARK  status: ('A' for Active; 'I' for Inactive)
ROOT
ATOM      1  N1  IND d   1       4.781   0.556  -2.281  0.00  0.00    -0.196 N 
ATOM      2  C2  IND d   1       4.910   1.197  -1.081  0.00  0.00     0.054 A 
ATOM      3  C3  IND d   1       4.279   0.503  -0.107  0.00  0.00    -0.031 A 
ATOM      4  C4  IND d   1       3.058  -1.759  -0.239  0.00  0.00     0.051 A 
ATOM      5  C5  IND d   1       2.647  -2.711  -1.130  0.00  0.00    -0.031 A 
ATOM      6  C6  IND d   1       2.935  -2.622  -2.477  0.00  0.00     0.015 A 
ATOM      7  C7  IND d   1       3.657  -1.579  -2.983  0.00  0.00    -0.016 A 
ATOM      8  C8  IND d   1       4.070  -0.607  -2.083  0.00  0.00    -0.047 A 
ATOM      9  C9  IND d   1       3.744  -0.670  -0.722  0.00  0.00    -0.096 A 
ATOM     10  HN1 IND d   1       5.092   0.833  -3.034  0.00  0.00     0.298 HD
ENDROOT
TORSDOF 0
ENDMDL
