MODEL 1
REMARK minimizedAffinity 0.712293148
REMARK minimizedRMSD -1
REMARK  0 active torsions:
REMARK  status: ('A' for Active; 'I' for Inactive)
ROOT
ATOM      1  C   UNL d   1       1.049  -0.033  -0.129  0.00  0.00     0.077 C 
ATOM      2  C1  UNL d   1       1.504  -0.834   1.054  0.00  0.00    -0.074 A 
ATOM      3  C2  UNL d   1       0.922  -2.069   1.353  0.00  0.00    -0.005 A 
ATOM      4  C3  UNL d   1       1.362  -2.807   2.452  0.00  0.00     0.006 A 
ATOM      5  C4  UNL d   1       2.388  -2.318   3.261  0.00  0.00    -0.005 A 
ATOM      6  C5  UNL d   1       2.984  -1.085   2.977  0.00  0.00    -0.074 A 
ATOM      7  C6  UNL d   1       4.094  -0.549   3.831  0.00  0.00     0.077 C 
ATOM      8  C7  UNL d   1       2.540  -0.353   1.868  0.00  0.00    -0.001 A 
ENDROOT
TORSDOF 0
ENDMDL
