MODEL 1
REMARK minimizedAffinity -1.88804698
REMARK minimizedRMSD -1
REMARK  0 active torsions:
REMARK  status: ('A' for Active; 'I' for Inactive)
ROOT
ATOM      1  C   UNL d   1       5.301  -0.871   2.954  0.00  0.00     0.077 C 
ATOM      2  C1  UNL d   1       3.814  -1.016   2.823  0.00  0.00    -0.074 A 
ATOM      3  C2  UNL d   1       3.049  -1.550   3.865  0.00  0.00    -0.005 A 
ATOM      4  C3  UNL d   1       1.666  -1.670   3.732  0.00  0.00     0.006 A 
ATOM      5  C4  UNL d   1       1.035  -1.258   2.558  0.00  0.00    -0.005 A 
ATOM      6  C5  UNL d   1       1.783  -0.721   1.506  0.00  0.00    -0.074 A 
ATOM      7  C6  UNL d   1       1.119  -0.264   0.241  0.00  0.00     0.077 C 
ATOM      8  C7  UNL d   1       3.172  -0.597   1.649  0.00  0.00    -0.001 A 
ENDROOT
TORSDOF 0
ENDMDL
