MODEL 1
REMARK minimizedAffinity 1.5005759
REMARK minimizedRMSD -1
REMARK  0 active torsions:
REMARK  status: ('A' for Active; 'I' for Inactive)
ROOT
ATOM      1  C   UNL d   1      -0.497   0.735   1.637  0.00  0.00     0.077 C 
ATOM      2  C1  UNL d   1       0.776  -0.023   1.403  0.00  0.00    -0.074 A 
ATOM      3  C2  UNL d   1       1.180  -1.038   2.278  0.00  0.00    -0.005 A 
ATOM      4  C3  UNL d   1       2.361  -1.741   2.042  0.00  0.00     0.006 A 
ATOM      5  C4  UNL d   1       3.150  -1.437   0.932  0.00  0.00    -0.005 A 
ATOM      6  C5  UNL d   1       2.762  -0.427   0.046  0.00  0.00    -0.074 A 
ATOM      7  C6  UNL d   1       3.593  -0.095  -1.158  0.00  0.00     0.077 C 
ATOM      8  C7  UNL d   1       1.570   0.270   0.286  0.00  0.00    -0.001 A 
ENDROOT
TORSDOF 0
ENDMDL
