MODEL 1
REMARK minimizedAffinity 2.04660439
REMARK minimizedRMSD -1
REMARK  0 active torsions:
REMARK  status: ('A' for Active; 'I' for Inactive)
ROOT
ATOM      1  C   UNL d   1       1.707  -4.894  -1.906  0.00  0.00     0.077 C 
ATOM      2  C1  UNL d   1       1.462  -5.273  -3.337  0.00  0.00    -0.074 A 
ATOM      3  C2  UNL d   1       2.528  -5.468  -4.221  0.00  0.00    -0.005 A 
ATOM      4  C3  UNL d   1       2.286  -5.829  -5.546  0.00  0.00     0.006 A 
ATOM      5  C4  UNL d   1       0.977  -5.999  -6.000  0.00  0.00    -0.005 A 
ATOM      6  C5  UNL d   1      -0.101  -5.810  -5.130  0.00  0.00    -0.074 A 
ATOM      7  C6  UNL d   1      -1.514  -5.998  -5.599  0.00  0.00     0.077 C 
ATOM      8  C7  UNL d   1       0.151  -5.454  -3.798  0.00  0.00    -0.001 A 
ENDROOT
TORSDOF 0
ENDMDL
