MODEL 1
REMARK minimizedAffinity -0.691507399
REMARK minimizedRMSD -1
REMARK  0 active torsions:
REMARK  status: ('A' for Active; 'I' for Inactive)
ROOT
ATOM      1  C   UNL d   1       0.747  -1.587   4.124  0.00  0.00     0.077 C 
ATOM      2  C1  UNL d   1       1.688  -1.245   3.007  0.00  0.00    -0.074 A 
ATOM      3  C2  UNL d   1       3.074  -1.312   3.188  0.00  0.00    -0.005 A 
ATOM      4  C3  UNL d   1       3.936  -1.001   2.137  0.00  0.00     0.006 A 
ATOM      5  C4  UNL d   1       3.423  -0.620   0.896  0.00  0.00    -0.005 A 
ATOM      6  C5  UNL d   1       2.041  -0.549   0.696  0.00  0.00    -0.074 A 
ATOM      7  C6  UNL d   1       1.474  -0.151  -0.634  0.00  0.00     0.077 C 
ATOM      8  C7  UNL d   1       1.181  -0.870   1.755  0.00  0.00    -0.001 A 
ENDROOT
TORSDOF 0
ENDMDL
