MODEL 1
REMARK minimizedAffinity 5.41856813
REMARK minimizedRMSD -1
REMARK  0 active torsions:
REMARK  status: ('A' for Active; 'I' for Inactive)
ROOT
ATOM      1  C   UNL d   1      -0.772  -2.696   0.457  0.00  0.00     0.077 C 
ATOM      2  C1  UNL d   1       0.327  -1.687   0.306  0.00  0.00    -0.074 A 
ATOM      3  C2  UNL d   1       0.146  -0.538  -0.471  0.00  0.00    -0.005 A 
ATOM      4  C3  UNL d   1       1.174   0.397  -0.594  0.00  0.00     0.006 A 
ATOM      5  C4  UNL d   1       2.391   0.192   0.057  0.00  0.00    -0.005 A 
ATOM      6  C5  UNL d   1       2.590  -0.950   0.838  0.00  0.00    -0.074 A 
ATOM      7  C6  UNL d   1       3.889  -1.180   1.552  0.00  0.00     0.077 C 
ATOM      8  C7  UNL d   1       1.550  -1.881   0.963  0.00  0.00    -0.001 A 
ENDROOT
TORSDOF 0
ENDMDL
