MODEL 1
REMARK minimizedAffinity 1.36969471
REMARK minimizedRMSD -1
REMARK  0 active torsions:
REMARK  status: ('A' for Active; 'I' for Inactive)
ROOT
ATOM      1  C   UNL d   1       3.392  -5.978  -5.771  0.00  0.00     0.077 C 
ATOM      2  C1  UNL d   1       2.067  -5.813  -5.086  0.00  0.00    -0.074 A 
ATOM      3  C2  UNL d   1       1.996  -5.484  -3.729  0.00  0.00    -0.005 A 
ATOM      4  C3  UNL d   1       0.758  -5.325  -3.108  0.00  0.00     0.006 A 
ATOM      5  C4  UNL d   1      -0.420  -5.493  -3.837  0.00  0.00    -0.005 A 
ATOM      6  C5  UNL d   1      -0.369  -5.821  -5.195  0.00  0.00    -0.074 A 
ATOM      7  C6  UNL d   1      -1.626  -5.995  -5.995  0.00  0.00     0.077 C 
ATOM      8  C7  UNL d   1       0.879  -5.972  -5.814  0.00  0.00    -0.001 A 
ENDROOT
TORSDOF 0
ENDMDL
