MODEL 1
REMARK minimizedAffinity 4.51034546
REMARK minimizedRMSD -1
REMARK  0 active torsions:
REMARK  status: ('A' for Active; 'I' for Inactive)
ROOT
ATOM      1  C   UNL d   1       5.631   4.293  -0.639  0.00  0.00     0.077 C 
ATOM      2  C1  UNL d   1       4.247   3.775  -0.383  0.00  0.00    -0.074 A 
ATOM      3  C2  UNL d   1       3.220   4.635   0.017  0.00  0.00    -0.005 A 
ATOM      4  C3  UNL d   1       1.935   4.141   0.242  0.00  0.00     0.006 A 
ATOM      5  C4  UNL d   1       1.665   2.783   0.069  0.00  0.00    -0.005 A 
ATOM      6  C5  UNL d   1       2.679   1.907  -0.331  0.00  0.00    -0.074 A 
ATOM      7  C6  UNL d   1       2.404   0.446  -0.531  0.00  0.00     0.077 C 
ATOM      8  C7  UNL d   1       3.966   2.413  -0.562  0.00  0.00    -0.001 A 
ENDROOT
TORSDOF 0
ENDMDL
