MODEL 1
REMARK minimizedAffinity 9.12198448
REMARK minimizedRMSD -1
REMARK  0 active torsions:
REMARK  status: ('A' for Active; 'I' for Inactive)
ROOT
ATOM      1  C   UNL d   1       1.599  -0.593  -0.563  0.00  0.00     0.077 C 
ATOM      2  C1  UNL d   1       1.612   0.900  -0.425  0.00  0.00    -0.074 A 
ATOM      3  C2  UNL d   1       0.423   1.618  -0.263  0.00  0.00    -0.005 A 
ATOM      4  C3  UNL d   1       0.452   3.006  -0.127  0.00  0.00     0.006 A 
ATOM      5  C4  UNL d   1       1.668   3.689  -0.150  0.00  0.00    -0.005 A 
ATOM      6  C5  UNL d   1       2.868   2.988  -0.309  0.00  0.00    -0.074 A 
ATOM      7  C6  UNL d   1       4.185   3.706  -0.326  0.00  0.00     0.077 C 
ATOM      8  C7  UNL d   1       2.831   1.593  -0.439  0.00  0.00    -0.001 A 
ENDROOT
TORSDOF 0
ENDMDL
