MODEL 1
REMARK minimizedAffinity 10.4711485
REMARK minimizedRMSD -1
REMARK  0 active torsions:
REMARK  status: ('A' for Active; 'I' for Inactive)
ROOT
ATOM      1  C   UNL d   1      -0.055   0.094   0.358  0.00  0.00     0.077 C 
ATOM      2  C1  UNL d   1       1.278  -0.426   0.807  0.00  0.00    -0.074 A 
ATOM      3  C2  UNL d   1       2.401  -0.337  -0.023  0.00  0.00    -0.005 A 
ATOM      4  C3  UNL d   1       3.636  -0.816   0.412  0.00  0.00     0.006 A 
ATOM      5  C4  UNL d   1       3.762  -1.389   1.678  0.00  0.00    -0.005 A 
ATOM      6  C5  UNL d   1       2.651  -1.486   2.522  0.00  0.00    -0.074 A 
ATOM      7  C6  UNL d   1       2.770  -2.090   3.889  0.00  0.00     0.077 C 
ATOM      8  C7  UNL d   1       1.414  -0.996   2.080  0.00  0.00    -0.001 A 
ENDROOT
TORSDOF 0
ENDMDL
