MODEL 1
REMARK minimizedAffinity 1.26828098
REMARK minimizedRMSD -1
REMARK  0 active torsions:
REMARK  status: ('A' for Active; 'I' for Inactive)
ROOT
ATOM      1  C   UNL d   1      -1.543   4.985  -4.301  0.00  0.00     0.077 C 
ATOM      2  C1  UNL d   1      -1.644   3.547  -3.887  0.00  0.00    -0.074 A 
ATOM      3  C2  UNL d   1      -0.495   2.786  -3.648  0.00  0.00    -0.005 A 
ATOM      4  C3  UNL d   1      -0.605   1.452  -3.254  0.00  0.00     0.006 A 
ATOM      5  C4  UNL d   1      -1.862   0.868  -3.095  0.00  0.00    -0.005 A 
ATOM      6  C5  UNL d   1      -3.021   1.614  -3.328  0.00  0.00    -0.074 A 
ATOM      7  C6  UNL d   1      -4.380   1.004  -3.153  0.00  0.00     0.077 C 
ATOM      8  C7  UNL d   1      -2.903   2.955  -3.717  0.00  0.00    -0.001 A 
ENDROOT
TORSDOF 0
ENDMDL
