MODEL 1
REMARK minimizedAffinity 6.45242119
REMARK minimizedRMSD -1
REMARK  0 active torsions:
REMARK  status: ('A' for Active; 'I' for Inactive)
ROOT
ATOM      1  C   UNL d   1       3.839  -1.246   1.677  0.00  0.00     0.077 C 
ATOM      2  C1  UNL d   1       2.547  -1.030   0.945  0.00  0.00    -0.074 A 
ATOM      3  C2  UNL d   1       2.242   0.210   0.375  0.00  0.00    -0.005 A 
ATOM      4  C3  UNL d   1       1.042   0.393  -0.311  0.00  0.00     0.006 A 
ATOM      5  C4  UNL d   1       0.135  -0.661  -0.433  0.00  0.00    -0.005 A 
ATOM      6  C5  UNL d   1       0.423  -1.908   0.130  0.00  0.00    -0.074 A 
ATOM      7  C6  UNL d   1      -0.537  -3.054  -0.001  0.00  0.00     0.077 C 
ATOM      8  C7  UNL d   1       1.634  -2.086   0.811  0.00  0.00    -0.001 A 
ENDROOT
TORSDOF 0
ENDMDL
