MODEL 1
REMARK minimizedAffinity 7.78907442
REMARK minimizedRMSD -1
REMARK  0 active torsions:
REMARK  status: ('A' for Active; 'I' for Inactive)
ROOT
ATOM      1  C   UNL d   1      -2.858  -4.287  -2.962  0.00  0.00     0.077 C 
ATOM      2  C1  UNL d   1      -1.851  -4.838  -3.927  0.00  0.00    -0.074 A 
ATOM      3  C2  UNL d   1      -2.256  -5.500  -5.090  0.00  0.00    -0.005 A 
ATOM      4  C3  UNL d   1      -1.308  -5.999  -5.983  0.00  0.00     0.006 A 
ATOM      5  C4  UNL d   1       0.054  -5.840  -5.722  0.00  0.00    -0.005 A 
ATOM      6  C5  UNL d   1       0.478  -5.180  -4.565  0.00  0.00    -0.074 A 
ATOM      7  C6  UNL d   1       1.938  -4.992  -4.275  0.00  0.00     0.077 C 
ATOM      8  C7  UNL d   1      -0.481  -4.675  -3.676  0.00  0.00    -0.001 A 
ENDROOT
TORSDOF 0
ENDMDL
