MODEL 1
REMARK minimizedAffinity 4.79096651
REMARK minimizedRMSD -1
REMARK  0 active torsions:
REMARK  status: ('A' for Active; 'I' for Inactive)
ROOT
ATOM      1  C   UNL d   1      -4.389  -0.478  -0.048  0.00  0.00     0.077 C 
ATOM      2  C1  UNL d   1      -3.056  -1.164   0.008  0.00  0.00    -0.074 A 
ATOM      3  C2  UNL d   1      -2.964  -2.559  -0.033  0.00  0.00    -0.005 A 
ATOM      4  C3  UNL d   1      -1.717  -3.183   0.010  0.00  0.00     0.006 A 
ATOM      5  C4  UNL d   1      -0.552  -2.419   0.095  0.00  0.00    -0.005 A 
ATOM      6  C5  UNL d   1      -0.625  -1.023   0.136  0.00  0.00    -0.074 A 
ATOM      7  C6  UNL d   1       0.618  -0.187   0.218  0.00  0.00     0.077 C 
ATOM      8  C7  UNL d   1      -1.881  -0.404   0.085  0.00  0.00    -0.001 A 
ENDROOT
TORSDOF 0
ENDMDL
