MODEL 1
REMARK minimizedAffinity 7.33645582
REMARK minimizedRMSD -1
REMARK  0 active torsions:
REMARK  status: ('A' for Active; 'I' for Inactive)
ROOT
ATOM      1  C   UNL d   1       2.888  -2.304   4.553  0.00  0.00     0.077 C 
ATOM      2  C1  UNL d   1       3.522  -1.538   3.429  0.00  0.00    -0.074 A 
ATOM      3  C2  UNL d   1       4.798  -0.983   3.568  0.00  0.00    -0.005 A 
ATOM      4  C3  UNL d   1       5.378  -0.281   2.511  0.00  0.00     0.006 A 
ATOM      5  C4  UNL d   1       4.689  -0.128   1.307  0.00  0.00    -0.005 A 
ATOM      6  C5  UNL d   1       3.413  -0.678   1.150  0.00  0.00    -0.074 A 
ATOM      7  C6  UNL d   1       2.663  -0.531  -0.141  0.00  0.00     0.077 C 
ATOM      8  C7  UNL d   1       2.840  -1.387   2.214  0.00  0.00    -0.001 A 
ENDROOT
TORSDOF 0
ENDMDL
