MODEL 1
REMARK minimizedAffinity 0.522718132
REMARK minimizedRMSD -1
REMARK  0 active torsions:
REMARK  status: ('A' for Active; 'I' for Inactive)
ROOT
ATOM      1  C   UNL d   1       3.679  -5.998  -6.000  0.00  0.00     0.077 C 
ATOM      2  C1  UNL d   1       2.387  -5.632  -5.331  0.00  0.00    -0.074 A 
ATOM      3  C2  UNL d   1       2.378  -4.945  -4.113  0.00  0.00    -0.005 A 
ATOM      4  C3  UNL d   1       1.169  -4.603  -3.508  0.00  0.00     0.006 A 
ATOM      5  C4  UNL d   1      -0.041  -4.944  -4.113  0.00  0.00    -0.005 A 
ATOM      6  C5  UNL d   1      -0.052  -5.630  -5.331  0.00  0.00    -0.074 A 
ATOM      7  C6  UNL d   1      -1.344  -5.996  -6.000  0.00  0.00     0.077 C 
ATOM      8  C7  UNL d   1       1.167  -5.964  -5.937  0.00  0.00    -0.001 A 
ENDROOT
TORSDOF 0
ENDMDL
