MODEL 1
REMARK minimizedAffinity -3.43220592
REMARK minimizedRMSD -1
REMARK  0 active torsions:
REMARK  status: ('A' for Active; 'I' for Inactive)
ROOT
ATOM      1  C   UNL d   1      -3.047  -5.978   1.892  0.00  0.00     0.077 C 
ATOM      2  C1  UNL d   1      -3.164  -5.977   0.396  0.00  0.00    -0.074 A 
ATOM      3  C2  UNL d   1      -2.024  -5.986  -0.414  0.00  0.00    -0.005 A 
ATOM      4  C3  UNL d   1      -2.148  -5.995  -1.803  0.00  0.00     0.006 A 
ATOM      5  C4  UNL d   1      -3.412  -5.995  -2.395  0.00  0.00    -0.005 A 
ATOM      6  C5  UNL d   1      -4.563  -5.986  -1.601  0.00  0.00    -0.074 A 
ATOM      7  C6  UNL d   1      -5.929  -5.996  -2.221  0.00  0.00     0.077 C 
ATOM      8  C7  UNL d   1      -4.430  -5.985  -0.206  0.00  0.00    -0.001 A 
ENDROOT
TORSDOF 0
ENDMDL
