MODEL 1
REMARK minimizedAffinity -1.33158588
REMARK minimizedRMSD -1
REMARK  0 active torsions:
REMARK  status: ('A' for Active; 'I' for Inactive)
ROOT
ATOM      1  C   UNL d   1       0.907  -1.706   4.524  0.00  0.00     0.077 C 
ATOM      2  C1  UNL d   1       1.789  -1.405   3.349  0.00  0.00    -0.074 A 
ATOM      3  C2  UNL d   1       3.181  -1.379   3.483  0.00  0.00    -0.005 A 
ATOM      4  C3  UNL d   1       3.989  -1.107   2.379  0.00  0.00     0.006 A 
ATOM      5  C4  UNL d   1       3.414  -0.859   1.132  0.00  0.00    -0.005 A 
ATOM      6  C5  UNL d   1       2.024  -0.882   0.978  0.00  0.00    -0.074 A 
ATOM      7  C6  UNL d   1       1.391  -0.628  -0.357  0.00  0.00     0.077 C 
ATOM      8  C7  UNL d   1       1.220  -1.163   2.091  0.00  0.00    -0.001 A 
ENDROOT
TORSDOF 0
ENDMDL
