MODEL 1
REMARK minimizedAffinity 5.76283264
REMARK minimizedRMSD -1
REMARK  1 active torsions:
REMARK  status: ('A' for Active; 'I' for Inactive)
REMARK    1  A    between atoms: C1_2  and  C2_3 
ROOT
ATOM      1  C2  UNL d   1      -4.595   5.950   1.444  0.00  0.00    -0.073 A 
ATOM      2  C3  UNL d   1      -3.223   5.838   1.700  0.00  0.00    -0.002 A 
ATOM      3  C4  UNL d   1      -2.753   5.787   3.013  0.00  0.00     0.004 A 
ATOM      4  C5  UNL d   1      -3.648   5.838   4.082  0.00  0.00    -0.004 A 
ATOM      5  C6  UNL d   1      -5.023   5.938   3.846  0.00  0.00    -0.075 A 
ATOM      6  C7  UNL d   1      -5.999   5.996   4.984  0.00  0.00     0.076 C 
ATOM      7  C8  UNL d   1      -5.487   5.992   2.525  0.00  0.00     0.001 A 
ENDROOT
BRANCH   1   8
ATOM      8  C1  UNL d   1      -5.107   5.999   0.028  0.00  0.00     0.053 C 
ATOM      9  C   UNL d   1      -4.663   4.791  -0.782  0.00  0.00     0.018 C 
ENDBRANCH   1   8
TORSDOF 1
ENDMDL
