MODEL 1
REMARK minimizedAffinity 0.6668185
REMARK minimizedRMSD -1
REMARK  1 active torsions:
REMARK  status: ('A' for Active; 'I' for Inactive)
REMARK    1  A    between atoms: C1_2  and  C2_3 
ROOT
ATOM      1  C2  UNL d   1      -0.745  -4.519   5.234  0.00  0.00    -0.073 A 
ATOM      2  C3  UNL d   1       0.288  -5.201   5.887  0.00  0.00    -0.002 A 
ATOM      3  C4  UNL d   1       1.554  -4.624   5.999  0.00  0.00     0.004 A 
ATOM      4  C5  UNL d   1       1.797  -3.358   5.466  0.00  0.00    -0.004 A 
ATOM      5  C6  UNL d   1       0.774  -2.656   4.820  0.00  0.00    -0.075 A 
ATOM      6  C7  UNL d   1       1.021  -1.294   4.239  0.00  0.00     0.076 C 
ATOM      7  C8  UNL d   1      -0.493  -3.244   4.709  0.00  0.00     0.001 A 
ENDROOT
BRANCH   1   8
ATOM      8  C1  UNL d   1      -2.115  -5.136   5.117  0.00  0.00     0.053 C 
ATOM      9  C   UNL d   1      -2.249  -5.994   3.868  0.00  0.00     0.018 C 
ENDBRANCH   1   8
TORSDOF 1
ENDMDL
