MODEL 1
REMARK minimizedAffinity 4.96270323
REMARK minimizedRMSD -1
REMARK  1 active torsions:
REMARK  status: ('A' for Active; 'I' for Inactive)
REMARK    1  A    between atoms: C1_2  and  C2_3 
ROOT
ATOM      1  C2  UNL d   1       0.391  -1.650   5.016  0.00  0.00    -0.073 A 
ATOM      2  C3  UNL d   1       1.727  -1.983   5.267  0.00  0.00    -0.002 A 
ATOM      3  C4  UNL d   1       2.058  -3.246   5.759  0.00  0.00     0.004 A 
ATOM      4  C5  UNL d   1       1.059  -4.190   6.000  0.00  0.00    -0.004 A 
ATOM      5  C6  UNL d   1      -0.280  -3.880   5.744  0.00  0.00    -0.075 A 
ATOM      6  C7  UNL d   1      -1.367  -4.884   5.999  0.00  0.00     0.076 C 
ATOM      7  C8  UNL d   1      -0.605  -2.609   5.252  0.00  0.00     0.001 A 
ENDROOT
BRANCH   1   8
ATOM      8  C1  UNL d   1       0.029  -0.290   4.478  0.00  0.00     0.053 C 
ATOM      9  C   UNL d   1       1.026   0.775   4.905  0.00  0.00     0.018 C 
ENDBRANCH   1   8
TORSDOF 1
ENDMDL
