MODEL 1
REMARK minimizedAffinity 9.11015034
REMARK minimizedRMSD -1
REMARK  1 active torsions:
REMARK  status: ('A' for Active; 'I' for Inactive)
REMARK    1  A    between atoms: C1_2  and  C2_3 
ROOT
ATOM      1  C2  UNL d   1      -4.174   5.579   1.515  0.00  0.00    -0.073 A 
ATOM      2  C3  UNL d   1      -2.848   5.790   1.909  0.00  0.00    -0.002 A 
ATOM      3  C4  UNL d   1      -2.536   5.989   3.255  0.00  0.00     0.004 A 
ATOM      4  C5  UNL d   1      -3.544   5.972   4.219  0.00  0.00    -0.004 A 
ATOM      5  C6  UNL d   1      -4.874   5.750   3.846  0.00  0.00    -0.075 A 
ATOM      6  C7  UNL d   1      -5.970   5.731   4.870  0.00  0.00     0.076 C 
ATOM      7  C8  UNL d   1      -5.179   5.554   2.492  0.00  0.00     0.001 A 
ENDROOT
BRANCH   1   8
ATOM      8  C1  UNL d   1      -4.514   5.357   0.064  0.00  0.00     0.053 C 
ATOM      9  C   UNL d   1      -5.845   5.990  -0.313  0.00  0.00     0.018 C 
ENDBRANCH   1   8
TORSDOF 1
ENDMDL
