MODEL 1
REMARK minimizedAffinity 4.78343201
REMARK minimizedRMSD -1
REMARK  1 active torsions:
REMARK  status: ('A' for Active; 'I' for Inactive)
REMARK    1  A    between atoms: C1_2  and  C2_3 
ROOT
ATOM      1  C2  UNL d   1       0.520  -1.271   4.690  0.00  0.00    -0.073 A 
ATOM      2  C3  UNL d   1       1.572  -1.606   5.551  0.00  0.00    -0.002 A 
ATOM      3  C4  UNL d   1       1.751  -2.926   5.964  0.00  0.00     0.004 A 
ATOM      4  C5  UNL d   1       0.887  -3.926   5.517  0.00  0.00    -0.004 A 
ATOM      5  C6  UNL d   1      -0.162  -3.613   4.647  0.00  0.00    -0.075 A 
ATOM      6  C7  UNL d   1      -1.102  -4.676   4.158  0.00  0.00     0.076 C 
ATOM      7  C8  UNL d   1      -0.338  -2.284   4.238  0.00  0.00     0.001 A 
ENDROOT
BRANCH   1   8
ATOM      8  C1  UNL d   1       0.326   0.152   4.236  0.00  0.00     0.053 C 
ATOM      9  C   UNL d   1       1.069   1.140   5.122  0.00  0.00     0.018 C 
ENDBRANCH   1   8
TORSDOF 1
ENDMDL
