MODEL 1
REMARK minimizedAffinity 3.33617616
REMARK minimizedRMSD -1
REMARK  1 active torsions:
REMARK  status: ('A' for Active; 'I' for Inactive)
REMARK    1  A    between atoms: C1_2  and  C2_3 
ROOT
ATOM      1  C2  UNL d   1      -4.523   0.483  -2.243  0.00  0.00    -0.073 A 
ATOM      2  C3  UNL d   1      -3.437   0.140  -3.057  0.00  0.00    -0.002 A 
ATOM      3  C4  UNL d   1      -3.172   0.865  -4.220  0.00  0.00     0.004 A 
ATOM      4  C5  UNL d   1      -3.983   1.942  -4.576  0.00  0.00    -0.004 A 
ATOM      5  C6  UNL d   1      -5.066   2.307  -3.770  0.00  0.00    -0.075 A 
ATOM      6  C7  UNL d   1      -5.949   3.461  -4.141  0.00  0.00     0.076 C 
ATOM      7  C8  UNL d   1      -5.327   1.573  -2.605  0.00  0.00     0.001 A 
ENDROOT
BRANCH   1   8
ATOM      8  C1  UNL d   1      -4.809  -0.293  -0.983  0.00  0.00     0.053 C 
ATOM      9  C   UNL d   1      -5.792   0.434  -0.078  0.00  0.00     0.018 C 
ENDBRANCH   1   8
TORSDOF 1
ENDMDL
