MODEL 1
REMARK minimizedAffinity 8.04707718
REMARK minimizedRMSD -1
REMARK  2 active torsions:
REMARK  status: ('A' for Active; 'I' for Inactive)
REMARK    1  A    between atoms: C1_2  and  C2_3 
REMARK    2  A    between atoms: C2_3  and  C3_4 
ROOT
ATOM      1  C3  UNL d   1       5.029  -4.489   3.550  0.00  0.00    -0.075 A 
ATOM      2  C4  UNL d   1       5.496  -3.168   3.610  0.00  0.00     0.002 A 
ATOM      3  C5  UNL d   1       5.969  -2.638   4.811  0.00  0.00     0.002 A 
ATOM      4  C6  UNL d   1       5.971  -3.416   5.966  0.00  0.00    -0.004 A 
ATOM      5  C7  UNL d   1       5.493  -4.724   5.922  0.00  0.00     0.002 A 
ATOM      6  C8  UNL d   1       5.024  -5.259   4.720  0.00  0.00     0.002 A 
ENDROOT
BRANCH   1   7
ATOM      7  C2  UNL d   1       4.543  -5.078   2.247  0.00  0.00     0.056 C 
BRANCH   7   8
ATOM      8  C1  UNL d   1       4.213  -4.034   1.175  0.00  0.00     0.007 C 
ATOM      9  C   UNL d   1       2.790  -4.146   0.645  0.00  0.00     0.009 C 
ENDBRANCH   7   8
ENDBRANCH   1   7
TORSDOF 2
ENDMDL
