MODEL 1
REMARK minimizedAffinity 14.0659037
REMARK minimizedRMSD -1
REMARK  2 active torsions:
REMARK  status: ('A' for Active; 'I' for Inactive)
REMARK    1  A    between atoms: C1_2  and  C2_3 
REMARK    2  A    between atoms: C2_3  and  C3_4 
ROOT
ATOM      1  C3  UNL d   1       1.696   3.228   3.759  0.00  0.00    -0.075 A 
ATOM      2  C4  UNL d   1       0.823   4.301   3.529  0.00  0.00     0.002 A 
ATOM      3  C5  UNL d   1       0.599   5.258   4.520  0.00  0.00     0.002 A 
ATOM      4  C6  UNL d   1       1.235   5.148   5.754  0.00  0.00    -0.004 A 
ATOM      5  C7  UNL d   1       2.092   4.077   6.000  0.00  0.00     0.002 A 
ATOM      6  C8  UNL d   1       2.321   3.121   5.009  0.00  0.00     0.002 A 
ENDROOT
BRANCH   1   7
ATOM      7  C2  UNL d   1       1.966   2.206   2.681  0.00  0.00     0.056 C 
BRANCH   7   8
ATOM      8  C1  UNL d   1       2.597   2.790   1.412  0.00  0.00     0.007 C 
ATOM      9  C   UNL d   1       4.114   2.665   1.385  0.00  0.00     0.009 C 
ENDBRANCH   7   8
ENDBRANCH   1   7
TORSDOF 2
ENDMDL
