MODEL 1
REMARK minimizedAffinity -2.67798543
REMARK minimizedRMSD -1
REMARK  2 active torsions:
REMARK  status: ('A' for Active; 'I' for Inactive)
REMARK    1  A    between atoms: C1_2  and  C2_3 
REMARK    2  A    between atoms: C2_3  and  C3_4 
ROOT
ATOM      1  C3  UNL d   1       1.224   4.877   3.719  0.00  0.00    -0.075 A 
ATOM      2  C4  UNL d   1       1.997   5.195   4.845  0.00  0.00     0.002 A 
ATOM      3  C5  UNL d   1       1.403   5.748   5.980  0.00  0.00     0.002 A 
ATOM      4  C6  UNL d   1       0.033   6.000   6.000  0.00  0.00    -0.004 A 
ATOM      5  C7  UNL d   1      -0.742   5.704   4.881  0.00  0.00     0.002 A 
ATOM      6  C8  UNL d   1      -0.151   5.146   3.746  0.00  0.00     0.002 A 
ENDROOT
BRANCH   1   7
ATOM      7  C2  UNL d   1       1.856   4.251   2.499  0.00  0.00     0.056 C 
BRANCH   7   8
ATOM      8  C1  UNL d   1       2.241   2.779   2.682  0.00  0.00     0.007 C 
ATOM      9  C   UNL d   1       3.468   2.375   1.876  0.00  0.00     0.009 C 
ENDBRANCH   7   8
ENDBRANCH   1   7
TORSDOF 2
ENDMDL
