MODEL 1
REMARK minimizedAffinity 2.13752913
REMARK minimizedRMSD -1
REMARK  2 active torsions:
REMARK  status: ('A' for Active; 'I' for Inactive)
REMARK    1  A    between atoms: C1_2  and  C2_3 
REMARK    2  A    between atoms: C2_3  and  C3_4 
ROOT
ATOM      1  C3  UNL d   1       4.695  -4.568   3.313  0.00  0.00    -0.075 A 
ATOM      2  C4  UNL d   1       4.900  -3.318   3.916  0.00  0.00     0.002 A 
ATOM      3  C5  UNL d   1       5.299  -3.232   5.250  0.00  0.00     0.002 A 
ATOM      4  C6  UNL d   1       5.488  -4.391   6.000  0.00  0.00    -0.004 A 
ATOM      5  C7  UNL d   1       5.271  -5.637   5.416  0.00  0.00     0.002 A 
ATOM      6  C8  UNL d   1       4.876  -5.726   4.081  0.00  0.00     0.002 A 
ENDROOT
BRANCH   1   7
ATOM      7  C2  UNL d   1       4.292  -4.669   1.862  0.00  0.00     0.056 C 
BRANCH   7   8
ATOM      8  C1  UNL d   1       3.880  -3.333   1.234  0.00  0.00     0.007 C 
ATOM      9  C   UNL d   1       2.422  -3.298   0.799  0.00  0.00     0.009 C 
ENDBRANCH   7   8
ENDBRANCH   1   7
TORSDOF 2
ENDMDL
