MODEL 1
REMARK minimizedAffinity 3.7071557
REMARK minimizedRMSD -1
REMARK  2 active torsions:
REMARK  status: ('A' for Active; 'I' for Inactive)
REMARK    1  A    between atoms: C1_2  and  C2_3 
REMARK    2  A    between atoms: C2_3  and  C3_4 
ROOT
ATOM      1  C3  UNL d   1       2.973  -2.954   2.960  0.00  0.00    -0.075 A 
ATOM      2  C4  UNL d   1       2.092  -2.195   3.744  0.00  0.00     0.002 A 
ATOM      3  C5  UNL d   1       0.934  -1.653   3.186  0.00  0.00     0.002 A 
ATOM      4  C6  UNL d   1       0.648  -1.854   1.837  0.00  0.00    -0.004 A 
ATOM      5  C7  UNL d   1       1.524  -2.592   1.045  0.00  0.00     0.002 A 
ATOM      6  C8  UNL d   1       2.681  -3.139   1.602  0.00  0.00     0.002 A 
ENDROOT
BRANCH   1   7
ATOM      7  C2  UNL d   1       4.213  -3.567   3.565  0.00  0.00     0.056 C 
BRANCH   7   8
ATOM      8  C1  UNL d   1       4.602  -2.976   4.924  0.00  0.00     0.007 C 
ATOM      9  C   UNL d   1       5.987  -2.344   4.930  0.00  0.00     0.009 C 
ENDBRANCH   7   8
ENDBRANCH   1   7
TORSDOF 2
ENDMDL
