MODEL 1
REMARK minimizedAffinity -1.23778641
REMARK minimizedRMSD -1
REMARK  2 active torsions:
REMARK  status: ('A' for Active; 'I' for Inactive)
REMARK    1  A    between atoms: C1_2  and  C2_3 
REMARK    2  A    between atoms: C2_3  and  C3_4 
ROOT
ATOM      1  C3  UNL d   1       3.897   4.614  -5.805  0.00  0.00    -0.075 A 
ATOM      2  C4  UNL d   1       5.273   4.471  -5.578  0.00  0.00     0.002 A 
ATOM      3  C5  UNL d   1       5.839   3.204  -5.433  0.00  0.00     0.002 A 
ATOM      4  C6  UNL d   1       5.037   2.067  -5.502  0.00  0.00    -0.004 A 
ATOM      5  C7  UNL d   1       3.666   2.198  -5.710  0.00  0.00     0.002 A 
ATOM      6  C8  UNL d   1       3.097   3.464  -5.861  0.00  0.00     0.002 A 
ENDROOT
BRANCH   1   7
ATOM      7  C2  UNL d   1       3.283   5.980  -5.993  0.00  0.00     0.056 C 
BRANCH   7   8
ATOM      8  C1  UNL d   1       1.750   5.980  -6.000  0.00  0.00     0.007 C 
ATOM      9  C   UNL d   1       1.144   5.785  -4.617  0.00  0.00     0.009 C 
ENDBRANCH   7   8
ENDBRANCH   1   7
TORSDOF 2
ENDMDL
