MODEL 1
REMARK minimizedAffinity 8.04363251
REMARK minimizedRMSD -1
REMARK  2 active torsions:
REMARK  status: ('A' for Active; 'I' for Inactive)
REMARK    1  A    between atoms: C1_2  and  C2_3 
REMARK    2  A    between atoms: C2_3  and  C3_4 
ROOT
ATOM      1  C3  UNL d   1       2.137   5.036   3.414  0.00  0.00    -0.075 A 
ATOM      2  C4  UNL d   1       0.860   5.511   3.746  0.00  0.00     0.002 A 
ATOM      3  C5  UNL d   1       0.595   5.994   5.028  0.00  0.00     0.002 A 
ATOM      4  C6  UNL d   1       1.598   5.999   5.995  0.00  0.00    -0.004 A 
ATOM      5  C7  UNL d   1       2.866   5.514   5.680  0.00  0.00     0.002 A 
ATOM      6  C8  UNL d   1       3.135   5.034   4.397  0.00  0.00     0.002 A 
ENDROOT
BRANCH   1   7
ATOM      7  C2  UNL d   1       2.438   4.539   2.020  0.00  0.00     0.056 C 
BRANCH   7   8
ATOM      8  C1  UNL d   1       2.953   3.097   1.969  0.00  0.00     0.007 C 
ATOM      9  C   UNL d   1       3.885   2.833   0.794  0.00  0.00     0.009 C 
ENDBRANCH   7   8
ENDBRANCH   1   7
TORSDOF 2
ENDMDL
