MODEL 1
REMARK minimizedAffinity 3.15473223
REMARK minimizedRMSD -1
REMARK  2 active torsions:
REMARK  status: ('A' for Active; 'I' for Inactive)
REMARK    1  A    between atoms: C1_2  and  C2_3 
REMARK    2  A    between atoms: C2_3  and  C3_4 
ROOT
ATOM      1  C3  UNL d   1       3.168   4.647  -5.939  0.00  0.00    -0.075 A 
ATOM      2  C4  UNL d   1       3.925   3.468  -5.978  0.00  0.00     0.002 A 
ATOM      3  C5  UNL d   1       5.317   3.517  -5.899  0.00  0.00     0.002 A 
ATOM      4  C6  UNL d   1       5.969   4.743  -5.791  0.00  0.00    -0.004 A 
ATOM      5  C7  UNL d   1       5.227   5.923  -5.767  0.00  0.00     0.002 A 
ATOM      6  C8  UNL d   1       3.834   5.876  -5.842  0.00  0.00     0.002 A 
ENDROOT
BRANCH   1   7
ATOM      7  C2  UNL d   1       1.659   4.599  -5.995  0.00  0.00     0.056 C 
BRANCH   7   8
ATOM      8  C1  UNL d   1       1.080   3.180  -5.999  0.00  0.00     0.007 C 
ATOM      9  C   UNL d   1      -0.085   3.005  -5.034  0.00  0.00     0.009 C 
ENDBRANCH   7   8
ENDBRANCH   1   7
TORSDOF 2
ENDMDL
