MODEL 1
REMARK minimizedAffinity -3.19999313
REMARK minimizedRMSD -1
REMARK  2 active torsions:
REMARK  status: ('A' for Active; 'I' for Inactive)
REMARK    1  A    between atoms: C1_2  and  C2_3 
REMARK    2  A    between atoms: C2_3  and  C3_4 
ROOT
ATOM      1  C3  UNL d   1       3.945  -3.417   2.187  0.00  0.00    -0.075 A 
ATOM      2  C4  UNL d   1       2.835  -2.562   2.121  0.00  0.00     0.002 A 
ATOM      3  C5  UNL d   1       2.335  -2.145   0.887  0.00  0.00     0.002 A 
ATOM      4  C6  UNL d   1       2.944  -2.567  -0.293  0.00  0.00    -0.004 A 
ATOM      5  C7  UNL d   1       4.057  -3.402  -0.239  0.00  0.00     0.002 A 
ATOM      6  C8  UNL d   1       4.557  -3.825   0.994  0.00  0.00     0.002 A 
ENDROOT
BRANCH   1   7
ATOM      7  C2  UNL d   1       4.473  -3.896   3.518  0.00  0.00     0.056 C 
BRANCH   7   8
ATOM      8  C1  UNL d   1       4.811  -2.767   4.498  0.00  0.00     0.007 C 
ATOM      9  C   UNL d   1       5.346  -3.270   5.832  0.00  0.00     0.009 C 
ENDBRANCH   7   8
ENDBRANCH   1   7
TORSDOF 2
ENDMDL
