MODEL 1
REMARK minimizedAffinity -3.25512958
REMARK minimizedRMSD -1
REMARK  0 active torsions:
REMARK  status: ('A' for Active; 'I' for Inactive)
ROOT
ATOM      1  C1  DEN d   1      -0.361   1.482   0.228  0.00  0.00     0.130 A 
ATOM      2  C2  DEN d   1      -1.559   1.248   1.031  0.00  0.00    -0.031 A 
ATOM      3  C3  DEN d   1      -1.525  -0.151   1.504  0.00  0.00     0.027 A 
ATOM      4  C4  DEN d   1       0.257  -1.966   1.077  0.00  0.00     0.027 A 
ATOM      5  C5  DEN d   1       1.449  -2.242   0.445  0.00  0.00    -0.003 A 
ATOM      6  C6  DEN d   1       2.098  -1.314  -0.326  0.00  0.00     0.001 A 
ATOM      7  C7  DEN d   1       1.582  -0.051  -0.448  0.00  0.00     0.017 A 
ATOM      8  C8  DEN d   1       0.377   0.233   0.182  0.00  0.00    -0.094 A 
ATOM      9  C9  DEN d   1      -0.258  -0.715   0.967  0.00  0.00    -0.072 A 
ENDROOT
TORSDOF 0
ENDMDL
