MODEL 1
REMARK minimizedAffinity -3.57161546
REMARK minimizedRMSD -1
REMARK  0 active torsions:
REMARK  status: ('A' for Active; 'I' for Inactive)
ROOT
ATOM      1  C1  DEN d   1       1.936  -1.447   0.649  0.00  0.00     0.130 A 
ATOM      2  C2  DEN d   1       2.818  -0.446   0.055  0.00  0.00    -0.031 A 
ATOM      3  C3  DEN d   1       2.068   0.822  -0.043  0.00  0.00     0.027 A 
ATOM      4  C4  DEN d   1      -0.358   1.331   0.668  0.00  0.00     0.027 A 
ATOM      5  C5  DEN d   1      -1.505   0.795   1.210  0.00  0.00    -0.003 A 
ATOM      6  C6  DEN d   1      -1.596  -0.524   1.569  0.00  0.00     0.001 A 
ATOM      7  C7  DEN d   1      -0.505  -1.341   1.431  0.00  0.00     0.017 A 
ATOM      8  C8  DEN d   1       0.653  -0.809   0.878  0.00  0.00    -0.094 A 
ATOM      9  C9  DEN d   1       0.728   0.529   0.533  0.00  0.00    -0.072 A 
ENDROOT
TORSDOF 0
ENDMDL
