MODEL 1
REMARK minimizedAffinity -2.16174078
REMARK minimizedRMSD -1
REMARK  0 active torsions:
REMARK  status: ('A' for Active; 'I' for Inactive)
ROOT
ATOM      1  C1  DEN d   1       1.195  -2.500   0.938  0.00  0.00     0.130 A 
ATOM      2  C2  DEN d   1       2.229  -2.361  -0.084  0.00  0.00    -0.031 A 
ATOM      3  C3  DEN d   1       1.982  -1.102  -0.815  0.00  0.00     0.027 A 
ATOM      4  C4  DEN d   1       0.110   0.637  -0.464  0.00  0.00     0.027 A 
ATOM      5  C5  DEN d   1      -1.010   0.948   0.276  0.00  0.00    -0.003 A 
ATOM      6  C6  DEN d   1      -1.488   0.121   1.257  0.00  0.00     0.001 A 
ATOM      7  C7  DEN d   1      -0.819  -1.036   1.557  0.00  0.00     0.017 A 
ATOM      8  C8  DEN d   1       0.306  -1.359   0.810  0.00  0.00    -0.094 A 
ATOM      9  C9  DEN d   1       0.781  -0.505  -0.170  0.00  0.00    -0.072 A 
ENDROOT
TORSDOF 0
ENDMDL
