MODEL 1
REMARK minimizedAffinity -4.95415592
REMARK minimizedRMSD -1
REMARK  0 active torsions:
REMARK  status: ('A' for Active; 'I' for Inactive)
ROOT
ATOM      1  C1  DEN d   1       1.065  -1.075  -0.495  0.00  0.00     0.130 A 
ATOM      2  C2  DEN d   1       1.324  -2.366   0.135  0.00  0.00    -0.031 A 
ATOM      3  C3  DEN d   1       0.453  -2.479   1.322  0.00  0.00     0.027 A 
ATOM      4  C4  DEN d   1      -1.267  -0.790   2.238  0.00  0.00     0.027 A 
ATOM      5  C5  DEN d   1      -1.830   0.453   2.049  0.00  0.00    -0.003 A 
ATOM      6  C6  DEN d   1      -1.447   1.281   1.028  0.00  0.00     0.001 A 
ATOM      7  C7  DEN d   1      -0.504   0.857   0.128  0.00  0.00     0.017 A 
ATOM      8  C8  DEN d   1       0.073  -0.391   0.316  0.00  0.00    -0.094 A 
ATOM      9  C9  DEN d   1      -0.336  -1.218   1.348  0.00  0.00    -0.072 A 
ENDROOT
TORSDOF 0
ENDMDL
