MODEL 1
REMARK minimizedAffinity -3.17924118
REMARK minimizedRMSD -1
REMARK  0 active torsions:
REMARK  status: ('A' for Active; 'I' for Inactive)
ROOT
ATOM      1  C1  DEN d   1      -1.605   0.185   0.238  0.00  0.00     0.130 A 
ATOM      2  C2  DEN d   1      -1.465   1.531  -0.310  0.00  0.00    -0.031 A 
ATOM      3  C3  DEN d   1      -0.033   1.766  -0.585  0.00  0.00     0.027 A 
ATOM      4  C4  DEN d   1       1.969   0.181  -0.223  0.00  0.00     0.027 A 
ATOM      5  C5  DEN d   1       2.348  -1.063   0.231  0.00  0.00    -0.003 A 
ATOM      6  C6  DEN d   1       1.448  -1.958   0.745  0.00  0.00     0.001 A 
ATOM      7  C7  DEN d   1       0.116  -1.639   0.777  0.00  0.00     0.017 A 
ATOM      8  C8  DEN d   1      -0.273  -0.384   0.329  0.00  0.00    -0.094 A 
ATOM      9  C9  DEN d   1       0.651   0.502  -0.199  0.00  0.00    -0.072 A 
ENDROOT
TORSDOF 0
ENDMDL
