MODEL 1
REMARK minimizedAffinity -4.91503239
REMARK minimizedRMSD -1
REMARK  0 active torsions:
REMARK  status: ('A' for Active; 'I' for Inactive)
ROOT
ATOM      1  C1  DEN d   1      -1.577   0.444   0.353  0.00  0.00     0.130 A 
ATOM      2  C2  DEN d   1      -1.474   1.628  -0.496  0.00  0.00    -0.031 A 
ATOM      3  C3  DEN d   1      -0.085   1.715  -0.991  0.00  0.00     0.027 A 
ATOM      4  C4  DEN d   1       1.903   0.137  -0.532  0.00  0.00     0.027 A 
ATOM      5  C5  DEN d   1       2.304  -0.998   0.139  0.00  0.00    -0.003 A 
ATOM      6  C6  DEN d   1       1.455  -1.706   0.948  0.00  0.00     0.001 A 
ATOM      7  C7  DEN d   1       0.149  -1.312   1.072  0.00  0.00     0.017 A 
ATOM      8  C8  DEN d   1      -0.261  -0.165   0.405  0.00  0.00    -0.094 A 
ATOM      9  C9  DEN d   1       0.609   0.530  -0.418  0.00  0.00    -0.072 A 
ENDROOT
TORSDOF 0
ENDMDL
