MODEL 1
REMARK minimizedAffinity -3.93195105
REMARK minimizedRMSD -1
REMARK  0 active torsions:
REMARK  status: ('A' for Active; 'I' for Inactive)
ROOT
ATOM      1  C1  DEN d   1       0.224  -2.253   1.311  0.00  0.00     0.130 A 
ATOM      2  C2  DEN d   1       1.649  -2.558   1.225  0.00  0.00    -0.031 A 
ATOM      3  C3  DEN d   1       2.307  -1.463   0.485  0.00  0.00     0.027 A 
ATOM      4  C4  DEN d   1       1.262   0.667  -0.528  0.00  0.00     0.027 A 
ATOM      5  C5  DEN d   1       0.087   1.358  -0.720  0.00  0.00    -0.003 A 
ATOM      6  C6  DEN d   1      -1.120   0.882  -0.282  0.00  0.00     0.001 A 
ATOM      7  C7  DEN d   1      -1.173  -0.298   0.411  0.00  0.00     0.017 A 
ATOM      8  C8  DEN d   1       0.007  -1.005   0.602  0.00  0.00    -0.094 A 
ATOM      9  C9  DEN d   1       1.219  -0.501   0.162  0.00  0.00    -0.072 A 
ENDROOT
TORSDOF 0
ENDMDL
