MODEL 1
REMARK minimizedAffinity -3.89238548
REMARK minimizedRMSD -1
REMARK  0 active torsions:
REMARK  status: ('A' for Active; 'I' for Inactive)
ROOT
ATOM      1  C1  DEN d   1      -0.226  -2.130   1.017  0.00  0.00     0.130 A 
ATOM      2  C2  DEN d   1       1.066  -2.801   0.900  0.00  0.00    -0.031 A 
ATOM      3  C3  DEN d   1       2.010  -1.866   0.255  0.00  0.00     0.027 A 
ATOM      4  C4  DEN d   1       1.600   0.546  -0.563  0.00  0.00     0.027 A 
ATOM      5  C5  DEN d   1       0.659   1.544  -0.689  0.00  0.00    -0.003 A 
ATOM      6  C6  DEN d   1      -0.640   1.377  -0.289  0.00  0.00     0.001 A 
ATOM      7  C7  DEN d   1      -1.024   0.200   0.297  0.00  0.00     0.017 A 
ATOM      8  C8  DEN d   1      -0.083  -0.814   0.421  0.00  0.00    -0.094 A 
ATOM      9  C9  DEN d   1       1.229  -0.621   0.022  0.00  0.00    -0.072 A 
ENDROOT
TORSDOF 0
ENDMDL
