MODEL 1
REMARK minimizedAffinity -4.42166805
REMARK minimizedRMSD -1
REMARK  0 active torsions:
REMARK  status: ('A' for Active; 'I' for Inactive)
ROOT
ATOM      1  C1  DEN d   1       0.349  -2.386   1.093  0.00  0.00     0.130 A 
ATOM      2  C2  DEN d   1       1.718  -2.774   0.768  0.00  0.00    -0.031 A 
ATOM      3  C3  DEN d   1       2.345  -1.660   0.028  0.00  0.00     0.027 A 
ATOM      4  C4  DEN d   1       1.334   0.618  -0.636  0.00  0.00     0.027 A 
ATOM      5  C5  DEN d   1       0.201   1.400  -0.590  0.00  0.00    -0.003 A 
ATOM      6  C6  DEN d   1      -0.964   0.964  -0.015  0.00  0.00     0.001 A 
ATOM      7  C7  DEN d   1      -1.007  -0.270   0.579  0.00  0.00     0.017 A 
ATOM      8  C8  DEN d   1       0.129  -1.066   0.530  0.00  0.00    -0.094 A 
ATOM      9  C9  DEN d   1       1.300  -0.603  -0.046  0.00  0.00    -0.072 A 
ENDROOT
TORSDOF 0
ENDMDL
