MODEL 1
REMARK minimizedAffinity -5.48791313
REMARK minimizedRMSD -1
REMARK  0 active torsions:
REMARK  status: ('A' for Active; 'I' for Inactive)
ROOT
ATOM      1  C1  DEN d   1       0.440   1.139  -0.877  0.00  0.00     0.130 A 
ATOM      2  C2  DEN d   1      -0.887   1.571  -0.447  0.00  0.00    -0.031 A 
ATOM      3  C3  DEN d   1      -1.454   0.515   0.415  0.00  0.00     0.027 A 
ATOM      4  C4  DEN d   1      -0.411  -1.734   1.126  0.00  0.00     0.027 A 
ATOM      5  C5  DEN d   1       0.694  -2.548   1.003  0.00  0.00    -0.003 A 
ATOM      6  C6  DEN d   1       1.768  -2.208   0.223  0.00  0.00     0.001 A 
ATOM      7  C7  DEN d   1       1.780  -1.003  -0.427  0.00  0.00     0.017 A 
ATOM      8  C8  DEN d   1       0.667  -0.180  -0.314  0.00  0.00    -0.094 A 
ATOM      9  C9  DEN d   1      -0.404  -0.536   0.489  0.00  0.00    -0.072 A 
ENDROOT
TORSDOF 0
ENDMDL
