MODEL 1
REMARK minimizedAffinity -4.86669874
REMARK minimizedRMSD -1
REMARK  0 active torsions:
REMARK  status: ('A' for Active; 'I' for Inactive)
ROOT
ATOM      1  C1  DEN d   1       0.476  -2.869   0.855  0.00  0.00     0.130 A 
ATOM      2  C2  DEN d   1       1.900  -2.906   1.179  0.00  0.00    -0.031 A 
ATOM      3  C3  DEN d   1       2.450  -1.551   0.974  0.00  0.00     0.027 A 
ATOM      4  C4  DEN d   1       1.241   0.591   0.196  0.00  0.00     0.027 A 
ATOM      5  C5  DEN d   1       0.033   1.114  -0.209  0.00  0.00    -0.003 A 
ATOM      6  C6  DEN d   1      -1.095   0.345  -0.319  0.00  0.00     0.001 A 
ATOM      7  C7  DEN d   1      -1.049  -0.981   0.023  0.00  0.00     0.017 A 
ATOM      8  C8  DEN d   1       0.167  -1.517   0.425  0.00  0.00    -0.094 A 
ATOM      9  C9  DEN d   1       1.294  -0.721   0.541  0.00  0.00    -0.072 A 
ENDROOT
TORSDOF 0
ENDMDL
