MODEL 1
REMARK minimizedAffinity 0.97819221
REMARK minimizedRMSD -1
REMARK  0 active torsions:
REMARK  status: ('A' for Active; 'I' for Inactive)
ROOT
ATOM      1  C1  DEN d   1      -0.441  -0.881  -0.327  0.00  0.00     0.130 A 
ATOM      2  C2  DEN d   1       0.606  -0.181   0.413  0.00  0.00    -0.031 A 
ATOM      3  C3  DEN d   1       0.607   1.230  -0.023  0.00  0.00     0.027 A 
ATOM      4  C4  DEN d   1      -0.906   2.393  -1.758  0.00  0.00     0.027 A 
ATOM      5  C5  DEN d   1      -1.935   2.207  -2.655  0.00  0.00    -0.003 A 
ATOM      6  C6  DEN d   1      -2.510   0.981  -2.862  0.00  0.00     0.001 A 
ATOM      7  C7  DEN d   1      -2.090  -0.098  -2.129  0.00  0.00     0.017 A 
ATOM      8  C8  DEN d   1      -1.049   0.081  -1.228  0.00  0.00    -0.094 A 
ATOM      9  C9  DEN d   1      -0.489   1.331  -1.025  0.00  0.00    -0.072 A 
ENDROOT
TORSDOF 0
ENDMDL
