MODEL 1
REMARK minimizedAffinity -2.37874889
REMARK minimizedRMSD -1
REMARK  0 active torsions:
REMARK  status: ('A' for Active; 'I' for Inactive)
ROOT
ATOM      1  C1  DEN d   1       0.007  -2.609   0.377  0.00  0.00     0.130 A 
ATOM      2  C2  DEN d   1       1.417  -2.903   0.621  0.00  0.00    -0.031 A 
ATOM      3  C3  DEN d   1       2.169  -1.636   0.529  0.00  0.00     0.027 A 
ATOM      4  C4  DEN d   1       1.293   0.740   0.040  0.00  0.00     0.027 A 
ATOM      5  C5  DEN d   1       0.171   1.486  -0.245  0.00  0.00    -0.003 A 
ATOM      6  C6  DEN d   1      -1.069   0.919  -0.375  0.00  0.00     0.001 A 
ATOM      7  C7  DEN d   1      -1.224  -0.427  -0.175  0.00  0.00     0.017 A 
ATOM      8  C8  DEN d   1      -0.096  -1.187   0.105  0.00  0.00    -0.094 A 
ATOM      9  C9  DEN d   1       1.147  -0.593   0.245  0.00  0.00    -0.072 A 
ENDROOT
TORSDOF 0
ENDMDL
