MODEL 1
REMARK minimizedAffinity -1.62791944
REMARK minimizedRMSD -1
REMARK  0 active torsions:
REMARK  status: ('A' for Active; 'I' for Inactive)
ROOT
ATOM      1  C1  DEN d   1       0.584  -2.196   1.773  0.00  0.00     0.130 A 
ATOM      2  C2  DEN d   1       1.851  -2.729   1.279  0.00  0.00    -0.031 A 
ATOM      3  C3  DEN d   1       2.285  -1.894   0.141  0.00  0.00     0.027 A 
ATOM      4  C4  DEN d   1       1.127   0.164  -0.895  0.00  0.00     0.027 A 
ATOM      5  C5  DEN d   1       0.024   0.986  -0.824  0.00  0.00    -0.003 A 
ATOM      6  C6  DEN d   1      -0.978   0.786   0.088  0.00  0.00     0.001 A 
ATOM      7  C7  DEN d   1      -0.875  -0.234   0.997  0.00  0.00     0.017 A 
ATOM      8  C8  DEN d   1       0.231  -1.071   0.926  0.00  0.00    -0.094 A 
ATOM      9  C9  DEN d   1       1.239  -0.845   0.004  0.00  0.00    -0.072 A 
ENDROOT
TORSDOF 0
ENDMDL
