MODEL 1
REMARK minimizedAffinity -5.0710268
REMARK minimizedRMSD -1
REMARK  1 active torsions:
REMARK  status: ('A' for Active; 'I' for Inactive)
REMARK    1  A    between atoms: C1_2  and  C2_3 
ROOT
ATOM      1  C2  UNL d   1      -0.390   1.511  -0.604  0.00  0.00    -0.077 A 
ATOM      2  C3  UNL d   1      -0.475   2.498  -1.597  0.00  0.00     0.002 A 
ATOM      3  C4  UNL d   1      -0.752   3.823  -1.253  0.00  0.00     0.002 A 
ATOM      4  C5  UNL d   1      -0.942   4.173   0.082  0.00  0.00    -0.004 A 
ATOM      5  C6  UNL d   1      -0.861   3.198   1.076  0.00  0.00     0.002 A 
ATOM      6  C7  UNL d   1      -0.585   1.874   0.734  0.00  0.00     0.002 A 
ENDROOT
BRANCH   1   7
ATOM      7  C1  UNL d   1      -0.042   0.091  -0.968  0.00  0.00     0.055 C 
ATOM      8  C   UNL d   1       0.943  -0.509   0.025  0.00  0.00     0.019 C 
ENDBRANCH   1   7
TORSDOF 1
ENDMDL
