MODEL 1
REMARK minimizedAffinity -3.67526984
REMARK minimizedRMSD -1
REMARK  1 active torsions:
REMARK  status: ('A' for Active; 'I' for Inactive)
REMARK    1  A    between atoms: C1_2  and  C2_3 
ROOT
ATOM      1  C2  UNL d   1      -0.184   1.598  -0.310  0.00  0.00    -0.077 A 
ATOM      2  C3  UNL d   1       0.328   0.328  -0.607  0.00  0.00     0.002 A 
ATOM      3  C4  UNL d   1       0.559  -0.597   0.413  0.00  0.00     0.002 A 
ATOM      4  C5  UNL d   1       0.277  -0.262   1.736  0.00  0.00    -0.004 A 
ATOM      5  C6  UNL d   1      -0.231   1.000   2.042  0.00  0.00     0.002 A 
ATOM      6  C7  UNL d   1      -0.461   1.926   1.023  0.00  0.00     0.002 A 
ENDROOT
BRANCH   1   7
ATOM      7  C1  UNL d   1      -0.480   2.580  -1.414  0.00  0.00     0.055 C 
ATOM      8  C   UNL d   1      -0.429   4.014  -0.909  0.00  0.00     0.019 C 
ENDBRANCH   1   7
TORSDOF 1
ENDMDL
