MODEL 1
REMARK minimizedAffinity -1.48548496
REMARK minimizedRMSD -1
REMARK  1 active torsions:
REMARK  status: ('A' for Active; 'I' for Inactive)
REMARK    1  A    between atoms: C1_2  and  C2_3 
ROOT
ATOM      1  C2  UNL d   1       0.177   0.367   0.015  0.00  0.00    -0.077 A 
ATOM      2  C3  UNL d   1      -0.300   1.483   0.717  0.00  0.00     0.002 A 
ATOM      3  C4  UNL d   1       0.002   1.649   2.070  0.00  0.00     0.002 A 
ATOM      4  C5  UNL d   1       0.785   0.705   2.731  0.00  0.00    -0.004 A 
ATOM      5  C6  UNL d   1       1.262  -0.410   2.043  0.00  0.00     0.002 A 
ATOM      6  C7  UNL d   1       0.960  -0.578   0.691  0.00  0.00     0.002 A 
ENDROOT
BRANCH   1   7
ATOM      7  C1  UNL d   1      -0.106   0.212  -1.456  0.00  0.00     0.055 C 
ATOM      8  C   UNL d   1      -0.514   1.537  -2.084  0.00  0.00     0.019 C 
ENDBRANCH   1   7
TORSDOF 1
ENDMDL
