MODEL 1
REMARK minimizedAffinity -2.91374087
REMARK minimizedRMSD -1
REMARK  1 active torsions:
REMARK  status: ('A' for Active; 'I' for Inactive)
REMARK    1  A    between atoms: C1_2  and  C2_3 
ROOT
ATOM      1  C2  UNL d   1      -0.168   2.247   0.347  0.00  0.00    -0.077 A 
ATOM      2  C3  UNL d   1       0.073   2.042   1.713  0.00  0.00     0.002 A 
ATOM      3  C4  UNL d   1       0.237   0.750   2.216  0.00  0.00     0.002 A 
ATOM      4  C5  UNL d   1       0.166  -0.347   1.359  0.00  0.00    -0.004 A 
ATOM      5  C6  UNL d   1      -0.076  -0.154  -0.000  0.00  0.00     0.002 A 
ATOM      6  C7  UNL d   1      -0.241   1.137  -0.504  0.00  0.00     0.002 A 
ENDROOT
BRANCH   1   7
ATOM      7  C1  UNL d   1      -0.296   3.642  -0.205  0.00  0.00     0.055 C 
ATOM      8  C   UNL d   1      -0.496   3.624  -1.714  0.00  0.00     0.019 C 
ENDBRANCH   1   7
TORSDOF 1
ENDMDL
