MODEL 1
REMARK minimizedAffinity 1.04675353
REMARK minimizedRMSD -1
REMARK  1 active torsions:
REMARK  status: ('A' for Active; 'I' for Inactive)
REMARK    1  A    between atoms: C1_2  and  C2_3 
ROOT
ATOM      1  C2  UNL d   1       0.347  -2.317  -1.035  0.00  0.00    -0.077 A 
ATOM      2  C3  UNL d   1      -0.689  -1.671  -1.724  0.00  0.00     0.002 A 
ATOM      3  C4  UNL d   1      -0.657  -0.287  -1.911  0.00  0.00     0.002 A 
ATOM      4  C5  UNL d   1       0.410   0.460  -1.416  0.00  0.00    -0.004 A 
ATOM      5  C6  UNL d   1       1.444  -0.174  -0.728  0.00  0.00     0.002 A 
ATOM      6  C7  UNL d   1       1.413  -1.556  -0.539  0.00  0.00     0.002 A 
ENDROOT
BRANCH   1   7
ATOM      7  C1  UNL d   1       0.339  -3.815  -0.876  0.00  0.00     0.055 C 
ATOM      8  C   UNL d   1      -0.905  -4.432  -1.498  0.00  0.00     0.019 C 
ENDBRANCH   1   7
TORSDOF 1
ENDMDL
