MODEL 1
REMARK minimizedAffinity 4.03986311
REMARK minimizedRMSD -1
REMARK  0 active torsions:
REMARK  status: ('A' for Active; 'I' for Inactive)
ROOT
ATOM      1  N1  IND d   1      -2.185  -5.999  -1.516  0.00  0.00    -0.196 N 
ATOM      2  C2  IND d   1      -3.462  -5.995  -2.003  0.00  0.00     0.054 A 
ATOM      3  C3  IND d   1      -3.450  -5.957  -3.355  0.00  0.00    -0.031 A 
ATOM      4  C4  IND d   1      -1.450  -5.999  -4.975  0.00  0.00     0.051 A 
ATOM      5  C5  IND d   1      -0.084  -5.966  -5.000  0.00  0.00    -0.031 A 
ATOM      6  C6  IND d   1       0.667  -5.944  -3.843  0.00  0.00     0.015 A 
ATOM      7  C7  IND d   1       0.077  -5.967  -2.611  0.00  0.00    -0.016 A 
ATOM      8  C8  IND d   1      -1.310  -5.993  -2.581  0.00  0.00    -0.047 A 
ATOM      9  C9  IND d   1      -2.078  -5.972  -3.752  0.00  0.00    -0.096 A 
ATOM     10  HN1 IND d   1      -1.965  -6.004  -0.685  0.00  0.00     0.298 HD
ENDROOT
TORSDOF 0
ENDMDL
