MODEL 1
REMARK minimizedAffinity 1.39781368
REMARK minimizedRMSD -1
REMARK  0 active torsions:
REMARK  status: ('A' for Active; 'I' for Inactive)
ROOT
ATOM      1  N1  IND d   1      -3.650  -5.958  -3.987  0.00  0.00    -0.196 N 
ATOM      2  C2  IND d   1      -3.633  -5.965  -2.620  0.00  0.00     0.054 A 
ATOM      3  C3  IND d   1      -2.360  -6.000  -2.166  0.00  0.00    -0.031 A 
ATOM      4  C4  IND d   1      -0.150  -5.948  -3.487  0.00  0.00     0.051 A 
ATOM      5  C5  IND d   1       0.344  -5.977  -4.760  0.00  0.00    -0.031 A 
ATOM      6  C6  IND d   1      -0.484  -5.999  -5.864  0.00  0.00     0.015 A 
ATOM      7  C7  IND d   1      -1.844  -5.981  -5.734  0.00  0.00    -0.016 A 
ATOM      8  C8  IND d   1      -2.350  -5.959  -4.442  0.00  0.00    -0.047 A 
ATOM      9  C9  IND d   1      -1.514  -5.980  -3.318  0.00  0.00    -0.096 A 
ATOM     10  HN1 IND d   1      -4.355  -5.954  -4.480  0.00  0.00     0.298 HD
ENDROOT
TORSDOF 0
ENDMDL
