MODEL 1
REMARK minimizedAffinity -1.65922284
REMARK minimizedRMSD -1
REMARK  0 active torsions:
REMARK  status: ('A' for Active; 'I' for Inactive)
ROOT
ATOM      1  N1  IND d   1      -4.785  -5.984  -3.744  0.00  0.00    -0.196 N 
ATOM      2  C2  IND d   1      -4.858  -5.982  -2.379  0.00  0.00     0.054 A 
ATOM      3  C3  IND d   1      -3.617  -6.000  -1.842  0.00  0.00    -0.031 A 
ATOM      4  C4  IND d   1      -1.326  -5.930  -3.015  0.00  0.00     0.051 A 
ATOM      5  C5  IND d   1      -0.748  -5.961  -4.253  0.00  0.00    -0.031 A 
ATOM      6  C6  IND d   1      -1.502  -5.999  -5.408  0.00  0.00     0.015 A 
ATOM      7  C7  IND d   1      -2.868  -5.996  -5.368  0.00  0.00    -0.016 A 
ATOM      8  C8  IND d   1      -3.458  -5.972  -4.112  0.00  0.00    -0.047 A 
ATOM      9  C9  IND d   1      -2.698  -5.976  -2.936  0.00  0.00    -0.096 A 
ATOM     10  HN1 IND d   1      -5.456  -5.991  -4.282  0.00  0.00     0.298 HD
ENDROOT
TORSDOF 0
ENDMDL
