MODEL 1
REMARK minimizedAffinity 2.10977244
REMARK minimizedRMSD -1
REMARK  0 active torsions:
REMARK  status: ('A' for Active; 'I' for Inactive)
ROOT
ATOM      1  N1  IND d   1      -3.382   2.654  -4.142  0.00  0.00    -0.196 N 
ATOM      2  C2  IND d   1      -3.478   1.620  -3.252  0.00  0.00     0.054 A 
ATOM      3  C3  IND d   1      -2.286   1.404  -2.652  0.00  0.00    -0.031 A 
ATOM      4  C4  IND d   1      -0.071   2.691  -2.902  0.00  0.00     0.051 A 
ATOM      5  C5  IND d   1       0.518   3.691  -3.623  0.00  0.00    -0.031 A 
ATOM      6  C6  IND d   1      -0.177   4.413  -4.572  0.00  0.00     0.015 A 
ATOM      7  C7  IND d   1      -1.497   4.168  -4.827  0.00  0.00    -0.016 A 
ATOM      8  C8  IND d   1      -2.097   3.149  -4.101  0.00  0.00    -0.047 A 
ATOM      9  C9  IND d   1      -1.385   2.384  -3.168  0.00  0.00    -0.096 A 
ATOM     10  HN1 IND d   1      -4.017   2.946  -4.642  0.00  0.00     0.298 HD
ENDROOT
TORSDOF 0
ENDMDL
