MODEL 1
REMARK minimizedAffinity 14.9308844
REMARK minimizedRMSD -1
REMARK  0 active torsions:
REMARK  status: ('A' for Active; 'I' for Inactive)
ROOT
ATOM      1  N1  IND d   1      -3.579   2.818  -3.795  0.00  0.00    -0.196 N 
ATOM      2  C2  IND d   1      -3.658   1.538  -3.322  0.00  0.00     0.054 A 
ATOM      3  C3  IND d   1      -2.422   1.052  -3.070  0.00  0.00    -0.031 A 
ATOM      4  C4  IND d   1      -0.135   2.218  -3.263  0.00  0.00     0.051 A 
ATOM      5  C5  IND d   1       0.450   3.378  -3.686  0.00  0.00    -0.031 A 
ATOM      6  C6  IND d   1      -0.293   4.434  -4.174  0.00  0.00     0.015 A 
ATOM      7  C7  IND d   1      -1.656   4.372  -4.247  0.00  0.00    -0.016 A 
ATOM      8  C8  IND d   1      -2.253   3.192  -3.825  0.00  0.00    -0.047 A 
ATOM      9  C9  IND d   1      -1.501   2.102  -3.369  0.00  0.00    -0.096 A 
ATOM     10  HN1 IND d   1      -4.244   3.307  -4.034  0.00  0.00     0.298 HD
ENDROOT
TORSDOF 0
ENDMDL
