MODEL 1
REMARK minimizedAffinity -3.68354225
REMARK minimizedRMSD -1
REMARK  0 active torsions:
REMARK  status: ('A' for Active; 'I' for Inactive)
ROOT
ATOM      1  N1  IND d   1      -0.935  -4.882  -5.969  0.00  0.00    -0.196 N 
ATOM      2  C2  IND d   1       0.382  -5.247  -5.999  0.00  0.00     0.054 A 
ATOM      3  C3  IND d   1       0.774  -5.692  -4.784  0.00  0.00    -0.031 A 
ATOM      4  C4  IND d   1      -0.604  -6.000  -2.631  0.00  0.00     0.051 A 
ATOM      5  C5  IND d   1      -1.843  -5.768  -2.103  0.00  0.00    -0.031 A 
ATOM      6  C6  IND d   1      -2.864  -5.221  -2.852  0.00  0.00     0.015 A 
ATOM      7  C7  IND d   1      -2.687  -4.894  -4.167  0.00  0.00    -0.016 A 
ATOM      8  C8  IND d   1      -1.428  -5.121  -4.705  0.00  0.00    -0.047 A 
ATOM      9  C9  IND d   1      -0.375  -5.636  -3.937  0.00  0.00    -0.096 A 
ATOM     10  HN1 IND d   1      -1.381  -4.557  -6.628  0.00  0.00     0.298 HD
ENDROOT
TORSDOF 0
ENDMDL
