MODEL 1
REMARK minimizedAffinity 1.06291008
REMARK minimizedRMSD -1
REMARK  0 active torsions:
REMARK  status: ('A' for Active; 'I' for Inactive)
ROOT
ATOM      1  N1  IND d   1       0.157   2.200   0.478  0.00  0.00    -0.196 N 
ATOM      2  C2  IND d   1       0.733   0.962   0.542  0.00  0.00     0.054 A 
ATOM      3  C3  IND d   1       0.898   0.455  -0.701  0.00  0.00    -0.031 A 
ATOM      4  C4  IND d   1       0.388   1.528  -2.985  0.00  0.00     0.051 A 
ATOM      5  C5  IND d   1      -0.180   2.633  -3.553  0.00  0.00    -0.031 A 
ATOM      6  C6  IND d   1      -0.673   3.673  -2.791  0.00  0.00     0.015 A 
ATOM      7  C7  IND d   1      -0.604   3.651  -1.427  0.00  0.00    -0.016 A 
ATOM      8  C8  IND d   1      -0.035   2.527  -0.846  0.00  0.00    -0.047 A 
ATOM      9  C9  IND d   1       0.428   1.449  -1.613  0.00  0.00    -0.096 A 
ATOM     10  HN1 IND d   1      -0.052   2.691   1.152  0.00  0.00     0.298 HD
ENDROOT
TORSDOF 0
ENDMDL
