MODEL 1
REMARK minimizedAffinity 2.85585809
REMARK minimizedRMSD -1
REMARK  0 active torsions:
REMARK  status: ('A' for Active; 'I' for Inactive)
ROOT
ATOM      1  N1  IND d   1      -2.767  -4.416  -3.903  0.00  0.00    -0.196 N 
ATOM      2  C2  IND d   1      -3.087  -4.697  -2.604  0.00  0.00     0.054 A 
ATOM      3  C3  IND d   1      -2.075  -5.361  -2.003  0.00  0.00    -0.031 A 
ATOM      4  C4  IND d   1       0.240  -6.000  -2.930  0.00  0.00     0.051 A 
ATOM      5  C5  IND d   1       0.982  -5.987  -4.078  0.00  0.00    -0.031 A 
ATOM      6  C6  IND d   1       0.503  -5.436  -5.249  0.00  0.00     0.015 A 
ATOM      7  C7  IND d   1      -0.736  -4.865  -5.313  0.00  0.00    -0.016 A 
ATOM      8  C8  IND d   1      -1.495  -4.883  -4.152  0.00  0.00    -0.047 A 
ATOM      9  C9  IND d   1      -1.031  -5.478  -2.972  0.00  0.00    -0.096 A 
ATOM     10  HN1 IND d   1      -3.274  -4.015  -4.470  0.00  0.00     0.298 HD
ENDROOT
TORSDOF 0
ENDMDL
