MODEL 1
REMARK minimizedAffinity -1.38414419
REMARK minimizedRMSD -1
REMARK  0 active torsions:
REMARK  status: ('A' for Active; 'I' for Inactive)
ROOT
ATOM      1  N1  IND d   1      -1.358  -5.607  -5.899  0.00  0.00    -0.196 N 
ATOM      2  C2  IND d   1       0.006  -5.628  -5.999  0.00  0.00     0.054 A 
ATOM      3  C3  IND d   1       0.565  -5.737  -4.773  0.00  0.00    -0.031 A 
ATOM      4  C4  IND d   1      -0.567  -5.999  -2.476  0.00  0.00     0.051 A 
ATOM      5  C5  IND d   1      -1.793  -5.999  -1.873  0.00  0.00    -0.031 A 
ATOM      6  C6  IND d   1      -2.961  -5.869  -2.597  0.00  0.00     0.015 A 
ATOM      7  C7  IND d   1      -2.946  -5.744  -3.957  0.00  0.00    -0.016 A 
ATOM      8  C8  IND d   1      -1.702  -5.736  -4.572  0.00  0.00    -0.047 A 
ATOM      9  C9  IND d   1      -0.512  -5.826  -3.839  0.00  0.00    -0.096 A 
ATOM     10  HN1 IND d   1      -1.907  -5.526  -6.556  0.00  0.00     0.298 HD
ENDROOT
TORSDOF 0
ENDMDL
