MODEL 1
REMARK minimizedAffinity -0.159232214
REMARK minimizedRMSD -1
REMARK  0 active torsions:
REMARK  status: ('A' for Active; 'I' for Inactive)
ROOT
ATOM      1  N1  IND d   1      -0.303  -5.990  -1.938  0.00  0.00    -0.196 N 
ATOM      2  C2  IND d   1      -1.663  -5.961  -1.805  0.00  0.00     0.054 A 
ATOM      3  C3  IND d   1      -2.254  -5.918  -3.021  0.00  0.00    -0.031 A 
ATOM      4  C4  IND d   1      -1.185  -5.990  -5.362  0.00  0.00     0.051 A 
ATOM      5  C5  IND d   1       0.027  -5.982  -5.993  0.00  0.00    -0.031 A 
ATOM      6  C6  IND d   1       1.215  -5.978  -5.291  0.00  0.00     0.015 A 
ATOM      7  C7  IND d   1       1.235  -5.994  -3.925  0.00  0.00    -0.016 A 
ATOM      8  C8  IND d   1       0.006  -5.996  -3.281  0.00  0.00    -0.047 A 
ATOM      9  C9  IND d   1      -1.203  -5.957  -3.987  0.00  0.00    -0.096 A 
ATOM     10  HN1 IND d   1       0.264  -6.002  -1.292  0.00  0.00     0.298 HD
ENDROOT
TORSDOF 0
ENDMDL
