MODEL 1
REMARK minimizedAffinity -1.88149881
REMARK minimizedRMSD -1
REMARK  0 active torsions:
REMARK  status: ('A' for Active; 'I' for Inactive)
ROOT
ATOM      1  N1  IND d   1       0.814  -5.980  -4.641  0.00  0.00    -0.196 N 
ATOM      2  C2  IND d   1       0.383  -5.980  -5.938  0.00  0.00     0.054 A 
ATOM      3  C3  IND d   1      -0.968  -6.000  -5.985  0.00  0.00    -0.031 A 
ATOM      4  C4  IND d   1      -2.672  -5.933  -4.057  0.00  0.00     0.051 A 
ATOM      5  C5  IND d   1      -2.758  -5.964  -2.693  0.00  0.00    -0.031 A 
ATOM      6  C6  IND d   1      -1.634  -6.000  -1.893  0.00  0.00     0.015 A 
ATOM      7  C7  IND d   1      -0.378  -5.994  -2.429  0.00  0.00    -0.016 A 
ATOM      8  C8  IND d   1      -0.287  -5.970  -3.813  0.00  0.00    -0.047 A 
ATOM      9  C9  IND d   1      -1.424  -5.977  -4.631  0.00  0.00    -0.096 A 
ATOM     10  HN1 IND d   1       1.635  -5.986  -4.385  0.00  0.00     0.298 HD
ENDROOT
TORSDOF 0
ENDMDL
