MODEL 1
REMARK minimizedAffinity 3.51384783
REMARK minimizedRMSD -1
REMARK  0 active torsions:
REMARK  status: ('A' for Active; 'I' for Inactive)
ROOT
ATOM      1  N1  IND d   1      -2.622  -5.988  -2.383  0.00  0.00    -0.196 N 
ATOM      2  C2  IND d   1      -3.929  -5.999  -2.784  0.00  0.00     0.054 A 
ATOM      3  C3  IND d   1      -4.008  -5.968  -4.133  0.00  0.00    -0.031 A 
ATOM      4  C4  IND d   1      -2.120  -6.000  -5.883  0.00  0.00     0.051 A 
ATOM      5  C5  IND d   1      -0.759  -5.953  -6.000  0.00  0.00    -0.031 A 
ATOM      6  C6  IND d   1       0.067  -5.918  -4.895  0.00  0.00     0.015 A 
ATOM      7  C7  IND d   1      -0.439  -5.939  -3.626  0.00  0.00    -0.016 A 
ATOM      8  C8  IND d   1      -1.820  -5.979  -3.504  0.00  0.00    -0.047 A 
ATOM      9  C9  IND d   1      -2.665  -5.972  -4.621  0.00  0.00    -0.096 A 
ATOM     10  HN1 IND d   1      -2.347  -5.986  -1.569  0.00  0.00     0.298 HD
ENDROOT
TORSDOF 0
ENDMDL
