MODEL 1
REMARK minimizedAffinity -4.04254866
REMARK minimizedRMSD -1
REMARK  0 active torsions:
REMARK  status: ('A' for Active; 'I' for Inactive)
ROOT
ATOM      1  N1  IND d   1       0.210  -5.909  -4.708  0.00  0.00    -0.196 N 
ATOM      2  C2  IND d   1      -0.267  -5.881  -5.989  0.00  0.00     0.054 A 
ATOM      3  C3  IND d   1      -1.618  -5.904  -5.988  0.00  0.00    -0.031 A 
ATOM      4  C4  IND d   1      -3.254  -5.887  -4.000  0.00  0.00     0.051 A 
ATOM      5  C5  IND d   1      -3.291  -5.949  -2.636  0.00  0.00    -0.031 A 
ATOM      6  C6  IND d   1      -2.140  -5.999  -1.876  0.00  0.00     0.015 A 
ATOM      7  C7  IND d   1      -0.903  -5.977  -2.456  0.00  0.00    -0.016 A 
ATOM      8  C8  IND d   1      -0.861  -5.922  -3.842  0.00  0.00    -0.047 A 
ATOM      9  C9  IND d   1      -2.026  -5.914  -4.619  0.00  0.00    -0.096 A 
ATOM     10  HN1 IND d   1       1.039  -5.918  -4.481  0.00  0.00     0.298 HD
ENDROOT
TORSDOF 0
ENDMDL
