MODEL 1
REMARK minimizedAffinity 4.64243364
REMARK minimizedRMSD -1
REMARK  0 active torsions:
REMARK  status: ('A' for Active; 'I' for Inactive)
ROOT
ATOM      1  N1  IND d   1      -3.083   2.674  -3.857  0.00  0.00    -0.196 N 
ATOM      2  C2  IND d   1      -3.120   1.594  -3.019  0.00  0.00     0.054 A 
ATOM      3  C3  IND d   1      -1.894   1.361  -2.498  0.00  0.00    -0.031 A 
ATOM      4  C4  IND d   1       0.292   2.686  -2.804  0.00  0.00     0.051 A 
ATOM      5  C5  IND d   1       0.830   3.728  -3.505  0.00  0.00    -0.031 A 
ATOM      6  C6  IND d   1       0.076   4.490  -4.374  0.00  0.00     0.015 A 
ATOM      7  C7  IND d   1      -1.254   4.243  -4.567  0.00  0.00    -0.016 A 
ATOM      8  C8  IND d   1      -1.802   3.180  -3.863  0.00  0.00    -0.047 A 
ATOM      9  C9  IND d   1      -1.032   2.378  -3.012  0.00  0.00    -0.096 A 
ATOM     10  HN1 IND d   1      -3.748   2.983  -4.305  0.00  0.00     0.298 HD
ENDROOT
TORSDOF 0
ENDMDL
