MODEL 1
REMARK minimizedAffinity 1.27269518
REMARK minimizedRMSD -1
REMARK  0 active torsions:
REMARK  status: ('A' for Active; 'I' for Inactive)
ROOT
ATOM      1  N1  IND d   1      -0.712  -6.000  -5.726  0.00  0.00    -0.196 N 
ATOM      2  C2  IND d   1       0.654  -5.985  -5.694  0.00  0.00     0.054 A 
ATOM      3  C3  IND d   1       1.095  -5.945  -4.417  0.00  0.00    -0.031 A 
ATOM      4  C4  IND d   1      -0.248  -6.000  -2.221  0.00  0.00     0.051 A 
ATOM      5  C5  IND d   1      -1.527  -5.978  -1.740  0.00  0.00    -0.031 A 
ATOM      6  C6  IND d   1      -2.622  -5.964  -2.580  0.00  0.00     0.015 A 
ATOM      7  C7  IND d   1      -2.478  -5.984  -3.938  0.00  0.00    -0.016 A 
ATOM      8  C8  IND d   1      -1.181  -5.999  -4.431  0.00  0.00    -0.047 A 
ATOM      9  C9  IND d   1      -0.065  -5.970  -3.584  0.00  0.00    -0.096 A 
ATOM     10  HN1 IND d   1      -1.198  -6.008  -6.436  0.00  0.00     0.298 HD
ENDROOT
TORSDOF 0
ENDMDL
