MODEL 1
REMARK minimizedAffinity 2.5603981
REMARK minimizedRMSD -1
REMARK  1 active torsions:
REMARK  status: ('A' for Active; 'I' for Inactive)
REMARK    1  A    between atoms: C1_2  and  C2_3 
ROOT
ATOM      1  C2  UNL d   1       0.107   2.614   1.153  0.00  0.00    -0.073 A 
ATOM      2  C3  UNL d   1       0.243   1.818   2.296  0.00  0.00    -0.002 A 
ATOM      3  C4  UNL d   1      -0.015   0.448   2.235  0.00  0.00     0.004 A 
ATOM      4  C5  UNL d   1      -0.404  -0.140   1.031  0.00  0.00    -0.004 A 
ATOM      5  C6  UNL d   1      -0.534   0.637  -0.124  0.00  0.00    -0.075 A 
ATOM      6  C7  UNL d   1      -0.954   0.020  -1.426  0.00  0.00     0.076 C 
ATOM      7  C8  UNL d   1      -0.276   2.012  -0.054  0.00  0.00     0.001 A 
ENDROOT
BRANCH   1   8
ATOM      8  C1  UNL d   1       0.391   4.093   1.212  0.00  0.00     0.053 C 
ATOM      9  C   UNL d   1       0.391   4.729  -0.169  0.00  0.00     0.018 C 
ENDBRANCH   1   8
TORSDOF 1
ENDMDL
