MODEL 1
REMARK minimizedAffinity 5.54506111
REMARK minimizedRMSD -1
REMARK  1 active torsions:
REMARK  status: ('A' for Active; 'I' for Inactive)
REMARK    1  A    between atoms: C1_2  and  C2_3 
ROOT
ATOM      1  C2  UNL d   1       0.099   2.636   0.859  0.00  0.00    -0.073 A 
ATOM      2  C3  UNL d   1       0.316   3.887   0.269  0.00  0.00    -0.002 A 
ATOM      3  C4  UNL d   1      -0.187   4.164  -1.002  0.00  0.00     0.004 A 
ATOM      4  C5  UNL d   1      -0.917   3.197  -1.694  0.00  0.00    -0.004 A 
ATOM      5  C6  UNL d   1      -1.155   1.946  -1.117  0.00  0.00    -0.075 A 
ATOM      6  C7  UNL d   1      -1.936   0.894  -1.849  0.00  0.00     0.076 C 
ATOM      7  C8  UNL d   1      -0.643   1.674   0.159  0.00  0.00     0.001 A 
ENDROOT
BRANCH   1   8
ATOM      8  C1  UNL d   1       0.636   2.335   2.234  0.00  0.00     0.053 C 
ATOM      9  C   UNL d   1       0.052   1.052   2.805  0.00  0.00     0.018 C 
ENDBRANCH   1   8
TORSDOF 1
ENDMDL
