MODEL 1
REMARK minimizedAffinity 2.73424506
REMARK minimizedRMSD -1
REMARK  1 active torsions:
REMARK  status: ('A' for Active; 'I' for Inactive)
REMARK    1  A    between atoms: C1_2  and  C2_3 
ROOT
ATOM      1  C2  UNL d   1       0.533   1.108   2.431  0.00  0.00    -0.073 A 
ATOM      2  C3  UNL d   1      -0.842   1.357   2.492  0.00  0.00    -0.002 A 
ATOM      3  C4  UNL d   1      -1.343   2.626   2.199  0.00  0.00     0.004 A 
ATOM      4  C5  UNL d   1      -0.476   3.656   1.836  0.00  0.00    -0.004 A 
ATOM      5  C6  UNL d   1       0.901   3.424   1.757  0.00  0.00    -0.075 A 
ATOM      6  C7  UNL d   1       1.848   4.522   1.370  0.00  0.00     0.076 C 
ATOM      7  C8  UNL d   1       1.397   2.148   2.056  0.00  0.00     0.001 A 
ENDROOT
BRANCH   1   8
ATOM      8  C1  UNL d   1       1.078  -0.262   2.740  0.00  0.00     0.053 C 
ATOM      9  C   UNL d   1       0.677  -0.735   4.128  0.00  0.00     0.018 C 
ENDBRANCH   1   8
TORSDOF 1
ENDMDL
