MODEL 1
REMARK minimizedAffinity 4.44908333
REMARK minimizedRMSD -1
REMARK  1 active torsions:
REMARK  status: ('A' for Active; 'I' for Inactive)
REMARK    1  A    between atoms: C1_2  and  C2_3 
ROOT
ATOM      1  C2  UNL d   1      -1.722  -1.336  -3.221  0.00  0.00    -0.073 A 
ATOM      2  C3  UNL d   1      -3.028  -0.864  -3.395  0.00  0.00    -0.002 A 
ATOM      3  C4  UNL d   1      -3.417   0.355  -2.839  0.00  0.00     0.004 A 
ATOM      4  C5  UNL d   1      -2.503   1.118  -2.111  0.00  0.00    -0.004 A 
ATOM      5  C6  UNL d   1      -1.190   0.669  -1.937  0.00  0.00    -0.075 A 
ATOM      6  C7  UNL d   1      -0.196   1.477  -1.155  0.00  0.00     0.076 C 
ATOM      7  C8  UNL d   1      -0.808  -0.557  -2.496  0.00  0.00     0.001 A 
ENDROOT
BRANCH   1   8
ATOM      8  C1  UNL d   1      -1.295  -2.649  -3.825  0.00  0.00     0.053 C 
ATOM      9  C   UNL d   1      -1.169  -3.744  -2.778  0.00  0.00     0.018 C 
ENDBRANCH   1   8
TORSDOF 1
ENDMDL
