MODEL 1
REMARK minimizedAffinity -0.944170952
REMARK minimizedRMSD -1
REMARK  1 active torsions:
REMARK  status: ('A' for Active; 'I' for Inactive)
REMARK    1  A    between atoms: C1_2  and  C2_3 
ROOT
ATOM      1  C2  UNL d   1       0.540   2.218   1.032  0.00  0.00    -0.073 A 
ATOM      2  C3  UNL d   1       0.492   1.470  -0.150  0.00  0.00    -0.002 A 
ATOM      3  C4  UNL d   1       0.740   0.097  -0.126  0.00  0.00     0.004 A 
ATOM      4  C5  UNL d   1       1.032  -0.543   1.078  0.00  0.00    -0.004 A 
ATOM      5  C6  UNL d   1       1.072   0.185   2.272  0.00  0.00    -0.075 A 
ATOM      6  C7  UNL d   1       1.386  -0.488   3.576  0.00  0.00     0.076 C 
ATOM      7  C8  UNL d   1       0.825   1.564   2.240  0.00  0.00     0.001 A 
ENDROOT
BRANCH   1   8
ATOM      8  C1  UNL d   1       0.266   3.700   1.013  0.00  0.00     0.053 C 
ATOM      9  C   UNL d   1       0.694   4.341  -0.298  0.00  0.00     0.018 C 
ENDBRANCH   1   8
TORSDOF 1
ENDMDL
