MODEL 1
REMARK minimizedAffinity -3.20213842
REMARK minimizedRMSD -1
REMARK  1 active torsions:
REMARK  status: ('A' for Active; 'I' for Inactive)
REMARK    1  A    between atoms: C1_2  and  C2_3 
ROOT
ATOM      1  C2  UNL d   1       1.018   3.274   1.597  0.00  0.00    -0.073 A 
ATOM      2  C3  UNL d   1       2.126   3.855   2.224  0.00  0.00    -0.002 A 
ATOM      3  C4  UNL d   1       2.682   5.033   1.722  0.00  0.00     0.004 A 
ATOM      4  C5  UNL d   1       2.133   5.644   0.595  0.00  0.00    -0.004 A 
ATOM      5  C6  UNL d   1       1.018   5.085  -0.038  0.00  0.00    -0.075 A 
ATOM      6  C7  UNL d   1       0.416   5.729  -1.252  0.00  0.00     0.076 C 
ATOM      7  C8  UNL d   1       0.467   3.901   0.470  0.00  0.00     0.001 A 
ENDROOT
BRANCH   1   8
ATOM      8  C1  UNL d   1       0.410   2.006   2.139  0.00  0.00     0.053 C 
ATOM      9  C   UNL d   1       0.529   0.852   1.157  0.00  0.00     0.018 C 
ENDBRANCH   1   8
TORSDOF 1
ENDMDL
