MODEL 1
REMARK minimizedAffinity 5.67956924
REMARK minimizedRMSD -1
REMARK  0 active torsions:
REMARK  status: ('A' for Active; 'I' for Inactive)
ROOT
ATOM      1  N1  IND d   1       1.347  -0.482   1.490  0.00  0.00    -0.196 N 
ATOM      2  C2  IND d   1       1.078  -1.106   2.676  0.00  0.00     0.054 A 
ATOM      3  C3  IND d   1       0.226  -0.362   3.417  0.00  0.00    -0.031 A 
ATOM      4  C4  IND d   1      -0.932   1.863   2.835  0.00  0.00     0.051 A 
ATOM      5  C5  IND d   1      -0.972   2.839   1.879  0.00  0.00    -0.031 A 
ATOM      6  C6  IND d   1      -0.228   2.755   0.720  0.00  0.00     0.015 A 
ATOM      7  C7  IND d   1       0.579   1.681   0.467  0.00  0.00    -0.016 A 
ATOM      8  C8  IND d   1       0.627   0.692   1.439  0.00  0.00    -0.047 A 
ATOM      9  C9  IND d   1      -0.093   0.792   2.637  0.00  0.00    -0.096 A 
ATOM     10  HN1 IND d   1       1.877  -0.773   0.879  0.00  0.00     0.298 HD
ENDROOT
TORSDOF 0
ENDMDL
