MODEL 1
REMARK minimizedAffinity 16.9320374
REMARK minimizedRMSD -1
REMARK  0 active torsions:
REMARK  status: ('A' for Active; 'I' for Inactive)
ROOT
ATOM      1  N1  IND d   1       3.143  -5.530  -1.912  0.00  0.00    -0.196 N 
ATOM      2  C2  IND d   1       4.134  -5.111  -1.069  0.00  0.00     0.054 A 
ATOM      3  C3  IND d   1       5.285  -4.921  -1.752  0.00  0.00    -0.031 A 
ATOM      4  C4  IND d   1       5.743  -5.139  -4.276  0.00  0.00     0.051 A 
ATOM      5  C5  IND d   1       5.157  -5.529  -5.448  0.00  0.00    -0.031 A 
ATOM      6  C6  IND d   1       3.842  -5.946  -5.502  0.00  0.00     0.015 A 
ATOM      7  C7  IND d   1       3.058  -5.976  -4.384  0.00  0.00    -0.016 A 
ATOM      8  C8  IND d   1       3.652  -5.587  -3.191  0.00  0.00    -0.047 A 
ATOM      9  C9  IND d   1       4.997  -5.204  -3.123  0.00  0.00    -0.096 A 
ATOM     10  HN1 IND d   1       2.338  -5.724  -1.683  0.00  0.00     0.298 HD
ENDROOT
TORSDOF 0
ENDMDL
