MODEL 1
REMARK minimizedAffinity 11.8390141
REMARK minimizedRMSD -1
REMARK  0 active torsions:
REMARK  status: ('A' for Active; 'I' for Inactive)
ROOT
ATOM      1  N1  IND d   1       0.552   2.795  -1.082  0.00  0.00    -0.196 N 
ATOM      2  C2  IND d   1       0.197   2.867   0.236  0.00  0.00     0.054 A 
ATOM      3  C3  IND d   1      -1.132   2.662   0.377  0.00  0.00    -0.031 A 
ATOM      4  C4  IND d   1      -2.897   2.090  -1.408  0.00  0.00     0.051 A 
ATOM      5  C5  IND d   1      -3.059   1.953  -2.758  0.00  0.00    -0.031 A 
ATOM      6  C6  IND d   1      -2.003   2.089  -3.636  0.00  0.00     0.015 A 
ATOM      7  C7  IND d   1      -0.739   2.358  -3.194  0.00  0.00    -0.016 A 
ATOM      8  C8  IND d   1      -0.572   2.505  -1.824  0.00  0.00    -0.047 A 
ATOM      9  C9  IND d   1      -1.648   2.410  -0.932  0.00  0.00    -0.096 A 
ATOM     10  HN1 IND d   1       1.344   2.912  -1.396  0.00  0.00     0.298 HD
ENDROOT
TORSDOF 0
ENDMDL
