MODEL 1
REMARK minimizedAffinity 13.0501871
REMARK minimizedRMSD -1
REMARK  0 active torsions:
REMARK  status: ('A' for Active; 'I' for Inactive)
ROOT
ATOM      1  N1  IND d   1      -1.034   2.056  -2.426  0.00  0.00    -0.196 N 
ATOM      2  C2  IND d   1      -2.301   1.614  -2.168  0.00  0.00     0.054 A 
ATOM      3  C3  IND d   1      -3.212   2.444  -2.724  0.00  0.00    -0.031 A 
ATOM      4  C4  IND d   1      -2.843   4.530  -4.187  0.00  0.00     0.051 A 
ATOM      5  C5  IND d   1      -1.860   5.349  -4.668  0.00  0.00    -0.031 A 
ATOM      6  C6  IND d   1      -0.524   5.105  -4.423  0.00  0.00     0.015 A 
ATOM      7  C7  IND d   1      -0.119   4.023  -3.695  0.00  0.00    -0.016 A 
ATOM      8  C8  IND d   1      -1.115   3.193  -3.199  0.00  0.00    -0.047 A 
ATOM      9  C9  IND d   1      -2.475   3.459  -3.408  0.00  0.00    -0.096 A 
ATOM     10  HN1 IND d   1      -0.308   1.686  -2.151  0.00  0.00     0.298 HD
ENDROOT
TORSDOF 0
ENDMDL
