MODEL 1
REMARK minimizedAffinity 0.476927936
REMARK minimizedRMSD -1
REMARK  0 active torsions:
REMARK  status: ('A' for Active; 'I' for Inactive)
ROOT
ATOM      1  N1  IND d   1      -0.105   1.671   0.544  0.00  0.00    -0.196 N 
ATOM      2  C2  IND d   1      -0.499   2.937   0.875  0.00  0.00     0.054 A 
ATOM      3  C3  IND d   1      -0.673   3.682  -0.240  0.00  0.00    -0.031 A 
ATOM      4  C4  IND d   1      -0.467   2.998  -2.713  0.00  0.00     0.051 A 
ATOM      5  C5  IND d   1      -0.096   1.955  -3.515  0.00  0.00    -0.031 A 
ATOM      6  C6  IND d   1       0.296   0.739  -2.994  0.00  0.00     0.015 A 
ATOM      7  C7  IND d   1       0.321   0.516  -1.647  0.00  0.00    -0.016 A 
ATOM      8  C8  IND d   1      -0.048   1.574  -0.829  0.00  0.00    -0.047 A 
ATOM      9  C9  IND d   1      -0.406   2.825  -1.350  0.00  0.00    -0.096 A 
ATOM     10  HN1 IND d   1       0.076   1.040   1.100  0.00  0.00     0.298 HD
ENDROOT
TORSDOF 0
ENDMDL
