MODEL 1
REMARK minimizedAffinity 2.35949993
REMARK minimizedRMSD -1
REMARK  0 active torsions:
REMARK  status: ('A' for Active; 'I' for Inactive)
ROOT
ATOM      1  N1  IND d   1       0.702   1.013   1.320  0.00  0.00    -0.196 N 
ATOM      2  C2  IND d   1       0.002   2.064   1.845  0.00  0.00     0.054 A 
ATOM      3  C3  IND d   1      -0.741   2.660   0.885  0.00  0.00    -0.031 A 
ATOM      4  C4  IND d   1      -1.037   2.016  -1.590  0.00  0.00     0.051 A 
ATOM      5  C5  IND d   1      -0.574   1.150  -2.541  0.00  0.00    -0.031 A 
ATOM      6  C6  IND d   1       0.355   0.173  -2.246  0.00  0.00     0.015 A 
ATOM      7  C7  IND d   1       0.849   0.017  -0.982  0.00  0.00    -0.016 A 
ATOM      8  C8  IND d   1       0.386   0.899  -0.016  0.00  0.00    -0.047 A 
ATOM      9  C9  IND d   1      -0.525   1.920  -0.318  0.00  0.00    -0.096 A 
ATOM     10  HN1 IND d   1       1.247   0.508   1.752  0.00  0.00     0.298 HD
ENDROOT
TORSDOF 0
ENDMDL
