MODEL 1
REMARK minimizedAffinity 11.088995
REMARK minimizedRMSD -1
REMARK  0 active torsions:
REMARK  status: ('A' for Active; 'I' for Inactive)
ROOT
ATOM      1  N1  IND d   1       0.212   4.347  -1.757  0.00  0.00    -0.196 N 
ATOM      2  C2  IND d   1      -0.837   3.675  -2.319  0.00  0.00     0.054 A 
ATOM      3  C3  IND d   1      -1.306   2.737  -1.466  0.00  0.00    -0.031 A 
ATOM      4  C4  IND d   1      -0.569   2.202   0.942  0.00  0.00     0.051 A 
ATOM      5  C5  IND d   1       0.374   2.525   1.877  0.00  0.00    -0.031 A 
ATOM      6  C6  IND d   1       1.329   3.494   1.645  0.00  0.00     0.015 A 
ATOM      7  C7  IND d   1       1.369   4.186   0.468  0.00  0.00    -0.016 A 
ATOM      8  C8  IND d   1       0.418   3.856  -0.487  0.00  0.00    -0.047 A 
ATOM      9  C9  IND d   1      -0.527   2.844  -0.273  0.00  0.00    -0.096 A 
ATOM     10  HN1 IND d   1       0.667   4.972  -2.134  0.00  0.00     0.298 HD
ENDROOT
TORSDOF 0
ENDMDL
