MODEL 1
REMARK minimizedAffinity -1.27479589
REMARK minimizedRMSD -1
REMARK  0 active torsions:
REMARK  status: ('A' for Active; 'I' for Inactive)
ROOT
ATOM      1  N1  IND d   1       1.785   5.469  -0.692  0.00  0.00    -0.196 N 
ATOM      2  C2  IND d   1       0.689   5.250  -1.479  0.00  0.00     0.054 A 
ATOM      3  C3  IND d   1      -0.022   4.199  -1.013  0.00  0.00    -0.031 A 
ATOM      4  C4  IND d   1       0.372   2.759   1.085  0.00  0.00     0.051 A 
ATOM      5  C5  IND d   1       1.264   2.556   2.100  0.00  0.00    -0.031 A 
ATOM      6  C6  IND d   1       2.397   3.331   2.241  0.00  0.00     0.015 A 
ATOM      7  C7  IND d   1       2.675   4.350   1.374  0.00  0.00    -0.016 A 
ATOM      8  C8  IND d   1       1.775   4.555   0.338  0.00  0.00    -0.047 A 
ATOM      9  C9  IND d   1       0.645   3.744   0.166  0.00  0.00    -0.096 A 
ATOM     10  HN1 IND d   1       2.380   6.077  -0.819  0.00  0.00     0.298 HD
ENDROOT
TORSDOF 0
ENDMDL
