MODEL 1
REMARK minimizedAffinity 2.15723205
REMARK minimizedRMSD -1
REMARK  0 active torsions:
REMARK  status: ('A' for Active; 'I' for Inactive)
ROOT
ATOM      1  N1  IND d   1      -5.490  -3.240   3.954  0.00  0.00    -0.196 N 
ATOM      2  C2  IND d   1      -5.792  -3.587   5.241  0.00  0.00     0.054 A 
ATOM      3  C3  IND d   1      -6.000  -2.480   5.990  0.00  0.00    -0.031 A 
ATOM      4  C4  IND d   1      -5.996  -0.004   5.284  0.00  0.00     0.051 A 
ATOM      5  C5  IND d   1      -5.737   0.812   4.219  0.00  0.00    -0.031 A 
ATOM      6  C6  IND d   1      -5.377   0.309   2.986  0.00  0.00     0.015 A 
ATOM      7  C7  IND d   1      -5.275  -1.036   2.767  0.00  0.00    -0.016 A 
ATOM      8  C8  IND d   1      -5.530  -1.868   3.848  0.00  0.00    -0.047 A 
ATOM      9  C9  IND d   1      -5.854  -1.361   5.114  0.00  0.00    -0.096 A 
ATOM     10  HN1 IND d   1      -5.306  -3.788   3.317  0.00  0.00     0.298 HD
ENDROOT
TORSDOF 0
ENDMDL
