MODEL 1
REMARK minimizedAffinity -3.11544681
REMARK minimizedRMSD -1
REMARK  1 active torsions:
REMARK  status: ('A' for Active; 'I' for Inactive)
REMARK    1  A    between atoms: C3_4  and  O_7 
ROOT
ATOM      1  C   UNL d   1      -0.968  -0.333   0.019  0.00  0.00    -0.033 A 
ATOM      2  C1  UNL d   1      -0.291  -0.766  -1.123  0.00  0.00     0.039 A 
ATOM      3  C2  UNL d   1       1.058  -1.118  -1.046  0.00  0.00    -0.080 A 
ATOM      4  C3  UNL d   1       1.717  -1.034   0.177  0.00  0.00     0.150 A 
ATOM      5  C4  UNL d   1       1.048  -0.607   1.320  0.00  0.00    -0.007 A 
ATOM      6  C5  UNL d   1      -0.299  -0.255   1.241  0.00  0.00     0.039 A 
ENDROOT
BRANCH   4   7
ATOM      7  O   UNL d   1       3.034  -1.362   0.301  0.00  0.00    -0.526 OA
ATOM      8  H5  UNL d   1       3.373  -1.611  -0.575  0.00  0.00     0.418 HD
ENDBRANCH   4   7
TORSDOF 1
ENDMDL
