MODEL 1
REMARK minimizedAffinity 0.462325335
REMARK minimizedRMSD -1
REMARK  1 active torsions:
REMARK  status: ('A' for Active; 'I' for Inactive)
REMARK    1  A    between atoms: C3_4  and  O_7 
ROOT
ATOM      1  C   UNL d   1       1.000  -1.216   1.041  0.00  0.00    -0.033 A 
ATOM      2  C1  UNL d   1       0.345  -0.722  -0.089  0.00  0.00     0.039 A 
ATOM      3  C2  UNL d   1      -0.975  -0.276   0.006  0.00  0.00    -0.080 A 
ATOM      4  C3  UNL d   1      -1.627  -0.328   1.235  0.00  0.00     0.150 A 
ATOM      5  C4  UNL d   1      -0.979  -0.815   2.366  0.00  0.00    -0.007 A 
ATOM      6  C5  UNL d   1       0.338  -1.261   2.269  0.00  0.00     0.039 A 
ENDROOT
BRANCH   4   7
ATOM      7  O   UNL d   1      -2.916   0.092   1.376  0.00  0.00    -0.526 OA
ATOM      8  H5  UNL d   1      -3.244   0.376   0.506  0.00  0.00     0.418 HD
ENDBRANCH   4   7
TORSDOF 1
ENDMDL
