MODEL 1
REMARK minimizedAffinity 0.640046656
REMARK minimizedRMSD -1
REMARK  1 active torsions:
REMARK  status: ('A' for Active; 'I' for Inactive)
REMARK    1  A    between atoms: C3_4  and  O_7 
ROOT
ATOM      1  C   UNL d   1       0.866  -0.881   0.497  0.00  0.00    -0.033 A 
ATOM      2  C1  UNL d   1       0.311  -0.907   1.778  0.00  0.00     0.039 A 
ATOM      3  C2  UNL d   1      -1.071  -0.793   1.944  0.00  0.00    -0.080 A 
ATOM      4  C3  UNL d   1      -1.885  -0.655   0.824  0.00  0.00     0.150 A 
ATOM      5  C4  UNL d   1      -1.339  -0.633  -0.456  0.00  0.00    -0.007 A 
ATOM      6  C5  UNL d   1       0.041  -0.746  -0.620  0.00  0.00     0.039 A 
ENDROOT
BRANCH   4   7
ATOM      7  O   UNL d   1      -3.238  -0.536   0.936  0.00  0.00    -0.526 OA
ATOM      8  H5  UNL d   1      -3.470  -0.539   1.880  0.00  0.00     0.418 HD
ENDBRANCH   4   7
TORSDOF 1
ENDMDL
