MODEL 1
REMARK minimizedAffinity -1.15393615
REMARK minimizedRMSD -1
REMARK  1 active torsions:
REMARK  status: ('A' for Active; 'I' for Inactive)
REMARK    1  A    between atoms: C3_4  and  O_7 
ROOT
ATOM      1  C   UNL d   1       1.312   5.497   5.995  0.00  0.00    -0.033 A 
ATOM      2  C1  UNL d   1       0.737   4.898   4.873  0.00  0.00     0.039 A 
ATOM      3  C2  UNL d   1       1.460   4.803   3.682  0.00  0.00    -0.080 A 
ATOM      4  C3  UNL d   1       2.755   5.310   3.627  0.00  0.00     0.150 A 
ATOM      5  C4  UNL d   1       3.336   5.906   4.742  0.00  0.00    -0.007 A 
ATOM      6  C5  UNL d   1       2.612   6.000   5.930  0.00  0.00     0.039 A 
ENDROOT
BRANCH   4   7
ATOM      7  O   UNL d   1       3.498   5.246   2.485  0.00  0.00    -0.526 OA
ATOM      8  H5  UNL d   1       2.958   4.835   1.790  0.00  0.00     0.418 HD
ENDBRANCH   4   7
TORSDOF 1
ENDMDL
