MODEL 1
REMARK minimizedAffinity 1.29620552
REMARK minimizedRMSD -1
REMARK  1 active torsions:
REMARK  status: ('A' for Active; 'I' for Inactive)
REMARK    1  A    between atoms: C3_4  and  O_7 
ROOT
ATOM      1  C   UNL d   1       2.102  -0.910   0.931  0.00  0.00    -0.033 A 
ATOM      2  C1  UNL d   1       1.157  -1.219  -0.049  0.00  0.00     0.039 A 
ATOM      3  C2  UNL d   1      -0.206  -1.117   0.237  0.00  0.00    -0.080 A 
ATOM      4  C3  UNL d   1      -0.610  -0.704   1.503  0.00  0.00     0.150 A 
ATOM      5  C4  UNL d   1       0.326  -0.390   2.483  0.00  0.00    -0.007 A 
ATOM      6  C5  UNL d   1       1.687  -0.493   2.196  0.00  0.00     0.039 A 
ENDROOT
BRANCH   4   7
ATOM      7  O   UNL d   1      -1.929  -0.594   1.830  0.00  0.00    -0.526 OA
ATOM      8  H5  UNL d   1      -2.460  -0.871   1.065  0.00  0.00     0.418 HD
ENDBRANCH   4   7
TORSDOF 1
ENDMDL
