MODEL 1
REMARK minimizedAffinity -2.64614367
REMARK minimizedRMSD -1
REMARK  1 active torsions:
REMARK  status: ('A' for Active; 'I' for Inactive)
REMARK    1  A    between atoms: C3_4  and  O_7 
ROOT
ATOM      1  C   UNL d   1       4.215   6.000   4.074  0.00  0.00    -0.033 A 
ATOM      2  C1  UNL d   1       3.682   5.911   5.361  0.00  0.00     0.039 A 
ATOM      3  C2  UNL d   1       2.306   5.756   5.540  0.00  0.00    -0.080 A 
ATOM      4  C3  UNL d   1       1.475   5.690   4.424  0.00  0.00     0.150 A 
ATOM      5  C4  UNL d   1       2.000   5.774   3.139  0.00  0.00    -0.007 A 
ATOM      6  C5  UNL d   1       3.374   5.930   2.963  0.00  0.00     0.039 A 
ENDROOT
BRANCH   4   7
ATOM      7  O   UNL d   1       0.125   5.544   4.549  0.00  0.00    -0.526 OA
ATOM      8  H5  UNL d   1      -0.097   5.529   5.494  0.00  0.00     0.418 HD
ENDBRANCH   4   7
TORSDOF 1
ENDMDL
