MODEL 1
REMARK minimizedAffinity -2.33201218
REMARK minimizedRMSD -1
REMARK  1 active torsions:
REMARK  status: ('A' for Active; 'I' for Inactive)
REMARK    1  A    between atoms: C3_4  and  O_7 
ROOT
ATOM      1  C   UNL d   1       0.301  -0.770  -0.393  0.00  0.00    -0.033 A 
ATOM      2  C1  UNL d   1      -0.763  -0.474   0.461  0.00  0.00     0.039 A 
ATOM      3  C2  UNL d   1      -0.568  -0.455   1.843  0.00  0.00    -0.080 A 
ATOM      4  C3  UNL d   1       0.696  -0.732   2.358  0.00  0.00     0.150 A 
ATOM      5  C4  UNL d   1       1.762  -1.024   1.514  0.00  0.00    -0.007 A 
ATOM      6  C5  UNL d   1       1.564  -1.043   0.134  0.00  0.00     0.039 A 
ENDROOT
BRANCH   4   7
ATOM      7  O   UNL d   1       0.934  -0.730   3.701  0.00  0.00    -0.526 OA
ATOM      8  H5  UNL d   1       0.099  -0.540   4.161  0.00  0.00     0.418 HD
ENDBRANCH   4   7
TORSDOF 1
ENDMDL
