MODEL 1
REMARK minimizedAffinity -0.555313587
REMARK minimizedRMSD -1
REMARK  1 active torsions:
REMARK  status: ('A' for Active; 'I' for Inactive)
REMARK    1  A    between atoms: C3_4  and  O_7 
ROOT
ATOM      1  C   UNL d   1       3.739   5.962   4.314  0.00  0.00    -0.033 A 
ATOM      2  C1  UNL d   1       3.292   5.984   5.637  0.00  0.00     0.039 A 
ATOM      3  C2  UNL d   1       1.923   5.990   5.913  0.00  0.00    -0.080 A 
ATOM      4  C3  UNL d   1       1.013   5.973   4.860  0.00  0.00     0.150 A 
ATOM      5  C4  UNL d   1       1.452   5.947   3.540  0.00  0.00    -0.007 A 
ATOM      6  C5  UNL d   1       2.818   5.942   3.266  0.00  0.00     0.039 A 
ENDROOT
BRANCH   4   7
ATOM      7  O   UNL d   1      -0.332   5.983   5.080  0.00  0.00    -0.526 OA
ATOM      8  H5  UNL d   1      -0.486   6.030   6.038  0.00  0.00     0.418 HD
ENDBRANCH   4   7
TORSDOF 1
ENDMDL
