MODEL 1
REMARK minimizedAffinity -5.28739262
REMARK minimizedRMSD -1
REMARK  1 active torsions:
REMARK  status: ('A' for Active; 'I' for Inactive)
REMARK    1  A    between atoms: C3_4  and  O_7 
ROOT
ATOM      1  C   UNL d   1      -1.286  -0.529   3.522  0.00  0.00    -0.033 A 
ATOM      2  C1  UNL d   1      -0.035  -1.055   3.193  0.00  0.00     0.039 A 
ATOM      3  C2  UNL d   1       0.445  -0.953   1.886  0.00  0.00    -0.080 A 
ATOM      4  C3  UNL d   1      -0.334  -0.323   0.919  0.00  0.00     0.150 A 
ATOM      5  C4  UNL d   1      -1.579   0.206   1.241  0.00  0.00    -0.007 A 
ATOM      6  C5  UNL d   1      -2.057   0.103   2.547  0.00  0.00     0.039 A 
ENDROOT
BRANCH   4   7
ATOM      7  O   UNL d   1       0.091  -0.204  -0.371  0.00  0.00    -0.526 OA
ATOM      8  H5  UNL d   1       0.955  -0.641  -0.452  0.00  0.00     0.418 HD
ENDBRANCH   4   7
TORSDOF 1
ENDMDL
