MODEL 1
REMARK minimizedAffinity -4.1001482
REMARK minimizedRMSD -1
REMARK  1 active torsions:
REMARK  status: ('A' for Active; 'I' for Inactive)
REMARK    1  A    between atoms: C3_4  and  O_7 
ROOT
ATOM      1  C   UNL d   1       0.701  -0.152   2.540  0.00  0.00    -0.033 A 
ATOM      2  C1  UNL d   1       1.666   0.263   1.620  0.00  0.00     0.039 A 
ATOM      3  C2  UNL d   1       1.289   0.622   0.324  0.00  0.00    -0.080 A 
ATOM      4  C3  UNL d   1      -0.054   0.562  -0.038  0.00  0.00     0.150 A 
ATOM      5  C4  UNL d   1      -1.021   0.154   0.874  0.00  0.00    -0.007 A 
ATOM      6  C5  UNL d   1      -0.643  -0.205   2.167  0.00  0.00     0.039 A 
ENDROOT
BRANCH   4   7
ATOM      7  O   UNL d   1      -0.469   0.898  -1.293  0.00  0.00    -0.526 OA
ATOM      8  H5  UNL d   1       0.311   1.132  -1.823  0.00  0.00     0.418 HD
ENDBRANCH   4   7
TORSDOF 1
ENDMDL
