MODEL 1
REMARK minimizedAffinity -3.26556587
REMARK minimizedRMSD -1
REMARK  1 active torsions:
REMARK  status: ('A' for Active; 'I' for Inactive)
REMARK    1  A    between atoms: C3_4  and  O_7 
ROOT
ATOM      1  C   UNL d   1      -0.684   0.085   3.382  0.00  0.00    -0.033 A 
ATOM      2  C1  UNL d   1       0.623  -0.059   2.912  0.00  0.00     0.039 A 
ATOM      3  C2  UNL d   1       0.883  -0.008   1.541  0.00  0.00    -0.080 A 
ATOM      4  C3  UNL d   1      -0.170   0.188   0.652  0.00  0.00     0.150 A 
ATOM      5  C4  UNL d   1      -1.474   0.336   1.114  0.00  0.00    -0.007 A 
ATOM      6  C5  UNL d   1      -1.732   0.284   2.483  0.00  0.00     0.039 A 
ENDROOT
BRANCH   4   7
ATOM      7  O   UNL d   1       0.034   0.240  -0.695  0.00  0.00    -0.526 OA
ATOM      8  H5  UNL d   1       0.979   0.094  -0.868  0.00  0.00     0.418 HD
ENDBRANCH   4   7
TORSDOF 1
ENDMDL
