MODEL 1
REMARK minimizedAffinity -2.64165163
REMARK minimizedRMSD -1
REMARK  1 active torsions:
REMARK  status: ('A' for Active; 'I' for Inactive)
REMARK    1  A    between atoms: C3_4  and  O_7 
ROOT
ATOM      1  C   UNL d   1       0.360  -0.456   0.238  0.00  0.00    -0.033 A 
ATOM      2  C1  UNL d   1      -0.511  -0.383   1.326  0.00  0.00     0.039 A 
ATOM      3  C2  UNL d   1      -0.144   0.328   2.471  0.00  0.00    -0.080 A 
ATOM      4  C3  UNL d   1       1.094   0.962   2.513  0.00  0.00     0.150 A 
ATOM      5  C4  UNL d   1       1.966   0.897   1.431  0.00  0.00    -0.007 A 
ATOM      6  C5  UNL d   1       1.598   0.186   0.290  0.00  0.00     0.039 A 
ENDROOT
BRANCH   4   7
ATOM      7  O   UNL d   1       1.498   1.663   3.610  0.00  0.00    -0.526 OA
ATOM      8  H5  UNL d   1       0.807   1.597   4.290  0.00  0.00     0.418 HD
ENDBRANCH   4   7
TORSDOF 1
ENDMDL
