MODEL 1
REMARK minimizedAffinity -3.95286274
REMARK minimizedRMSD -1
REMARK  1 active torsions:
REMARK  status: ('A' for Active; 'I' for Inactive)
REMARK    1  A    between atoms: C3_4  and  O_7 
ROOT
ATOM      1  C   UNL d   1       0.464   0.745   1.824  0.00  0.00    -0.033 A 
ATOM      2  C1  UNL d   1      -0.553   0.801   0.870  0.00  0.00     0.039 A 
ATOM      3  C2  UNL d   1      -0.263   0.578  -0.477  0.00  0.00    -0.080 A 
ATOM      4  C3  UNL d   1       1.047   0.298  -0.857  0.00  0.00     0.150 A 
ATOM      5  C4  UNL d   1       2.065   0.237   0.089  0.00  0.00    -0.007 A 
ATOM      6  C5  UNL d   1       1.773   0.461   1.434  0.00  0.00     0.039 A 
ENDROOT
BRANCH   4   7
ATOM      7  O   UNL d   1       1.379   0.077  -2.160  0.00  0.00    -0.526 OA
ATOM      8  H5  UNL d   1       0.580   0.180  -2.703  0.00  0.00     0.418 HD
ENDBRANCH   4   7
TORSDOF 1
ENDMDL
