MODEL 1
REMARK minimizedAffinity -2.5827117
REMARK minimizedRMSD -1
REMARK  1 active torsions:
REMARK  status: ('A' for Active; 'I' for Inactive)
REMARK    1  A    between atoms: C3_4  and  O_7 
ROOT
ATOM      1  C   UNL d   1       0.641   0.345   2.362  0.00  0.00    -0.033 A 
ATOM      2  C1  UNL d   1      -0.440   0.511   3.229  0.00  0.00     0.039 A 
ATOM      3  C2  UNL d   1      -1.742   0.554   2.724  0.00  0.00    -0.080 A 
ATOM      4  C3  UNL d   1      -1.947   0.429   1.353  0.00  0.00     0.150 A 
ATOM      5  C4  UNL d   1      -0.874   0.259   0.484  0.00  0.00    -0.007 A 
ATOM      6  C5  UNL d   1       0.424   0.218   0.990  0.00  0.00     0.039 A 
ENDROOT
BRANCH   4   7
ATOM      7  O   UNL d   1      -3.198   0.469   0.813  0.00  0.00    -0.526 OA
ATOM      8  H5  UNL d   1      -3.838   0.619   1.530  0.00  0.00     0.418 HD
ENDBRANCH   4   7
TORSDOF 1
ENDMDL
