MODEL 1
REMARK minimizedAffinity -5.08892393
REMARK minimizedRMSD -1
REMARK  1 active torsions:
REMARK  status: ('A' for Active; 'I' for Inactive)
REMARK    1  A    between atoms: C3_4  and  O_7 
ROOT
ATOM      1  C   UNL d   1      -1.551  -0.126   3.311  0.00  0.00    -0.033 A 
ATOM      2  C1  UNL d   1      -2.434  -0.322   2.248  0.00  0.00     0.039 A 
ATOM      3  C2  UNL d   1      -1.949  -0.413   0.942  0.00  0.00    -0.080 A 
ATOM      4  C3  UNL d   1      -0.579  -0.309   0.713  0.00  0.00     0.150 A 
ATOM      5  C4  UNL d   1       0.307  -0.118   1.768  0.00  0.00    -0.007 A 
ATOM      6  C5  UNL d   1      -0.180  -0.026   3.071  0.00  0.00     0.039 A 
ENDROOT
BRANCH   4   7
ATOM      7  O   UNL d   1      -0.059  -0.388  -0.545  0.00  0.00    -0.526 OA
ATOM      8  H5  UNL d   1      -0.792  -0.491  -1.175  0.00  0.00     0.418 HD
ENDBRANCH   4   7
TORSDOF 1
ENDMDL
