MODEL 1
REMARK minimizedAffinity -5.07265043
REMARK minimizedRMSD -1
REMARK  1 active torsions:
REMARK  status: ('A' for Active; 'I' for Inactive)
REMARK    1  A    between atoms: C3_4  and  O_7 
ROOT
ATOM      1  C   UNL d   1      -1.061   0.007   1.420  0.00  0.00    -0.033 A 
ATOM      2  C1  UNL d   1      -0.359   0.231   0.235  0.00  0.00     0.039 A 
ATOM      3  C2  UNL d   1       1.030   0.370   0.260  0.00  0.00    -0.080 A 
ATOM      4  C3  UNL d   1       1.704   0.282   1.475  0.00  0.00     0.150 A 
ATOM      5  C4  UNL d   1       1.011   0.055   2.659  0.00  0.00    -0.007 A 
ATOM      6  C5  UNL d   1      -0.376  -0.082   2.633  0.00  0.00     0.039 A 
ENDROOT
BRANCH   4   7
ATOM      7  O   UNL d   1       3.059   0.416   1.550  0.00  0.00    -0.526 OA
ATOM      8  H5  UNL d   1       3.400   0.597   0.658  0.00  0.00     0.418 HD
ENDBRANCH   4   7
TORSDOF 1
ENDMDL
