MODEL 1
REMARK minimizedAffinity -5.53876257
REMARK minimizedRMSD -1
REMARK  1 active torsions:
REMARK  status: ('A' for Active; 'I' for Inactive)
REMARK    1  A    between atoms: C3_4  and  O_7 
ROOT
ATOM      1  C   UNL d   1       0.534   0.970   0.327  0.00  0.00    -0.033 A 
ATOM      2  C1  UNL d   1       1.388   0.918   1.430  0.00  0.00     0.039 A 
ATOM      3  C2  UNL d   1       1.177  -0.028   2.436  0.00  0.00    -0.080 A 
ATOM      4  C3  UNL d   1       0.109  -0.914   2.326  0.00  0.00     0.150 A 
ATOM      5  C4  UNL d   1      -0.744  -0.871   1.228  0.00  0.00    -0.007 A 
ATOM      6  C5  UNL d   1      -0.531   0.075   0.225  0.00  0.00     0.039 A 
ENDROOT
BRANCH   4   7
ATOM      7  O   UNL d   1      -0.140  -1.852   3.284  0.00  0.00    -0.526 OA
ATOM      8  H5  UNL d   1       0.513  -1.745   3.996  0.00  0.00     0.418 HD
ENDBRANCH   4   7
TORSDOF 1
ENDMDL
