MODEL 1
REMARK minimizedAffinity 0.886942267
REMARK minimizedRMSD -1
REMARK  1 active torsions:
REMARK  status: ('A' for Active; 'I' for Inactive)
REMARK    1  A    between atoms: C3_4  and  O_7 
ROOT
ATOM      1  C   UNL d   1       0.994   1.238   2.989  0.00  0.00    -0.033 A 
ATOM      2  C1  UNL d   1       2.228   0.808   2.499  0.00  0.00     0.039 A 
ATOM      3  C2  UNL d   1       2.370   0.479   1.149  0.00  0.00    -0.080 A 
ATOM      4  C3  UNL d   1       1.270   0.585   0.301  0.00  0.00     0.150 A 
ATOM      5  C4  UNL d   1       0.039   1.017   0.782  0.00  0.00    -0.007 A 
ATOM      6  C5  UNL d   1      -0.101   1.344   2.130  0.00  0.00     0.039 A 
ENDROOT
BRANCH   4   7
ATOM      7  O   UNL d   1       1.358   0.270  -1.022  0.00  0.00    -0.526 OA
ATOM      8  H5  UNL d   1       2.261  -0.040  -1.205  0.00  0.00     0.418 HD
ENDBRANCH   4   7
TORSDOF 1
ENDMDL
