MODEL 1
REMARK minimizedAffinity 0.53601712
REMARK minimizedRMSD -1
REMARK  1 active torsions:
REMARK  status: ('A' for Active; 'I' for Inactive)
REMARK    1  A    between atoms: C3_4  and  O_7 
ROOT
ATOM      1  C   UNL d   1       0.098  -0.193  -0.489  0.00  0.00    -0.033 A 
ATOM      2  C1  UNL d   1      -0.173   1.091  -0.964  0.00  0.00     0.039 A 
ATOM      3  C2  UNL d   1      -1.478   1.447  -1.311  0.00  0.00    -0.080 A 
ATOM      4  C3  UNL d   1      -2.500   0.512  -1.177  0.00  0.00     0.150 A 
ATOM      5  C4  UNL d   1      -2.238  -0.768  -0.701  0.00  0.00    -0.007 A 
ATOM      6  C5  UNL d   1      -0.934  -1.122  -0.355  0.00  0.00     0.039 A 
ENDROOT
BRANCH   4   7
ATOM      7  O   UNL d   1      -3.789   0.812  -1.508  0.00  0.00    -0.526 OA
ATOM      8  H5  UNL d   1      -3.815   1.722  -1.849  0.00  0.00     0.418 HD
ENDBRANCH   4   7
TORSDOF 1
ENDMDL
