MODEL 1
REMARK minimizedAffinity -3.87785149
REMARK minimizedRMSD -1
REMARK  1 active torsions:
REMARK  status: ('A' for Active; 'I' for Inactive)
REMARK    1  A    between atoms: C3_4  and  O_7 
ROOT
ATOM      1  C   UNL d   1      -0.324   0.538   2.950  0.00  0.00    -0.033 A 
ATOM      2  C1  UNL d   1       0.736   1.285   2.432  0.00  0.00     0.039 A 
ATOM      3  C2  UNL d   1       1.155   1.084   1.115  0.00  0.00    -0.080 A 
ATOM      4  C3  UNL d   1       0.506   0.137   0.328  0.00  0.00     0.150 A 
ATOM      5  C4  UNL d   1      -0.553  -0.608   0.837  0.00  0.00    -0.007 A 
ATOM      6  C5  UNL d   1      -0.969  -0.407   2.152  0.00  0.00     0.039 A 
ENDROOT
BRANCH   4   7
ATOM      7  O   UNL d   1       0.882  -0.097  -0.961  0.00  0.00    -0.526 OA
ATOM      8  H5  UNL d   1       1.645   0.469  -1.167  0.00  0.00     0.418 HD
ENDBRANCH   4   7
TORSDOF 1
ENDMDL
