MODEL 1
REMARK minimizedAffinity -4.49236917
REMARK minimizedRMSD -1
REMARK  1 active torsions:
REMARK  status: ('A' for Active; 'I' for Inactive)
REMARK    1  A    between atoms: C3_4  and  O_7 
ROOT
ATOM      1  C   UNL d   1      -0.991  -0.439   3.106  0.00  0.00    -0.033 A 
ATOM      2  C1  UNL d   1       0.189   0.298   2.983  0.00  0.00     0.039 A 
ATOM      3  C2  UNL d   1       0.747   0.520   1.722  0.00  0.00    -0.080 A 
ATOM      4  C3  UNL d   1       0.116   0.002   0.595  0.00  0.00     0.150 A 
ATOM      5  C4  UNL d   1      -1.062  -0.729   0.710  0.00  0.00    -0.007 A 
ATOM      6  C5  UNL d   1      -1.617  -0.951   1.970  0.00  0.00     0.039 A 
ENDROOT
BRANCH   4   7
ATOM      7  O   UNL d   1       0.625   0.189  -0.656  0.00  0.00    -0.526 OA
ATOM      8  H5  UNL d   1       1.456   0.687  -0.579  0.00  0.00     0.418 HD
ENDBRANCH   4   7
TORSDOF 1
ENDMDL
