MODEL 1
REMARK minimizedAffinity -3.06751132
REMARK minimizedRMSD -1
REMARK  0 active torsions:
REMARK  status: ('A' for Active; 'I' for Inactive)
ROOT
ATOM      1  N1  IND d   1      -1.491  -0.576  -0.750  0.00  0.00    -0.196 N 
ATOM      2  C2  IND d   1      -1.320   0.735  -1.097  0.00  0.00     0.054 A 
ATOM      3  C3  IND d   1      -0.083   1.157  -0.751  0.00  0.00    -0.031 A 
ATOM      4  C4  IND d   1       1.859  -0.165   0.302  0.00  0.00     0.051 A 
ATOM      5  C5  IND d   1       2.169  -1.386   0.831  0.00  0.00    -0.031 A 
ATOM      6  C6  IND d   1       1.258  -2.421   0.858  0.00  0.00     0.015 A 
ATOM      7  C7  IND d   1      -0.000  -2.277   0.345  0.00  0.00    -0.016 A 
ATOM      8  C8  IND d   1      -0.321  -1.036  -0.187  0.00  0.00    -0.047 A 
ATOM      9  C9  IND d   1       0.586   0.032  -0.179  0.00  0.00    -0.096 A 
ATOM     10  HN1 IND d   1      -2.208  -1.036  -0.864  0.00  0.00     0.298 HD
ENDROOT
TORSDOF 0
ENDMDL
