MODEL 1
REMARK minimizedAffinity -6.51117516
REMARK minimizedRMSD -1
REMARK  0 active torsions:
REMARK  status: ('A' for Active; 'I' for Inactive)
ROOT
ATOM      1  N1  IND d   1      -0.954   0.673   0.096  0.00  0.00    -0.196 N 
ATOM      2  C2  IND d   1      -0.050   1.197  -0.786  0.00  0.00     0.054 A 
ATOM      3  C3  IND d   1       1.118   0.518  -0.721  0.00  0.00    -0.031 A 
ATOM      4  C4  IND d   1       1.733  -1.547   0.687  0.00  0.00     0.051 A 
ATOM      5  C5  IND d   1       1.248  -2.365   1.669  0.00  0.00    -0.031 A 
ATOM      6  C6  IND d   1      -0.022  -2.211   2.185  0.00  0.00     0.015 A 
ATOM      7  C7  IND d   1      -0.863  -1.235   1.728  0.00  0.00    -0.016 A 
ATOM      8  C8  IND d   1      -0.371  -0.398   0.736  0.00  0.00    -0.047 A 
ATOM      9  C9  IND d   1       0.932  -0.524   0.239  0.00  0.00    -0.096 A 
ATOM     10  HN1 IND d   1      -1.752   0.964   0.228  0.00  0.00     0.298 HD
ENDROOT
TORSDOF 0
ENDMDL
