MODEL 1
REMARK minimizedAffinity -0.157637179
REMARK minimizedRMSD -1
REMARK  0 active torsions:
REMARK  status: ('A' for Active; 'I' for Inactive)
ROOT
ATOM      1  N1  IND d   1       2.350  -0.149  -0.130  0.00  0.00    -0.196 N 
ATOM      2  C2  IND d   1       2.684  -1.349   0.434  0.00  0.00     0.054 A 
ATOM      3  C3  IND d   1       1.618  -1.879   1.076  0.00  0.00    -0.031 A 
ATOM      4  C4  IND d   1      -0.795  -0.999   1.242  0.00  0.00     0.051 A 
ATOM      5  C5  IND d   1      -1.574   0.076   0.918  0.00  0.00    -0.031 A 
ATOM      6  C6  IND d   1      -1.076   1.152   0.212  0.00  0.00     0.015 A 
ATOM      7  C7  IND d   1       0.223   1.187  -0.209  0.00  0.00    -0.016 A 
ATOM      8  C8  IND d   1       1.019   0.100   0.124  0.00  0.00    -0.047 A 
ATOM      9  C9  IND d   1       0.530  -0.974   0.878  0.00  0.00    -0.096 A 
ATOM     10  HN1 IND d   1       2.882   0.364  -0.570  0.00  0.00     0.298 HD
ENDROOT
TORSDOF 0
ENDMDL
