MODEL 1
REMARK minimizedAffinity -6.1280427
REMARK minimizedRMSD -1
REMARK  0 active torsions:
REMARK  status: ('A' for Active; 'I' for Inactive)
ROOT
ATOM      1  N1  IND d   1      -0.710   0.436   0.419  0.00  0.00    -0.196 N 
ATOM      2  C2  IND d   1       0.166   0.747  -0.584  0.00  0.00     0.054 A 
ATOM      3  C3  IND d   1       1.233  -0.081  -0.550  0.00  0.00    -0.031 A 
ATOM      4  C4  IND d   1       1.701  -2.083   0.999  0.00  0.00     0.051 A 
ATOM      5  C5  IND d   1       1.209  -2.736   2.094  0.00  0.00    -0.031 A 
ATOM      6  C6  IND d   1       0.027  -2.359   2.698  0.00  0.00     0.015 A 
ATOM      7  C7  IND d   1      -0.716  -1.317   2.219  0.00  0.00    -0.016 A 
ATOM      8  C8  IND d   1      -0.216  -0.648   1.111  0.00  0.00    -0.047 A 
ATOM      9  C9  IND d   1       1.004  -0.999   0.520  0.00  0.00    -0.096 A 
ATOM     10  HN1 IND d   1      -1.446   0.848   0.588  0.00  0.00     0.298 HD
ENDROOT
TORSDOF 0
ENDMDL
