MODEL 1
REMARK minimizedAffinity -4.89165211
REMARK minimizedRMSD -1
REMARK  0 active torsions:
REMARK  status: ('A' for Active; 'I' for Inactive)
ROOT
ATOM      1  N1  IND d   1      -1.393   0.568   0.065  0.00  0.00    -0.196 N 
ATOM      2  C2  IND d   1      -0.943   1.538  -0.787  0.00  0.00     0.054 A 
ATOM      3  C3  IND d   1       0.317   1.261  -1.190  0.00  0.00    -0.031 A 
ATOM      4  C4  IND d   1       1.795  -0.779  -0.657  0.00  0.00     0.051 A 
ATOM      5  C5  IND d   1       1.832  -1.912   0.105  0.00  0.00    -0.031 A 
ATOM      6  C6  IND d   1       0.773  -2.286   0.907  0.00  0.00     0.015 A 
ATOM      7  C7  IND d   1      -0.371  -1.543   0.969  0.00  0.00    -0.016 A 
ATOM      8  C8  IND d   1      -0.410  -0.387   0.201  0.00  0.00    -0.047 A 
ATOM      9  C9  IND d   1       0.678   0.020  -0.582  0.00  0.00    -0.096 A 
ATOM     10  HN1 IND d   1      -2.161   0.556   0.452  0.00  0.00     0.298 HD
ENDROOT
TORSDOF 0
ENDMDL
