MODEL 1
REMARK minimizedAffinity -5.75957251
REMARK minimizedRMSD -1
REMARK  0 active torsions:
REMARK  status: ('A' for Active; 'I' for Inactive)
ROOT
ATOM      1  N1  IND d   1      -0.813   0.814   0.358  0.00  0.00    -0.196 N 
ATOM      2  C2  IND d   1       0.006   1.676  -0.316  0.00  0.00     0.054 A 
ATOM      3  C3  IND d   1       1.174   1.069  -0.626  0.00  0.00    -0.031 A 
ATOM      4  C4  IND d   1       1.912  -1.363  -0.215  0.00  0.00     0.051 A 
ATOM      5  C5  IND d   1       1.519  -2.520   0.397  0.00  0.00    -0.031 A 
ATOM      6  C6  IND d   1       0.301  -2.627   1.039  0.00  0.00     0.015 A 
ATOM      7  C7  IND d   1      -0.576  -1.580   1.082  0.00  0.00    -0.016 A 
ATOM      8  C8  IND d   1      -0.176  -0.402   0.467  0.00  0.00    -0.047 A 
ATOM      9  C9  IND d   1       1.076  -0.274  -0.149  0.00  0.00    -0.096 A 
ATOM     10  HN1 IND d   1      -1.595   1.001   0.663  0.00  0.00     0.298 HD
ENDROOT
TORSDOF 0
ENDMDL
