MODEL 1
REMARK minimizedAffinity -4.5588131
REMARK minimizedRMSD -1
REMARK  0 active torsions:
REMARK  status: ('A' for Active; 'I' for Inactive)
ROOT
ATOM      1  N1  IND d   1      -0.491   0.067  -0.199  0.00  0.00    -0.196 N 
ATOM      2  C2  IND d   1       0.251   0.655  -1.184  0.00  0.00     0.054 A 
ATOM      3  C3  IND d   1       1.477   0.089  -1.251  0.00  0.00    -0.031 A 
ATOM      4  C4  IND d   1       2.441  -1.886   0.090  0.00  0.00     0.051 A 
ATOM      5  C5  IND d   1       2.152  -2.727   1.128  0.00  0.00    -0.031 A 
ATOM      6  C6  IND d   1       0.941  -2.680   1.788  0.00  0.00     0.015 A 
ATOM      7  C7  IND d   1      -0.034  -1.794   1.426  0.00  0.00    -0.016 A 
ATOM      8  C8  IND d   1       0.259  -0.934   0.377  0.00  0.00    -0.047 A 
ATOM      9  C9  IND d   1       1.502  -0.948  -0.269  0.00  0.00    -0.096 A 
ATOM     10  HN1 IND d   1      -1.293   0.286   0.024  0.00  0.00     0.298 HD
ENDROOT
TORSDOF 0
ENDMDL
