MODEL 1
REMARK minimizedAffinity -3.70208716
REMARK minimizedRMSD -1
REMARK  0 active torsions:
REMARK  status: ('A' for Active; 'I' for Inactive)
ROOT
ATOM      1  N1  IND d   1      -1.543  -0.062   1.896  0.00  0.00    -0.196 N 
ATOM      2  C2  IND d   1      -1.871  -1.296   2.387  0.00  0.00     0.054 A 
ATOM      3  C3  IND d   1      -0.967  -2.217   1.985  0.00  0.00    -0.031 A 
ATOM      4  C4  IND d   1       1.183  -1.904   0.602  0.00  0.00     0.051 A 
ATOM      5  C5  IND d   1       1.884  -0.966  -0.101  0.00  0.00    -0.031 A 
ATOM      6  C6  IND d   1       1.472   0.349  -0.174  0.00  0.00     0.015 A 
ATOM      7  C7  IND d   1       0.344   0.779   0.467  0.00  0.00    -0.016 A 
ATOM      8  C8  IND d   1      -0.375  -0.173   1.176  0.00  0.00    -0.047 A 
ATOM      9  C9  IND d   1       0.016  -1.518   1.218  0.00  0.00    -0.096 A 
ATOM     10  HN1 IND d   1      -1.992   0.661   2.017  0.00  0.00     0.298 HD
ENDROOT
TORSDOF 0
ENDMDL
