MODEL 1
REMARK minimizedAffinity -3.71379185
REMARK minimizedRMSD -1
REMARK  0 active torsions:
REMARK  status: ('A' for Active; 'I' for Inactive)
ROOT
ATOM      1  N1  IND d   1      -0.722   0.397   0.307  0.00  0.00    -0.196 N 
ATOM      2  C2  IND d   1      -0.048   0.916  -0.763  0.00  0.00     0.054 A 
ATOM      3  C3  IND d   1       1.130   0.274  -0.933  0.00  0.00    -0.031 A 
ATOM      4  C4  IND d   1       2.106  -1.723   0.365  0.00  0.00     0.051 A 
ATOM      5  C5  IND d   1       1.872  -2.520   1.451  0.00  0.00    -0.031 A 
ATOM      6  C6  IND d   1       0.738  -2.385   2.224  0.00  0.00     0.015 A 
ATOM      7  C7  IND d   1      -0.215  -1.450   1.933  0.00  0.00    -0.016 A 
ATOM      8  C8  IND d   1       0.022  -0.634   0.836  0.00  0.00    -0.047 A 
ATOM      9  C9  IND d   1       1.192  -0.739   0.072  0.00  0.00    -0.096 A 
ATOM     10  HN1 IND d   1      -1.483   0.670   0.600  0.00  0.00     0.298 HD
ENDROOT
TORSDOF 0
ENDMDL
