MODEL 1
REMARK minimizedAffinity -0.573385417
REMARK minimizedRMSD -1
REMARK  0 active torsions:
REMARK  status: ('A' for Active; 'I' for Inactive)
ROOT
ATOM      1  N1  IND d   1      -1.227   0.285   1.447  0.00  0.00    -0.196 N 
ATOM      2  C2  IND d   1      -1.248   1.200   0.433  0.00  0.00     0.054 A 
ATOM      3  C3  IND d   1      -0.151   1.064  -0.346  0.00  0.00    -0.031 A 
ATOM      4  C4  IND d   1       1.755  -0.660  -0.201  0.00  0.00     0.051 A 
ATOM      5  C5  IND d   1       2.231  -1.676   0.580  0.00  0.00    -0.031 A 
ATOM      6  C6  IND d   1       1.564  -2.101   1.710  0.00  0.00     0.015 A 
ATOM      7  C7  IND d   1       0.385  -1.531   2.098  0.00  0.00    -0.016 A 
ATOM      8  C8  IND d   1      -0.098  -0.494   1.312  0.00  0.00    -0.047 A 
ATOM      9  C9  IND d   1       0.596  -0.030   0.188  0.00  0.00    -0.096 A 
ATOM     10  HN1 IND d   1      -1.819   0.208   2.066  0.00  0.00     0.298 HD
ENDROOT
TORSDOF 0
ENDMDL
