MODEL 1
REMARK minimizedAffinity -2.50926852
REMARK minimizedRMSD -1
REMARK  0 active torsions:
REMARK  status: ('A' for Active; 'I' for Inactive)
ROOT
ATOM      1  N1  IND d   1       0.237  -2.260   1.576  0.00  0.00    -0.196 N 
ATOM      2  C2  IND d   1       1.547  -2.600   1.380  0.00  0.00     0.054 A 
ATOM      3  C3  IND d   1       2.165  -1.672   0.615  0.00  0.00    -0.031 A 
ATOM      4  C4  IND d   1       1.246   0.535  -0.340  0.00  0.00     0.051 A 
ATOM      5  C5  IND d   1       0.094   1.261  -0.458  0.00  0.00    -0.031 A 
ATOM      6  C6  IND d   1      -1.092   0.843   0.109  0.00  0.00     0.015 A 
ATOM      7  C7  IND d   1      -1.169  -0.316   0.829  0.00  0.00    -0.016 A 
ATOM      8  C8  IND d   1      -0.002  -1.059   0.945  0.00  0.00    -0.047 A 
ATOM      9  C9  IND d   1       1.195  -0.661   0.336  0.00  0.00    -0.096 A 
ATOM     10  HN1 IND d   1      -0.339  -2.719   2.018  0.00  0.00     0.298 HD
ENDROOT
TORSDOF 0
ENDMDL
