MODEL 1
REMARK minimizedAffinity -5.94136763
REMARK minimizedRMSD -1
REMARK  0 active torsions:
REMARK  status: ('A' for Active; 'I' for Inactive)
ROOT
ATOM      1  N1  IND d   1      -0.622   0.297   0.359  0.00  0.00    -0.196 N 
ATOM      2  C2  IND d   1       0.122   0.542  -0.762  0.00  0.00     0.054 A 
ATOM      3  C3  IND d   1       1.138  -0.346  -0.856  0.00  0.00    -0.031 A 
ATOM      4  C4  IND d   1       1.708  -2.346   0.661  0.00  0.00     0.051 A 
ATOM      5  C5  IND d   1       1.338  -2.952   1.829  0.00  0.00    -0.031 A 
ATOM      6  C6  IND d   1       0.273  -2.498   2.580  0.00  0.00     0.015 A 
ATOM      7  C7  IND d   1      -0.472  -1.424   2.184  0.00  0.00    -0.016 A 
ATOM      8  C8  IND d   1      -0.095  -0.802   1.002  0.00  0.00    -0.047 A 
ATOM      9  C9  IND d   1       1.011  -1.232   0.257  0.00  0.00    -0.096 A 
ATOM     10  HN1 IND d   1      -1.303   0.752   0.618  0.00  0.00     0.298 HD
ENDROOT
TORSDOF 0
ENDMDL
