MODEL 1
REMARK minimizedAffinity -4.18451929
REMARK minimizedRMSD -1
REMARK  0 active torsions:
REMARK  status: ('A' for Active; 'I' for Inactive)
ROOT
ATOM      1  N1  IND d   1      -1.190  -1.044   2.403  0.00  0.00    -0.196 N 
ATOM      2  C2  IND d   1      -0.932  -1.989   3.356  0.00  0.00     0.054 A 
ATOM      3  C3  IND d   1       0.226  -2.631   3.081  0.00  0.00    -0.031 A 
ATOM      4  C4  IND d   1       1.908  -2.224   1.175  0.00  0.00     0.051 A 
ATOM      5  C5  IND d   1       2.089  -1.491   0.036  0.00  0.00    -0.031 A 
ATOM      6  C6  IND d   1       1.168  -0.551  -0.379  0.00  0.00     0.015 A 
ATOM      7  C7  IND d   1       0.033  -0.299   0.339  0.00  0.00    -0.016 A 
ATOM      8  C8  IND d   1      -0.157  -1.047   1.492  0.00  0.00    -0.047 A 
ATOM      9  C9  IND d   1       0.753  -2.033   1.896  0.00  0.00    -0.096 A 
ATOM     10  HN1 IND d   1      -1.882  -0.534   2.377  0.00  0.00     0.298 HD
ENDROOT
TORSDOF 0
ENDMDL
