MODEL 1
REMARK minimizedAffinity -5.47493076
REMARK minimizedRMSD -1
REMARK  0 active torsions:
REMARK  status: ('A' for Active; 'I' for Inactive)
ROOT
ATOM      1  N1  IND d   1      -0.850   0.406   0.404  0.00  0.00    -0.196 N 
ATOM      2  C2  IND d   1      -0.200   0.622  -0.779  0.00  0.00     0.054 A 
ATOM      3  C3  IND d   1       0.779  -0.295  -0.952  0.00  0.00    -0.031 A 
ATOM      4  C4  IND d   1       1.422  -2.300   0.528  0.00  0.00     0.051 A 
ATOM      5  C5  IND d   1       1.139  -2.887   1.730  0.00  0.00    -0.031 A 
ATOM      6  C6  IND d   1       0.156  -2.398   2.566  0.00  0.00     0.015 A 
ATOM      7  C7  IND d   1      -0.590  -1.306   2.226  0.00  0.00    -0.016 A 
ATOM      8  C8  IND d   1      -0.300  -0.703   1.010  0.00  0.00    -0.047 A 
ATOM      9  C9  IND d   1       0.724  -1.170   0.176  0.00  0.00    -0.096 A 
ATOM     10  HN1 IND d   1      -1.493   0.882   0.718  0.00  0.00     0.298 HD
ENDROOT
TORSDOF 0
ENDMDL
