MODEL 1
REMARK minimizedAffinity -3.65504742
REMARK minimizedRMSD -1
REMARK  0 active torsions:
REMARK  status: ('A' for Active; 'I' for Inactive)
ROOT
ATOM      1  N1  IND d   1      -1.233  -0.346  -0.035  0.00  0.00    -0.196 N 
ATOM      2  C2  IND d   1      -0.730   0.848  -0.470  0.00  0.00     0.054 A 
ATOM      3  C3  IND d   1       0.620   0.845  -0.398  0.00  0.00    -0.031 A 
ATOM      4  C4  IND d   1       2.215  -1.049   0.308  0.00  0.00     0.051 A 
ATOM      5  C5  IND d   1       2.223  -2.315   0.822  0.00  0.00    -0.031 A 
ATOM      6  C6  IND d   1       1.056  -3.005   1.078  0.00  0.00     0.015 A 
ATOM      7  C7  IND d   1      -0.168  -2.456   0.819  0.00  0.00    -0.016 A 
ATOM      8  C8  IND d   1      -0.180  -1.167   0.304  0.00  0.00    -0.047 A 
ATOM      9  C9  IND d   1       1.000  -0.446   0.082  0.00  0.00    -0.096 A 
ATOM     10  HN1 IND d   1      -2.066  -0.550   0.017  0.00  0.00     0.298 HD
ENDROOT
TORSDOF 0
ENDMDL
