MODEL 1
REMARK minimizedAffinity -2.80894899
REMARK minimizedRMSD -1
REMARK  0 active torsions:
REMARK  status: ('A' for Active; 'I' for Inactive)
ROOT
ATOM      1  N1  IND d   1      -1.446   0.157   0.889  0.00  0.00    -0.196 N 
ATOM      2  C2  IND d   1      -1.374   1.382   0.288  0.00  0.00     0.054 A 
ATOM      3  C3  IND d   1      -0.131   1.594  -0.200  0.00  0.00    -0.031 A 
ATOM      4  C4  IND d   1       1.910   0.025  -0.214  0.00  0.00     0.051 A 
ATOM      5  C5  IND d   1       2.340  -1.187   0.249  0.00  0.00    -0.031 A 
ATOM      6  C6  IND d   1       1.513  -2.031   0.961  0.00  0.00     0.015 A 
ATOM      7  C7  IND d   1       0.215  -1.698   1.228  0.00  0.00    -0.016 A 
ATOM      8  C8  IND d   1      -0.223  -0.465   0.766  0.00  0.00    -0.047 A 
ATOM      9  C9  IND d   1       0.624   0.414   0.079  0.00  0.00    -0.096 A 
ATOM     10  HN1 IND d   1      -2.139  -0.171   1.279  0.00  0.00     0.298 HD
ENDROOT
TORSDOF 0
ENDMDL
