MODEL 1
REMARK minimizedAffinity -4.7505374
REMARK minimizedRMSD -1
REMARK  0 active torsions:
REMARK  status: ('A' for Active; 'I' for Inactive)
ROOT
ATOM      1  C   UNL d   1       0.396  -0.728  -1.233  0.00  0.00     0.078 C 
ATOM      2  C1  UNL d   1      -0.191  -0.089  -0.010  0.00  0.00    -0.077 A 
ATOM      3  C2  UNL d   1      -1.540   0.282   0.032  0.00  0.00    -0.001 A 
ATOM      4  C3  UNL d   1      -2.071   0.885   1.174  0.00  0.00     0.003 A 
ATOM      5  C4  UNL d   1      -1.259   1.123   2.281  0.00  0.00    -0.005 A 
ATOM      6  C5  UNL d   1       0.086   0.759   2.247  0.00  0.00     0.003 A 
ATOM      7  C6  UNL d   1       0.618   0.157   1.106  0.00  0.00    -0.001 A 
ENDROOT
TORSDOF 0
ENDMDL
