MODEL 1
REMARK minimizedAffinity -4.90207767
REMARK minimizedRMSD -1
REMARK  0 active torsions:
REMARK  status: ('A' for Active; 'I' for Inactive)
ROOT
ATOM      1  C   UNL d   1       1.584   0.128  -1.135  0.00  0.00     0.078 C 
ATOM      2  C1  UNL d   1       0.538   0.368  -0.088  0.00  0.00    -0.077 A 
ATOM      3  C2  UNL d   1       0.895   0.636   1.240  0.00  0.00    -0.001 A 
ATOM      4  C3  UNL d   1      -0.090   0.848   2.206  0.00  0.00     0.003 A 
ATOM      5  C4  UNL d   1      -1.437   0.793   1.856  0.00  0.00    -0.005 A 
ATOM      6  C5  UNL d   1      -1.802   0.526   0.538  0.00  0.00     0.003 A 
ATOM      7  C6  UNL d   1      -0.819   0.314  -0.430  0.00  0.00    -0.001 A 
ENDROOT
TORSDOF 0
ENDMDL
