MODEL 1
REMARK minimizedAffinity -5.57227373
REMARK minimizedRMSD -1
REMARK  0 active torsions:
REMARK  status: ('A' for Active; 'I' for Inactive)
ROOT
ATOM      1  C   UNL d   1       2.221   0.164   3.310  0.00  0.00     0.078 C 
ATOM      2  C1  UNL d   1       0.949   0.439   2.565  0.00  0.00    -0.077 A 
ATOM      3  C2  UNL d   1      -0.241   0.720   3.248  0.00  0.00    -0.001 A 
ATOM      4  C3  UNL d   1      -1.420   0.964   2.541  0.00  0.00     0.003 A 
ATOM      5  C4  UNL d   1      -1.421   0.928   1.148  0.00  0.00    -0.005 A 
ATOM      6  C5  UNL d   1      -0.242   0.646   0.460  0.00  0.00     0.003 A 
ATOM      7  C6  UNL d   1       0.937   0.402   1.165  0.00  0.00    -0.001 A 
ENDROOT
TORSDOF 0
ENDMDL
