MODEL 1
REMARK minimizedAffinity -3.1860466
REMARK minimizedRMSD -1
REMARK  0 active torsions:
REMARK  status: ('A' for Active; 'I' for Inactive)
ROOT
ATOM      1  C   UNL d   1      -1.492   0.600   1.679  0.00  0.00     0.078 C 
ATOM      2  C1  UNL d   1      -0.880   0.503   0.313  0.00  0.00    -0.077 A 
ATOM      3  C2  UNL d   1      -0.786   1.628  -0.515  0.00  0.00    -0.001 A 
ATOM      4  C3  UNL d   1      -0.223   1.522  -1.788  0.00  0.00     0.003 A 
ATOM      5  C4  UNL d   1       0.249   0.292  -2.244  0.00  0.00    -0.005 A 
ATOM      6  C5  UNL d   1       0.157  -0.833  -1.427  0.00  0.00     0.003 A 
ATOM      7  C6  UNL d   1      -0.405  -0.728  -0.154  0.00  0.00    -0.001 A 
ENDROOT
TORSDOF 0
ENDMDL
