MODEL 1
REMARK minimizedAffinity -4.49406862
REMARK minimizedRMSD -1
REMARK  0 active torsions:
REMARK  status: ('A' for Active; 'I' for Inactive)
ROOT
ATOM      1  C   UNL d   1       0.364   0.004  -1.468  0.00  0.00     0.078 C 
ATOM      2  C1  UNL d   1       0.091   0.050   0.006  0.00  0.00    -0.077 A 
ATOM      3  C2  UNL d   1       1.081  -0.295   0.934  0.00  0.00    -0.001 A 
ATOM      4  C3  UNL d   1       0.809  -0.256   2.303  0.00  0.00     0.003 A 
ATOM      5  C4  UNL d   1      -0.452   0.126   2.755  0.00  0.00    -0.005 A 
ATOM      6  C5  UNL d   1      -1.444   0.469   1.839  0.00  0.00     0.003 A 
ATOM      7  C6  UNL d   1      -1.174   0.431   0.470  0.00  0.00    -0.001 A 
ENDROOT
TORSDOF 0
ENDMDL
