MODEL 1
REMARK minimizedAffinity -2.4358871
REMARK minimizedRMSD -1
REMARK  0 active torsions:
REMARK  status: ('A' for Active; 'I' for Inactive)
ROOT
ATOM      1  C   UNL d   1      -3.001   0.334   0.507  0.00  0.00     0.078 C 
ATOM      2  C1  UNL d   1      -1.549  -0.037   0.545  0.00  0.00    -0.077 A 
ATOM      3  C2  UNL d   1      -0.780   0.177   1.695  0.00  0.00    -0.001 A 
ATOM      4  C3  UNL d   1       0.574  -0.164   1.713  0.00  0.00     0.003 A 
ATOM      5  C4  UNL d   1       1.170  -0.719   0.583  0.00  0.00    -0.005 A 
ATOM      6  C5  UNL d   1       0.413  -0.933  -0.567  0.00  0.00     0.003 A 
ATOM      7  C6  UNL d   1      -0.940  -0.593  -0.587  0.00  0.00    -0.001 A 
ENDROOT
TORSDOF 0
ENDMDL
