MODEL 1
REMARK minimizedAffinity -0.389902294
REMARK minimizedRMSD -1
REMARK  1 active torsions:
REMARK  status: ('A' for Active; 'I' for Inactive)
REMARK    1  A    between atoms: C1_2  and  C2_3 
ROOT
ATOM      1  C2  UNL d   1       0.210  -0.612   2.898  0.00  0.00    -0.077 A 
ATOM      2  C3  UNL d   1       0.357  -1.451   4.011  0.00  0.00     0.002 A 
ATOM      3  C4  UNL d   1      -0.754  -1.806   4.779  0.00  0.00     0.002 A 
ATOM      4  C5  UNL d   1      -2.019  -1.329   4.440  0.00  0.00    -0.004 A 
ATOM      5  C6  UNL d   1      -2.174  -0.492   3.336  0.00  0.00     0.002 A 
ATOM      6  C7  UNL d   1      -1.065  -0.136   2.568  0.00  0.00     0.002 A 
ENDROOT
BRANCH   1   7
ATOM      7  C1  UNL d   1       1.399  -0.268   2.039  0.00  0.00     0.055 C 
ATOM      8  C   UNL d   1       1.053  -0.341   0.559  0.00  0.00     0.019 C 
ENDBRANCH   1   7
TORSDOF 1
ENDMDL
