MODEL 1
REMARK minimizedAffinity 4.21866798
REMARK minimizedRMSD -1
REMARK  1 active torsions:
REMARK  status: ('A' for Active; 'I' for Inactive)
REMARK    1  A    between atoms: C1_2  and  C2_3 
ROOT
ATOM      1  C2  UNL d   1       0.153  -0.021   0.473  0.00  0.00    -0.077 A 
ATOM      2  C3  UNL d   1      -0.671   0.641   1.393  0.00  0.00     0.002 A 
ATOM      3  C4  UNL d   1      -2.042   0.758   1.157  0.00  0.00     0.002 A 
ATOM      4  C5  UNL d   1      -2.601   0.212   0.004  0.00  0.00    -0.004 A 
ATOM      5  C6  UNL d   1      -1.790  -0.447  -0.919  0.00  0.00     0.002 A 
ATOM      6  C7  UNL d   1      -0.419  -0.564  -0.685  0.00  0.00     0.002 A 
ENDROOT
BRANCH   1   7
ATOM      7  C1  UNL d   1       1.624  -0.191   0.749  0.00  0.00     0.055 C 
ATOM      8  C   UNL d   1       2.298   1.149   1.005  0.00  0.00     0.019 C 
ENDBRANCH   1   7
TORSDOF 1
ENDMDL
