MODEL 1
REMARK minimizedAffinity 7.31987095
REMARK minimizedRMSD -1
REMARK  1 active torsions:
REMARK  status: ('A' for Active; 'I' for Inactive)
REMARK    1  A    between atoms: C1_2  and  C2_3 
ROOT
ATOM      1  C2  UNL d   1      -3.003  -0.370   2.010  0.00  0.00    -0.077 A 
ATOM      2  C3  UNL d   1      -3.182  -1.244   0.929  0.00  0.00     0.002 A 
ATOM      3  C4  UNL d   1      -2.939  -0.811  -0.377  0.00  0.00     0.002 A 
ATOM      4  C5  UNL d   1      -2.513   0.494  -0.612  0.00  0.00    -0.004 A 
ATOM      5  C6  UNL d   1      -2.334   1.372   0.456  0.00  0.00     0.002 A 
ATOM      6  C7  UNL d   1      -2.577   0.942   1.762  0.00  0.00     0.002 A 
ENDROOT
BRANCH   1   7
ATOM      7  C1  UNL d   1      -3.216  -0.848   3.422  0.00  0.00     0.055 C 
ATOM      8  C   UNL d   1      -1.903  -1.262   4.071  0.00  0.00     0.019 C 
ENDBRANCH   1   7
TORSDOF 1
ENDMDL
