MODEL 1
REMARK minimizedAffinity -0.238565266
REMARK minimizedRMSD -1
REMARK  1 active torsions:
REMARK  status: ('A' for Active; 'I' for Inactive)
REMARK    1  A    between atoms: C1_2  and  C2_3 
ROOT
ATOM      1  C2  UNL d   1       0.192  -0.307   2.447  0.00  0.00    -0.077 A 
ATOM      2  C3  UNL d   1       0.112  -1.115   3.590  0.00  0.00     0.002 A 
ATOM      3  C4  UNL d   1      -1.128  -1.413   4.159  0.00  0.00     0.002 A 
ATOM      4  C5  UNL d   1      -2.296  -0.911   3.589  0.00  0.00    -0.004 A 
ATOM      5  C6  UNL d   1      -2.227  -0.105   2.454  0.00  0.00     0.002 A 
ATOM      6  C7  UNL d   1      -0.988   0.195   1.885  0.00  0.00     0.002 A 
ENDROOT
BRANCH   1   7
ATOM      7  C1  UNL d   1       1.525  -0.025   1.804  0.00  0.00     0.055 C 
ATOM      8  C   UNL d   1       1.523  -0.414   0.333  0.00  0.00     0.019 C 
ENDBRANCH   1   7
TORSDOF 1
ENDMDL
