MODEL 1
REMARK minimizedAffinity -1.77450383
REMARK minimizedRMSD -1
REMARK  1 active torsions:
REMARK  status: ('A' for Active; 'I' for Inactive)
REMARK    1  A    between atoms: C1_2  and  C2_3 
ROOT
ATOM      1  C2  UNL d   1       0.569  -0.211   1.605  0.00  0.00    -0.077 A 
ATOM      2  C3  UNL d   1       0.236  -0.463   2.944  0.00  0.00     0.002 A 
ATOM      3  C4  UNL d   1      -1.076  -0.292   3.390  0.00  0.00     0.002 A 
ATOM      4  C5  UNL d   1      -2.066   0.128   2.504  0.00  0.00    -0.004 A 
ATOM      5  C6  UNL d   1      -1.745   0.384   1.172  0.00  0.00     0.002 A 
ATOM      6  C7  UNL d   1      -0.434   0.214   0.724  0.00  0.00     0.002 A 
ENDROOT
BRANCH   1   7
ATOM      7  C1  UNL d   1       1.972  -0.442   1.111  0.00  0.00     0.055 C 
ATOM      8  C   UNL d   1       2.381   0.611   0.092  0.00  0.00     0.019 C 
ENDBRANCH   1   7
TORSDOF 1
ENDMDL
