MODEL 1
REMARK minimizedAffinity 2.37778139
REMARK minimizedRMSD -1
REMARK  1 active torsions:
REMARK  status: ('A' for Active; 'I' for Inactive)
REMARK    1  A    between atoms: C1_2  and  C2_3 
ROOT
ATOM      1  C2  UNL d   1      -1.043   0.271   2.174  0.00  0.00    -0.077 A 
ATOM      2  C3  UNL d   1      -1.178  -0.141   3.507  0.00  0.00     0.002 A 
ATOM      3  C4  UNL d   1      -0.078  -0.640   4.207  0.00  0.00     0.002 A 
ATOM      4  C5  UNL d   1       1.165  -0.729   3.584  0.00  0.00    -0.004 A 
ATOM      5  C6  UNL d   1       1.309  -0.324   2.258  0.00  0.00     0.002 A 
ATOM      6  C7  UNL d   1       0.211   0.174   1.556  0.00  0.00     0.002 A 
ENDROOT
BRANCH   1   7
ATOM      7  C1  UNL d   1      -2.216   0.856   1.433  0.00  0.00     0.055 C 
ATOM      8  C   UNL d   1      -2.239   0.396  -0.018  0.00  0.00     0.019 C 
ENDBRANCH   1   7
TORSDOF 1
ENDMDL
