MODEL 1
REMARK minimizedAffinity 0.767864704
REMARK minimizedRMSD -1
REMARK  1 active torsions:
REMARK  status: ('A' for Active; 'I' for Inactive)
REMARK    1  A    between atoms: C1_2  and  C2_3 
ROOT
ATOM      1  C2  UNL d   1      -2.243  -0.660   3.185  0.00  0.00    -0.077 A 
ATOM      2  C3  UNL d   1      -0.967  -0.579   3.759  0.00  0.00     0.002 A 
ATOM      3  C4  UNL d   1      -0.713  -1.163   5.002  0.00  0.00     0.002 A 
ATOM      4  C5  UNL d   1      -1.729  -1.835   5.679  0.00  0.00    -0.004 A 
ATOM      5  C6  UNL d   1      -3.003  -1.919   5.117  0.00  0.00     0.002 A 
ATOM      6  C7  UNL d   1      -3.258  -1.335   3.875  0.00  0.00     0.002 A 
ENDROOT
BRANCH   1   7
ATOM      7  C1  UNL d   1      -2.505  -0.074   1.822  0.00  0.00     0.055 C 
ATOM      8  C   UNL d   1      -1.310  -0.262   0.900  0.00  0.00     0.019 C 
ENDBRANCH   1   7
TORSDOF 1
ENDMDL
