MODEL 1
REMARK minimizedAffinity 1.68769526
REMARK minimizedRMSD -1
REMARK  1 active torsions:
REMARK  status: ('A' for Active; 'I' for Inactive)
REMARK    1  A    between atoms: C1_2  and  C2_3 
ROOT
ATOM      1  C2  UNL d   1      -2.192  -0.423   2.731  0.00  0.00    -0.077 A 
ATOM      2  C3  UNL d   1      -0.791  -0.402   2.772  0.00  0.00     0.002 A 
ATOM      3  C4  UNL d   1      -0.110  -0.893   3.888  0.00  0.00     0.002 A 
ATOM      4  C5  UNL d   1      -0.821  -1.410   4.969  0.00  0.00    -0.004 A 
ATOM      5  C6  UNL d   1      -2.214  -1.432   4.939  0.00  0.00     0.002 A 
ATOM      6  C7  UNL d   1      -2.897  -0.942   3.825  0.00  0.00     0.002 A 
ENDROOT
BRANCH   1   7
ATOM      7  C1  UNL d   1      -2.928   0.060   1.509  0.00  0.00     0.055 C 
ATOM      8  C   UNL d   1      -2.094  -0.132   0.250  0.00  0.00     0.019 C 
ENDBRANCH   1   7
TORSDOF 1
ENDMDL
