MODEL 1
REMARK minimizedAffinity 7.79375601
REMARK minimizedRMSD -1
REMARK  2 active torsions:
REMARK  status: ('A' for Active; 'I' for Inactive)
REMARK    1  A    between atoms: C1_2  and  C2_3 
REMARK    2  A    between atoms: C2_3  and  C3_4 
ROOT
ATOM      1  C3  UNL d   1      -1.010  -0.084  -0.739  0.00  0.00    -0.075 A 
ATOM      2  C4  UNL d   1      -0.257  -1.259  -0.872  0.00  0.00     0.002 A 
ATOM      3  C5  UNL d   1       1.104  -1.268  -0.562  0.00  0.00     0.002 A 
ATOM      4  C6  UNL d   1       1.729  -0.101  -0.127  0.00  0.00    -0.004 A 
ATOM      5  C7  UNL d   1       0.995   1.076  -0.008  0.00  0.00     0.002 A 
ATOM      6  C8  UNL d   1      -0.368   1.086  -0.312  0.00  0.00     0.002 A 
ENDROOT
BRANCH   1   7
ATOM      7  C2  UNL d   1      -2.489  -0.075  -1.044  0.00  0.00     0.056 C 
BRANCH   7   8
ATOM      8  C1  UNL d   1      -3.376  -0.407   0.161  0.00  0.00     0.007 C 
ATOM      9  C   UNL d   1      -4.749  -0.935  -0.232  0.00  0.00     0.009 C 
ENDBRANCH   7   8
ENDBRANCH   1   7
TORSDOF 2
ENDMDL
