MODEL 1
REMARK minimizedAffinity 5.49923706
REMARK minimizedRMSD -1
REMARK  2 active torsions:
REMARK  status: ('A' for Active; 'I' for Inactive)
REMARK    1  A    between atoms: C1_2  and  C2_3 
REMARK    2  A    between atoms: C2_3  and  C3_4 
ROOT
ATOM      1  C3  UNL d   1      -2.077   0.317   0.298  0.00  0.00    -0.075 A 
ATOM      2  C4  UNL d   1      -1.220   0.938   1.217  0.00  0.00     0.002 A 
ATOM      3  C5  UNL d   1       0.154   0.994   0.979  0.00  0.00     0.002 A 
ATOM      4  C6  UNL d   1       0.688   0.421  -0.173  0.00  0.00    -0.004 A 
ATOM      5  C7  UNL d   1      -0.152  -0.214  -1.085  0.00  0.00     0.002 A 
ATOM      6  C8  UNL d   1      -1.528  -0.267  -0.852  0.00  0.00     0.002 A 
ENDROOT
BRANCH   1   7
ATOM      7  C2  UNL d   1      -3.568   0.279   0.535  0.00  0.00     0.056 C 
BRANCH   7   8
ATOM      8  C1  UNL d   1      -4.387  -0.110  -0.701  0.00  0.00     0.007 C 
ATOM      9  C   UNL d   1      -5.552  -1.036  -0.382  0.00  0.00     0.009 C 
ENDBRANCH   7   8
ENDBRANCH   1   7
TORSDOF 2
ENDMDL
