MODEL 1
REMARK minimizedAffinity -0.575492024
REMARK minimizedRMSD -1
REMARK  2 active torsions:
REMARK  status: ('A' for Active; 'I' for Inactive)
REMARK    1  A    between atoms: C1_2  and  C2_3 
REMARK    2  A    between atoms: C2_3  and  C3_4 
ROOT
ATOM      1  C3  UNL d   1       3.129  -1.048  -0.602  0.00  0.00    -0.075 A 
ATOM      2  C4  UNL d   1       2.659  -2.354  -0.799  0.00  0.00     0.002 A 
ATOM      3  C5  UNL d   1       1.296  -2.637  -0.713  0.00  0.00     0.002 A 
ATOM      4  C6  UNL d   1       0.388  -1.622  -0.419  0.00  0.00    -0.004 A 
ATOM      5  C7  UNL d   1       0.845  -0.324  -0.205  0.00  0.00     0.002 A 
ATOM      6  C8  UNL d   1       2.209  -0.037  -0.295  0.00  0.00     0.002 A 
ENDROOT
BRANCH   1   7
ATOM      7  C2  UNL d   1       4.600  -0.729  -0.724  0.00  0.00     0.056 C 
BRANCH   7   8
ATOM      8  C1  UNL d   1       4.902   0.516  -1.564  0.00  0.00     0.007 C 
ATOM      9  C   UNL d   1       5.178   1.755  -0.723  0.00  0.00     0.009 C 
ENDBRANCH   7   8
ENDBRANCH   1   7
TORSDOF 2
ENDMDL
