MODEL 1
REMARK minimizedAffinity 3.26838326
REMARK minimizedRMSD -1
REMARK  2 active torsions:
REMARK  status: ('A' for Active; 'I' for Inactive)
REMARK    1  A    between atoms: C1_2  and  C2_3 
REMARK    2  A    between atoms: C2_3  and  C3_4 
ROOT
ATOM      1  C3  UNL d   1      -1.518   0.294  -0.491  0.00  0.00    -0.075 A 
ATOM      2  C4  UNL d   1      -1.102  -1.044  -0.559  0.00  0.00     0.002 A 
ATOM      3  C5  UNL d   1       0.186  -1.406  -0.165  0.00  0.00     0.002 A 
ATOM      4  C6  UNL d   1       1.077  -0.437   0.291  0.00  0.00    -0.004 A 
ATOM      5  C7  UNL d   1       0.680   0.898   0.347  0.00  0.00     0.002 A 
ATOM      6  C8  UNL d   1      -0.609   1.262  -0.043  0.00  0.00     0.002 A 
ENDROOT
BRANCH   1   7
ATOM      7  C2  UNL d   1      -2.920   0.688  -0.889  0.00  0.00     0.056 C 
BRANCH   7   8
ATOM      8  C1  UNL d   1      -4.017  -0.137  -0.207  0.00  0.00     0.007 C 
ATOM      9  C   UNL d   1      -5.162  -0.502  -1.143  0.00  0.00     0.009 C 
ENDBRANCH   7   8
ENDBRANCH   1   7
TORSDOF 2
ENDMDL
