MODEL 1
REMARK minimizedAffinity 6.79341698
REMARK minimizedRMSD -1
REMARK  2 active torsions:
REMARK  status: ('A' for Active; 'I' for Inactive)
REMARK    1  A    between atoms: C1_2  and  C2_3 
REMARK    2  A    between atoms: C2_3  and  C3_4 
ROOT
ATOM      1  C3  UNL d   1       1.831  -1.411  -0.552  0.00  0.00    -0.075 A 
ATOM      2  C4  UNL d   1       1.656  -0.821   0.708  0.00  0.00     0.002 A 
ATOM      3  C5  UNL d   1       0.376  -0.533   1.184  0.00  0.00     0.002 A 
ATOM      4  C6  UNL d   1      -0.741  -0.822   0.404  0.00  0.00    -0.004 A 
ATOM      5  C7  UNL d   1      -0.578  -1.393  -0.856  0.00  0.00     0.002 A 
ATOM      6  C8  UNL d   1       0.701  -1.686  -1.333  0.00  0.00     0.002 A 
ENDROOT
BRANCH   1   7
ATOM      7  C2  UNL d   1       3.212  -1.752  -1.060  0.00  0.00     0.056 C 
BRANCH   7   8
ATOM      8  C1  UNL d   1       3.298  -1.894  -2.583  0.00  0.00     0.007 C 
ATOM      9  C   UNL d   1       3.202  -3.337  -3.059  0.00  0.00     0.009 C 
ENDBRANCH   7   8
ENDBRANCH   1   7
TORSDOF 2
ENDMDL
