MODEL 1
REMARK minimizedAffinity -3.87338328
REMARK minimizedRMSD -1
REMARK  2 active torsions:
REMARK  status: ('A' for Active; 'I' for Inactive)
REMARK    1  A    between atoms: C1_2  and  C2_3 
REMARK    2  A    between atoms: C2_3  and  C3_4 
ROOT
ATOM      1  C3  UNL d   1       1.357  -0.068   0.025  0.00  0.00    -0.075 A 
ATOM      2  C4  UNL d   1       1.332  -1.459  -0.148  0.00  0.00     0.002 A 
ATOM      3  C5  UNL d   1       0.198  -2.088  -0.664  0.00  0.00     0.002 A 
ATOM      4  C6  UNL d   1      -0.926  -1.338  -1.002  0.00  0.00    -0.004 A 
ATOM      5  C7  UNL d   1      -0.918   0.043  -0.819  0.00  0.00     0.002 A 
ATOM      6  C8  UNL d   1       0.216   0.676  -0.307  0.00  0.00     0.002 A 
ENDROOT
BRANCH   1   7
ATOM      7  C2  UNL d   1       2.591   0.623   0.555  0.00  0.00     0.056 C 
BRANCH   7   8
ATOM      8  C1  UNL d   1       3.903   0.087  -0.026  0.00  0.00     0.007 C 
ATOM      9  C   UNL d   1       4.935   1.177  -0.285  0.00  0.00     0.009 C 
ENDBRANCH   7   8
ENDBRANCH   1   7
TORSDOF 2
ENDMDL
