MODEL 1
REMARK minimizedAffinity 8.64813137
REMARK minimizedRMSD -1
REMARK  2 active torsions:
REMARK  status: ('A' for Active; 'I' for Inactive)
REMARK    1  A    between atoms: C1_2  and  C2_3 
REMARK    2  A    between atoms: C2_3  and  C3_4 
ROOT
ATOM      1  C3  UNL d   1      -1.513  -0.519  -0.655  0.00  0.00    -0.075 A 
ATOM      2  C4  UNL d   1      -1.093  -1.791  -1.068  0.00  0.00     0.002 A 
ATOM      3  C5  UNL d   1       0.232  -2.190  -0.896  0.00  0.00     0.002 A 
ATOM      4  C6  UNL d   1       1.155  -1.321  -0.320  0.00  0.00    -0.004 A 
ATOM      5  C7  UNL d   1       0.753  -0.048   0.079  0.00  0.00     0.002 A 
ATOM      6  C8  UNL d   1      -0.574   0.352  -0.088  0.00  0.00     0.002 A 
ENDROOT
BRANCH   1   7
ATOM      7  C2  UNL d   1      -2.953  -0.092  -0.812  0.00  0.00     0.056 C 
BRANCH   7   8
ATOM      8  C1  UNL d   1      -3.854  -0.492   0.362  0.00  0.00     0.007 C 
ATOM      9  C   UNL d   1      -4.152   0.662   1.310  0.00  0.00     0.009 C 
ENDBRANCH   7   8
ENDBRANCH   1   7
TORSDOF 2
ENDMDL
