MODEL 1
REMARK minimizedAffinity 8.30757236
REMARK minimizedRMSD -1
REMARK  2 active torsions:
REMARK  status: ('A' for Active; 'I' for Inactive)
REMARK    1  A    between atoms: C1_2  and  C2_3 
REMARK    2  A    between atoms: C2_3  and  C3_4 
ROOT
ATOM      1  C3  UNL d   1       4.839   3.609   4.068  0.00  0.00    -0.075 A 
ATOM      2  C4  UNL d   1       3.934   4.681   4.084  0.00  0.00     0.002 A 
ATOM      3  C5  UNL d   1       4.052   5.694   5.035  0.00  0.00     0.002 A 
ATOM      4  C6  UNL d   1       5.068   5.644   5.988  0.00  0.00    -0.004 A 
ATOM      5  C7  UNL d   1       5.962   4.576   5.992  0.00  0.00     0.002 A 
ATOM      6  C8  UNL d   1       5.849   3.563   5.039  0.00  0.00     0.002 A 
ENDROOT
BRANCH   1   7
ATOM      7  C2  UNL d   1       4.735   2.525   3.023  0.00  0.00     0.056 C 
BRANCH   7   8
ATOM      8  C1  UNL d   1       5.186   2.961   1.625  0.00  0.00     0.007 C 
ATOM      9  C   UNL d   1       4.238   2.511   0.520  0.00  0.00     0.009 C 
ENDBRANCH   7   8
ENDBRANCH   1   7
TORSDOF 2
ENDMDL
