MODEL 1
REMARK minimizedAffinity 5.0078578
REMARK minimizedRMSD -1
REMARK  2 active torsions:
REMARK  status: ('A' for Active; 'I' for Inactive)
REMARK    1  A    between atoms: C1_2  and  C2_3 
REMARK    2  A    between atoms: C2_3  and  C3_4 
ROOT
ATOM      1  C3  UNL d   1       2.120  -1.729  -1.088  0.00  0.00    -0.075 A 
ATOM      2  C4  UNL d   1       3.080  -2.318  -1.925  0.00  0.00     0.002 A 
ATOM      3  C5  UNL d   1       4.198  -1.594  -2.340  0.00  0.00     0.002 A 
ATOM      4  C6  UNL d   1       4.365  -0.272  -1.934  0.00  0.00    -0.004 A 
ATOM      5  C7  UNL d   1       3.411   0.328  -1.116  0.00  0.00     0.002 A 
ATOM      6  C8  UNL d   1       2.293  -0.395  -0.695  0.00  0.00     0.002 A 
ENDROOT
BRANCH   1   7
ATOM      7  C2  UNL d   1       0.923  -2.517  -0.611  0.00  0.00     0.056 C 
BRANCH   7   8
ATOM      8  C1  UNL d   1      -0.422  -1.944  -1.068  0.00  0.00     0.007 C 
ATOM      9  C   UNL d   1      -0.764  -2.292  -2.511  0.00  0.00     0.009 C 
ENDBRANCH   7   8
ENDBRANCH   1   7
TORSDOF 2
ENDMDL
