MODEL 1
REMARK minimizedAffinity 8.31238651
REMARK minimizedRMSD -1
REMARK  2 active torsions:
REMARK  status: ('A' for Active; 'I' for Inactive)
REMARK    1  A    between atoms: C1_2  and  C2_3 
REMARK    2  A    between atoms: C2_3  and  C3_4 
ROOT
ATOM      1  C3  UNL d   1      -3.237  -0.236  -1.231  0.00  0.00    -0.075 A 
ATOM      2  C4  UNL d   1      -3.747  -0.282   0.074  0.00  0.00     0.002 A 
ATOM      3  C5  UNL d   1      -5.121  -0.393   0.294  0.00  0.00     0.002 A 
ATOM      4  C6  UNL d   1      -6.000  -0.450  -0.785  0.00  0.00    -0.004 A 
ATOM      5  C7  UNL d   1      -5.505  -0.388  -2.086  0.00  0.00     0.002 A 
ATOM      6  C8  UNL d   1      -4.131  -0.281  -2.309  0.00  0.00     0.002 A 
ENDROOT
BRANCH   1   7
ATOM      7  C2  UNL d   1      -1.750  -0.145  -1.476  0.00  0.00     0.056 C 
BRANCH   7   8
ATOM      8  C1  UNL d   1      -1.097  -1.479  -1.853  0.00  0.00     0.007 C 
ATOM      9  C   UNL d   1       0.012  -1.897  -0.897  0.00  0.00     0.009 C 
ENDBRANCH   7   8
ENDBRANCH   1   7
TORSDOF 2
ENDMDL
