MODEL 1
REMARK minimizedAffinity -0.461751014
REMARK minimizedRMSD -1
REMARK  2 active torsions:
REMARK  status: ('A' for Active; 'I' for Inactive)
REMARK    1  A    between atoms: C1_2  and  C2_3 
REMARK    2  A    between atoms: C2_3  and  C3_4 
ROOT
ATOM      1  C3  UNL d   1       1.161  -0.513  -0.055  0.00  0.00    -0.075 A 
ATOM      2  C4  UNL d   1       0.047  -1.025  -0.736  0.00  0.00     0.002 A 
ATOM      3  C5  UNL d   1      -1.012  -0.190  -1.091  0.00  0.00     0.002 A 
ATOM      4  C6  UNL d   1      -0.976   1.163  -0.762  0.00  0.00    -0.004 A 
ATOM      5  C7  UNL d   1       0.118   1.680  -0.071  0.00  0.00     0.002 A 
ATOM      6  C8  UNL d   1       1.181   0.847   0.282  0.00  0.00     0.002 A 
ENDROOT
BRANCH   1   7
ATOM      7  C2  UNL d   1       2.324  -1.406   0.306  0.00  0.00     0.056 C 
BRANCH   7   8
ATOM      8  C1  UNL d   1       3.647  -0.658   0.503  0.00  0.00     0.007 C 
ATOM      9  C   UNL d   1       3.800   0.544  -0.420  0.00  0.00     0.009 C 
ENDBRANCH   7   8
ENDBRANCH   1   7
TORSDOF 2
ENDMDL
