MODEL 1
REMARK minimizedAffinity 11.2848339
REMARK minimizedRMSD -1
REMARK  2 active torsions:
REMARK  status: ('A' for Active; 'I' for Inactive)
REMARK    1  A    between atoms: C1_2  and  C2_3 
REMARK    2  A    between atoms: C2_3  and  C3_4 
ROOT
ATOM      1  C3  UNL d   1      -5.373   0.321  -2.356  0.00  0.00    -0.075 A 
ATOM      2  C4  UNL d   1      -6.000  -0.450  -1.366  0.00  0.00     0.002 A 
ATOM      3  C5  UNL d   1      -5.436  -0.564  -0.095  0.00  0.00     0.002 A 
ATOM      4  C6  UNL d   1      -4.236   0.081   0.199  0.00  0.00    -0.004 A 
ATOM      5  C7  UNL d   1      -3.597   0.835  -0.782  0.00  0.00     0.002 A 
ATOM      6  C8  UNL d   1      -4.161   0.955  -2.053  0.00  0.00     0.002 A 
ENDROOT
BRANCH   1   7
ATOM      7  C2  UNL d   1      -5.993   0.472  -3.725  0.00  0.00     0.056 C 
BRANCH   7   8
ATOM      8  C1  UNL d   1      -5.343   1.559  -4.587  0.00  0.00     0.007 C 
ATOM      9  C   UNL d   1      -5.977   2.931  -4.403  0.00  0.00     0.009 C 
ENDBRANCH   7   8
ENDBRANCH   1   7
TORSDOF 2
ENDMDL
