MODEL 1
REMARK minimizedAffinity -0.782726765
REMARK minimizedRMSD -1
REMARK  0 active torsions:
REMARK  status: ('A' for Active; 'I' for Inactive)
ROOT
ATOM      1  C1  DEN d   1      -2.839  -1.924  -1.859  0.00  0.00     0.130 A 
ATOM      2  C2  DEN d   1      -3.197  -2.318  -0.499  0.00  0.00    -0.031 A 
ATOM      3  C3  DEN d   1      -1.960  -2.722   0.199  0.00  0.00     0.027 A 
ATOM      4  C4  DEN d   1       0.462  -2.769  -0.686  0.00  0.00     0.027 A 
ATOM      5  C5  DEN d   1       1.261  -2.535  -1.784  0.00  0.00    -0.003 A 
ATOM      6  C6  DEN d   1       0.749  -2.116  -2.983  0.00  0.00     0.001 A 
ATOM      7  C7  DEN d   1      -0.595  -1.876  -3.101  0.00  0.00     0.017 A 
ATOM      8  C8  DEN d   1      -1.407  -2.117  -2.001  0.00  0.00    -0.094 A 
ATOM      9  C9  DEN d   1      -0.869  -2.528  -0.794  0.00  0.00    -0.072 A 
ENDROOT
TORSDOF 0
ENDMDL
