MODEL 1
REMARK minimizedAffinity 1.60007012
REMARK minimizedRMSD -1
REMARK  0 active torsions:
REMARK  status: ('A' for Active; 'I' for Inactive)
ROOT
ATOM      1  C1  DEN d   1       0.317  -2.578   0.362  0.00  0.00     0.130 A 
ATOM      2  C2  DEN d   1      -1.074  -2.570   0.806  0.00  0.00    -0.031 A 
ATOM      3  C3  DEN d   1      -1.933  -2.417  -0.385  0.00  0.00     0.027 A 
ATOM      4  C4  DEN d   1      -1.248  -2.197  -2.862  0.00  0.00     0.027 A 
ATOM      5  C5  DEN d   1      -0.181  -2.138  -3.730  0.00  0.00    -0.003 A 
ATOM      6  C6  DEN d   1       1.117  -2.188  -3.296  0.00  0.00     0.001 A 
ATOM      7  C7  DEN d   1       1.381  -2.345  -1.961  0.00  0.00     0.017 A 
ATOM      8  C8  DEN d   1       0.310  -2.397  -1.078  0.00  0.00    -0.094 A 
ATOM      9  C9  DEN d   1      -0.995  -2.357  -1.538  0.00  0.00    -0.072 A 
ENDROOT
TORSDOF 0
ENDMDL
