MODEL 1
REMARK minimizedAffinity 0.242243841
REMARK minimizedRMSD -1
REMARK  0 active torsions:
REMARK  status: ('A' for Active; 'I' for Inactive)
ROOT
ATOM      1  C1  DEN d   1       3.736  -1.875   5.275  0.00  0.00     0.130 A 
ATOM      2  C2  DEN d   1       4.928  -1.108   5.624  0.00  0.00    -0.031 A 
ATOM      3  C3  DEN d   1       6.000  -2.062   5.972  0.00  0.00     0.027 A 
ATOM      4  C4  DEN d   1       5.931  -4.640   5.999  0.00  0.00     0.027 A 
ATOM      5  C5  DEN d   1       5.135  -5.744   5.790  0.00  0.00    -0.003 A 
ATOM      6  C6  DEN d   1       3.818  -5.636   5.430  0.00  0.00     0.001 A 
ATOM      7  C7  DEN d   1       3.269  -4.398   5.224  0.00  0.00     0.017 A 
ATOM      8  C8  DEN d   1       4.064  -3.280   5.441  0.00  0.00    -0.094 A 
ATOM      9  C9  DEN d   1       5.397  -3.410   5.793  0.00  0.00    -0.072 A 
ENDROOT
TORSDOF 0
ENDMDL
