MODEL 1
REMARK minimizedAffinity 8.10106659
REMARK minimizedRMSD -1
REMARK  0 active torsions:
REMARK  status: ('A' for Active; 'I' for Inactive)
ROOT
ATOM      1  C1  DEN d   1       5.999   4.855  -1.330  0.00  0.00     0.130 A 
ATOM      2  C2  DEN d   1       5.077   5.861  -0.811  0.00  0.00    -0.031 A 
ATOM      3  C3  DEN d   1       3.921   5.937  -1.728  0.00  0.00     0.027 A 
ATOM      4  C4  DEN d   1       3.472   4.599  -3.886  0.00  0.00     0.027 A 
ATOM      5  C5  DEN d   1       3.973   3.638  -4.737  0.00  0.00    -0.003 A 
ATOM      6  C6  DEN d   1       5.191   3.045  -4.531  0.00  0.00     0.001 A 
ATOM      7  C7  DEN d   1       5.928   3.374  -3.425  0.00  0.00     0.017 A 
ATOM      8  C8  DEN d   1       5.432   4.347  -2.567  0.00  0.00    -0.094 A 
ATOM      9  C9  DEN d   1       4.194   4.926  -2.785  0.00  0.00    -0.072 A 
ENDROOT
TORSDOF 0
ENDMDL
