MODEL 1
REMARK minimizedAffinity 6.49436092
REMARK minimizedRMSD -1
REMARK  0 active torsions:
REMARK  status: ('A' for Active; 'I' for Inactive)
ROOT
ATOM      1  C1  DEN d   1       2.356   5.991  -4.111  0.00  0.00     0.130 A 
ATOM      2  C2  DEN d   1       2.354   5.994  -2.651  0.00  0.00    -0.031 A 
ATOM      3  C3  DEN d   1       3.610   5.367  -2.192  0.00  0.00     0.027 A 
ATOM      4  C4  DEN d   1       5.548   4.401  -3.593  0.00  0.00     0.027 A 
ATOM      5  C5  DEN d   1       5.997   4.163  -4.873  0.00  0.00    -0.003 A 
ATOM      6  C6  DEN d   1       5.256   4.483  -5.979  0.00  0.00     0.001 A 
ATOM      7  C7  DEN d   1       4.043   5.102  -5.827  0.00  0.00     0.017 A 
ATOM      8  C8  DEN d   1       3.580   5.339  -4.540  0.00  0.00    -0.094 A 
ATOM      9  C9  DEN d   1       4.350   5.019  -3.435  0.00  0.00    -0.072 A 
ENDROOT
TORSDOF 0
ENDMDL
