MODEL 1
REMARK minimizedAffinity 10.7542248
REMARK minimizedRMSD -1
REMARK  0 active torsions:
REMARK  status: ('A' for Active; 'I' for Inactive)
ROOT
ATOM      1  C1  DEN d   1       3.067  -2.530  -1.849  0.00  0.00     0.130 A 
ATOM      2  C2  DEN d   1       3.443  -2.936  -3.200  0.00  0.00    -0.031 A 
ATOM      3  C3  DEN d   1       2.212  -3.018  -4.012  0.00  0.00     0.027 A 
ATOM      4  C4  DEN d   1      -0.227  -2.554  -3.311  0.00  0.00     0.027 A 
ATOM      5  C5  DEN d   1      -1.044  -2.192  -2.263  0.00  0.00    -0.003 A 
ATOM      6  C6  DEN d   1      -0.556  -1.952  -1.006  0.00  0.00     0.001 A 
ATOM      7  C7  DEN d   1       0.792  -2.028  -0.775  0.00  0.00     0.017 A 
ATOM      8  C8  DEN d   1       1.621  -2.399  -1.825  0.00  0.00    -0.094 A 
ATOM      9  C9  DEN d   1       1.111  -2.625  -3.092  0.00  0.00    -0.072 A 
ENDROOT
TORSDOF 0
ENDMDL
