MODEL 1
REMARK minimizedAffinity 13.5880814
REMARK minimizedRMSD -1
REMARK  0 active torsions:
REMARK  status: ('A' for Active; 'I' for Inactive)
ROOT
ATOM      1  C1  DEN d   1      -0.186  -1.576  -0.260  0.00  0.00     0.130 A 
ATOM      2  C2  DEN d   1      -0.954  -1.492  -1.500  0.00  0.00    -0.031 A 
ATOM      3  C3  DEN d   1      -0.001  -1.340  -2.618  0.00  0.00     0.027 A 
ATOM      4  C4  DEN d   1       2.576  -1.232  -2.550  0.00  0.00     0.027 A 
ATOM      5  C5  DEN d   1       3.679  -1.250  -1.725  0.00  0.00    -0.003 A 
ATOM      6  C6  DEN d   1       3.570  -1.343  -0.363  0.00  0.00     0.001 A 
ATOM      7  C7  DEN d   1       2.333  -1.467   0.213  0.00  0.00     0.017 A 
ATOM      8  C8  DEN d   1       1.216  -1.442  -0.612  0.00  0.00    -0.094 A 
ATOM      9  C9  DEN d   1       1.347  -1.360  -1.988  0.00  0.00    -0.072 A 
ENDROOT
TORSDOF 0
ENDMDL
