MODEL 1
REMARK minimizedAffinity 15.4309568
REMARK minimizedRMSD -1
REMARK  0 active torsions:
REMARK  status: ('A' for Active; 'I' for Inactive)
ROOT
ATOM      1  C1  DEN d   1       5.999   4.480  -1.800  0.00  0.00     0.130 A 
ATOM      2  C2  DEN d   1       5.403   5.271  -0.726  0.00  0.00    -0.031 A 
ATOM      3  C3  DEN d   1       4.215   5.958  -1.271  0.00  0.00     0.027 A 
ATOM      4  C4  DEN d   1       3.244   5.872  -3.659  0.00  0.00     0.027 A 
ATOM      5  C5  DEN d   1       3.412   5.346  -4.921  0.00  0.00    -0.003 A 
ATOM      6  C6  DEN d   1       4.464   4.529  -5.237  0.00  0.00     0.001 A 
ATOM      7  C7  DEN d   1       5.366   4.177  -4.268  0.00  0.00     0.017 A 
ATOM      8  C8  DEN d   1       5.207   4.709  -2.995  0.00  0.00    -0.094 A 
ATOM      9  C9  DEN d   1       4.129   5.524  -2.692  0.00  0.00    -0.072 A 
ENDROOT
TORSDOF 0
ENDMDL
