MODEL 1
REMARK minimizedAffinity 2.62795901
REMARK minimizedRMSD -1
REMARK  0 active torsions:
REMARK  status: ('A' for Active; 'I' for Inactive)
ROOT
ATOM      1  C1  DEN d   1       6.000   4.135  -2.319  0.00  0.00     0.130 A 
ATOM      2  C2  DEN d   1       5.391   5.085  -1.393  0.00  0.00    -0.031 A 
ATOM      3  C3  DEN d   1       4.519   5.987  -2.172  0.00  0.00     0.027 A 
ATOM      4  C4  DEN d   1       4.050   6.000  -4.708  0.00  0.00     0.027 A 
ATOM      5  C5  DEN d   1       4.347   5.390  -5.907  0.00  0.00    -0.003 A 
ATOM      6  C6  DEN d   1       5.233   4.351  -5.999  0.00  0.00     0.001 A 
ATOM      7  C7  DEN d   1       5.821   3.858  -4.864  0.00  0.00     0.017 A 
ATOM      8  C8  DEN d   1       5.533   4.472  -3.652  0.00  0.00    -0.094 A 
ATOM      9  C9  DEN d   1       4.625   5.514  -3.578  0.00  0.00    -0.072 A 
ENDROOT
TORSDOF 0
ENDMDL
