MODEL 1
REMARK minimizedAffinity -0.436261863
REMARK minimizedRMSD -1
REMARK  0 active torsions:
REMARK  status: ('A' for Active; 'I' for Inactive)
ROOT
ATOM      1  C1  DEN d   1       5.517   2.889  -4.887  0.00  0.00     0.130 A 
ATOM      2  C2  DEN d   1       5.207   3.783  -5.999  0.00  0.00    -0.031 A 
ATOM      3  C3  DEN d   1       5.167   5.164  -5.477  0.00  0.00     0.027 A 
ATOM      4  C4  DEN d   1       5.558   6.000  -3.068  0.00  0.00     0.027 A 
ATOM      5  C5  DEN d   1       5.840   5.611  -1.777  0.00  0.00    -0.003 A 
ATOM      6  C6  DEN d   1       5.999   4.296  -1.429  0.00  0.00     0.001 A 
ATOM      7  C7  DEN d   1       5.922   3.325  -2.391  0.00  0.00     0.017 A 
ATOM      8  C8  DEN d   1       5.631   3.708  -3.694  0.00  0.00    -0.094 A 
ATOM      9  C9  DEN d   1       5.485   5.044  -4.029  0.00  0.00    -0.072 A 
ENDROOT
TORSDOF 0
ENDMDL
