MODEL 1
REMARK minimizedAffinity 6.60251284
REMARK minimizedRMSD -1
REMARK  0 active torsions:
REMARK  status: ('A' for Active; 'I' for Inactive)
ROOT
ATOM      1  C1  DEN d   1      -1.062  -1.882  -2.004  0.00  0.00     0.130 A 
ATOM      2  C2  DEN d   1       0.341  -1.659  -1.663  0.00  0.00    -0.031 A 
ATOM      3  C3  DEN d   1       0.523  -1.993  -0.236  0.00  0.00     0.027 A 
ATOM      4  C4  DEN d   1      -1.221  -2.833   1.469  0.00  0.00     0.027 A 
ATOM      5  C5  DEN d   1      -2.546  -3.163   1.649  0.00  0.00    -0.003 A 
ATOM      6  C6  DEN d   1      -3.468  -3.058   0.642  0.00  0.00     0.001 A 
ATOM      7  C7  DEN d   1      -3.069  -2.654  -0.604  0.00  0.00     0.017 A 
ATOM      8  C8  DEN d   1      -1.736  -2.312  -0.792  0.00  0.00    -0.094 A 
ATOM      9  C9  DEN d   1      -0.817  -2.437   0.235  0.00  0.00    -0.072 A 
ENDROOT
TORSDOF 0
ENDMDL
