MODEL 1
REMARK minimizedAffinity 1.14882112
REMARK minimizedRMSD -1
REMARK  0 active torsions:
REMARK  status: ('A' for Active; 'I' for Inactive)
ROOT
ATOM      1  C1  DEN d   1       3.478  -1.586   2.341  0.00  0.00     0.130 A 
ATOM      2  C2  DEN d   1       4.053  -2.542   1.399  0.00  0.00    -0.031 A 
ATOM      3  C3  DEN d   1       4.912  -3.472   2.160  0.00  0.00     0.027 A 
ATOM      4  C4  DEN d   1       5.398  -3.528   4.692  0.00  0.00     0.027 A 
ATOM      5  C5  DEN d   1       5.147  -2.911   5.897  0.00  0.00    -0.003 A 
ATOM      6  C6  DEN d   1       4.355  -1.797   5.996  0.00  0.00     0.001 A 
ATOM      7  C7  DEN d   1       3.750  -1.293   4.875  0.00  0.00     0.017 A 
ATOM      8  C8  DEN d   1       4.005  -1.906   3.655  0.00  0.00    -0.094 A 
ATOM      9  C9  DEN d   1       4.798  -3.038   3.578  0.00  0.00    -0.072 A 
ENDROOT
TORSDOF 0
ENDMDL
