MODEL 1
REMARK minimizedAffinity 5.02409697
REMARK minimizedRMSD -1
REMARK  0 active torsions:
REMARK  status: ('A' for Active; 'I' for Inactive)
ROOT
ATOM      1  C1  DEN d   1      -2.511  -2.572  -1.706  0.00  0.00     0.130 A 
ATOM      2  C2  DEN d   1      -2.843  -2.406  -0.294  0.00  0.00    -0.031 A 
ATOM      3  C3  DEN d   1      -1.617  -1.993   0.418  0.00  0.00     0.027 A 
ATOM      4  C4  DEN d   1       0.750  -1.593  -0.526  0.00  0.00     0.027 A 
ATOM      5  C5  DEN d   1       1.524  -1.619  -1.666  0.00  0.00    -0.003 A 
ATOM      6  C6  DEN d   1       1.019  -1.995  -2.882  0.00  0.00     0.001 A 
ATOM      7  C7  DEN d   1      -0.308  -2.316  -2.996  0.00  0.00     0.017 A 
ATOM      8  C8  DEN d   1      -1.092  -2.299  -1.851  0.00  0.00    -0.094 A 
ATOM      9  C9  DEN d   1      -0.566  -1.905  -0.632  0.00  0.00    -0.072 A 
ENDROOT
TORSDOF 0
ENDMDL
