MODEL 1
REMARK minimizedAffinity 4.33459282
REMARK minimizedRMSD -1
REMARK  0 active torsions:
REMARK  status: ('A' for Active; 'I' for Inactive)
ROOT
ATOM      1  C1  DEN d   1      -0.327  -1.685  -0.467  0.00  0.00     0.130 A 
ATOM      2  C2  DEN d   1      -0.529  -2.464   0.752  0.00  0.00    -0.031 A 
ATOM      3  C3  DEN d   1      -0.460  -3.895   0.396  0.00  0.00     0.027 A 
ATOM      4  C4  DEN d   1      -0.056  -4.976  -1.911  0.00  0.00     0.027 A 
ATOM      5  C5  DEN d   1       0.159  -4.721  -3.248  0.00  0.00    -0.003 A 
ATOM      6  C6  DEN d   1       0.192  -3.448  -3.753  0.00  0.00     0.001 A 
ATOM      7  C7  DEN d   1       0.053  -2.379  -2.908  0.00  0.00     0.017 A 
ATOM      8  C8  DEN d   1      -0.171  -2.628  -1.560  0.00  0.00    -0.094 A 
ATOM      9  C9  DEN d   1      -0.189  -3.922  -1.067  0.00  0.00    -0.072 A 
ENDROOT
TORSDOF 0
ENDMDL
