MODEL 1
REMARK minimizedAffinity 9.49647045
REMARK minimizedRMSD -1
REMARK  0 active torsions:
REMARK  status: ('A' for Active; 'I' for Inactive)
ROOT
ATOM      1  C1  DEN d   1       0.877  -1.414  -2.087  0.00  0.00     0.130 A 
ATOM      2  C2  DEN d   1       0.883  -2.103  -3.374  0.00  0.00    -0.031 A 
ATOM      3  C3  DEN d   1      -0.138  -3.169  -3.326  0.00  0.00     0.027 A 
ATOM      4  C4  DEN d   1      -1.722  -3.813  -1.395  0.00  0.00     0.027 A 
ATOM      5  C5  DEN d   1      -2.088  -3.522  -0.100  0.00  0.00    -0.003 A 
ATOM      6  C6  DEN d   1      -1.474  -2.539   0.630  0.00  0.00     0.001 A 
ATOM      7  C7  DEN d   1      -0.490  -1.780   0.054  0.00  0.00     0.017 A 
ATOM      8  C8  DEN d   1      -0.110  -2.072  -1.250  0.00  0.00    -0.094 A 
ATOM      9  C9  DEN d   1      -0.751  -3.062  -1.975  0.00  0.00    -0.072 A 
ENDROOT
TORSDOF 0
ENDMDL
