MODEL 1
REMARK minimizedAffinity -0.377556771
REMARK minimizedRMSD -1
REMARK  0 active torsions:
REMARK  status: ('A' for Active; 'I' for Inactive)
ROOT
ATOM      1  C1  DEN d   1      -1.054  -1.288  -0.178  0.00  0.00     0.130 A 
ATOM      2  C2  DEN d   1      -1.523  -2.188   0.873  0.00  0.00    -0.031 A 
ATOM      3  C3  DEN d   1      -1.235  -3.573   0.449  0.00  0.00     0.027 A 
ATOM      4  C4  DEN d   1      -0.110  -4.407  -1.717  0.00  0.00     0.027 A 
ATOM      5  C5  DEN d   1       0.448  -4.017  -2.914  0.00  0.00    -0.003 A 
ATOM      6  C6  DEN d   1       0.513  -2.703  -3.295  0.00  0.00     0.001 A 
ATOM      7  C7  DEN d   1       0.053  -1.728  -2.451  0.00  0.00     0.017 A 
ATOM      8  C8  DEN d   1      -0.518  -2.114  -1.245  0.00  0.00    -0.094 A 
ATOM      9  C9  DEN d   1      -0.564  -3.447  -0.872  0.00  0.00    -0.072 A 
ENDROOT
TORSDOF 0
ENDMDL
