MODEL 1
REMARK minimizedAffinity 4.34244013
REMARK minimizedRMSD -1
REMARK  1 active torsions:
REMARK  status: ('A' for Active; 'I' for Inactive)
REMARK    1  A    between atoms: C3_4  and  O_7 
ROOT
ATOM      1  C   UNL d   1       1.839  -2.001   2.288  0.00  0.00    -0.033 A 
ATOM      2  C1  UNL d   1       0.805  -2.486   1.484  0.00  0.00     0.039 A 
ATOM      3  C2  UNL d   1       1.042  -3.541   0.601  0.00  0.00    -0.080 A 
ATOM      4  C3  UNL d   1       2.314  -4.102   0.532  0.00  0.00     0.150 A 
ATOM      5  C4  UNL d   1       3.347  -3.627   1.332  0.00  0.00    -0.007 A 
ATOM      6  C5  UNL d   1       3.110  -2.572   2.213  0.00  0.00     0.039 A 
ENDROOT
BRANCH   4   7
ATOM      7  O   UNL d   1       2.594  -5.131  -0.318  0.00  0.00    -0.526 OA
ATOM      8  H5  UNL d   1       1.792  -5.335  -0.828  0.00  0.00     0.418 HD
ENDBRANCH   4   7
TORSDOF 1
ENDMDL
