MODEL 1
REMARK minimizedAffinity 5.64169121
REMARK minimizedRMSD -1
REMARK  1 active torsions:
REMARK  status: ('A' for Active; 'I' for Inactive)
REMARK    1  A    between atoms: C3_4  and  O_7 
ROOT
ATOM      1  C   UNL d   1       5.169  -5.400   0.508  0.00  0.00    -0.033 A 
ATOM      2  C1  UNL d   1       4.516  -5.166  -0.704  0.00  0.00     0.039 A 
ATOM      3  C2  UNL d   1       3.383  -4.351  -0.742  0.00  0.00    -0.080 A 
ATOM      4  C3  UNL d   1       2.915  -3.776   0.437  0.00  0.00     0.150 A 
ATOM      5  C4  UNL d   1       3.563  -4.002   1.646  0.00  0.00    -0.007 A 
ATOM      6  C5  UNL d   1       4.694  -4.817   1.683  0.00  0.00     0.039 A 
ENDROOT
BRANCH   4   7
ATOM      7  O   UNL d   1       1.810  -2.977   0.450  0.00  0.00    -0.526 OA
ATOM      8  H5  UNL d   1       1.451  -2.934  -0.451  0.00  0.00     0.418 HD
ENDBRANCH   4   7
TORSDOF 1
ENDMDL
