MODEL 1
REMARK minimizedAffinity 4.92337036
REMARK minimizedRMSD -1
REMARK  1 active torsions:
REMARK  status: ('A' for Active; 'I' for Inactive)
REMARK    1  A    between atoms: C3_4  and  O_7 
ROOT
ATOM      1  C   UNL d   1       5.319   6.000   5.040  0.00  0.00    -0.033 A 
ATOM      2  C1  UNL d   1       4.285   5.994   5.978  0.00  0.00     0.039 A 
ATOM      3  C2  UNL d   1       3.365   4.944   6.000  0.00  0.00    -0.080 A 
ATOM      4  C3  UNL d   1       3.491   3.906   5.080  0.00  0.00     0.150 A 
ATOM      5  C4  UNL d   1       4.521   3.903   4.146  0.00  0.00    -0.007 A 
ATOM      6  C5  UNL d   1       5.438   4.954   4.125  0.00  0.00     0.039 A 
ENDROOT
BRANCH   4   7
ATOM      7  O   UNL d   1       2.615   2.862   5.060  0.00  0.00    -0.526 OA
ATOM      8  H5  UNL d   1       1.940   3.013   5.743  0.00  0.00     0.418 HD
ENDBRANCH   4   7
TORSDOF 1
ENDMDL
