MODEL 1
REMARK minimizedAffinity 4.24008751
REMARK minimizedRMSD -1
REMARK  1 active torsions:
REMARK  status: ('A' for Active; 'I' for Inactive)
REMARK    1  A    between atoms: C3_4  and  O_7 
ROOT
ATOM      1  C   UNL d   1       2.441  -2.574   0.134  0.00  0.00    -0.033 A 
ATOM      2  C1  UNL d   1       2.009  -1.248   0.069  0.00  0.00     0.039 A 
ATOM      3  C2  UNL d   1       1.129  -0.751   1.032  0.00  0.00    -0.080 A 
ATOM      4  C3  UNL d   1       0.690  -1.589   2.054  0.00  0.00     0.150 A 
ATOM      5  C4  UNL d   1       1.120  -2.910   2.127  0.00  0.00    -0.007 A 
ATOM      6  C5  UNL d   1       1.998  -3.405   1.164  0.00  0.00     0.039 A 
ENDROOT
BRANCH   4   7
ATOM      7  O   UNL d   1      -0.172  -1.150   3.015  0.00  0.00    -0.526 OA
ATOM      8  H5  UNL d   1      -0.406  -0.227   2.820  0.00  0.00     0.418 HD
ENDBRANCH   4   7
TORSDOF 1
ENDMDL
