MODEL 1
REMARK minimizedAffinity 0.846535385
REMARK minimizedRMSD -1
REMARK  1 active torsions:
REMARK  status: ('A' for Active; 'I' for Inactive)
REMARK    1  A    between atoms: C3_4  and  O_7 
ROOT
ATOM      1  C   UNL d   1       1.960  -2.529   0.374  0.00  0.00    -0.033 A 
ATOM      2  C1  UNL d   1       2.125  -2.869   1.718  0.00  0.00     0.039 A 
ATOM      3  C2  UNL d   1       1.398  -2.199   2.704  0.00  0.00    -0.080 A 
ATOM      4  C3  UNL d   1       0.510  -1.194   2.333  0.00  0.00     0.150 A 
ATOM      5  C4  UNL d   1       0.337  -0.852   0.995  0.00  0.00    -0.007 A 
ATOM      6  C5  UNL d   1       1.065  -1.522   0.012  0.00  0.00     0.039 A 
ENDROOT
BRANCH   4   7
ATOM      7  O   UNL d   1      -0.219  -0.509   3.259  0.00  0.00    -0.526 OA
ATOM      8  H5  UNL d   1       0.025  -0.832   4.143  0.00  0.00     0.418 HD
ENDBRANCH   4   7
TORSDOF 1
ENDMDL
