MODEL 1
REMARK minimizedAffinity -1.79736114
REMARK minimizedRMSD -1
REMARK  1 active torsions:
REMARK  status: ('A' for Active; 'I' for Inactive)
REMARK    1  A    between atoms: C3_4  and  O_7 
ROOT
ATOM      1  C   UNL d   1       1.088  -2.743   1.216  0.00  0.00    -0.033 A 
ATOM      2  C1  UNL d   1       1.711  -3.636   0.341  0.00  0.00     0.039 A 
ATOM      3  C2  UNL d   1       3.103  -3.744   0.325  0.00  0.00    -0.080 A 
ATOM      4  C3  UNL d   1       3.859  -2.957   1.189  0.00  0.00     0.150 A 
ATOM      5  C4  UNL d   1       3.246  -2.069   2.066  0.00  0.00    -0.007 A 
ATOM      6  C5  UNL d   1       1.856  -1.961   2.079  0.00  0.00     0.039 A 
ENDROOT
BRANCH   4   7
ATOM      7  O   UNL d   1       5.221  -3.024   1.206  0.00  0.00    -0.526 OA
ATOM      8  H5  UNL d   1       5.506  -3.659   0.528  0.00  0.00     0.418 HD
ENDBRANCH   4   7
TORSDOF 1
ENDMDL
