MODEL 1
REMARK minimizedAffinity 0.0712505132
REMARK minimizedRMSD -1
REMARK  1 active torsions:
REMARK  status: ('A' for Active; 'I' for Inactive)
REMARK    1  A    between atoms: C3_4  and  O_7 
ROOT
ATOM      1  C   UNL d   1       2.012   5.699   5.048  0.00  0.00    -0.033 A 
ATOM      2  C1  UNL d   1       2.359   5.512   3.708  0.00  0.00     0.039 A 
ATOM      3  C2  UNL d   1       3.699   5.571   3.318  0.00  0.00    -0.080 A 
ATOM      4  C3  UNL d   1       4.679   5.817   4.275  0.00  0.00     0.150 A 
ATOM      5  C4  UNL d   1       4.341   6.000   5.612  0.00  0.00    -0.007 A 
ATOM      6  C5  UNL d   1       3.003   5.941   6.000  0.00  0.00     0.039 A 
ENDROOT
BRANCH   4   7
ATOM      7  O   UNL d   1       5.999   5.888   3.941  0.00  0.00    -0.526 OA
ATOM      8  H5  UNL d   1       6.080   5.770   2.979  0.00  0.00     0.418 HD
ENDBRANCH   4   7
TORSDOF 1
ENDMDL
