MODEL 1
REMARK minimizedAffinity 9.11705685
REMARK minimizedRMSD -1
REMARK  1 active torsions:
REMARK  status: ('A' for Active; 'I' for Inactive)
REMARK    1  A    between atoms: N_2  and  C1_3 
ROOT
ATOM      1  C1  UNL d   1       1.879  -4.937  -3.045  0.00  0.00     0.143 A 
ATOM      2  C2  UNL d   1       2.613  -4.725  -1.873  0.00  0.00    -0.057 A 
ATOM      3  C3  UNL d   1       2.398  -3.594  -1.077  0.00  0.00     0.033 A 
ATOM      4  C4  UNL d   1       1.462  -2.637  -1.456  0.00  0.00    -0.042 A 
ATOM      5  C5  UNL d   1       0.739  -2.815  -2.630  0.00  0.00     0.033 A 
ATOM      6  C6  UNL d   1       0.954  -3.950  -3.418  0.00  0.00    -0.057 A 
ENDROOT
BRANCH   1   7
ATOM      7  N   UNL d   1       2.116  -5.992  -3.931  0.00  0.00    -0.732 N 
ATOM      8  C   UNL d   1       1.513  -6.000  -5.246  0.00  0.00     0.284 C 
ATOM      9  H3  UNL d   1       3.085  -6.301  -3.916  0.00  0.00     0.395 HD
ENDBRANCH   1   7
TORSDOF 1
ENDMDL
