MODEL 1
REMARK minimizedAffinity 6.88682938
REMARK minimizedRMSD -1
REMARK  1 active torsions:
REMARK  status: ('A' for Active; 'I' for Inactive)
REMARK    1  A    between atoms: N_2  and  C1_3 
ROOT
ATOM      1  C1  UNL d   1       0.040   4.545  -5.085  0.00  0.00     0.143 A 
ATOM      2  C2  UNL d   1       1.368   4.984  -5.068  0.00  0.00    -0.057 A 
ATOM      3  C3  UNL d   1       2.263   4.551  -4.082  0.00  0.00     0.033 A 
ATOM      4  C4  UNL d   1       1.836   3.692  -3.075  0.00  0.00    -0.042 A 
ATOM      5  C5  UNL d   1       0.513   3.263  -3.058  0.00  0.00     0.033 A 
ATOM      6  C6  UNL d   1      -0.374   3.693  -4.049  0.00  0.00    -0.057 A 
ENDROOT
BRANCH   1   7
ATOM      7  N   UNL d   1      -0.923   5.016  -5.981  0.00  0.00    -0.732 N 
ATOM      8  C   UNL d   1      -2.284   5.247  -5.546  0.00  0.00     0.284 C 
ATOM      9  H3  UNL d   1      -0.558   5.733  -6.603  0.00  0.00     0.395 HD
ENDBRANCH   1   7
TORSDOF 1
ENDMDL
