MODEL 1
REMARK minimizedAffinity 6.07415724
REMARK minimizedRMSD -1
REMARK  1 active torsions:
REMARK  status: ('A' for Active; 'I' for Inactive)
REMARK    1  A    between atoms: N_2  and  C1_3 
ROOT
ATOM      1  C1  UNL d   1       1.965   1.762   2.687  0.00  0.00     0.143 A 
ATOM      2  C2  UNL d   1       2.304   1.911   4.037  0.00  0.00    -0.057 A 
ATOM      3  C3  UNL d   1       3.245   2.862   4.449  0.00  0.00     0.033 A 
ATOM      4  C4  UNL d   1       3.886   3.666   3.512  0.00  0.00    -0.042 A 
ATOM      5  C5  UNL d   1       3.583   3.519   2.163  0.00  0.00     0.033 A 
ATOM      6  C6  UNL d   1       2.638   2.571   1.758  0.00  0.00    -0.057 A 
ENDROOT
BRANCH   1   7
ATOM      7  N   UNL d   1       1.111   0.768   2.205  0.00  0.00    -0.732 N 
ATOM      8  C   UNL d   1       1.630  -0.527   1.821  0.00  0.00     0.284 C 
ATOM      9  H3  UNL d   1       0.232   0.728   2.717  0.00  0.00     0.395 HD
ENDBRANCH   1   7
TORSDOF 1
ENDMDL
