MODEL 1
REMARK minimizedAffinity 8.59620667
REMARK minimizedRMSD -1
REMARK  1 active torsions:
REMARK  status: ('A' for Active; 'I' for Inactive)
REMARK    1  A    between atoms: N_2  and  C1_3 
ROOT
ATOM      1  C1  UNL d   1      -2.658  -5.784   1.786  0.00  0.00     0.143 A 
ATOM      2  C2  UNL d   1      -3.949  -6.000   2.281  0.00  0.00    -0.057 A 
ATOM      3  C3  UNL d   1      -4.233  -5.880   3.647  0.00  0.00     0.033 A 
ATOM      4  C4  UNL d   1      -3.221  -5.569   4.549  0.00  0.00    -0.042 A 
ATOM      5  C5  UNL d   1      -1.925  -5.375   4.082  0.00  0.00     0.033 A 
ATOM      6  C6  UNL d   1      -1.650  -5.489   2.716  0.00  0.00    -0.057 A 
ENDROOT
BRANCH   1   7
ATOM      7  N   UNL d   1      -2.293  -5.985   0.453  0.00  0.00    -0.732 N 
ATOM      8  C   UNL d   1      -1.937  -4.864  -0.391  0.00  0.00     0.284 C 
ATOM      9  H3  UNL d   1      -1.698  -6.801   0.332  0.00  0.00     0.395 HD
ENDBRANCH   1   7
TORSDOF 1
ENDMDL
