MODEL 1
REMARK minimizedAffinity 4.49488926
REMARK minimizedRMSD -1
REMARK  1 active torsions:
REMARK  status: ('A' for Active; 'I' for Inactive)
REMARK    1  A    between atoms: N_2  and  C1_3 
ROOT
ATOM      1  C1  UNL d   1      -2.197  -0.974   2.083  0.00  0.00     0.143 A 
ATOM      2  C2  UNL d   1      -2.052  -2.213   2.716  0.00  0.00    -0.057 A 
ATOM      3  C3  UNL d   1      -3.082  -2.755   3.494  0.00  0.00     0.033 A 
ATOM      4  C4  UNL d   1      -4.268  -2.051   3.678  0.00  0.00    -0.042 A 
ATOM      5  C5  UNL d   1      -4.424  -0.806   3.078  0.00  0.00     0.033 A 
ATOM      6  C6  UNL d   1      -3.394  -0.273   2.297  0.00  0.00    -0.057 A 
ENDROOT
BRANCH   1   7
ATOM      7  N   UNL d   1      -1.173  -0.337   1.377  0.00  0.00    -0.732 N 
ATOM      8  C   UNL d   1       0.151  -0.917   1.315  0.00  0.00     0.284 C 
ATOM      9  H3  UNL d   1      -1.495   0.058   0.496  0.00  0.00     0.395 HD
ENDBRANCH   1   7
TORSDOF 1
ENDMDL
