MODEL 1
REMARK minimizedAffinity 0.324086428
REMARK minimizedRMSD -1
REMARK  1 active torsions:
REMARK  status: ('A' for Active; 'I' for Inactive)
REMARK    1  A    between atoms: N_2  and  C1_3 
ROOT
ATOM      1  C1  UNL d   1      -1.562  -2.499  -0.242  0.00  0.00     0.143 A 
ATOM      2  C2  UNL d   1      -0.648  -2.418  -1.298  0.00  0.00    -0.057 A 
ATOM      3  C3  UNL d   1      -0.777  -3.226  -2.434  0.00  0.00     0.033 A 
ATOM      4  C4  UNL d   1      -1.810  -4.153  -2.522  0.00  0.00    -0.042 A 
ATOM      5  C5  UNL d   1      -2.716  -4.268  -1.474  0.00  0.00     0.033 A 
ATOM      6  C6  UNL d   1      -2.586  -3.454  -0.345  0.00  0.00    -0.057 A 
ENDROOT
BRANCH   1   7
ATOM      7  N   UNL d   1      -1.431  -1.793   0.956  0.00  0.00    -0.732 N 
ATOM      8  C   UNL d   1      -0.420  -0.768   1.101  0.00  0.00     0.284 C 
ATOM      9  H3  UNL d   1      -2.331  -1.551   1.365  0.00  0.00     0.395 HD
ENDBRANCH   1   7
TORSDOF 1
ENDMDL
