MODEL 1
REMARK minimizedAffinity -0.716416419
REMARK minimizedRMSD -1
REMARK  1 active torsions:
REMARK  status: ('A' for Active; 'I' for Inactive)
REMARK    1  A    between atoms: N_2  and  C1_3 
ROOT
ATOM      1  C1  UNL d   1      -1.055   0.095   1.787  0.00  0.00     0.143 A 
ATOM      2  C2  UNL d   1      -0.864  -1.263   2.063  0.00  0.00    -0.057 A 
ATOM      3  C3  UNL d   1      -1.924  -2.073   2.487  0.00  0.00     0.033 A 
ATOM      4  C4  UNL d   1      -3.192  -1.531   2.671  0.00  0.00    -0.042 A 
ATOM      5  C5  UNL d   1      -3.399  -0.178   2.426  0.00  0.00     0.033 A 
ATOM      6  C6  UNL d   1      -2.338   0.625   1.997  0.00  0.00    -0.057 A 
ENDROOT
BRANCH   1   7
ATOM      7  N   UNL d   1      -0.020   0.975   1.458  0.00  0.00    -0.732 N 
ATOM      8  C   UNL d   1       0.343   2.054   2.351  0.00  0.00     0.284 C 
ATOM      9  H3  UNL d   1       0.774   0.500   1.036  0.00  0.00     0.395 HD
ENDBRANCH   1   7
TORSDOF 1
ENDMDL
