MODEL 1
REMARK minimizedAffinity -0.781149447
REMARK minimizedRMSD -1
REMARK  1 active torsions:
REMARK  status: ('A' for Active; 'I' for Inactive)
REMARK    1  A    between atoms: N_2  and  C1_3 
ROOT
ATOM      1  C1  UNL d   1       3.634   3.765  -5.464  0.00  0.00     0.143 A 
ATOM      2  C2  UNL d   1       4.894   3.229  -5.748  0.00  0.00    -0.057 A 
ATOM      3  C3  UNL d   1       5.995   4.057  -5.999  0.00  0.00     0.033 A 
ATOM      4  C4  UNL d   1       5.848   5.440  -6.000  0.00  0.00    -0.042 A 
ATOM      5  C5  UNL d   1       4.599   5.995  -5.745  0.00  0.00     0.033 A 
ATOM      6  C6  UNL d   1       3.504   5.163  -5.488  0.00  0.00    -0.057 A 
ENDROOT
BRANCH   1   7
ATOM      7  N   UNL d   1       2.479   2.995  -5.303  0.00  0.00    -0.732 N 
ATOM      8  C   UNL d   1       1.659   3.135  -4.119  0.00  0.00     0.284 C 
ATOM      9  H3  UNL d   1       1.950   2.904  -6.167  0.00  0.00     0.395 HD
ENDBRANCH   1   7
TORSDOF 1
ENDMDL
