MODEL 1
REMARK minimizedAffinity 8.08453178
REMARK minimizedRMSD -1
REMARK  1 active torsions:
REMARK  status: ('A' for Active; 'I' for Inactive)
REMARK    1  A    between atoms: N_2  and  C1_3 
ROOT
ATOM      1  C1  UNL d   1       4.335   4.153   4.397  0.00  0.00     0.143 A 
ATOM      2  C2  UNL d   1       3.330   3.185   4.299  0.00  0.00    -0.057 A 
ATOM      3  C3  UNL d   1       2.763   2.851   3.063  0.00  0.00     0.033 A 
ATOM      4  C4  UNL d   1       3.172   3.502   1.904  0.00  0.00    -0.042 A 
ATOM      5  C5  UNL d   1       4.151   4.485   1.982  0.00  0.00     0.033 A 
ATOM      6  C6  UNL d   1       4.719   4.810   3.217  0.00  0.00    -0.057 A 
ENDROOT
BRANCH   1   7
ATOM      7  N   UNL d   1       4.869   4.600   5.608  0.00  0.00    -0.732 N 
ATOM      8  C   UNL d   1       4.756   5.989   5.996  0.00  0.00     0.284 C 
ATOM      9  H3  UNL d   1       4.712   3.942   6.368  0.00  0.00     0.395 HD
ENDBRANCH   1   7
TORSDOF 1
ENDMDL
