MODEL 1
REMARK minimizedAffinity 3.49078679
REMARK minimizedRMSD -1
REMARK  1 active torsions:
REMARK  status: ('A' for Active; 'I' for Inactive)
REMARK    1  A    between atoms: N_2  and  C1_3 
ROOT
ATOM      1  C1  UNL d   1      -3.265  -0.417   2.170  0.00  0.00     0.143 A 
ATOM      2  C2  UNL d   1      -2.737  -1.657   2.545  0.00  0.00    -0.057 A 
ATOM      3  C3  UNL d   1      -3.461  -2.541   3.353  0.00  0.00     0.033 A 
ATOM      4  C4  UNL d   1      -4.720  -2.187   3.828  0.00  0.00    -0.042 A 
ATOM      5  C5  UNL d   1      -5.255  -0.949   3.489  0.00  0.00     0.033 A 
ATOM      6  C6  UNL d   1      -4.529  -0.073   2.675  0.00  0.00    -0.057 A 
ENDROOT
BRANCH   1   7
ATOM      7  N   UNL d   1      -2.555   0.546   1.450  0.00  0.00    -0.732 N 
ATOM      8  C   UNL d   1      -3.213   1.344   0.438  0.00  0.00     0.284 C 
ATOM      9  H3  UNL d   1      -1.907   1.069   2.035  0.00  0.00     0.395 HD
ENDBRANCH   1   7
TORSDOF 1
ENDMDL
