MODEL 1
REMARK minimizedAffinity 6.24315643
REMARK minimizedRMSD -1
REMARK  1 active torsions:
REMARK  status: ('A' for Active; 'I' for Inactive)
REMARK    1  A    between atoms: N_2  and  C1_3 
ROOT
ATOM      1  C1  UNL d   1      -4.040   0.244   2.823  0.00  0.00     0.143 A 
ATOM      2  C2  UNL d   1      -2.704   0.179   2.412  0.00  0.00    -0.057 A 
ATOM      3  C3  UNL d   1      -2.289   0.742   1.199  0.00  0.00     0.033 A 
ATOM      4  C4  UNL d   1      -3.212   1.356   0.359  0.00  0.00    -0.042 A 
ATOM      5  C5  UNL d   1      -4.550   1.411   0.736  0.00  0.00     0.033 A 
ATOM      6  C6  UNL d   1      -4.956   0.853   1.951  0.00  0.00    -0.057 A 
ENDROOT
BRANCH   1   7
ATOM      7  N   UNL d   1      -4.532  -0.382   3.971  0.00  0.00    -0.732 N 
ATOM      8  C   UNL d   1      -4.494  -1.823   4.098  0.00  0.00     0.284 C 
ATOM      9  H3  UNL d   1      -4.284   0.117   4.822  0.00  0.00     0.395 HD
ENDBRANCH   1   7
TORSDOF 1
ENDMDL
