MODEL 1
REMARK minimizedAffinity 5.22678947
REMARK minimizedRMSD -1
REMARK  1 active torsions:
REMARK  status: ('A' for Active; 'I' for Inactive)
REMARK    1  A    between atoms: N_2  and  C1_3 
ROOT
ATOM      1  C1  UNL d   1       4.209   2.467  -5.496  0.00  0.00     0.143 A 
ATOM      2  C2  UNL d   1       3.179   1.561  -5.770  0.00  0.00    -0.057 A 
ATOM      3  C3  UNL d   1       1.860   1.995  -5.952  0.00  0.00     0.033 A 
ATOM      4  C4  UNL d   1       1.543   3.344  -5.832  0.00  0.00    -0.042 A 
ATOM      5  C5  UNL d   1       2.547   4.259  -5.535  0.00  0.00     0.033 A 
ATOM      6  C6  UNL d   1       3.863   3.820  -5.362  0.00  0.00    -0.057 A 
ENDROOT
BRANCH   1   7
ATOM      7  N   UNL d   1       5.522   2.087  -5.208  0.00  0.00    -0.732 N 
ATOM      8  C   UNL d   1       5.977   1.987  -3.837  0.00  0.00     0.284 C 
ATOM      9  H3  UNL d   1       5.850   1.335  -5.810  0.00  0.00     0.395 HD
ENDBRANCH   1   7
TORSDOF 1
ENDMDL
