MODEL 1
REMARK minimizedAffinity 2.88465452
REMARK minimizedRMSD -1
REMARK  1 active torsions:
REMARK  status: ('A' for Active; 'I' for Inactive)
REMARK    1  A    between atoms: N_2  and  C1_3 
ROOT
ATOM      1  C1  UNL d   1      -1.786   2.706   1.422  0.00  0.00     0.143 A 
ATOM      2  C2  UNL d   1      -1.485   2.090   2.641  0.00  0.00    -0.057 A 
ATOM      3  C3  UNL d   1      -0.203   2.169   3.198  0.00  0.00     0.033 A 
ATOM      4  C4  UNL d   1       0.812   2.845   2.528  0.00  0.00    -0.042 A 
ATOM      5  C5  UNL d   1       0.542   3.443   1.303  0.00  0.00     0.033 A 
ATOM      6  C6  UNL d   1      -0.742   3.366   0.755  0.00  0.00    -0.057 A 
ENDROOT
BRANCH   1   7
ATOM      7  N   UNL d   1      -3.015   2.580   0.769  0.00  0.00    -0.732 N 
ATOM      8  C   UNL d   1      -3.808   1.378   0.917  0.00  0.00     0.284 C 
ATOM      9  H3  UNL d   1      -3.556   3.441   0.790  0.00  0.00     0.395 HD
ENDBRANCH   1   7
TORSDOF 1
ENDMDL
