MODEL 1
REMARK minimizedAffinity -5.46873426
REMARK minimizedRMSD -1
REMARK  2 active torsions:
REMARK  status: ('A' for Active; 'I' for Inactive)
REMARK    1  A    between atoms: C2'_3  and  C1'_4 
REMARK    2  A    between atoms: C1'_4  and  C1_5 
ROOT
ATOM      1  C1  I4B d   1      -0.483  -0.139   0.772  0.00  0.00    -0.075 A 
ATOM      2  C2  I4B d   1      -1.275   0.436   1.735  0.00  0.00     0.003 A 
ATOM      3  C3  I4B d   1      -0.733   0.761   3.002  0.00  0.00     0.002 A 
ATOM      4  C4  I4B d   1       0.582   0.450   3.280  0.00  0.00    -0.004 A 
ATOM      5  C5  I4B d   1       1.390  -0.111   2.295  0.00  0.00     0.002 A 
ATOM      6  C6  I4B d   1       0.857  -0.397   1.029  0.00  0.00     0.003 A 
ENDROOT
BRANCH   1   7
ATOM      7  C1' I4B d   1      -1.096  -0.500  -0.544  0.00  0.00     0.060 C 
BRANCH   7   8
ATOM      8  C2' I4B d   1      -2.258  -1.435  -0.277  0.00  0.00    -0.013 C 
ATOM      9  C4' I4B d   1      -3.564  -0.813  -0.695  0.00  0.00     0.013 C 
ATOM     10  C3' I4B d   1      -2.004  -2.712  -1.019  0.00  0.00     0.013 C 
ENDBRANCH   7   8
ENDBRANCH   1   7
TORSDOF 2
ENDMDL
