MODEL 1
REMARK minimizedAffinity -2.00546694
REMARK minimizedRMSD -1
REMARK  2 active torsions:
REMARK  status: ('A' for Active; 'I' for Inactive)
REMARK    1  A    between atoms: C2'_3  and  C1'_4 
REMARK    2  A    between atoms: C1'_4  and  C1_5 
ROOT
ATOM      1  C1  I4B d   1      -1.423  -1.032  -0.463  0.00  0.00    -0.075 A 
ATOM      2  C2  I4B d   1      -2.747  -0.675  -0.508  0.00  0.00     0.003 A 
ATOM      3  C3  I4B d   1      -3.737  -1.643  -0.804  0.00  0.00     0.002 A 
ATOM      4  C4  I4B d   1      -3.356  -2.937  -1.096  0.00  0.00    -0.004 A 
ATOM      5  C5  I4B d   1      -2.015  -3.303  -1.028  0.00  0.00     0.002 A 
ATOM      6  C6  I4B d   1      -1.043  -2.348  -0.697  0.00  0.00     0.003 A 
ENDROOT
BRANCH   1   7
ATOM      7  C1' I4B d   1      -0.401   0.023  -0.179  0.00  0.00     0.060 C 
BRANCH   7   8
ATOM      8  C2' I4B d   1       0.737  -0.623   0.585  0.00  0.00    -0.013 C 
ATOM      9  C4' I4B d   1       2.067  -0.300  -0.042  0.00  0.00     0.013 C 
ATOM     10  C3' I4B d   1       0.675  -0.139   2.003  0.00  0.00     0.013 C 
ENDBRANCH   7   8
ENDBRANCH   1   7
TORSDOF 2
ENDMDL
