MODEL 1
REMARK minimizedAffinity 2.73543739
REMARK minimizedRMSD -1
REMARK  2 active torsions:
REMARK  status: ('A' for Active; 'I' for Inactive)
REMARK    1  A    between atoms: C2'_3  and  C1'_4 
REMARK    2  A    between atoms: C1'_4  and  C1_5 
ROOT
ATOM      1  C1  I4B d   1       0.328  -1.029  -0.553  0.00  0.00    -0.075 A 
ATOM      2  C2  I4B d   1      -0.482  -0.453   0.394  0.00  0.00     0.003 A 
ATOM      3  C3  I4B d   1       0.084   0.179   1.527  0.00  0.00     0.002 A 
ATOM      4  C4  I4B d   1       1.454   0.168   1.698  0.00  0.00    -0.004 A 
ATOM      5  C5  I4B d   1       2.274  -0.395   0.725  0.00  0.00     0.002 A 
ATOM      6  C6  I4B d   1       1.709  -0.987  -0.414  0.00  0.00     0.003 A 
ENDROOT
BRANCH   1   7
ATOM      7  C1' I4B d   1      -0.305  -1.717  -1.721  0.00  0.00     0.060 C 
BRANCH   7   8
ATOM      8  C2' I4B d   1      -0.781  -3.079  -1.258  0.00  0.00    -0.013 C 
ATOM      9  C4' I4B d   1      -2.279  -3.196  -1.362  0.00  0.00     0.013 C 
ATOM     10  C3' I4B d   1      -0.097  -4.117  -2.096  0.00  0.00     0.013 C 
ENDBRANCH   7   8
ENDBRANCH   1   7
TORSDOF 2
ENDMDL
