MODEL 1
REMARK minimizedAffinity -3.93156433
REMARK minimizedRMSD -1
REMARK  2 active torsions:
REMARK  status: ('A' for Active; 'I' for Inactive)
REMARK    1  A    between atoms: C2'_3  and  C1'_4 
REMARK    2  A    between atoms: C1'_4  and  C1_5 
ROOT
ATOM      1  C1  I4B d   1       0.839   0.083  -0.351  0.00  0.00    -0.075 A 
ATOM      2  C2  I4B d   1       1.910   0.500   0.400  0.00  0.00     0.003 A 
ATOM      3  C3  I4B d   1       1.707   1.042   1.692  0.00  0.00     0.002 A 
ATOM      4  C4  I4B d   1       0.422   1.194   2.171  0.00  0.00    -0.004 A 
ATOM      5  C5  I4B d   1      -0.661   0.750   1.418  0.00  0.00     0.002 A 
ATOM      6  C6  I4B d   1      -0.451   0.180   0.154  0.00  0.00     0.003 A 
ENDROOT
BRANCH   1   7
ATOM      7  C1' I4B d   1       1.087  -0.454  -1.725  0.00  0.00     0.060 C 
BRANCH   7   8
ATOM      8  C2' I4B d   1       1.266   0.724  -2.661  0.00  0.00    -0.013 C 
ATOM      9  C4' I4B d   1       2.520   0.582  -3.482  0.00  0.00     0.013 C 
ATOM     10  C3' I4B d   1       0.052   0.808  -3.537  0.00  0.00     0.013 C 
ENDBRANCH   7   8
ENDBRANCH   1   7
TORSDOF 2
ENDMDL
