MODEL 1
REMARK minimizedAffinity -1.86018991
REMARK minimizedRMSD -1
REMARK  2 active torsions:
REMARK  status: ('A' for Active; 'I' for Inactive)
REMARK    1  A    between atoms: C2'_3  and  C1'_4 
REMARK    2  A    between atoms: C1'_4  and  C1_5 
ROOT
ATOM      1  C1  I4B d   1      -1.088  -1.294  -0.766  0.00  0.00    -0.075 A 
ATOM      2  C2  I4B d   1      -2.383  -1.011  -0.410  0.00  0.00     0.003 A 
ATOM      3  C3  I4B d   1      -3.422  -1.923  -0.716  0.00  0.00     0.002 A 
ATOM      4  C4  I4B d   1      -3.131  -3.074  -1.419  0.00  0.00    -0.004 A 
ATOM      5  C5  I4B d   1      -1.814  -3.371  -1.759  0.00  0.00     0.002 A 
ATOM      6  C6  I4B d   1      -0.784  -2.481  -1.420  0.00  0.00     0.003 A 
ENDROOT
BRANCH   1   7
ATOM      7  C1' I4B d   1      -0.020  -0.294  -0.456  0.00  0.00     0.060 C 
BRANCH   7   8
ATOM      8  C2' I4B d   1       0.777  -0.812   0.724  0.00  0.00    -0.013 C 
ATOM      9  C4' I4B d   1       2.215  -1.053   0.347  0.00  0.00     0.013 C 
ATOM     10  C3' I4B d   1       0.668   0.191   1.833  0.00  0.00     0.013 C 
ENDBRANCH   7   8
ENDBRANCH   1   7
TORSDOF 2
ENDMDL
