MODEL 1
REMARK minimizedAffinity 1.63917983
REMARK minimizedRMSD -1
REMARK  2 active torsions:
REMARK  status: ('A' for Active; 'I' for Inactive)
REMARK    1  A    between atoms: C2'_3  and  C1'_4 
REMARK    2  A    between atoms: C1'_4  and  C1_5 
ROOT
ATOM      1  C1  I4B d   1       1.498  -0.790   4.936  0.00  0.00    -0.075 A 
ATOM      2  C2  I4B d   1       0.360  -0.952   5.687  0.00  0.00     0.003 A 
ATOM      3  C3  I4B d   1      -0.461   0.161   5.986  0.00  0.00     0.002 A 
ATOM      4  C4  I4B d   1      -0.083   1.419   5.561  0.00  0.00    -0.004 A 
ATOM      5  C5  I4B d   1       1.059   1.578   4.780  0.00  0.00     0.002 A 
ATOM      6  C6  I4B d   1       1.848   0.465   4.455  0.00  0.00     0.003 A 
ENDROOT
BRANCH   1   7
ATOM      7  C1' I4B d   1       2.360  -1.982   4.666  0.00  0.00     0.060 C 
BRANCH   7   8
ATOM      8  C2' I4B d   1       3.159  -2.274   5.920  0.00  0.00    -0.013 C 
ATOM      9  C4' I4B d   1       3.545  -3.727   5.995  0.00  0.00     0.013 C 
ATOM     10  C3' I4B d   1       4.372  -1.392   5.912  0.00  0.00     0.013 C 
ENDBRANCH   7   8
ENDBRANCH   1   7
TORSDOF 2
ENDMDL
