MODEL 1
REMARK minimizedAffinity 6.79329729
REMARK minimizedRMSD -1
REMARK  0 active torsions:
REMARK  status: ('A' for Active; 'I' for Inactive)
ROOT
ATOM      1  C2' OXE d   1       0.674   2.250   0.907  0.00  0.00     0.078 C 
ATOM      2  C1' OXE d   1       3.101   1.530   2.121  0.00  0.00     0.078 C 
ATOM      3  C1  OXE d   1       3.093   1.726   0.626  0.00  0.00    -0.078 A 
ATOM      4  C2  OXE d   1       1.891   2.033   0.034  0.00  0.00    -0.078 A 
ATOM      5  C3  OXE d   1       1.840   2.278  -1.335  0.00  0.00     0.003 A 
ATOM      6  C4  OXE d   1       2.968   2.065  -2.136  0.00  0.00    -0.002 A 
ATOM      7  C5  OXE d   1       4.193   1.714  -1.559  0.00  0.00    -0.002 A 
ATOM      8  C6  OXE d   1       4.282   1.582  -0.178  0.00  0.00     0.003 A 
ENDROOT
TORSDOF 0
ENDMDL
