MODEL 1
REMARK minimizedAffinity 11.518858
REMARK minimizedRMSD -1
REMARK  0 active torsions:
REMARK  status: ('A' for Active; 'I' for Inactive)
ROOT
ATOM      1  C2' OXE d   1       0.168   3.460  -0.367  0.00  0.00     0.078 C 
ATOM      2  C1' OXE d   1      -0.663   2.174   1.985  0.00  0.00     0.078 C 
ATOM      3  C1  OXE d   1       0.818   2.238   1.704  0.00  0.00    -0.078 A 
ATOM      4  C2  OXE d   1       1.213   2.828   0.528  0.00  0.00    -0.078 A 
ATOM      5  C3  OXE d   1       2.569   2.963   0.245  0.00  0.00     0.003 A 
ATOM      6  C4  OXE d   1       3.528   2.367   1.073  0.00  0.00    -0.002 A 
ATOM      7  C5  OXE d   1       3.145   1.726   2.256  0.00  0.00    -0.002 A 
ATOM      8  C6  OXE d   1       1.800   1.690   2.607  0.00  0.00     0.003 A 
ENDROOT
TORSDOF 0
ENDMDL
