MODEL 1
REMARK minimizedAffinity 14.8126278
REMARK minimizedRMSD -1
REMARK  0 active torsions:
REMARK  status: ('A' for Active; 'I' for Inactive)
ROOT
ATOM      1  C2' OXE d   1       1.039  -5.028  -3.099  0.00  0.00     0.078 C 
ATOM      2  C1' OXE d   1       0.808  -5.954  -5.739  0.00  0.00     0.078 C 
ATOM      3  C1  OXE d   1       2.193  -5.676  -5.210  0.00  0.00    -0.078 A 
ATOM      4  C2  OXE d   1       2.293  -5.178  -3.933  0.00  0.00    -0.078 A 
ATOM      5  C3  OXE d   1       3.550  -4.956  -3.377  0.00  0.00     0.003 A 
ATOM      6  C4  OXE d   1       4.704  -5.088  -4.158  0.00  0.00    -0.002 A 
ATOM      7  C5  OXE d   1       4.621  -5.556  -5.474  0.00  0.00    -0.002 A 
ATOM      8  C6  OXE d   1       3.379  -5.894  -6.000  0.00  0.00     0.003 A 
ENDROOT
TORSDOF 0
ENDMDL
