MODEL 1
REMARK minimizedAffinity 7.4699645
REMARK minimizedRMSD -1
REMARK  0 active torsions:
REMARK  status: ('A' for Active; 'I' for Inactive)
ROOT
ATOM      1  C2' OXE d   1       2.345   2.247   0.693  0.00  0.00     0.078 C 
ATOM      2  C1' OXE d   1       4.877   2.620  -0.460  0.00  0.00     0.078 C 
ATOM      3  C1  OXE d   1       4.815   2.304   1.013  0.00  0.00    -0.078 A 
ATOM      4  C2  OXE d   1       3.570   2.169   1.579  0.00  0.00    -0.078 A 
ATOM      5  C3  OXE d   1       3.457   1.823   2.922  0.00  0.00     0.003 A 
ATOM      6  C4  OXE d   1       4.594   1.762   3.737  0.00  0.00    -0.002 A 
ATOM      7  C5  OXE d   1       5.870   1.936   3.189  0.00  0.00    -0.002 A 
ATOM      8  C6  OXE d   1       6.000   2.165   1.824  0.00  0.00     0.003 A 
ENDROOT
TORSDOF 0
ENDMDL
