MODEL 1
REMARK minimizedAffinity 4.45065594
REMARK minimizedRMSD -1
REMARK  0 active torsions:
REMARK  status: ('A' for Active; 'I' for Inactive)
ROOT
ATOM      1  C2' OXE d   1      -0.842   2.393   1.686  0.00  0.00     0.078 C 
ATOM      2  C1' OXE d   1      -0.488   3.559  -0.843  0.00  0.00     0.078 C 
ATOM      3  C1  OXE d   1       0.729   2.999  -0.150  0.00  0.00    -0.078 A 
ATOM      4  C2  OXE d   1       0.554   2.473   1.107  0.00  0.00    -0.078 A 
ATOM      5  C3  OXE d   1       1.634   1.893   1.768  0.00  0.00     0.003 A 
ATOM      6  C4  OXE d   1       2.924   1.980   1.230  0.00  0.00    -0.002 A 
ATOM      7  C5  OXE d   1       3.130   2.548  -0.032  0.00  0.00    -0.002 A 
ATOM      8  C6  OXE d   1       2.039   3.023  -0.752  0.00  0.00     0.003 A 
ENDROOT
TORSDOF 0
ENDMDL
