MODEL 1
REMARK minimizedAffinity 8.4769268
REMARK minimizedRMSD -1
REMARK  0 active torsions:
REMARK  status: ('A' for Active; 'I' for Inactive)
ROOT
ATOM      1  C2' OXE d   1      -1.232   2.799   0.442  0.00  0.00     0.078 C 
ATOM      2  C1' OXE d   1      -1.186   0.093   1.186  0.00  0.00     0.078 C 
ATOM      3  C1  OXE d   1       0.132   0.820   1.095  0.00  0.00    -0.078 A 
ATOM      4  C2  OXE d   1       0.104   2.131   0.685  0.00  0.00    -0.078 A 
ATOM      5  C3  OXE d   1       1.287   2.864   0.637  0.00  0.00     0.003 A 
ATOM      6  C4  OXE d   1       2.519   2.236   0.853  0.00  0.00    -0.002 A 
ATOM      7  C5  OXE d   1       2.573   0.891   1.234  0.00  0.00    -0.002 A 
ATOM      8  C6  OXE d   1       1.389   0.181   1.400  0.00  0.00     0.003 A 
ENDROOT
TORSDOF 0
ENDMDL
