MODEL 1
REMARK minimizedAffinity 3.85905623
REMARK minimizedRMSD -1
REMARK  0 active torsions:
REMARK  status: ('A' for Active; 'I' for Inactive)
ROOT
ATOM      1  C2' OXE d   1      -0.861   2.367   1.553  0.00  0.00     0.078 C 
ATOM      2  C1' OXE d   1       1.007   1.724  -0.441  0.00  0.00     0.078 C 
ATOM      3  C1  OXE d   1       1.485   1.746   0.989  0.00  0.00    -0.078 A 
ATOM      4  C2  OXE d   1       0.575   2.107   1.954  0.00  0.00    -0.078 A 
ATOM      5  C3  OXE d   1       0.949   2.091   3.295  0.00  0.00     0.003 A 
ATOM      6  C4  OXE d   1       2.281   1.860   3.656  0.00  0.00    -0.002 A 
ATOM      7  C5  OXE d   1       3.233   1.529   2.686  0.00  0.00    -0.002 A 
ATOM      8  C6  OXE d   1       2.842   1.427   1.355  0.00  0.00     0.003 A 
ENDROOT
TORSDOF 0
ENDMDL
