MODEL 1
REMARK minimizedAffinity 8.15463638
REMARK minimizedRMSD -1
REMARK  0 active torsions:
REMARK  status: ('A' for Active; 'I' for Inactive)
ROOT
ATOM      1  C2' OXE d   1      -0.864   3.178   0.392  0.00  0.00     0.078 C 
ATOM      2  C1' OXE d   1      -0.786   2.231   3.033  0.00  0.00     0.078 C 
ATOM      3  C1  OXE d   1       0.513   2.290   2.269  0.00  0.00    -0.078 A 
ATOM      4  C2  OXE d   1       0.458   2.711   0.962  0.00  0.00    -0.078 A 
ATOM      5  C3  OXE d   1       1.634   2.837   0.228  0.00  0.00     0.003 A 
ATOM      6  C4  OXE d   1       2.851   2.393   0.759  0.00  0.00    -0.002 A 
ATOM      7  C5  OXE d   1       2.923   1.923   2.075  0.00  0.00    -0.002 A 
ATOM      8  C6  OXE d   1       1.773   1.906   2.855  0.00  0.00     0.003 A 
ENDROOT
TORSDOF 0
ENDMDL
