MODEL 1
REMARK minimizedAffinity 6.16348982
REMARK minimizedRMSD -1
REMARK  0 active torsions:
REMARK  status: ('A' for Active; 'I' for Inactive)
ROOT
ATOM      1  C2' OXE d   1      -1.742   2.600   0.611  0.00  0.00     0.078 C 
ATOM      2  C1' OXE d   1      -1.413   2.529   3.398  0.00  0.00     0.078 C 
ATOM      3  C1  OXE d   1      -0.186   2.351   2.540  0.00  0.00    -0.078 A 
ATOM      4  C2  OXE d   1      -0.362   2.341   1.178  0.00  0.00    -0.078 A 
ATOM      5  C3  OXE d   1       0.744   2.235   0.340  0.00  0.00     0.003 A 
ATOM      6  C4  OXE d   1       2.015   1.986   0.872  0.00  0.00    -0.002 A 
ATOM      7  C5  OXE d   1       2.211   1.953   2.257  0.00  0.00    -0.002 A 
ATOM      8  C6  OXE d   1       1.131   2.176   3.103  0.00  0.00     0.003 A 
ENDROOT
TORSDOF 0
ENDMDL
