MODEL 1
REMARK minimizedAffinity 3.85044384
REMARK minimizedRMSD -1
REMARK  0 active torsions:
REMARK  status: ('A' for Active; 'I' for Inactive)
ROOT
ATOM      1  C2' OXE d   1       4.197   1.873  -0.992  0.00  0.00     0.078 C 
ATOM      2  C1' OXE d   1       2.094   2.550   0.739  0.00  0.00     0.078 C 
ATOM      3  C1  OXE d   1       3.449   3.155   1.008  0.00  0.00    -0.078 A 
ATOM      4  C2  OXE d   1       4.483   2.781   0.184  0.00  0.00    -0.078 A 
ATOM      5  C3  OXE d   1       5.741   3.352   0.354  0.00  0.00     0.003 A 
ATOM      6  C4  OXE d   1       6.000   4.183   1.451  0.00  0.00    -0.002 A 
ATOM      7  C5  OXE d   1       4.970   4.545   2.326  0.00  0.00    -0.002 A 
ATOM      8  C6  OXE d   1       3.682   4.074   2.095  0.00  0.00     0.003 A 
ENDROOT
TORSDOF 0
ENDMDL
