MODEL 1
REMARK minimizedAffinity 8.07192612
REMARK minimizedRMSD -1
REMARK  0 active torsions:
REMARK  status: ('A' for Active; 'I' for Inactive)
ROOT
ATOM      1  C2' OXE d   1       4.907   1.874   3.531  0.00  0.00     0.078 C 
ATOM      2  C1' OXE d   1       6.000   1.885   0.945  0.00  0.00     0.078 C 
ATOM      3  C1  OXE d   1       4.539   1.539   1.090  0.00  0.00    -0.078 A 
ATOM      4  C2  OXE d   1       4.024   1.490   2.363  0.00  0.00    -0.078 A 
ATOM      5  C3  OXE d   1       2.669   1.230   2.548  0.00  0.00     0.003 A 
ATOM      6  C4  OXE d   1       1.862   0.867   1.464  0.00  0.00    -0.002 A 
ATOM      7  C5  OXE d   1       2.376   0.871   0.163  0.00  0.00    -0.002 A 
ATOM      8  C6  OXE d   1       3.699   1.246  -0.045  0.00  0.00     0.003 A 
ENDROOT
TORSDOF 0
ENDMDL
