MODEL 1
REMARK minimizedAffinity 1.38416886
REMARK minimizedRMSD -1
REMARK  0 active torsions:
REMARK  status: ('A' for Active; 'I' for Inactive)
ROOT
ATOM      1  C2' OXE d   1       5.725   5.964   5.939  0.00  0.00     0.078 C 
ATOM      2  C1' OXE d   1       5.052   5.998   3.214  0.00  0.00     0.078 C 
ATOM      3  C1  OXE d   1       4.962   4.681   3.944  0.00  0.00    -0.078 A 
ATOM      4  C2  OXE d   1       5.338   4.664   5.265  0.00  0.00    -0.078 A 
ATOM      5  C3  OXE d   1       5.223   3.488   6.000  0.00  0.00     0.003 A 
ATOM      6  C4  OXE d   1       4.874   2.288   5.367  0.00  0.00    -0.002 A 
ATOM      7  C5  OXE d   1       4.526   2.276   4.012  0.00  0.00    -0.002 A 
ATOM      8  C6  OXE d   1       4.524   3.469   3.298  0.00  0.00     0.003 A 
ENDROOT
TORSDOF 0
ENDMDL
