MODEL 1
REMARK minimizedAffinity 12.1957808
REMARK minimizedRMSD -1
REMARK  0 active torsions:
REMARK  status: ('A' for Active; 'I' for Inactive)
ROOT
ATOM      1  C2' OXE d   1       1.596   1.227   5.458  0.00  0.00     0.078 C 
ATOM      2  C1' OXE d   1       4.293   1.621   4.785  0.00  0.00     0.078 C 
ATOM      3  C1  OXE d   1       3.304   1.451   3.659  0.00  0.00    -0.078 A 
ATOM      4  C2  OXE d   1       1.994   1.212   3.998  0.00  0.00    -0.078 A 
ATOM      5  C3  OXE d   1       1.032   1.102   2.998  0.00  0.00     0.003 A 
ATOM      6  C4  OXE d   1       1.411   1.079   1.650  0.00  0.00    -0.002 A 
ATOM      7  C5  OXE d   1       2.746   1.281   1.284  0.00  0.00    -0.002 A 
ATOM      8  C6  OXE d   1       3.696   1.511   2.272  0.00  0.00     0.003 A 
ENDROOT
TORSDOF 0
ENDMDL
