MODEL 1
REMARK minimizedAffinity -3.00453568
REMARK minimizedRMSD -1
REMARK  0 active torsions:
REMARK  status: ('A' for Active; 'I' for Inactive)
ROOT
ATOM      1  C2' OXE d   1       3.647   3.376  -4.153  0.00  0.00     0.078 C 
ATOM      2  C1' OXE d   1       2.425   1.429  -2.542  0.00  0.00     0.078 C 
ATOM      3  C1  OXE d   1       1.673   1.909  -3.758  0.00  0.00    -0.078 A 
ATOM      4  C2  OXE d   1       2.258   2.895  -4.514  0.00  0.00    -0.078 A 
ATOM      5  C3  OXE d   1       1.632   3.335  -5.677  0.00  0.00     0.003 A 
ATOM      6  C4  OXE d   1       0.343   2.893  -5.999  0.00  0.00    -0.002 A 
ATOM      7  C5  OXE d   1      -0.288   1.918  -5.220  0.00  0.00    -0.002 A 
ATOM      8  C6  OXE d   1       0.379   1.385  -4.122  0.00  0.00     0.003 A 
ENDROOT
TORSDOF 0
ENDMDL
