MODEL 1
REMARK minimizedAffinity 8.16648006
REMARK minimizedRMSD -1
REMARK  0 active torsions:
REMARK  status: ('A' for Active; 'I' for Inactive)
ROOT
ATOM      1  C2' OXE d   1      -0.390   3.592  -1.184  0.00  0.00     0.078 C 
ATOM      2  C1' OXE d   1      -2.568   2.910   0.451  0.00  0.00     0.078 C 
ATOM      3  C1  OXE d   1      -1.185   2.814   1.045  0.00  0.00    -0.078 A 
ATOM      4  C2  OXE d   1      -0.122   3.104   0.224  0.00  0.00    -0.078 A 
ATOM      5  C3  OXE d   1       1.172   3.084   0.737  0.00  0.00     0.003 A 
ATOM      6  C4  OXE d   1       1.411   2.622   2.037  0.00  0.00    -0.002 A 
ATOM      7  C5  OXE d   1       0.346   2.284   2.878  0.00  0.00    -0.002 A 
ATOM      8  C6  OXE d   1      -0.958   2.414   2.412  0.00  0.00     0.003 A 
ENDROOT
TORSDOF 0
ENDMDL
