MODEL 1
REMARK minimizedAffinity 10.3440113
REMARK minimizedRMSD -1
REMARK  0 active torsions:
REMARK  status: ('A' for Active; 'I' for Inactive)
ROOT
ATOM      1  C2' OXE d   1       2.155   1.559   1.080  0.00  0.00     0.078 C 
ATOM      2  C1' OXE d   1       0.228   2.406  -0.778  0.00  0.00     0.078 C 
ATOM      3  C1  OXE d   1      -0.170   2.358   0.676  0.00  0.00    -0.078 A 
ATOM      4  C2  OXE d   1       0.765   1.899   1.573  0.00  0.00    -0.078 A 
ATOM      5  C3  OXE d   1       0.467   1.886   2.933  0.00  0.00     0.003 A 
ATOM      6  C4  OXE d   1      -0.824   2.192   3.379  0.00  0.00    -0.002 A 
ATOM      7  C5  OXE d   1      -1.803   2.625   2.477  0.00  0.00    -0.002 A 
ATOM      8  C6  OXE d   1      -1.480   2.754   1.131  0.00  0.00     0.003 A 
ENDROOT
TORSDOF 0
ENDMDL
