MODEL 1
REMARK minimizedAffinity 10.0805855
REMARK minimizedRMSD -1
REMARK  0 active torsions:
REMARK  status: ('A' for Active; 'I' for Inactive)
ROOT
ATOM      1  C2' OXE d   1      -1.292  -3.011   2.340  0.00  0.00     0.078 C 
ATOM      2  C1' OXE d   1      -2.312  -5.590   2.774  0.00  0.00     0.078 C 
ATOM      3  C1  OXE d   1      -2.123  -5.139   1.347  0.00  0.00    -0.078 A 
ATOM      4  C2  OXE d   1      -1.668  -3.858   1.144  0.00  0.00    -0.078 A 
ATOM      5  C3  OXE d   1      -1.425  -3.411  -0.151  0.00  0.00     0.003 A 
ATOM      6  C4  OXE d   1      -1.784  -4.197  -1.252  0.00  0.00    -0.002 A 
ATOM      7  C5  OXE d   1      -2.287  -5.490  -1.068  0.00  0.00    -0.002 A 
ATOM      8  C6  OXE d   1      -2.422  -5.990   0.222  0.00  0.00     0.003 A 
ENDROOT
TORSDOF 0
ENDMDL
