MODEL 1
REMARK minimizedAffinity 3.61557841
REMARK minimizedRMSD -1
REMARK  0 active torsions:
REMARK  status: ('A' for Active; 'I' for Inactive)
ROOT
ATOM      1  C2' OXE d   1       3.791   5.993   2.476  0.00  0.00     0.078 C 
ATOM      2  C1' OXE d   1       3.061   3.347   1.890  0.00  0.00     0.078 C 
ATOM      3  C1  OXE d   1       4.034   4.030   0.962  0.00  0.00    -0.078 A 
ATOM      4  C2  OXE d   1       4.350   5.340   1.230  0.00  0.00    -0.078 A 
ATOM      5  C3  OXE d   1       5.285   6.000   0.438  0.00  0.00     0.003 A 
ATOM      6  C4  OXE d   1       5.789   5.392  -0.718  0.00  0.00    -0.002 A 
ATOM      7  C5  OXE d   1       5.449   4.071  -1.032  0.00  0.00    -0.002 A 
ATOM      8  C6  OXE d   1       4.608   3.364  -0.181  0.00  0.00     0.003 A 
ENDROOT
TORSDOF 0
ENDMDL
