MODEL 1
REMARK minimizedAffinity 4.58112001
REMARK minimizedRMSD -1
REMARK  0 active torsions:
REMARK  status: ('A' for Active; 'I' for Inactive)
ROOT
ATOM      1  C2' OXE d   1      -5.292   3.339  -5.992  0.00  0.00     0.078 C 
ATOM      2  C1' OXE d   1      -4.397   5.999  -6.000  0.00  0.00     0.078 C 
ATOM      3  C1  OXE d   1      -3.449   4.939  -5.496  0.00  0.00    -0.078 A 
ATOM      4  C2  OXE d   1      -3.912   3.646  -5.452  0.00  0.00    -0.078 A 
ATOM      5  C3  OXE d   1      -3.061   2.622  -5.047  0.00  0.00     0.003 A 
ATOM      6  C4  OXE d   1      -1.790   2.917  -4.540  0.00  0.00    -0.002 A 
ATOM      7  C5  OXE d   1      -1.313   4.232  -4.538  0.00  0.00    -0.002 A 
ATOM      8  C6  OXE d   1      -2.112   5.247  -5.051  0.00  0.00     0.003 A 
ENDROOT
TORSDOF 0
ENDMDL
