MODEL 1
REMARK minimizedAffinity 0.0781950876
REMARK minimizedRMSD -1
REMARK  0 active torsions:
REMARK  status: ('A' for Active; 'I' for Inactive)
ROOT
ATOM      1  N1  IND d   1      -0.498   0.733  -1.552  0.00  0.00    -0.196 N 
ATOM      2  C2  IND d   1       0.375   0.221  -2.471  0.00  0.00     0.054 A 
ATOM      3  C3  IND d   1       0.930  -0.921  -2.007  0.00  0.00    -0.031 A 
ATOM      4  C4  IND d   1       0.475  -2.186   0.189  0.00  0.00     0.051 A 
ATOM      5  C5  IND d   1      -0.215  -2.090   1.364  0.00  0.00    -0.031 A 
ATOM      6  C6  IND d   1      -1.054  -1.027   1.632  0.00  0.00     0.015 A 
ATOM      7  C7  IND d   1      -1.244  -0.023   0.725  0.00  0.00    -0.016 A 
ATOM      8  C8  IND d   1      -0.539  -0.114  -0.467  0.00  0.00    -0.047 A 
ATOM      9  C9  IND d   1       0.346  -1.168  -0.726  0.00  0.00    -0.096 A 
ATOM     10  HN1 IND d   1      -0.947   1.462  -1.638  0.00  0.00     0.298 HD
ENDROOT
TORSDOF 0
ENDMDL
