MODEL 1
REMARK minimizedAffinity -4.10454273
REMARK minimizedRMSD -1
REMARK  0 active torsions:
REMARK  status: ('A' for Active; 'I' for Inactive)
ROOT
ATOM      1  N1  IND d   1      -0.225   0.963  -0.835  0.00  0.00    -0.196 N 
ATOM      2  C2  IND d   1       0.289   0.237  -1.874  0.00  0.00     0.054 A 
ATOM      3  C3  IND d   1       0.344  -1.074  -1.549  0.00  0.00    -0.031 A 
ATOM      4  C4  IND d   1      -0.448  -2.264   0.591  0.00  0.00     0.051 A 
ATOM      5  C5  IND d   1      -0.953  -2.017   1.837  0.00  0.00    -0.031 A 
ATOM      6  C6  IND d   1      -1.250  -0.739   2.264  0.00  0.00     0.015 A 
ATOM      7  C7  IND d   1      -1.062   0.344   1.452  0.00  0.00    -0.016 A 
ATOM      8  C8  IND d   1      -0.543   0.098   0.189  0.00  0.00    -0.047 A 
ATOM      9  C9  IND d   1      -0.200  -1.193  -0.234  0.00  0.00    -0.096 A 
ATOM     10  HN1 IND d   1      -0.332   1.816  -0.824  0.00  0.00     0.298 HD
ENDROOT
TORSDOF 0
ENDMDL
