MODEL 1
REMARK minimizedAffinity -1.01531768
REMARK minimizedRMSD -1
REMARK  0 active torsions:
REMARK  status: ('A' for Active; 'I' for Inactive)
ROOT
ATOM      1  N1  IND d   1       1.186   0.559  -0.456  0.00  0.00    -0.196 N 
ATOM      2  C2  IND d   1       1.161   1.882  -0.113  0.00  0.00     0.054 A 
ATOM      3  C3  IND d   1       0.195   2.112   0.804  0.00  0.00    -0.031 A 
ATOM      4  C4  IND d   1      -1.395   0.448   1.957  0.00  0.00     0.051 A 
ATOM      5  C5  IND d   1      -1.774  -0.865   1.945  0.00  0.00    -0.031 A 
ATOM      6  C6  IND d   1      -1.171  -1.790   1.117  0.00  0.00     0.015 A 
ATOM      7  C7  IND d   1      -0.155  -1.437   0.275  0.00  0.00    -0.016 A 
ATOM      8  C8  IND d   1       0.227  -0.103   0.279  0.00  0.00    -0.047 A 
ATOM      9  C9  IND d   1      -0.410   0.849   1.087  0.00  0.00    -0.096 A 
ATOM     10  HN1 IND d   1       1.711   0.200  -1.034  0.00  0.00     0.298 HD
ENDROOT
TORSDOF 0
ENDMDL
