MODEL 1
REMARK minimizedAffinity 2.85099983
REMARK minimizedRMSD -1
REMARK  0 active torsions:
REMARK  status: ('A' for Active; 'I' for Inactive)
ROOT
ATOM      1  N1  IND d   1       0.638   0.623  -2.195  0.00  0.00    -0.196 N 
ATOM      2  C2  IND d   1       0.975  -0.440  -2.985  0.00  0.00     0.054 A 
ATOM      3  C3  IND d   1       0.538  -1.594  -2.432  0.00  0.00    -0.031 A 
ATOM      4  C4  IND d   1      -0.839  -1.962  -0.288  0.00  0.00     0.051 A 
ATOM      5  C5  IND d   1      -1.355  -1.296   0.789  0.00  0.00    -0.031 A 
ATOM      6  C6  IND d   1      -1.233   0.072   0.927  0.00  0.00     0.015 A 
ATOM      7  C7  IND d   1      -0.597   0.829  -0.016  0.00  0.00    -0.016 A 
ATOM      8  C8  IND d   1      -0.066   0.156  -1.107  0.00  0.00    -0.047 A 
ATOM      9  C9  IND d   1      -0.150  -1.237  -1.231  0.00  0.00    -0.096 A 
ATOM     10  HN1 IND d   1       0.833   1.446  -2.351  0.00  0.00     0.298 HD
ENDROOT
TORSDOF 0
ENDMDL
