MODEL 1
REMARK minimizedAffinity -1.84050393
REMARK minimizedRMSD -1
REMARK  0 active torsions:
REMARK  status: ('A' for Active; 'I' for Inactive)
ROOT
ATOM      1  N1  IND d   1       0.481   0.782  -2.495  0.00  0.00    -0.196 N 
ATOM      2  C2  IND d   1       0.745  -0.238  -3.367  0.00  0.00     0.054 A 
ATOM      3  C3  IND d   1       0.517  -1.432  -2.777  0.00  0.00    -0.031 A 
ATOM      4  C4  IND d   1      -0.390  -1.947  -0.423  0.00  0.00     0.051 A 
ATOM      5  C5  IND d   1      -0.743  -1.344   0.751  0.00  0.00    -0.031 A 
ATOM      6  C6  IND d   1      -0.708   0.027   0.906  0.00  0.00     0.015 A 
ATOM      7  C7  IND d   1      -0.328   0.850  -0.117  0.00  0.00    -0.016 A 
ATOM      8  C8  IND d   1       0.038   0.240  -1.308  0.00  0.00    -0.047 A 
ATOM      9  C9  IND d   1       0.045  -1.153  -1.457  0.00  0.00    -0.096 A 
ATOM     10  HN1 IND d   1       0.575   1.620  -2.660  0.00  0.00     0.298 HD
ENDROOT
TORSDOF 0
ENDMDL
