MODEL 1
REMARK minimizedAffinity -5.77351379
REMARK minimizedRMSD -1
REMARK  0 active torsions:
REMARK  status: ('A' for Active; 'I' for Inactive)
ROOT
ATOM      1  N1  IND d   1      -1.024   0.562  -0.059  0.00  0.00    -0.196 N 
ATOM      2  C2  IND d   1      -0.561   1.150  -1.203  0.00  0.00     0.054 A 
ATOM      3  C3  IND d   1       0.303   0.326  -1.838  0.00  0.00    -0.031 A 
ATOM      4  C4  IND d   1       1.023  -2.070  -1.233  0.00  0.00     0.051 A 
ATOM      5  C5  IND d   1       0.895  -3.020  -0.259  0.00  0.00    -0.031 A 
ATOM      6  C6  IND d   1       0.102  -2.821   0.853  0.00  0.00     0.015 A 
ATOM      7  C7  IND d   1      -0.604  -1.665   1.027  0.00  0.00    -0.016 A 
ATOM      8  C8  IND d   1      -0.470  -0.695   0.043  0.00  0.00    -0.047 A 
ATOM      9  C9  IND d   1       0.366  -0.874  -1.066  0.00  0.00    -0.096 A 
ATOM     10  HN1 IND d   1      -1.570   0.918   0.503  0.00  0.00     0.298 HD
ENDROOT
TORSDOF 0
ENDMDL
