MODEL 1
REMARK minimizedAffinity -4.47199106
REMARK minimizedRMSD -1
REMARK  0 active torsions:
REMARK  status: ('A' for Active; 'I' for Inactive)
ROOT
ATOM      1  N1  IND d   1      -0.088  -3.631  -0.025  0.00  0.00    -0.196 N 
ATOM      2  C2  IND d   1       0.428  -3.766  -1.283  0.00  0.00     0.054 A 
ATOM      3  C3  IND d   1       0.468  -2.567  -1.906  0.00  0.00    -0.031 A 
ATOM      4  C4  IND d   1      -0.167  -0.238  -1.012  0.00  0.00     0.051 A 
ATOM      5  C5  IND d   1      -0.721   0.386   0.071  0.00  0.00    -0.031 A 
ATOM      6  C6  IND d   1      -1.098  -0.311   1.200  0.00  0.00     0.015 A 
ATOM      7  C7  IND d   1      -0.923  -1.662   1.295  0.00  0.00    -0.016 A 
ATOM      8  C8  IND d   1      -0.367  -2.300   0.195  0.00  0.00    -0.047 A 
ATOM      9  C9  IND d   1      -0.022  -1.604  -0.971  0.00  0.00    -0.096 A 
ATOM     10  HN1 IND d   1      -0.217  -4.271   0.536  0.00  0.00     0.298 HD
ENDROOT
TORSDOF 0
ENDMDL
