MODEL 1
REMARK minimizedAffinity -1.08041286
REMARK minimizedRMSD -1
REMARK  0 active torsions:
REMARK  status: ('A' for Active; 'I' for Inactive)
ROOT
ATOM      1  N1  IND d   1      -1.251  -0.564   1.777  0.00  0.00    -0.196 N 
ATOM      2  C2  IND d   1      -1.234  -1.930   1.805  0.00  0.00     0.054 A 
ATOM      3  C3  IND d   1      -0.796  -2.420   0.624  0.00  0.00    -0.031 A 
ATOM      4  C4  IND d   1       0.044  -1.159  -1.458  0.00  0.00     0.051 A 
ATOM      5  C5  IND d   1       0.182   0.099  -1.972  0.00  0.00    -0.031 A 
ATOM      6  C6  IND d   1      -0.155   1.224  -1.247  0.00  0.00     0.015 A 
ATOM      7  C7  IND d   1      -0.634   1.132   0.029  0.00  0.00    -0.016 A 
ATOM      8  C8  IND d   1      -0.782  -0.145   0.552  0.00  0.00    -0.047 A 
ATOM      9  C9  IND d   1      -0.482  -1.292  -0.194  0.00  0.00    -0.096 A 
ATOM     10  HN1 IND d   1      -1.511  -0.052   2.417  0.00  0.00     0.298 HD
ENDROOT
TORSDOF 0
ENDMDL
