MODEL 1
REMARK minimizedAffinity -5.19111919
REMARK minimizedRMSD -1
REMARK  0 active torsions:
REMARK  status: ('A' for Active; 'I' for Inactive)
ROOT
ATOM      1  N1  IND d   1       1.096  -0.139  -1.790  0.00  0.00    -0.196 N 
ATOM      2  C2  IND d   1       0.963   1.221  -1.818  0.00  0.00     0.054 A 
ATOM      3  C3  IND d   1       0.158   1.635  -0.814  0.00  0.00    -0.031 A 
ATOM      4  C4  IND d   1      -0.967   0.264   1.052  0.00  0.00     0.051 A 
ATOM      5  C5  IND d   1      -1.167  -1.021   1.473  0.00  0.00    -0.031 A 
ATOM      6  C6  IND d   1      -0.610  -2.099   0.817  0.00  0.00     0.015 A 
ATOM      7  C7  IND d   1       0.181  -1.931  -0.284  0.00  0.00    -0.016 A 
ATOM      8  C8  IND d   1       0.381  -0.628  -0.719  0.00  0.00    -0.047 A 
ATOM      9  C9  IND d   1      -0.216   0.467  -0.082  0.00  0.00    -0.096 A 
ATOM     10  HN1 IND d   1       1.550  -0.610  -2.349  0.00  0.00     0.298 HD
ENDROOT
TORSDOF 0
ENDMDL
