MODEL 1
REMARK minimizedAffinity -1.46042943
REMARK minimizedRMSD -1
REMARK  0 active torsions:
REMARK  status: ('A' for Active; 'I' for Inactive)
ROOT
ATOM      1  N1  IND d   1       0.018   1.659   0.388  0.00  0.00    -0.196 N 
ATOM      2  C2  IND d   1      -0.420   1.477   1.670  0.00  0.00     0.054 A 
ATOM      3  C3  IND d   1      -0.681   0.170   1.897  0.00  0.00    -0.031 A 
ATOM      4  C4  IND d   1      -0.363  -1.855   0.341  0.00  0.00     0.051 A 
ATOM      5  C5  IND d   1      -0.022  -2.186  -0.941  0.00  0.00    -0.031 A 
ATOM      6  C6  IND d   1       0.359  -1.233  -1.863  0.00  0.00     0.015 A 
ATOM      7  C7  IND d   1       0.426   0.091  -1.533  0.00  0.00    -0.016 A 
ATOM      8  C8  IND d   1       0.074   0.431  -0.234  0.00  0.00    -0.047 A 
ATOM      9  C9  IND d   1      -0.355  -0.527   0.693  0.00  0.00    -0.096 A 
ATOM     10  HN1 IND d   1       0.223   2.413   0.030  0.00  0.00     0.298 HD
ENDROOT
TORSDOF 0
ENDMDL
