MODEL 1
REMARK minimizedAffinity -2.51644897
REMARK minimizedRMSD -1
REMARK  0 active torsions:
REMARK  status: ('A' for Active; 'I' for Inactive)
ROOT
ATOM      1  N1  IND d   1       0.309  -0.640  -2.365  0.00  0.00    -0.196 N 
ATOM      2  C2  IND d   1       0.423   0.706  -2.153  0.00  0.00     0.054 A 
ATOM      3  C3  IND d   1      -0.000   1.024  -0.909  0.00  0.00    -0.031 A 
ATOM      4  C4  IND d   1      -0.823  -0.516   0.982  0.00  0.00     0.051 A 
ATOM      5  C5  IND d   1      -1.135  -1.819   1.252  0.00  0.00    -0.031 A 
ATOM      6  C6  IND d   1      -0.977  -2.816   0.311  0.00  0.00     0.015 A 
ATOM      7  C7  IND d   1      -0.487  -2.548  -0.936  0.00  0.00    -0.016 A 
ATOM      8  C8  IND d   1      -0.175  -1.225  -1.215  0.00  0.00    -0.047 A 
ATOM      9  C9  IND d   1      -0.374  -0.202  -0.279  0.00  0.00    -0.096 A 
ATOM     10  HN1 IND d   1       0.506  -1.052  -3.093  0.00  0.00     0.298 HD
ENDROOT
TORSDOF 0
ENDMDL
