MODEL 1
REMARK minimizedAffinity -3.16922927
REMARK minimizedRMSD -1
REMARK  0 active torsions:
REMARK  status: ('A' for Active; 'I' for Inactive)
ROOT
ATOM      1  N1  IND d   1       0.010   3.507   0.523  0.00  0.00    -0.196 N 
ATOM      2  C2  IND d   1       1.123   3.976   1.163  0.00  0.00     0.054 A 
ATOM      3  C3  IND d   1       2.206   3.241   0.824  0.00  0.00    -0.031 A 
ATOM      4  C4  IND d   1       2.401   1.288  -0.841  0.00  0.00     0.051 A 
ATOM      5  C5  IND d   1       1.648   0.477  -1.644  0.00  0.00    -0.031 A 
ATOM      6  C6  IND d   1       0.283   0.640  -1.770  0.00  0.00     0.015 A 
ATOM      7  C7  IND d   1      -0.380   1.632  -1.104  0.00  0.00    -0.016 A 
ATOM      8  C8  IND d   1       0.380   2.452  -0.282  0.00  0.00    -0.047 A 
ATOM      9  C9  IND d   1       1.759   2.264  -0.118  0.00  0.00    -0.096 A 
ATOM     10  HN1 IND d   1      -0.786   3.818   0.609  0.00  0.00     0.298 HD
ENDROOT
TORSDOF 0
ENDMDL
