MODEL 1
REMARK minimizedAffinity 2.02018857
REMARK minimizedRMSD -1
REMARK  0 active torsions:
REMARK  status: ('A' for Active; 'I' for Inactive)
ROOT
ATOM      1  N1  IND d   1       2.075   2.450   0.069  0.00  0.00    -0.196 N 
ATOM      2  C2  IND d   1       1.859   3.512   0.903  0.00  0.00     0.054 A 
ATOM      3  C3  IND d   1       0.766   3.293   1.668  0.00  0.00    -0.031 A 
ATOM      4  C4  IND d   1      -0.757   1.222   1.791  0.00  0.00     0.051 A 
ATOM      5  C5  IND d   1      -0.980   0.012   1.196  0.00  0.00    -0.031 A 
ATOM      6  C6  IND d   1      -0.179  -0.458   0.176  0.00  0.00     0.015 A 
ATOM      7  C7  IND d   1       0.888   0.264  -0.282  0.00  0.00    -0.016 A 
ATOM      8  C8  IND d   1       1.113   1.496   0.316  0.00  0.00    -0.047 A 
ATOM      9  C9  IND d   1       0.278   1.996   1.322  0.00  0.00    -0.096 A 
ATOM     10  HN1 IND d   1       2.706   2.390  -0.513  0.00  0.00     0.298 HD
ENDROOT
TORSDOF 0
ENDMDL
