MODEL 1
REMARK minimizedAffinity -2.86964417
REMARK minimizedRMSD -1
REMARK  0 active torsions:
REMARK  status: ('A' for Active; 'I' for Inactive)
ROOT
ATOM      1  N1  IND d   1      -0.199   1.382  -1.718  0.00  0.00    -0.196 N 
ATOM      2  C2  IND d   1      -0.009   2.366  -0.788  0.00  0.00     0.054 A 
ATOM      3  C3  IND d   1       0.104   1.829   0.448  0.00  0.00    -0.031 A 
ATOM      4  C4  IND d   1       0.110  -0.644   1.163  0.00  0.00     0.051 A 
ATOM      5  C5  IND d   1      -0.069  -1.907   0.673  0.00  0.00    -0.031 A 
ATOM      6  C6  IND d   1      -0.302  -2.144  -0.666  0.00  0.00     0.015 A 
ATOM      7  C7  IND d   1      -0.354  -1.122  -1.571  0.00  0.00    -0.016 A 
ATOM      8  C8  IND d   1      -0.180   0.163  -1.077  0.00  0.00    -0.047 A 
ATOM      9  C9  IND d   1       0.014   0.413   0.288  0.00  0.00    -0.096 A 
ATOM     10  HN1 IND d   1      -0.312   1.504  -2.562  0.00  0.00     0.298 HD
ENDROOT
TORSDOF 0
ENDMDL
