MODEL 1
REMARK minimizedAffinity -5.18061972
REMARK minimizedRMSD -1
REMARK  0 active torsions:
REMARK  status: ('A' for Active; 'I' for Inactive)
ROOT
ATOM      1  C   UNL d   1      -0.118  -3.656  -0.910  0.00  0.00     0.023 A 
ATOM      2  C1  UNL d   1       0.509  -2.791  -1.807  0.00  0.00     0.003 A 
ATOM      3  C2  UNL d   1       0.535  -1.418  -1.552  0.00  0.00     0.048 A 
ATOM      4  C3  UNL d   1      -0.068  -0.918  -0.398  0.00  0.00     0.023 A 
ATOM      5  C4  UNL d   1      -0.696  -1.780   0.502  0.00  0.00     0.048 A 
ATOM      6  C5  UNL d   1      -0.720  -3.151   0.242  0.00  0.00     0.003 A 
ATOM      7  I   UNL d   1      -0.030   1.125  -0.017  0.00  0.00    -0.146 I 
ENDROOT
TORSDOF 0
ENDMDL
