MODEL 1
REMARK minimizedAffinity -1.87597799
REMARK minimizedRMSD -1
REMARK  0 active torsions:
REMARK  status: ('A' for Active; 'I' for Inactive)
ROOT
ATOM      1  C   UNL d   1      -0.923  -2.328   0.822  0.00  0.00     0.023 A 
ATOM      2  C1  UNL d   1       0.128  -2.027  -0.044  0.00  0.00     0.003 A 
ATOM      3  C2  UNL d   1       0.496  -0.698  -0.263  0.00  0.00     0.048 A 
ATOM      4  C3  UNL d   1      -0.190   0.326   0.389  0.00  0.00     0.023 A 
ATOM      5  C4  UNL d   1      -1.242   0.030   1.258  0.00  0.00     0.048 A 
ATOM      6  C5  UNL d   1      -1.607  -1.301   1.473  0.00  0.00     0.003 A 
ATOM      7  I   UNL d   1       0.356   2.305   0.065  0.00  0.00    -0.146 I 
ENDROOT
TORSDOF 0
ENDMDL
