MODEL 1
REMARK minimizedAffinity -3.57240105
REMARK minimizedRMSD -1
REMARK  0 active torsions:
REMARK  status: ('A' for Active; 'I' for Inactive)
ROOT
ATOM      1  C   UNL d   1       2.397   3.463   0.670  0.00  0.00     0.023 A 
ATOM      2  C1  UNL d   1       2.588   4.626   1.417  0.00  0.00     0.003 A 
ATOM      3  C2  UNL d   1       1.488   5.355   1.870  0.00  0.00     0.048 A 
ATOM      4  C3  UNL d   1       0.198   4.916   1.574  0.00  0.00     0.023 A 
ATOM      5  C4  UNL d   1       0.001   3.752   0.829  0.00  0.00     0.048 A 
ATOM      6  C5  UNL d   1       1.105   3.026   0.377  0.00  0.00     0.003 A 
ATOM      7  I   UNL d   1      -1.442   6.000   2.248  0.00  0.00    -0.146 I 
ENDROOT
TORSDOF 0
ENDMDL
