MODEL 1
REMARK minimizedAffinity -3.11340475
REMARK minimizedRMSD -1
REMARK  0 active torsions:
REMARK  status: ('A' for Active; 'I' for Inactive)
ROOT
ATOM      1  C   UNL d   1       2.187   4.337   0.619  0.00  0.00     0.023 A 
ATOM      2  C1  UNL d   1       0.894   4.022   1.038  0.00  0.00     0.003 A 
ATOM      3  C2  UNL d   1       0.307   2.816   0.649  0.00  0.00     0.048 A 
ATOM      4  C3  UNL d   1       1.019   1.929  -0.158  0.00  0.00     0.023 A 
ATOM      5  C4  UNL d   1       2.313   2.239  -0.579  0.00  0.00     0.048 A 
ATOM      6  C5  UNL d   1       2.895   3.447  -0.188  0.00  0.00     0.003 A 
ATOM      7  I   UNL d   1       0.147   0.133  -0.738  0.00  0.00    -0.146 I 
ENDROOT
TORSDOF 0
ENDMDL
