MODEL 1
REMARK minimizedAffinity -4.2447443
REMARK minimizedRMSD -1
REMARK  0 active torsions:
REMARK  status: ('A' for Active; 'I' for Inactive)
ROOT
ATOM      1  C   UNL d   1      -0.694  -2.501   1.142  0.00  0.00     0.023 A 
ATOM      2  C1  UNL d   1       0.351  -2.399   0.223  0.00  0.00     0.003 A 
ATOM      3  C2  UNL d   1       0.758  -1.145  -0.237  0.00  0.00     0.048 A 
ATOM      4  C3  UNL d   1       0.117   0.003   0.228  0.00  0.00     0.023 A 
ATOM      5  C4  UNL d   1      -0.928  -0.094   1.148  0.00  0.00     0.048 A 
ATOM      6  C5  UNL d   1      -1.332  -1.350   1.604  0.00  0.00     0.003 A 
ATOM      7  I   UNL d   1       0.721   1.871  -0.455  0.00  0.00    -0.146 I 
ENDROOT
TORSDOF 0
ENDMDL
