MODEL 1
REMARK minimizedAffinity -2.99046278
REMARK minimizedRMSD -1
REMARK  0 active torsions:
REMARK  status: ('A' for Active; 'I' for Inactive)
ROOT
ATOM      1  C   UNL d   1       1.153   3.375   0.273  0.00  0.00     0.023 A 
ATOM      2  C1  UNL d   1       1.958   2.445   0.930  0.00  0.00     0.003 A 
ATOM      3  C2  UNL d   1       1.618   1.091   0.916  0.00  0.00     0.048 A 
ATOM      4  C3  UNL d   1       0.471   0.673   0.241  0.00  0.00     0.023 A 
ATOM      5  C4  UNL d   1      -0.337   1.600  -0.419  0.00  0.00     0.048 A 
ATOM      6  C5  UNL d   1       0.006   2.953  -0.401  0.00  0.00     0.003 A 
ATOM      7  I   UNL d   1      -0.037  -1.342   0.218  0.00  0.00    -0.146 I 
ENDROOT
TORSDOF 0
ENDMDL
