MODEL 1
REMARK minimizedAffinity -4.51110744
REMARK minimizedRMSD -1
REMARK  0 active torsions:
REMARK  status: ('A' for Active; 'I' for Inactive)
ROOT
ATOM      1  C   UNL d   1      -0.717  -2.613   0.830  0.00  0.00     0.023 A 
ATOM      2  C1  UNL d   1       0.122  -2.252  -0.225  0.00  0.00     0.003 A 
ATOM      3  C2  UNL d   1       0.349  -0.903  -0.507  0.00  0.00     0.048 A 
ATOM      4  C3  UNL d   1      -0.265   0.079   0.269  0.00  0.00     0.023 A 
ATOM      5  C4  UNL d   1      -1.104  -0.278   1.326  0.00  0.00     0.048 A 
ATOM      6  C5  UNL d   1      -1.329  -1.627   1.604  0.00  0.00     0.003 A 
ATOM      7  I   UNL d   1       0.072   2.087  -0.149  0.00  0.00    -0.146 I 
ENDROOT
TORSDOF 0
ENDMDL
