MODEL 1
REMARK minimizedAffinity -3.95351648
REMARK minimizedRMSD -1
REMARK  0 active torsions:
REMARK  status: ('A' for Active; 'I' for Inactive)
ROOT
ATOM      1  C   UNL d   1      -0.003  -3.853  -0.494  0.00  0.00     0.023 A 
ATOM      2  C1  UNL d   1       0.177  -3.025  -1.602  0.00  0.00     0.003 A 
ATOM      3  C2  UNL d   1       0.105  -1.638  -1.458  0.00  0.00     0.048 A 
ATOM      4  C3  UNL d   1      -0.147  -1.085  -0.203  0.00  0.00     0.023 A 
ATOM      5  C4  UNL d   1      -0.327  -1.910   0.909  0.00  0.00     0.048 A 
ATOM      6  C5  UNL d   1      -0.255  -3.296   0.760  0.00  0.00     0.003 A 
ATOM      7  I   UNL d   1      -0.255   0.979   0.014  0.00  0.00    -0.146 I 
ENDROOT
TORSDOF 0
ENDMDL
