MODEL 1
REMARK minimizedAffinity -2.66747808
REMARK minimizedRMSD -1
REMARK  0 active torsions:
REMARK  status: ('A' for Active; 'I' for Inactive)
ROOT
ATOM      1  C   UNL d   1      -0.752  -2.660   0.531  0.00  0.00     0.023 A 
ATOM      2  C1  UNL d   1      -0.489  -2.147  -0.739  0.00  0.00     0.003 A 
ATOM      3  C2  UNL d   1      -0.236  -0.783  -0.904  0.00  0.00     0.048 A 
ATOM      4  C3  UNL d   1      -0.247   0.061   0.206  0.00  0.00     0.023 A 
ATOM      5  C4  UNL d   1      -0.508  -0.448   1.479  0.00  0.00     0.048 A 
ATOM      6  C5  UNL d   1      -0.761  -1.812   1.639  0.00  0.00     0.003 A 
ATOM      7  I   UNL d   1       0.129   2.090  -0.037  0.00  0.00    -0.146 I 
ENDROOT
TORSDOF 0
ENDMDL
