MODEL 1
REMARK minimizedAffinity -3.1189096
REMARK minimizedRMSD -1
REMARK  0 active torsions:
REMARK  status: ('A' for Active; 'I' for Inactive)
ROOT
ATOM      1  C   UNL d   1      -0.611  -2.839   0.391  0.00  0.00     0.023 A 
ATOM      2  C1  UNL d   1      -1.450  -1.886   0.968  0.00  0.00     0.003 A 
ATOM      3  C2  UNL d   1      -1.123  -0.530   0.894  0.00  0.00     0.048 A 
ATOM      4  C3  UNL d   1       0.044  -0.135   0.241  0.00  0.00     0.023 A 
ATOM      5  C4  UNL d   1       0.886  -1.085  -0.338  0.00  0.00     0.048 A 
ATOM      6  C5  UNL d   1       0.556  -2.440  -0.261  0.00  0.00     0.003 A 
ATOM      7  I   UNL d   1       0.533   1.882   0.130  0.00  0.00    -0.146 I 
ENDROOT
TORSDOF 0
ENDMDL
