MODEL 1
REMARK minimizedAffinity -2.74135041
REMARK minimizedRMSD -1
REMARK  0 active torsions:
REMARK  status: ('A' for Active; 'I' for Inactive)
ROOT
ATOM      1  C   UNL d   1      -0.410   1.440  -0.026  0.00  0.00     0.023 A 
ATOM      2  C1  UNL d   1      -0.890   0.808   1.121  0.00  0.00     0.003 A 
ATOM      3  C2  UNL d   1      -0.815  -0.582   1.238  0.00  0.00     0.048 A 
ATOM      4  C3  UNL d   1      -0.257  -1.333   0.204  0.00  0.00     0.023 A 
ATOM      5  C4  UNL d   1       0.225  -0.705  -0.946  0.00  0.00     0.048 A 
ATOM      6  C5  UNL d   1       0.147   0.684  -1.058  0.00  0.00     0.003 A 
ATOM      7  I   UNL d   1      -0.144  -3.401   0.375  0.00  0.00    -0.146 I 
ENDROOT
TORSDOF 0
ENDMDL
