MODEL 1
REMARK minimizedAffinity 14.4265938
REMARK minimizedRMSD -1
REMARK  1 active torsions:
REMARK  status: ('A' for Active; 'I' for Inactive)
REMARK    1  A    between atoms: C3_4  and  O_7 
ROOT
ATOM      1  C   UNL d   1       0.343   3.952  -3.552  0.00  0.00    -0.033 A 
ATOM      2  C1  UNL d   1      -0.817   4.609  -3.137  0.00  0.00     0.039 A 
ATOM      3  C2  UNL d   1      -2.037   3.931  -3.122  0.00  0.00    -0.080 A 
ATOM      4  C3  UNL d   1      -2.084   2.599  -3.522  0.00  0.00     0.150 A 
ATOM      5  C4  UNL d   1      -0.931   1.937  -3.932  0.00  0.00    -0.007 A 
ATOM      6  C5  UNL d   1       0.286   2.616  -3.948  0.00  0.00     0.039 A 
ENDROOT
BRANCH   4   7
ATOM      7  O   UNL d   1      -3.253   1.897  -3.528  0.00  0.00    -0.526 OA
ATOM      8  H5  UNL d   1      -3.969   2.490  -3.247  0.00  0.00     0.418 HD
ENDBRANCH   4   7
TORSDOF 1
ENDMDL
