MODEL 1
REMARK minimizedAffinity 2.94835186
REMARK minimizedRMSD -1
REMARK  1 active torsions:
REMARK  status: ('A' for Active; 'I' for Inactive)
REMARK    1  A    between atoms: C3_4  and  O_7 
ROOT
ATOM      1  C   UNL d   1      -1.066  -1.487   1.483  0.00  0.00    -0.033 A 
ATOM      2  C1  UNL d   1      -0.601  -0.171   1.465  0.00  0.00     0.039 A 
ATOM      3  C2  UNL d   1       0.771   0.086   1.440  0.00  0.00    -0.080 A 
ATOM      4  C3  UNL d   1       1.666  -0.980   1.433  0.00  0.00     0.150 A 
ATOM      5  C4  UNL d   1       1.209  -2.294   1.447  0.00  0.00    -0.007 A 
ATOM      6  C5  UNL d   1      -0.161  -2.549   1.473  0.00  0.00     0.039 A 
ENDROOT
BRANCH   4   7
ATOM      7  O   UNL d   1       3.014  -0.779   1.414  0.00  0.00    -0.526 OA
ATOM      8  H5  UNL d   1       3.183   0.178   1.435  0.00  0.00     0.418 HD
ENDBRANCH   4   7
TORSDOF 1
ENDMDL
