MODEL 1
REMARK minimizedAffinity 4.7472682
REMARK minimizedRMSD -1
REMARK  1 active torsions:
REMARK  status: ('A' for Active; 'I' for Inactive)
REMARK    1  A    between atoms: C3_4  and  O_7 
ROOT
ATOM      1  C   UNL d   1      -1.394  -1.566   1.920  0.00  0.00    -0.033 A 
ATOM      2  C1  UNL d   1      -0.873  -2.280   0.839  0.00  0.00     0.039 A 
ATOM      3  C2  UNL d   1       0.339  -1.895   0.264  0.00  0.00    -0.080 A 
ATOM      4  C3  UNL d   1       1.021  -0.795   0.779  0.00  0.00     0.150 A 
ATOM      5  C4  UNL d   1       0.510  -0.081   1.858  0.00  0.00    -0.007 A 
ATOM      6  C5  UNL d   1      -0.701  -0.467   2.430  0.00  0.00     0.039 A 
ENDROOT
BRANCH   4   7
ATOM      7  O   UNL d   1       2.205  -0.378   0.247  0.00  0.00    -0.526 OA
ATOM      8  H5  UNL d   1       2.420  -0.948  -0.510  0.00  0.00     0.418 HD
ENDBRANCH   4   7
TORSDOF 1
ENDMDL
