MODEL 1
REMARK minimizedAffinity 4.8880949
REMARK minimizedRMSD -1
REMARK  1 active torsions:
REMARK  status: ('A' for Active; 'I' for Inactive)
REMARK    1  A    between atoms: C3_4  and  O_7 
ROOT
ATOM      1  C   UNL d   1       0.473  -1.089   0.653  0.00  0.00    -0.033 A 
ATOM      2  C1  UNL d   1       1.182  -0.407   1.644  0.00  0.00     0.039 A 
ATOM      3  C2  UNL d   1       0.705  -0.387   2.957  0.00  0.00    -0.080 A 
ATOM      4  C3  UNL d   1      -0.479  -1.052   3.264  0.00  0.00     0.150 A 
ATOM      5  C4  UNL d   1      -1.188  -1.736   2.282  0.00  0.00    -0.007 A 
ATOM      6  C5  UNL d   1      -0.711  -1.754   0.972  0.00  0.00     0.039 A 
ENDROOT
BRANCH   4   7
ATOM      7  O   UNL d   1      -0.986  -1.056   4.530  0.00  0.00    -0.526 OA
ATOM      8  H5  UNL d   1      -0.405  -0.519   5.095  0.00  0.00     0.418 HD
ENDBRANCH   4   7
TORSDOF 1
ENDMDL
