MODEL 1
REMARK minimizedAffinity 8.01849079
REMARK minimizedRMSD -1
REMARK  1 active torsions:
REMARK  status: ('A' for Active; 'I' for Inactive)
REMARK    1  A    between atoms: C3_4  and  O_7 
ROOT
ATOM      1  C   UNL d   1      -5.999  -3.919   5.691  0.00  0.00    -0.033 A 
ATOM      2  C1  UNL d   1      -5.848  -5.278   5.974  0.00  0.00     0.039 A 
ATOM      3  C2  UNL d   1      -4.775  -5.990   5.434  0.00  0.00    -0.080 A 
ATOM      4  C3  UNL d   1      -3.863  -5.332   4.613  0.00  0.00     0.150 A 
ATOM      5  C4  UNL d   1      -4.006  -3.978   4.330  0.00  0.00    -0.007 A 
ATOM      6  C5  UNL d   1      -5.078  -3.269   4.870  0.00  0.00     0.039 A 
ENDROOT
BRANCH   4   7
ATOM      7  O   UNL d   1      -2.803  -5.986   4.059  0.00  0.00    -0.526 OA
ATOM      8  H5  UNL d   1      -2.848  -6.922   4.318  0.00  0.00     0.418 HD
ENDBRANCH   4   7
TORSDOF 1
ENDMDL
