MODEL 1
REMARK minimizedAffinity 4.58781385
REMARK minimizedRMSD -1
REMARK  1 active torsions:
REMARK  status: ('A' for Active; 'I' for Inactive)
REMARK    1  A    between atoms: C3_4  and  O_7 
ROOT
ATOM      1  C   UNL d   1      -0.234   3.694  -3.255  0.00  0.00    -0.033 A 
ATOM      2  C1  UNL d   1      -1.314   4.511  -2.911  0.00  0.00     0.039 A 
ATOM      3  C2  UNL d   1      -2.594   4.212  -3.381  0.00  0.00    -0.080 A 
ATOM      4  C3  UNL d   1      -2.782   3.095  -4.190  0.00  0.00     0.150 A 
ATOM      5  C4  UNL d   1      -1.712   2.276  -4.533  0.00  0.00    -0.007 A 
ATOM      6  C5  UNL d   1      -0.434   2.576  -4.065  0.00  0.00     0.039 A 
ENDROOT
BRANCH   4   7
ATOM      7  O   UNL d   1      -4.013   2.766  -4.676  0.00  0.00    -0.526 OA
ATOM      8  H5  UNL d   1      -4.650   3.438  -4.381  0.00  0.00     0.418 HD
ENDBRANCH   4   7
TORSDOF 1
ENDMDL
