MODEL 1
REMARK minimizedAffinity 4.73693609
REMARK minimizedRMSD -1
REMARK  1 active torsions:
REMARK  status: ('A' for Active; 'I' for Inactive)
REMARK    1  A    between atoms: C3_4  and  O_7 
ROOT
ATOM      1  C   UNL d   1       0.503   3.637  -3.561  0.00  0.00    -0.033 A 
ATOM      2  C1  UNL d   1      -0.542   4.379  -3.006  0.00  0.00     0.039 A 
ATOM      3  C2  UNL d   1      -1.866   4.062  -3.314  0.00  0.00    -0.080 A 
ATOM      4  C3  UNL d   1      -2.132   3.001  -4.176  0.00  0.00     0.150 A 
ATOM      5  C4  UNL d   1      -1.096   2.255  -4.729  0.00  0.00    -0.007 A 
ATOM      6  C5  UNL d   1       0.226   2.574  -4.421  0.00  0.00     0.039 A 
ENDROOT
BRANCH   4   7
ATOM      7  O   UNL d   1      -3.408   2.657  -4.510  0.00  0.00    -0.526 OA
ATOM      8  H5  UNL d   1      -4.017   3.277  -4.076  0.00  0.00     0.418 HD
ENDBRANCH   4   7
TORSDOF 1
ENDMDL
