MODEL 1
REMARK minimizedAffinity 3.42771387
REMARK minimizedRMSD -1
REMARK  1 active torsions:
REMARK  status: ('A' for Active; 'I' for Inactive)
REMARK    1  A    between atoms: C3_4  and  O_7 
ROOT
ATOM      1  C   UNL d   1       0.523  -0.930   0.272  0.00  0.00    -0.033 A 
ATOM      2  C1  UNL d   1       1.215  -0.133   1.186  0.00  0.00     0.039 A 
ATOM      3  C2  UNL d   1       0.812  -0.092   2.523  0.00  0.00    -0.080 A 
ATOM      4  C3  UNL d   1      -0.280  -0.852   2.931  0.00  0.00     0.150 A 
ATOM      5  C4  UNL d   1      -0.971  -1.651   2.026  0.00  0.00    -0.007 A 
ATOM      6  C5  UNL d   1      -0.568  -1.690   0.692  0.00  0.00     0.039 A 
ENDROOT
BRANCH   4   7
ATOM      7  O   UNL d   1      -0.713  -0.841   4.224  0.00  0.00    -0.526 OA
ATOM      8  H5  UNL d   1      -0.158  -0.222   4.728  0.00  0.00     0.418 HD
ENDBRANCH   4   7
TORSDOF 1
ENDMDL
