MODEL 1
REMARK minimizedAffinity 5.80261707
REMARK minimizedRMSD -1
REMARK  1 active torsions:
REMARK  status: ('A' for Active; 'I' for Inactive)
REMARK    1  A    between atoms: C3_4  and  O_7 
ROOT
ATOM      1  C   UNL d   1      -1.063  -1.393   1.734  0.00  0.00    -0.033 A 
ATOM      2  C1  UNL d   1      -0.393  -2.329   0.943  0.00  0.00     0.039 A 
ATOM      3  C2  UNL d   1       0.928  -2.098   0.553  0.00  0.00    -0.080 A 
ATOM      4  C3  UNL d   1       1.566  -0.930   0.960  0.00  0.00     0.150 A 
ATOM      5  C4  UNL d   1       0.906   0.005   1.751  0.00  0.00    -0.007 A 
ATOM      6  C5  UNL d   1      -0.413  -0.227   2.139  0.00  0.00     0.039 A 
ENDROOT
BRANCH   4   7
ATOM      7  O   UNL d   1       2.853  -0.658   0.600  0.00  0.00    -0.526 OA
ATOM      8  H5  UNL d   1       3.172  -1.378   0.031  0.00  0.00     0.418 HD
ENDBRANCH   4   7
TORSDOF 1
ENDMDL
