MODEL 1
REMARK minimizedAffinity 8.64891624
REMARK minimizedRMSD -1
REMARK  1 active torsions:
REMARK  status: ('A' for Active; 'I' for Inactive)
REMARK    1  A    between atoms: C3_4  and  O_7 
ROOT
ATOM      1  C   UNL d   1      -1.861  -1.399   1.569  0.00  0.00    -0.033 A 
ATOM      2  C1  UNL d   1      -0.997  -1.982   0.641  0.00  0.00     0.039 A 
ATOM      3  C2  UNL d   1      -1.511  -2.734  -0.417  0.00  0.00    -0.080 A 
ATOM      4  C3  UNL d   1      -2.889  -2.893  -0.537  0.00  0.00     0.150 A 
ATOM      5  C4  UNL d   1      -3.756  -2.311   0.382  0.00  0.00    -0.007 A 
ATOM      6  C5  UNL d   1      -3.241  -1.562   1.439  0.00  0.00     0.039 A 
ENDROOT
BRANCH   4   7
ATOM      7  O   UNL d   1      -3.437  -3.622  -1.550  0.00  0.00    -0.526 OA
ATOM      8  H5  UNL d   1      -2.717  -3.988  -2.090  0.00  0.00     0.418 HD
ENDBRANCH   4   7
TORSDOF 1
ENDMDL
