MODEL 1
REMARK minimizedAffinity 2.47931767
REMARK minimizedRMSD -1
REMARK  1 active torsions:
REMARK  status: ('A' for Active; 'I' for Inactive)
REMARK    1  A    between atoms: C3_4  and  O_7 
ROOT
ATOM      1  C   UNL d   1      -0.043  -1.560   0.336  0.00  0.00    -0.033 A 
ATOM      2  C1  UNL d   1      -1.100  -2.344   0.800  0.00  0.00     0.039 A 
ATOM      3  C2  UNL d   1      -1.508  -2.252   2.133  0.00  0.00    -0.080 A 
ATOM      4  C3  UNL d   1      -0.851  -1.372   2.988  0.00  0.00     0.150 A 
ATOM      5  C4  UNL d   1       0.200  -0.584   2.531  0.00  0.00    -0.007 A 
ATOM      6  C5  UNL d   1       0.606  -0.678   1.201  0.00  0.00     0.039 A 
ENDROOT
BRANCH   4   7
ATOM      7  O   UNL d   1      -1.210  -1.250   4.298  0.00  0.00    -0.526 OA
ATOM      8  H5  UNL d   1      -1.931  -1.876   4.479  0.00  0.00     0.418 HD
ENDBRANCH   4   7
TORSDOF 1
ENDMDL
