MODEL 1
REMARK minimizedAffinity 9.9540987
REMARK minimizedRMSD -1
REMARK  1 active torsions:
REMARK  status: ('A' for Active; 'I' for Inactive)
REMARK    1  A    between atoms: C3_4  and  O_7 
ROOT
ATOM      1  C   UNL d   1      -0.544   1.845  -5.195  0.00  0.00    -0.033 A 
ATOM      2  C1  UNL d   1      -1.834   2.216  -4.809  0.00  0.00     0.039 A 
ATOM      3  C2  UNL d   1      -2.026   3.334  -3.994  0.00  0.00    -0.080 A 
ATOM      4  C3  UNL d   1      -0.923   4.071  -3.575  0.00  0.00     0.150 A 
ATOM      5  C4  UNL d   1       0.364   3.709  -3.959  0.00  0.00    -0.007 A 
ATOM      6  C5  UNL d   1       0.555   2.592  -4.771  0.00  0.00     0.039 A 
ENDROOT
BRANCH   4   7
ATOM      7  O   UNL d   1      -1.060   5.167  -2.775  0.00  0.00    -0.526 OA
ATOM      8  H5  UNL d   1      -2.003   5.280  -2.567  0.00  0.00     0.418 HD
ENDBRANCH   4   7
TORSDOF 1
ENDMDL
