MODEL 1
REMARK minimizedAffinity 0.316541016
REMARK minimizedRMSD -1
REMARK  1 active torsions:
REMARK  status: ('A' for Active; 'I' for Inactive)
REMARK    1  A    between atoms: C3_4  and  O_7 
ROOT
ATOM      1  C   UNL d   1       3.907  -5.967   6.000  0.00  0.00    -0.033 A 
ATOM      2  C1  UNL d   1       3.201  -5.987   4.795  0.00  0.00     0.039 A 
ATOM      3  C2  UNL d   1       3.890  -6.000   3.581  0.00  0.00    -0.080 A 
ATOM      4  C3  UNL d   1       5.282  -5.993   3.585  0.00  0.00     0.150 A 
ATOM      5  C4  UNL d   1       5.992  -5.977   4.781  0.00  0.00    -0.007 A 
ATOM      6  C5  UNL d   1       5.302  -5.963   5.993  0.00  0.00     0.039 A 
ENDROOT
BRANCH   4   7
ATOM      7  O   UNL d   1       5.998  -6.000   2.425  0.00  0.00    -0.526 OA
ATOM      8  H5  UNL d   1       5.376  -5.982   1.679  0.00  0.00     0.418 HD
ENDBRANCH   4   7
TORSDOF 1
ENDMDL
