MODEL 1
REMARK minimizedAffinity 3.11992288
REMARK minimizedRMSD -1
REMARK  1 active torsions:
REMARK  status: ('A' for Active; 'I' for Inactive)
REMARK    1  A    between atoms: C3_4  and  O_7 
ROOT
ATOM      1  C   UNL d   1       2.194   1.049  -0.530  0.00  0.00    -0.033 A 
ATOM      2  C1  UNL d   1       3.101   1.925  -1.128  0.00  0.00     0.039 A 
ATOM      3  C2  UNL d   1       4.176   1.425  -1.865  0.00  0.00    -0.080 A 
ATOM      4  C3  UNL d   1       4.331   0.047  -1.998  0.00  0.00     0.150 A 
ATOM      5  C4  UNL d   1       3.429  -0.831  -1.408  0.00  0.00    -0.007 A 
ATOM      6  C5  UNL d   1       2.357  -0.329  -0.672  0.00  0.00     0.039 A 
ENDROOT
BRANCH   4   7
ATOM      7  O   UNL d   1       5.367  -0.488  -2.704  0.00  0.00    -0.526 OA
ATOM      8  H5  UNL d   1       5.925   0.237  -3.030  0.00  0.00     0.418 HD
ENDBRANCH   4   7
TORSDOF 1
ENDMDL
