MODEL 1
REMARK minimizedAffinity 11.5500622
REMARK minimizedRMSD -1
REMARK  1 active torsions:
REMARK  status: ('A' for Active; 'I' for Inactive)
REMARK    1  A    between atoms: C3_4  and  O_7 
ROOT
ATOM      1  C   UNL d   1       0.077  -0.771   0.785  0.00  0.00    -0.033 A 
ATOM      2  C1  UNL d   1       1.035  -0.311   1.690  0.00  0.00     0.039 A 
ATOM      3  C2  UNL d   1       0.801  -0.401   3.064  0.00  0.00    -0.080 A 
ATOM      4  C3  UNL d   1      -0.393  -0.953   3.519  0.00  0.00     0.150 A 
ATOM      5  C4  UNL d   1      -1.351  -1.417   2.623  0.00  0.00    -0.007 A 
ATOM      6  C5  UNL d   1      -1.116  -1.325   1.252  0.00  0.00     0.039 A 
ENDROOT
BRANCH   4   7
ATOM      7  O   UNL d   1      -0.668  -1.057   4.850  0.00  0.00    -0.526 OA
ATOM      8  H5  UNL d   1       0.071  -0.671   5.348  0.00  0.00     0.418 HD
ENDBRANCH   4   7
TORSDOF 1
ENDMDL
