MODEL 1
REMARK minimizedAffinity 7.0765686
REMARK minimizedRMSD -1
REMARK  1 active torsions:
REMARK  status: ('A' for Active; 'I' for Inactive)
REMARK    1  A    between atoms: C3_4  and  O_7 
ROOT
ATOM      1  C   UNL d   1       0.668  -5.999  -4.359  0.00  0.00    -0.033 A 
ATOM      2  C1  UNL d   1       0.690  -5.987  -2.963  0.00  0.00     0.039 A 
ATOM      3  C2  UNL d   1      -0.386  -5.453  -2.251  0.00  0.00    -0.080 A 
ATOM      4  C3  UNL d   1      -1.476  -4.936  -2.946  0.00  0.00     0.150 A 
ATOM      5  C4  UNL d   1      -1.506  -4.948  -4.337  0.00  0.00    -0.007 A 
ATOM      6  C5  UNL d   1      -0.430  -5.481  -5.046  0.00  0.00     0.039 A 
ENDROOT
BRANCH   4   7
ATOM      7  O   UNL d   1      -2.547  -4.400  -2.295  0.00  0.00    -0.526 OA
ATOM      8  H5  UNL d   1      -2.374  -4.433  -1.339  0.00  0.00     0.418 HD
ENDBRANCH   4   7
TORSDOF 1
ENDMDL
