MODEL 1
REMARK minimizedAffinity 7.04481316
REMARK minimizedRMSD -1
REMARK  3 active torsions:
REMARK  status: ('A' for Active; 'I' for Inactive)
REMARK    1  A    between atoms: C3'_2  and  C2'_3 
REMARK    2  A    between atoms: C2'_3  and  C1'_4 
REMARK    3  A    between atoms: C1'_4  and  C1_5 
ROOT
ATOM      1  C1  N4B d   1      -0.767   4.218  -0.803  0.00  0.00    -0.075 A 
ATOM      2  C2  N4B d   1      -1.959   4.815  -1.270  0.00  0.00     0.002 A 
ATOM      3  C3  N4B d   1      -1.967   5.485  -2.469  0.00  0.00     0.002 A 
ATOM      4  C4  N4B d   1      -0.796   5.587  -3.205  0.00  0.00    -0.004 A 
ATOM      5  C5  N4B d   1       0.344   4.985  -2.760  0.00  0.00     0.002 A 
ATOM      6  C6  N4B d   1       0.366   4.305  -1.558  0.00  0.00     0.002 A 
ENDROOT
BRANCH   1   7
ATOM      7  C1' N4B d   1      -0.689   3.549   0.542  0.00  0.00     0.057 C 
BRANCH   7   8
ATOM      8  C2' N4B d   1       0.046   2.220   0.398  0.00  0.00     0.009 C 
BRANCH   8   9
ATOM      9  C3' N4B d   1      -0.823   1.157  -0.251  0.00  0.00     0.004 C 
ATOM     10  C4' N4B d   1      -0.030  -0.005  -0.770  0.00  0.00     0.003 C 
ENDBRANCH   8   9
ENDBRANCH   7   8
ENDBRANCH   1   7
TORSDOF 3
ENDMDL
