MODEL 1
REMARK minimizedAffinity 14.2651701
REMARK minimizedRMSD -1
REMARK  3 active torsions:
REMARK  status: ('A' for Active; 'I' for Inactive)
REMARK    1  A    between atoms: C3'_2  and  C2'_3 
REMARK    2  A    between atoms: C2'_3  and  C1'_4 
REMARK    3  A    between atoms: C1'_4  and  C1_5 
ROOT
ATOM      1  C1  N4B d   1      -0.621  -3.339  -2.911  0.00  0.00    -0.075 A 
ATOM      2  C2  N4B d   1      -0.023  -4.539  -2.469  0.00  0.00     0.002 A 
ATOM      3  C3  N4B d   1       0.607  -4.584  -1.250  0.00  0.00     0.002 A 
ATOM      4  C4  N4B d   1       0.669  -3.441  -0.467  0.00  0.00    -0.004 A 
ATOM      5  C5  N4B d   1       0.067  -2.292  -0.891  0.00  0.00     0.002 A 
ATOM      6  C6  N4B d   1      -0.573  -2.233  -2.112  0.00  0.00     0.002 A 
ENDROOT
BRANCH   1   7
ATOM      7  C1' N4B d   1      -1.246  -3.218  -4.274  0.00  0.00     0.057 C 
BRANCH   7   8
ATOM      8  C2' N4B d   1      -0.192  -2.741  -5.269  0.00  0.00     0.009 C 
BRANCH   8   9
ATOM      9  C3' N4B d   1       0.478  -3.901  -5.986  0.00  0.00     0.004 C 
ATOM     10  C4' N4B d   1       1.866  -4.169  -5.485  0.00  0.00     0.003 C 
ENDBRANCH   8   9
ENDBRANCH   7   8
ENDBRANCH   1   7
TORSDOF 3
ENDMDL
