MODEL 1
REMARK minimizedAffinity 1.22239435
REMARK minimizedRMSD -1
REMARK  3 active torsions:
REMARK  status: ('A' for Active; 'I' for Inactive)
REMARK    1  A    between atoms: C3'_2  and  C2'_3 
REMARK    2  A    between atoms: C2'_3  and  C1'_4 
REMARK    3  A    between atoms: C1'_4  and  C1_5 
ROOT
ATOM      1  C1  N4B d   1      -5.011   3.774  -3.221  0.00  0.00    -0.075 A 
ATOM      2  C2  N4B d   1      -5.843   4.845  -3.615  0.00  0.00     0.002 A 
ATOM      3  C3  N4B d   1      -5.300   5.943  -4.237  0.00  0.00     0.002 A 
ATOM      4  C4  N4B d   1      -3.932   6.000  -4.457  0.00  0.00    -0.004 A 
ATOM      5  C5  N4B d   1      -3.139   4.950  -4.096  0.00  0.00     0.002 A 
ATOM      6  C6  N4B d   1      -3.672   3.839  -3.474  0.00  0.00     0.002 A 
ENDROOT
BRANCH   1   7
ATOM      7  C1' N4B d   1      -5.546   2.591  -2.461  0.00  0.00     0.057 C 
BRANCH   7   8
ATOM      8  C2' N4B d   1      -5.997   1.522  -3.451  0.00  0.00     0.009 C 
BRANCH   8   9
ATOM      9  C3' N4B d   1      -5.963   2.024  -4.884  0.00  0.00     0.004 C 
ATOM     10  C4' N4B d   1      -5.911   0.912  -5.889  0.00  0.00     0.003 C 
ENDBRANCH   8   9
ENDBRANCH   7   8
ENDBRANCH   1   7
TORSDOF 3
ENDMDL
