MODEL 1
REMARK minimizedAffinity 3.7124784
REMARK minimizedRMSD -1
REMARK  3 active torsions:
REMARK  status: ('A' for Active; 'I' for Inactive)
REMARK    1  A    between atoms: C3'_2  and  C2'_3 
REMARK    2  A    between atoms: C2'_3  and  C1'_4 
REMARK    3  A    between atoms: C1'_4  and  C1_5 
ROOT
ATOM      1  C1  N4B d   1      -0.265   2.567  -0.564  0.00  0.00    -0.075 A 
ATOM      2  C2  N4B d   1      -0.669   3.100  -1.808  0.00  0.00     0.002 A 
ATOM      3  C3  N4B d   1      -0.233   4.343  -2.196  0.00  0.00     0.002 A 
ATOM      4  C4  N4B d   1       0.588   5.076  -1.352  0.00  0.00    -0.004 A 
ATOM      5  C5  N4B d   1       0.994   4.543  -0.163  0.00  0.00     0.002 A 
ATOM      6  C6  N4B d   1       0.567   3.293   0.238  0.00  0.00     0.002 A 
ENDROOT
BRANCH   1   7
ATOM      7  C1' N4B d   1      -0.785   1.248  -0.059  0.00  0.00     0.057 C 
BRANCH   7   8
ATOM      8  C2' N4B d   1       0.006   0.116  -0.708  0.00  0.00     0.009 C 
BRANCH   8   9
ATOM      9  C3' N4B d   1      -0.762  -1.194  -0.695  0.00  0.00     0.004 C 
ATOM     10  C4' N4B d   1       0.136  -2.394  -0.722  0.00  0.00     0.003 C 
ENDBRANCH   8   9
ENDBRANCH   7   8
ENDBRANCH   1   7
TORSDOF 3
ENDMDL
