MODEL 1
REMARK minimizedAffinity 8.33125305
REMARK minimizedRMSD -1
REMARK  3 active torsions:
REMARK  status: ('A' for Active; 'I' for Inactive)
REMARK    1  A    between atoms: C3'_2  and  C2'_3 
REMARK    2  A    between atoms: C2'_3  and  C1'_4 
REMARK    3  A    between atoms: C1'_4  and  C1_5 
ROOT
ATOM      1  C1  N4B d   1      -2.017   4.455  -2.437  0.00  0.00    -0.075 A 
ATOM      2  C2  N4B d   1      -1.054   3.447  -2.210  0.00  0.00     0.002 A 
ATOM      3  C3  N4B d   1       0.103   3.742  -1.532  0.00  0.00     0.002 A 
ATOM      4  C4  N4B d   1       0.327   5.038  -1.091  0.00  0.00    -0.004 A 
ATOM      5  C5  N4B d   1      -0.619   6.000  -1.292  0.00  0.00     0.002 A 
ATOM      6  C6  N4B d   1      -1.788   5.716  -1.968  0.00  0.00     0.002 A 
ENDROOT
BRANCH   1   7
ATOM      7  C1' N4B d   1      -3.258   4.199  -3.248  0.00  0.00     0.057 C 
BRANCH   7   8
ATOM      8  C2' N4B d   1      -4.010   3.014  -2.652  0.00  0.00     0.009 C 
BRANCH   8   9
ATOM      9  C3' N4B d   1      -5.483   3.031  -3.023  0.00  0.00     0.004 C 
ATOM     10  C4' N4B d   1      -5.780   2.235  -4.260  0.00  0.00     0.003 C 
ENDBRANCH   8   9
ENDBRANCH   7   8
ENDBRANCH   1   7
TORSDOF 3
ENDMDL
