MODEL 1
REMARK minimizedAffinity 10.6664352
REMARK minimizedRMSD -1
REMARK  0 active torsions:
REMARK  status: ('A' for Active; 'I' for Inactive)
ROOT
ATOM      1  C1  DEN d   1      -2.867  -5.992   1.781  0.00  0.00     0.130 A 
ATOM      2  C2  DEN d   1      -3.089  -5.862   0.344  0.00  0.00    -0.031 A 
ATOM      3  C3  DEN d   1      -1.772  -5.742  -0.313  0.00  0.00     0.027 A 
ATOM      4  C4  DEN d   1       0.578  -5.751   0.750  0.00  0.00     0.027 A 
ATOM      5  C5  DEN d   1       1.273  -5.825   1.937  0.00  0.00    -0.003 A 
ATOM      6  C6  DEN d   1       0.641  -5.926   3.148  0.00  0.00     0.001 A 
ATOM      7  C7  DEN d   1      -0.726  -6.000   3.196  0.00  0.00     0.017 A 
ATOM      8  C8  DEN d   1      -1.434  -5.918   2.004  0.00  0.00    -0.094 A 
ATOM      9  C9  DEN d   1      -0.776  -5.829   0.789  0.00  0.00    -0.072 A 
ENDROOT
TORSDOF 0
ENDMDL
