MODEL 1
REMARK minimizedAffinity 7.12931585
REMARK minimizedRMSD -1
REMARK  0 active torsions:
REMARK  status: ('A' for Active; 'I' for Inactive)
ROOT
ATOM      1  C1  DEN d   1       1.195   4.507  -3.146  0.00  0.00     0.130 A 
ATOM      2  C2  DEN d   1       1.582   5.110  -4.418  0.00  0.00    -0.031 A 
ATOM      3  C3  DEN d   1       2.524   4.192  -5.090  0.00  0.00     0.027 A 
ATOM      4  C4  DEN d   1       3.411   1.907  -4.290  0.00  0.00     0.027 A 
ATOM      5  C5  DEN d   1       3.376   0.984  -3.268  0.00  0.00    -0.003 A 
ATOM      6  C6  DEN d   1       2.644   1.185  -2.128  0.00  0.00     0.001 A 
ATOM      7  C7  DEN d   1       1.881   2.316  -2.002  0.00  0.00     0.017 A 
ATOM      8  C8  DEN d   1       1.917   3.254  -3.025  0.00  0.00    -0.094 A 
ATOM      9  C9  DEN d   1       2.654   3.027  -4.175  0.00  0.00    -0.072 A 
ENDROOT
TORSDOF 0
ENDMDL
