MODEL 1
REMARK minimizedAffinity 15.8070078
REMARK minimizedRMSD -1
REMARK  0 active torsions:
REMARK  status: ('A' for Active; 'I' for Inactive)
ROOT
ATOM      1  C1  DEN d   1       2.194  -5.947   0.211  0.00  0.00     0.130 A 
ATOM      2  C2  DEN d   1       3.036  -5.939   1.404  0.00  0.00    -0.031 A 
ATOM      3  C3  DEN d   1       2.153  -5.955   2.587  0.00  0.00     0.027 A 
ATOM      4  C4  DEN d   1      -0.424  -5.996   2.688  0.00  0.00     0.027 A 
ATOM      5  C5  DEN d   1      -1.577  -5.998   1.934  0.00  0.00    -0.003 A 
ATOM      6  C6  DEN d   1      -1.555  -5.949   0.566  0.00  0.00     0.001 A 
ATOM      7  C7  DEN d   1      -0.354  -5.942  -0.094  0.00  0.00     0.017 A 
ATOM      8  C8  DEN d   1       0.813  -5.932   0.659  0.00  0.00    -0.094 A 
ATOM      9  C9  DEN d   1       0.770  -5.994   2.042  0.00  0.00    -0.072 A 
ENDROOT
TORSDOF 0
ENDMDL
