MODEL 1
REMARK minimizedAffinity 6.02752638
REMARK minimizedRMSD -1
REMARK  0 active torsions:
REMARK  status: ('A' for Active; 'I' for Inactive)
ROOT
ATOM      1  C1  DEN d   1      -5.986  -0.629   2.342  0.00  0.00     0.130 A 
ATOM      2  C2  DEN d   1      -5.987   0.428   1.335  0.00  0.00    -0.031 A 
ATOM      3  C3  DEN d   1      -5.967   1.727   2.037  0.00  0.00     0.027 A 
ATOM      4  C4  DEN d   1      -5.929   2.202   4.572  0.00  0.00     0.027 A 
ATOM      5  C5  DEN d   1      -5.931   1.624   5.822  0.00  0.00    -0.003 A 
ATOM      6  C6  DEN d   1      -5.986   0.267   5.999  0.00  0.00     0.001 A 
ATOM      7  C7  DEN d   1      -5.994  -0.561   4.907  0.00  0.00     0.017 A 
ATOM      8  C8  DEN d   1      -6.000   0.015   3.643  0.00  0.00    -0.094 A 
ATOM      9  C9  DEN d   1      -5.932   1.389   3.485  0.00  0.00    -0.072 A 
ENDROOT
TORSDOF 0
ENDMDL
