MODEL 1
REMARK minimizedAffinity 6.02545929
REMARK minimizedRMSD -1
REMARK  0 active torsions:
REMARK  status: ('A' for Active; 'I' for Inactive)
ROOT
ATOM      1  C1  DEN d   1      -1.637   1.453  -5.740  0.00  0.00     0.130 A 
ATOM      2  C2  DEN d   1      -2.826   0.610  -5.830  0.00  0.00    -0.031 A 
ATOM      3  C3  DEN d   1      -3.174   0.165  -4.465  0.00  0.00     0.027 A 
ATOM      4  C4  DEN d   1      -1.997   0.700  -2.234  0.00  0.00     0.027 A 
ATOM      5  C5  DEN d   1      -0.939   1.365  -1.654  0.00  0.00    -0.003 A 
ATOM      6  C6  DEN d   1      -0.028   2.072  -2.393  0.00  0.00     0.001 A 
ATOM      7  C7  DEN d   1      -0.183   2.168  -3.751  0.00  0.00     0.017 A 
ATOM      8  C8  DEN d   1      -1.243   1.494  -4.343  0.00  0.00    -0.094 A 
ATOM      9  C9  DEN d   1      -2.160   0.795  -3.578  0.00  0.00    -0.072 A 
ENDROOT
TORSDOF 0
ENDMDL
