MODEL 1
REMARK minimizedAffinity 6.25861406
REMARK minimizedRMSD -1
REMARK  0 active torsions:
REMARK  status: ('A' for Active; 'I' for Inactive)
ROOT
ATOM      1  C1  DEN d   1      -1.163   1.372  -2.752  0.00  0.00     0.130 A 
ATOM      2  C2  DEN d   1      -1.664   0.204  -3.471  0.00  0.00    -0.031 A 
ATOM      3  C3  DEN d   1      -0.538  -0.731  -3.664  0.00  0.00     0.027 A 
ATOM      4  C4  DEN d   1       1.920  -0.487  -2.920  0.00  0.00     0.027 A 
ATOM      5  C5  DEN d   1       2.825   0.337  -2.288  0.00  0.00    -0.003 A 
ATOM      6  C6  DEN d   1       2.475   1.568  -1.800  0.00  0.00     0.001 A 
ATOM      7  C7  DEN d   1       1.176   1.992  -1.897  0.00  0.00     0.017 A 
ATOM      8  C8  DEN d   1       0.259   1.170  -2.539  0.00  0.00    -0.094 A 
ATOM      9  C9  DEN d   1       0.630  -0.077  -3.015  0.00  0.00    -0.072 A 
ENDROOT
TORSDOF 0
ENDMDL
