MODEL 1
REMARK minimizedAffinity 0.293157637
REMARK minimizedRMSD -1
REMARK  0 active torsions:
REMARK  status: ('A' for Active; 'I' for Inactive)
ROOT
ATOM      1  C1  DEN d   1      -1.221   2.223  -3.654  0.00  0.00     0.130 A 
ATOM      2  C2  DEN d   1      -2.095   1.265  -4.326  0.00  0.00    -0.031 A 
ATOM      3  C3  DEN d   1      -1.446  -0.060  -4.274  0.00  0.00     0.027 A 
ATOM      4  C4  DEN d   1       0.813  -0.720  -3.218  0.00  0.00     0.027 A 
ATOM      5  C5  DEN d   1       1.917  -0.248  -2.544  0.00  0.00    -0.003 A 
ATOM      6  C6  DEN d   1       2.067   1.075  -2.224  0.00  0.00     0.001 A 
ATOM      7  C7  DEN d   1       1.076   1.966  -2.540  0.00  0.00     0.017 A 
ATOM      8  C8  DEN d   1      -0.037   1.499  -3.227  0.00  0.00    -0.094 A 
ATOM      9  C9  DEN d   1      -0.176   0.155  -3.530  0.00  0.00    -0.072 A 
ENDROOT
TORSDOF 0
ENDMDL
