MODEL 1
REMARK minimizedAffinity 3.81689191
REMARK minimizedRMSD -1
REMARK  0 active torsions:
REMARK  status: ('A' for Active; 'I' for Inactive)
ROOT
ATOM      1  C1  DEN d   1      -1.007   1.673  -0.228  0.00  0.00     0.130 A 
ATOM      2  C2  DEN d   1      -1.525   0.619   0.640  0.00  0.00    -0.031 A 
ATOM      3  C3  DEN d   1      -2.230  -0.364  -0.207  0.00  0.00     0.027 A 
ATOM      4  C4  DEN d   1      -2.564  -0.359  -2.765  0.00  0.00     0.027 A 
ATOM      5  C5  DEN d   1      -2.314   0.336  -3.928  0.00  0.00    -0.003 A 
ATOM      6  C6  DEN d   1      -1.646   1.532  -3.935  0.00  0.00     0.001 A 
ATOM      7  C7  DEN d   1      -1.165   2.048  -2.761  0.00  0.00     0.017 A 
ATOM      8  C8  DEN d   1      -1.419   1.357  -1.583  0.00  0.00    -0.094 A 
ATOM      9  C9  DEN d   1      -2.086   0.143  -1.598  0.00  0.00    -0.072 A 
ENDROOT
TORSDOF 0
ENDMDL
