MODEL 1
REMARK minimizedAffinity 13.7107525
REMARK minimizedRMSD -1
REMARK  0 active torsions:
REMARK  status: ('A' for Active; 'I' for Inactive)
ROOT
ATOM      1  C1  DEN d   1       1.116  -3.715   1.772  0.00  0.00     0.130 A 
ATOM      2  C2  DEN d   1       1.689  -4.895   2.414  0.00  0.00    -0.031 A 
ATOM      3  C3  DEN d   1       0.716  -5.999   2.291  0.00  0.00     0.027 A 
ATOM      4  C4  DEN d   1      -1.607  -5.998   1.170  0.00  0.00     0.027 A 
ATOM      5  C5  DEN d   1      -2.529  -5.226   0.500  0.00  0.00    -0.003 A 
ATOM      6  C6  DEN d   1      -2.318  -3.898   0.239  0.00  0.00     0.001 A 
ATOM      7  C7  DEN d   1      -1.137  -3.312   0.611  0.00  0.00     0.017 A 
ATOM      8  C8  DEN d   1      -0.205  -4.083   1.293  0.00  0.00    -0.094 A 
ATOM      9  C9  DEN d   1      -0.432  -5.427   1.537  0.00  0.00    -0.072 A 
ENDROOT
TORSDOF 0
ENDMDL
