MODEL 1
REMARK minimizedAffinity 11.0887985
REMARK minimizedRMSD -1
REMARK  0 active torsions:
REMARK  status: ('A' for Active; 'I' for Inactive)
ROOT
ATOM      1  C1  DEN d   1       0.253   1.583  -2.269  0.00  0.00     0.130 A 
ATOM      2  C2  DEN d   1       0.323   3.021  -2.516  0.00  0.00    -0.031 A 
ATOM      3  C3  DEN d   1      -0.669   3.354  -3.557  0.00  0.00     0.027 A 
ATOM      4  C4  DEN d   1      -2.302   1.793  -4.802  0.00  0.00     0.027 A 
ATOM      5  C5  DEN d   1      -2.721   0.488  -4.941  0.00  0.00    -0.003 A 
ATOM      6  C6  DEN d   1      -2.160  -0.539  -4.231  0.00  0.00     0.001 A 
ATOM      7  C7  DEN d   1      -1.177  -0.273  -3.314  0.00  0.00     0.017 A 
ATOM      8  C8  DEN d   1      -0.744   1.039  -3.173  0.00  0.00    -0.094 A 
ATOM      9  C9  DEN d   1      -1.333   2.065  -3.892  0.00  0.00    -0.072 A 
ENDROOT
TORSDOF 0
ENDMDL
