MODEL 1
REMARK minimizedAffinity 6.84523773
REMARK minimizedRMSD -1
REMARK  0 active torsions:
REMARK  status: ('A' for Active; 'I' for Inactive)
ROOT
ATOM      1  C1  DEN d   1      -3.110   1.902  -4.466  0.00  0.00     0.130 A 
ATOM      2  C2  DEN d   1      -3.376   0.652  -5.172  0.00  0.00    -0.031 A 
ATOM      3  C3  DEN d   1      -2.294  -0.298  -4.841  0.00  0.00     0.027 A 
ATOM      4  C4  DEN d   1      -0.248   0.043  -3.308  0.00  0.00     0.027 A 
ATOM      5  C5  DEN d   1       0.410   0.942  -2.498  0.00  0.00    -0.003 A 
ATOM      6  C6  DEN d   1      -0.036   2.224  -2.316  0.00  0.00     0.001 A 
ATOM      7  C7  DEN d   1      -1.198   2.629  -2.916  0.00  0.00     0.017 A 
ATOM      8  C8  DEN d   1      -1.864   1.731  -3.740  0.00  0.00    -0.094 A 
ATOM      9  C9  DEN d   1      -1.403   0.436  -3.902  0.00  0.00    -0.072 A 
ENDROOT
TORSDOF 0
ENDMDL
