MODEL 1
REMARK minimizedAffinity -3.49082875
REMARK minimizedRMSD -1
REMARK  0 active torsions:
REMARK  status: ('A' for Active; 'I' for Inactive)
ROOT
ATOM      1  C1  DEN d   1       2.042  -1.098  -3.903  0.00  0.00     0.130 A 
ATOM      2  C2  DEN d   1       3.405  -0.622  -4.117  0.00  0.00    -0.031 A 
ATOM      3  C3  DEN d   1       3.419   0.838  -3.895  0.00  0.00     0.027 A 
ATOM      4  C4  DEN d   1       1.471   2.398  -3.241  0.00  0.00     0.027 A 
ATOM      5  C5  DEN d   1       0.124   2.454  -2.960  0.00  0.00    -0.003 A 
ATOM      6  C6  DEN d   1      -0.679   1.345  -3.007  0.00  0.00     0.001 A 
ATOM      7  C7  DEN d   1      -0.132   0.123  -3.298  0.00  0.00     0.017 A 
ATOM      8  C8  DEN d   1       1.225   0.060  -3.589  0.00  0.00    -0.094 A 
ATOM      9  C9  DEN d   1       2.021   1.190  -3.525  0.00  0.00    -0.072 A 
ENDROOT
TORSDOF 0
ENDMDL
