MODEL 1
REMARK minimizedAffinity 8.86255169
REMARK minimizedRMSD -1
REMARK  0 active torsions:
REMARK  status: ('A' for Active; 'I' for Inactive)
ROOT
ATOM      1  C1  DEN d   1       1.734   2.440  -1.081  0.00  0.00     0.130 A 
ATOM      2  C2  DEN d   1       2.562   1.418  -0.445  0.00  0.00    -0.031 A 
ATOM      3  C3  DEN d   1       3.605   1.011  -1.408  0.00  0.00     0.027 A 
ATOM      4  C4  DEN d   1       4.021   1.863  -3.806  0.00  0.00     0.027 A 
ATOM      5  C5  DEN d   1       3.572   2.720  -4.787  0.00  0.00    -0.003 A 
ATOM      6  C6  DEN d   1       2.468   3.512  -4.615  0.00  0.00     0.001 A 
ATOM      7  C7  DEN d   1       1.801   3.497  -3.418  0.00  0.00     0.017 A 
ATOM      8  C8  DEN d   1       2.244   2.630  -2.427  0.00  0.00    -0.094 A 
ATOM      9  C9  DEN d   1       3.369   1.846  -2.616  0.00  0.00    -0.072 A 
ENDROOT
TORSDOF 0
ENDMDL
