MODEL 1
REMARK minimizedAffinity 17.4938469
REMARK minimizedRMSD -1
REMARK  0 active torsions:
REMARK  status: ('A' for Active; 'I' for Inactive)
ROOT
ATOM      1  C1  DEN d   1      -5.999   1.373   5.108  0.00  0.00     0.130 A 
ATOM      2  C2  DEN d   1      -5.106   2.162   5.952  0.00  0.00    -0.031 A 
ATOM      3  C3  DEN d   1      -4.062   2.750   5.088  0.00  0.00     0.027 A 
ATOM      4  C4  DEN d   1      -3.747   2.520   2.538  0.00  0.00     0.027 A 
ATOM      5  C5  DEN d   1      -4.249   1.941   1.393  0.00  0.00    -0.003 A 
ATOM      6  C6  DEN d   1      -5.340   1.113   1.411  0.00  0.00     0.001 A 
ATOM      7  C7  DEN d   1      -5.992   0.875   2.591  0.00  0.00     0.017 A 
ATOM      8  C8  DEN d   1      -5.488   1.448   3.751  0.00  0.00    -0.094 A 
ATOM      9  C9  DEN d   1      -4.392   2.293   3.711  0.00  0.00    -0.072 A 
ENDROOT
TORSDOF 0
ENDMDL
