MODEL 1
REMARK minimizedAffinity -1.97996294
REMARK minimizedRMSD -1
REMARK  0 active torsions:
REMARK  status: ('A' for Active; 'I' for Inactive)
ROOT
ATOM      1  O1  BZF d   1      -0.116  -1.758  -0.660  0.00  0.00    -0.204 OA
ATOM      2  C2  BZF d   1       0.857  -1.371  -1.561  0.00  0.00     0.174 A 
ATOM      3  C3  BZF d   1       1.076  -0.042  -1.488  0.00  0.00    -0.012 A 
ATOM      4  C3A BZF d   1       0.250   0.416  -0.413  0.00  0.00    -0.107 A 
ATOM      5  C4  BZF d   1       0.041   1.641   0.154  0.00  0.00     0.055 A 
ATOM      6  C5  BZF d   1      -0.886   1.763   1.140  0.00  0.00    -0.016 A 
ATOM      7  C6  BZF d   1      -1.626   0.684   1.578  0.00  0.00     0.022 A 
ATOM      8  C7  BZF d   1      -1.451  -0.551   1.049  0.00  0.00     0.029 A 
ATOM      9  C7A BZF d   1      -0.491  -0.684   0.076  0.00  0.00     0.058 A 
ENDROOT
TORSDOF 0
ENDMDL
