MODEL 1
REMARK minimizedAffinity -1.32061899
REMARK minimizedRMSD -1
REMARK  0 active torsions:
REMARK  status: ('A' for Active; 'I' for Inactive)
ROOT
ATOM      1  O1  BZF d   1      -0.327   0.060  -1.747  0.00  0.00    -0.204 OA
ATOM      2  C2  BZF d   1       0.465  -1.071  -1.769  0.00  0.00     0.174 A 
ATOM      3  C3  BZF d   1       0.743  -1.485  -0.516  0.00  0.00    -0.012 A 
ATOM      4  C3A BZF d   1       0.008  -0.608   0.342  0.00  0.00    -0.107 A 
ATOM      5  C4  BZF d   1      -0.136  -0.522   1.697  0.00  0.00     0.055 A 
ATOM      6  C5  BZF d   1      -0.868   0.495   2.221  0.00  0.00    -0.016 A 
ATOM      7  C6  BZF d   1      -1.466   1.447   1.421  0.00  0.00     0.022 A 
ATOM      8  C7  BZF d   1      -1.356   1.401   0.071  0.00  0.00     0.029 A 
ATOM      9  C7A BZF d   1      -0.644   0.355  -0.464  0.00  0.00     0.058 A 
ENDROOT
TORSDOF 0
ENDMDL
