MODEL 1
REMARK minimizedAffinity -2.46579051
REMARK minimizedRMSD -1
REMARK  0 active torsions:
REMARK  status: ('A' for Active; 'I' for Inactive)
ROOT
ATOM      1  O1  BZF d   1       0.911   0.570  -0.524  0.00  0.00    -0.204 OA
ATOM      2  C2  BZF d   1       0.929   1.774  -1.202  0.00  0.00     0.174 A 
ATOM      3  C3  BZF d   1      -0.092   2.561  -0.807  0.00  0.00    -0.012 A 
ATOM      4  C3A BZF d   1      -0.737   1.840   0.247  0.00  0.00    -0.107 A 
ATOM      5  C4  BZF d   1      -1.808   2.109   1.050  0.00  0.00     0.055 A 
ATOM      6  C5  BZF d   1      -2.228   1.163   1.931  0.00  0.00    -0.016 A 
ATOM      7  C6  BZF d   1      -1.604  -0.064   2.030  0.00  0.00     0.022 A 
ATOM      8  C7  BZF d   1      -0.535  -0.375   1.258  0.00  0.00     0.029 A 
ATOM      9  C7A BZF d   1      -0.088   0.592   0.390  0.00  0.00     0.058 A 
ENDROOT
TORSDOF 0
ENDMDL
