MODEL 1
REMARK minimizedAffinity -1.36094964
REMARK minimizedRMSD -1
REMARK  0 active torsions:
REMARK  status: ('A' for Active; 'I' for Inactive)
ROOT
ATOM      1  O1  BZF d   1      -1.030   2.398   0.968  0.00  0.00    -0.204 OA
ATOM      2  C2  BZF d   1      -1.711   2.270   2.163  0.00  0.00     0.174 A 
ATOM      3  C3  BZF d   1      -1.673   0.995   2.601  0.00  0.00    -0.012 A 
ATOM      4  C3A BZF d   1      -0.844   0.300   1.665  0.00  0.00    -0.107 A 
ATOM      5  C4  BZF d   1      -0.415  -0.993   1.569  0.00  0.00     0.055 A 
ATOM      6  C5  BZF d   1       0.326  -1.365   0.492  0.00  0.00    -0.016 A 
ATOM      7  C6  BZF d   1       0.653  -0.473  -0.508  0.00  0.00     0.022 A 
ATOM      8  C7  BZF d   1       0.255   0.821  -0.454  0.00  0.00     0.029 A 
ATOM      9  C7A BZF d   1      -0.466   1.208   0.649  0.00  0.00     0.058 A 
ENDROOT
TORSDOF 0
ENDMDL
