MODEL 1
REMARK minimizedAffinity -5.12008619
REMARK minimizedRMSD -1
REMARK  0 active torsions:
REMARK  status: ('A' for Active; 'I' for Inactive)
ROOT
ATOM      1  O1  BZF d   1      -1.128  -0.299  -1.226  0.00  0.00    -0.204 OA
ATOM      2  C2  BZF d   1      -0.060  -1.172  -1.142  0.00  0.00     0.174 A 
ATOM      3  C3  BZF d   1       0.559  -1.056   0.051  0.00  0.00    -0.012 A 
ATOM      4  C3A BZF d   1      -0.222  -0.114   0.791  0.00  0.00    -0.107 A 
ATOM      5  C4  BZF d   1      -0.124   0.404   2.051  0.00  0.00     0.055 A 
ATOM      6  C5  BZF d   1      -1.007   1.359   2.443  0.00  0.00    -0.016 A 
ATOM      7  C6  BZF d   1      -1.996   1.824   1.601  0.00  0.00     0.022 A 
ATOM      8  C7  BZF d   1      -2.136   1.337   0.344  0.00  0.00     0.029 A 
ATOM      9  C7A BZF d   1      -1.266   0.348  -0.044  0.00  0.00     0.058 A 
ENDROOT
TORSDOF 0
ENDMDL
