MODEL 1
REMARK minimizedAffinity -3.81054831
REMARK minimizedRMSD -1
REMARK  0 active torsions:
REMARK  status: ('A' for Active; 'I' for Inactive)
ROOT
ATOM      1  O1  BZF d   1       0.922  -0.059  -0.041  0.00  0.00    -0.204 OA
ATOM      2  C2  BZF d   1       0.691  -0.836   1.077  0.00  0.00     0.174 A 
ATOM      3  C3  BZF d   1      -0.352  -0.357   1.785  0.00  0.00    -0.012 A 
ATOM      4  C3A BZF d   1      -0.859   0.737   1.015  0.00  0.00    -0.107 A 
ATOM      5  C4  BZF d   1      -1.900   1.603   1.188  0.00  0.00     0.055 A 
ATOM      6  C5  BZF d   1      -2.082   2.605   0.288  0.00  0.00    -0.016 A 
ATOM      7  C6  BZF d   1      -1.240   2.773  -0.792  0.00  0.00     0.022 A 
ATOM      8  C7  BZF d   1      -0.196   1.935  -1.008  0.00  0.00     0.029 A 
ATOM      9  C7A BZF d   1      -0.030   0.902  -0.118  0.00  0.00     0.058 A 
ENDROOT
TORSDOF 0
ENDMDL
