MODEL 1
REMARK minimizedAffinity -4.67190981
REMARK minimizedRMSD -1
REMARK  0 active torsions:
REMARK  status: ('A' for Active; 'I' for Inactive)
ROOT
ATOM      1  O1  BZF d   1       0.636   1.633  -0.996  0.00  0.00    -0.204 OA
ATOM      2  C2  BZF d   1       1.548   0.629  -1.260  0.00  0.00     0.174 A 
ATOM      3  C3  BZF d   1       1.284  -0.465  -0.517  0.00  0.00    -0.012 A 
ATOM      4  C3A BZF d   1       0.080  -0.157   0.192  0.00  0.00    -0.107 A 
ATOM      5  C4  BZF d   1      -0.691  -0.853   1.079  0.00  0.00     0.055 A 
ATOM      6  C5  BZF d   1      -1.763  -0.239   1.645  0.00  0.00    -0.016 A 
ATOM      7  C6  BZF d   1      -2.089   1.069   1.352  0.00  0.00     0.022 A 
ATOM      8  C7  BZF d   1      -1.357   1.797   0.475  0.00  0.00     0.029 A 
ATOM      9  C7A BZF d   1      -0.292   1.170  -0.124  0.00  0.00     0.058 A 
ENDROOT
TORSDOF 0
ENDMDL
