MODEL 1
REMARK minimizedAffinity -4.9630928
REMARK minimizedRMSD -1
REMARK  0 active torsions:
REMARK  status: ('A' for Active; 'I' for Inactive)
ROOT
ATOM      1  O1  BZF d   1      -0.296   0.447  -1.202  0.00  0.00    -0.204 OA
ATOM      2  C2  BZF d   1       0.492  -0.681  -1.082  0.00  0.00     0.174 A 
ATOM      3  C3  BZF d   1       0.485  -1.138   0.187  0.00  0.00    -0.012 A 
ATOM      4  C3A BZF d   1      -0.435  -0.293   0.885  0.00  0.00    -0.107 A 
ATOM      5  C4  BZF d   1      -0.882  -0.255   2.175  0.00  0.00     0.055 A 
ATOM      6  C5  BZF d   1      -1.724   0.742   2.553  0.00  0.00    -0.016 A 
ATOM      7  C6  BZF d   1      -2.135   1.720   1.671  0.00  0.00     0.022 A 
ATOM      8  C7  BZF d   1      -1.723   1.721   0.380  0.00  0.00     0.029 A 
ATOM      9  C7A BZF d   1      -0.898   0.696  -0.014  0.00  0.00     0.058 A 
ENDROOT
TORSDOF 0
ENDMDL
