MODEL 1
REMARK minimizedAffinity -5.08881283
REMARK minimizedRMSD -1
REMARK  0 active torsions:
REMARK  status: ('A' for Active; 'I' for Inactive)
ROOT
ATOM      1  O1  BZF d   1       1.500  -5.355  -1.238  0.00  0.00    -0.204 OA
ATOM      2  C2  BZF d   1       2.495  -5.234  -0.286  0.00  0.00     0.174 A 
ATOM      3  C3  BZF d   1       2.663  -3.945   0.070  0.00  0.00    -0.012 A 
ATOM      4  C3A BZF d   1       1.652  -3.223  -0.640  0.00  0.00    -0.107 A 
ATOM      5  C4  BZF d   1       1.298  -1.905  -0.689  0.00  0.00     0.055 A 
ATOM      6  C5  BZF d   1       0.311  -1.517  -1.539  0.00  0.00    -0.016 A 
ATOM      7  C6  BZF d   1      -0.339  -2.419  -2.357  0.00  0.00     0.022 A 
ATOM      8  C7  BZF d   1      -0.026  -3.737  -2.340  0.00  0.00     0.029 A 
ATOM      9  C7A BZF d   1       0.948  -4.137  -1.458  0.00  0.00     0.058 A 
ENDROOT
TORSDOF 0
ENDMDL
