MODEL 1
REMARK minimizedAffinity -3.581043
REMARK minimizedRMSD -1
REMARK  0 active torsions:
REMARK  status: ('A' for Active; 'I' for Inactive)
ROOT
ATOM      1  O1  BZF d   1      -1.912   1.883   0.044  0.00  0.00    -0.204 OA
ATOM      2  C2  BZF d   1      -2.493   1.380   1.192  0.00  0.00     0.174 A 
ATOM      3  C3  BZF d   1      -1.777   0.344   1.675  0.00  0.00    -0.012 A 
ATOM      4  C3A BZF d   1      -0.630   0.250   0.825  0.00  0.00    -0.107 A 
ATOM      5  C4  BZF d   1       0.459  -0.574   0.805  0.00  0.00     0.055 A 
ATOM      6  C5  BZF d   1       1.362  -0.451  -0.203  0.00  0.00    -0.016 A 
ATOM      7  C6  BZF d   1       1.206   0.481  -1.208  0.00  0.00     0.022 A 
ATOM      8  C7  BZF d   1       0.145   1.324  -1.228  0.00  0.00     0.029 A 
ATOM      9  C7A BZF d   1      -0.753   1.223  -0.193  0.00  0.00     0.058 A 
ENDROOT
TORSDOF 0
ENDMDL
