MODEL 1
REMARK minimizedAffinity -4.46469784
REMARK minimizedRMSD -1
REMARK  0 active torsions:
REMARK  status: ('A' for Active; 'I' for Inactive)
ROOT
ATOM      1  O1  BZF d   1      -1.371   2.384   0.422  0.00  0.00    -0.204 OA
ATOM      2  C2  BZF d   1      -1.808   2.230   1.723  0.00  0.00     0.174 A 
ATOM      3  C3  BZF d   1      -1.480   1.011   2.198  0.00  0.00    -0.012 A 
ATOM      4  C3A BZF d   1      -0.714   0.397   1.157  0.00  0.00    -0.107 A 
ATOM      5  C4  BZF d   1      -0.093  -0.814   1.038  0.00  0.00     0.055 A 
ATOM      6  C5  BZF d   1       0.509  -1.135  -0.137  0.00  0.00    -0.016 A 
ATOM      7  C6  BZF d   1       0.504  -0.273  -1.214  0.00  0.00     0.022 A 
ATOM      8  C7  BZF d   1      -0.094   0.941  -1.142  0.00  0.00     0.029 A 
ATOM      9  C7A BZF d   1      -0.674   1.282   0.055  0.00  0.00     0.058 A 
ENDROOT
TORSDOF 0
ENDMDL
