MODEL 1
REMARK minimizedAffinity -5.49761724
REMARK minimizedRMSD -1
REMARK  0 active torsions:
REMARK  status: ('A' for Active; 'I' for Inactive)
ROOT
ATOM      1  O1  BZF d   1       1.184   0.104  -0.856  0.00  0.00    -0.204 OA
ATOM      2  C2  BZF d   1       1.282   1.183  -1.713  0.00  0.00     0.174 A 
ATOM      3  C3  BZF d   1       0.328   2.097  -1.442  0.00  0.00    -0.012 A 
ATOM      4  C3A BZF d   1      -0.355   1.598  -0.288  0.00  0.00    -0.107 A 
ATOM      5  C4  BZF d   1      -1.392   2.068   0.466  0.00  0.00     0.055 A 
ATOM      6  C5  BZF d   1      -1.869   1.303   1.483  0.00  0.00    -0.016 A 
ATOM      7  C6  BZF d   1      -1.337   0.063   1.771  0.00  0.00     0.022 A 
ATOM      8  C7  BZF d   1      -0.304  -0.443   1.054  0.00  0.00     0.029 A 
ATOM      9  C7A BZF d   1       0.202   0.341   0.046  0.00  0.00     0.058 A 
ENDROOT
TORSDOF 0
ENDMDL
