MODEL 1
REMARK minimizedAffinity -4.20948124
REMARK minimizedRMSD -1
REMARK  0 active torsions:
REMARK  status: ('A' for Active; 'I' for Inactive)
ROOT
ATOM      1  O1  BZF d   1      -1.846   0.919   2.281  0.00  0.00    -0.204 OA
ATOM      2  C2  BZF d   1      -2.591   2.000   1.852  0.00  0.00     0.174 A 
ATOM      3  C3  BZF d   1      -2.177   2.415   0.638  0.00  0.00    -0.012 A 
ATOM      4  C3A BZF d   1      -1.167   1.481   0.245  0.00  0.00    -0.107 A 
ATOM      5  C4  BZF d   1      -0.390   1.352  -0.870  0.00  0.00     0.055 A 
ATOM      6  C5  BZF d   1       0.552   0.373  -0.910  0.00  0.00    -0.016 A 
ATOM      7  C6  BZF d   1       0.746  -0.491   0.148  0.00  0.00     0.022 A 
ATOM      8  C7  BZF d   1      -0.004  -0.405   1.274  0.00  0.00     0.029 A 
ATOM      9  C7A BZF d   1      -0.978   0.562   1.304  0.00  0.00     0.058 A 
ENDROOT
TORSDOF 0
ENDMDL
