MODEL 1
REMARK minimizedAffinity -4.78589153
REMARK minimizedRMSD -1
REMARK  0 active torsions:
REMARK  status: ('A' for Active; 'I' for Inactive)
ROOT
ATOM      1  O1  BZF d   1       0.448   1.837  -1.205  0.00  0.00    -0.204 OA
ATOM      2  C2  BZF d   1       1.578   1.055  -1.342  0.00  0.00     0.174 A 
ATOM      3  C3  BZF d   1       1.569   0.041  -0.452  0.00  0.00    -0.012 A 
ATOM      4  C3A BZF d   1       0.313   0.146   0.225  0.00  0.00    -0.107 A 
ATOM      5  C4  BZF d   1      -0.287  -0.586   1.209  0.00  0.00     0.055 A 
ATOM      6  C5  BZF d   1      -1.485  -0.175   1.700  0.00  0.00    -0.016 A 
ATOM      7  C6  BZF d   1      -2.109   0.964   1.235  0.00  0.00     0.022 A 
ATOM      8  C7  BZF d   1      -1.555   1.720   0.256  0.00  0.00     0.029 A 
ATOM      9  C7A BZF d   1      -0.360   1.289  -0.265  0.00  0.00     0.058 A 
ENDROOT
TORSDOF 0
ENDMDL
