MODEL 1
REMARK minimizedAffinity -5.54307032
REMARK minimizedRMSD -1
REMARK  0 active torsions:
REMARK  status: ('A' for Active; 'I' for Inactive)
ROOT
ATOM      1  O1  BZF d   1       0.402  -0.753   1.034  0.00  0.00    -0.204 OA
ATOM      2  C2  BZF d   1       1.003  -0.825  -0.208  0.00  0.00     0.174 A 
ATOM      3  C3  BZF d   1       0.353  -0.049  -1.099  0.00  0.00    -0.012 A 
ATOM      4  C3A BZF d   1      -0.666   0.616  -0.346  0.00  0.00    -0.107 A 
ATOM      5  C4  BZF d   1      -1.628   1.529  -0.671  0.00  0.00     0.055 A 
ATOM      6  C5  BZF d   1      -2.512   1.924   0.282  0.00  0.00    -0.016 A 
ATOM      7  C6  BZF d   1      -2.467   1.423   1.567  0.00  0.00     0.022 A 
ATOM      8  C7  BZF d   1      -1.528   0.520   1.938  0.00  0.00     0.029 A 
ATOM      9  C7A BZF d   1      -0.612   0.143   0.985  0.00  0.00     0.058 A 
ENDROOT
TORSDOF 0
ENDMDL
