MODEL 1
REMARK minimizedAffinity -1.38042212
REMARK minimizedRMSD -1
REMARK  0 active torsions:
REMARK  status: ('A' for Active; 'I' for Inactive)
ROOT
ATOM      1  O1  BZF d   1      -2.571   0.868   0.714  0.00  0.00    -0.204 OA
ATOM      2  C2  BZF d   1      -2.075   2.010   1.313  0.00  0.00     0.174 A 
ATOM      3  C3  BZF d   1      -0.733   2.067   1.197  0.00  0.00    -0.012 A 
ATOM      4  C3A BZF d   1      -0.375   0.933   0.401  0.00  0.00    -0.107 A 
ATOM      5  C4  BZF d   1       0.814   0.455  -0.071  0.00  0.00     0.055 A 
ATOM      6  C5  BZF d   1       0.828  -0.718  -0.758  0.00  0.00    -0.016 A 
ATOM      7  C6  BZF d   1      -0.326  -1.440  -0.985  0.00  0.00     0.022 A 
ATOM      8  C7  BZF d   1      -1.529  -1.003  -0.540  0.00  0.00     0.029 A 
ATOM      9  C7A BZF d   1      -1.551   0.198   0.125  0.00  0.00     0.058 A 
ENDROOT
TORSDOF 0
ENDMDL
