MODEL 1
REMARK minimizedAffinity -3.3374033
REMARK minimizedRMSD -1
REMARK  0 active torsions:
REMARK  status: ('A' for Active; 'I' for Inactive)
ROOT
ATOM      1  O1  BZF d   1       0.440  -1.080   0.375  0.00  0.00    -0.204 OA
ATOM      2  C2  BZF d   1       0.908  -0.864  -0.906  0.00  0.00     0.174 A 
ATOM      3  C3  BZF d   1       0.429   0.295  -1.402  0.00  0.00    -0.012 A 
ATOM      4  C3A BZF d   1      -0.316   0.883  -0.331  0.00  0.00    -0.107 A 
ATOM      5  C4  BZF d   1      -1.018   2.047  -0.203  0.00  0.00     0.055 A 
ATOM      6  C5  BZF d   1      -1.692   2.289   0.952  0.00  0.00    -0.016 A 
ATOM      7  C6  BZF d   1      -1.691   1.387   1.996  0.00  0.00     0.022 A 
ATOM      8  C7  BZF d   1      -1.006   0.220   1.918  0.00  0.00     0.029 A 
ATOM      9  C7A BZF d   1      -0.296  -0.012   0.765  0.00  0.00     0.058 A 
ENDROOT
TORSDOF 0
ENDMDL
