MODEL 1
REMARK minimizedAffinity 0.556711972
REMARK minimizedRMSD -1
REMARK  1 active torsions:
REMARK  status: ('A' for Active; 'I' for Inactive)
REMARK    1  A    between atoms: C1_2  and  C2_3 
ROOT
ATOM      1  C2  UNL d   1      -4.378   2.627  -5.319  0.00  0.00    -0.077 A 
ATOM      2  C3  UNL d   1      -5.388   3.321  -6.000  0.00  0.00     0.002 A 
ATOM      3  C4  UNL d   1      -6.000   4.431  -5.414  0.00  0.00     0.002 A 
ATOM      4  C5  UNL d   1      -5.606   4.859  -4.148  0.00  0.00    -0.004 A 
ATOM      5  C6  UNL d   1      -4.604   4.174  -3.462  0.00  0.00     0.002 A 
ATOM      6  C7  UNL d   1      -3.992   3.063  -4.045  0.00  0.00     0.002 A 
ENDROOT
BRANCH   1   7
ATOM      7  C1  UNL d   1      -3.682   1.460  -5.969  0.00  0.00     0.055 C 
ATOM      8  C   UNL d   1      -2.630   0.859  -5.048  0.00  0.00     0.019 C 
ENDBRANCH   1   7
TORSDOF 1
ENDMDL
