MODEL 1
REMARK minimizedAffinity 0.940388739
REMARK minimizedRMSD -1
REMARK  1 active torsions:
REMARK  status: ('A' for Active; 'I' for Inactive)
REMARK    1  A    between atoms: C1_2  and  C2_3 
ROOT
ATOM      1  C2  UNL d   1      -5.561   3.753  -3.260  0.00  0.00    -0.077 A 
ATOM      2  C3  UNL d   1      -5.779   2.667  -4.119  0.00  0.00     0.002 A 
ATOM      3  C4  UNL d   1      -5.999   2.877  -5.482  0.00  0.00     0.002 A 
ATOM      4  C5  UNL d   1      -5.999   4.171  -5.998  0.00  0.00    -0.004 A 
ATOM      5  C6  UNL d   1      -5.785   5.258  -5.152  0.00  0.00     0.002 A 
ATOM      6  C7  UNL d   1      -5.566   5.050  -3.789  0.00  0.00     0.002 A 
ENDROOT
BRANCH   1   7
ATOM      7  C1  UNL d   1      -5.275   3.526  -1.799  0.00  0.00     0.055 C 
ATOM      8  C   UNL d   1      -5.949   2.259  -1.294  0.00  0.00     0.019 C 
ENDBRANCH   1   7
TORSDOF 1
ENDMDL
