MODEL 1
REMARK minimizedAffinity 8.33261776
REMARK minimizedRMSD -1
REMARK  1 active torsions:
REMARK  status: ('A' for Active; 'I' for Inactive)
REMARK    1  A    between atoms: C1_2  and  C2_3 
ROOT
ATOM      1  C2  UNL d   1       0.342   3.103   1.371  0.00  0.00    -0.077 A 
ATOM      2  C3  UNL d   1       1.495   3.602   1.993  0.00  0.00     0.002 A 
ATOM      3  C4  UNL d   1       1.898   3.107   3.234  0.00  0.00     0.002 A 
ATOM      4  C5  UNL d   1       1.157   2.107   3.862  0.00  0.00    -0.004 A 
ATOM      5  C6  UNL d   1       0.008   1.606   3.252  0.00  0.00     0.002 A 
ATOM      6  C7  UNL d   1      -0.397   2.100   2.012  0.00  0.00     0.002 A 
ENDROOT
BRANCH   1   7
ATOM      7  C1  UNL d   1      -0.068   3.601   0.009  0.00  0.00     0.055 C 
ATOM      8  C   UNL d   1       0.133   5.104  -0.114  0.00  0.00     0.019 C 
ENDBRANCH   1   7
TORSDOF 1
ENDMDL
