MODEL 1
REMARK minimizedAffinity 8.3244524
REMARK minimizedRMSD -1
REMARK  1 active torsions:
REMARK  status: ('A' for Active; 'I' for Inactive)
REMARK    1  A    between atoms: C1_2  and  C2_3 
ROOT
ATOM      1  C2  UNL d   1       0.377   3.340   0.140  0.00  0.00    -0.077 A 
ATOM      2  C3  UNL d   1       1.097   4.126  -0.771  0.00  0.00     0.002 A 
ATOM      3  C4  UNL d   1       0.723   5.449  -1.012  0.00  0.00     0.002 A 
ATOM      4  C5  UNL d   1      -0.369   5.999  -0.344  0.00  0.00    -0.004 A 
ATOM      5  C6  UNL d   1      -1.093   5.225   0.563  0.00  0.00     0.002 A 
ATOM      6  C7  UNL d   1      -0.721   3.902   0.804  0.00  0.00     0.002 A 
ENDROOT
BRANCH   1   7
ATOM      7  C1  UNL d   1       0.809   1.928   0.437  0.00  0.00     0.055 C 
ATOM      8  C   UNL d   1       0.692   1.042  -0.794  0.00  0.00     0.019 C 
ENDBRANCH   1   7
TORSDOF 1
ENDMDL
