MODEL 1
REMARK minimizedAffinity 8.55862427
REMARK minimizedRMSD -1
REMARK  1 active torsions:
REMARK  status: ('A' for Active; 'I' for Inactive)
REMARK    1  A    between atoms: C1_2  and  C2_3 
ROOT
ATOM      1  C2  UNL d   1       0.225   2.705   1.273  0.00  0.00    -0.077 A 
ATOM      2  C3  UNL d   1       1.522   2.700   1.806  0.00  0.00     0.002 A 
ATOM      3  C4  UNL d   1       1.766   2.151   3.066  0.00  0.00     0.002 A 
ATOM      4  C5  UNL d   1       0.719   1.598   3.801  0.00  0.00    -0.004 A 
ATOM      5  C6  UNL d   1      -0.575   1.600   3.281  0.00  0.00     0.002 A 
ATOM      6  C7  UNL d   1      -0.820   2.150   2.022  0.00  0.00     0.002 A 
ENDROOT
BRANCH   1   7
ATOM      7  C1  UNL d   1      -0.032   3.253  -0.107  0.00  0.00     0.055 C 
ATOM      8  C   UNL d   1       0.347   4.724  -0.198  0.00  0.00     0.019 C 
ENDBRANCH   1   7
TORSDOF 1
ENDMDL
