MODEL 1
REMARK minimizedAffinity 4.59682322
REMARK minimizedRMSD -1
REMARK  1 active torsions:
REMARK  status: ('A' for Active; 'I' for Inactive)
REMARK    1  A    between atoms: C1_2  and  C2_3 
ROOT
ATOM      1  C2  UNL d   1       1.020   3.840   0.973  0.00  0.00    -0.077 A 
ATOM      2  C3  UNL d   1       1.939   4.856   0.676  0.00  0.00     0.002 A 
ATOM      3  C4  UNL d   1       2.837   5.302   1.648  0.00  0.00     0.002 A 
ATOM      4  C5  UNL d   1       2.827   4.735   2.920  0.00  0.00    -0.004 A 
ATOM      5  C6  UNL d   1       1.915   3.726   3.226  0.00  0.00     0.002 A 
ATOM      6  C7  UNL d   1       1.016   3.280   2.256  0.00  0.00     0.002 A 
ENDROOT
BRANCH   1   7
ATOM      7  C1  UNL d   1       0.084   3.324  -0.089  0.00  0.00     0.055 C 
ATOM      8  C   UNL d   1      -0.616   4.465  -0.812  0.00  0.00     0.019 C 
ENDBRANCH   1   7
TORSDOF 1
ENDMDL
