MODEL 1
REMARK minimizedAffinity 7.85504866
REMARK minimizedRMSD -1
REMARK  0 active torsions:
REMARK  status: ('A' for Active; 'I' for Inactive)
ROOT
ATOM      1  C   UNL d   1       0.729  -5.949   6.000  0.00  0.00     0.077 C 
ATOM      2  C1  UNL d   1       1.259  -5.154   4.844  0.00  0.00    -0.074 A 
ATOM      3  C2  UNL d   1       1.417  -5.738   3.583  0.00  0.00    -0.005 A 
ATOM      4  C3  UNL d   1       1.903  -4.984   2.514  0.00  0.00     0.006 A 
ATOM      5  C4  UNL d   1       2.235  -3.641   2.696  0.00  0.00    -0.005 A 
ATOM      6  C5  UNL d   1       2.083  -3.040   3.949  0.00  0.00    -0.074 A 
ATOM      7  C6  UNL d   1       2.426  -1.595   4.159  0.00  0.00     0.077 C 
ATOM      8  C7  UNL d   1       1.588  -3.802   5.016  0.00  0.00    -0.001 A 
ENDROOT
TORSDOF 0
ENDMDL
