MODEL 1
REMARK minimizedAffinity 5.84437037
REMARK minimizedRMSD -1
REMARK  0 active torsions:
REMARK  status: ('A' for Active; 'I' for Inactive)
ROOT
ATOM      1  C   UNL d   1       1.330  -0.923   2.308  0.00  0.00     0.077 C 
ATOM      2  C1  UNL d   1       2.141  -2.027   2.920  0.00  0.00    -0.074 A 
ATOM      3  C2  UNL d   1       1.532  -3.207   3.359  0.00  0.00    -0.005 A 
ATOM      4  C3  UNL d   1       2.300  -4.229   3.917  0.00  0.00     0.006 A 
ATOM      5  C4  UNL d   1       3.682  -4.081   4.042  0.00  0.00    -0.005 A 
ATOM      6  C5  UNL d   1       4.308  -2.909   3.607  0.00  0.00    -0.074 A 
ATOM      7  C6  UNL d   1       5.794  -2.738   3.725  0.00  0.00     0.077 C 
ATOM      8  C7  UNL d   1       3.530  -1.889   3.041  0.00  0.00    -0.001 A 
ENDROOT
TORSDOF 0
ENDMDL
