MODEL 1
REMARK minimizedAffinity 8.26553059
REMARK minimizedRMSD -1
REMARK  0 active torsions:
REMARK  status: ('A' for Active; 'I' for Inactive)
ROOT
ATOM      1  C   UNL d   1       3.863  -3.883   2.161  0.00  0.00     0.077 C 
ATOM      2  C1  UNL d   1       2.535  -3.473   2.727  0.00  0.00    -0.074 A 
ATOM      3  C2  UNL d   1       1.507  -4.406   2.897  0.00  0.00    -0.005 A 
ATOM      4  C3  UNL d   1       0.281  -4.012   3.433  0.00  0.00     0.006 A 
ATOM      5  C4  UNL d   1       0.072  -2.683   3.804  0.00  0.00    -0.005 A 
ATOM      6  C5  UNL d   1       1.089  -1.736   3.642  0.00  0.00    -0.074 A 
ATOM      7  C6  UNL d   1       0.883  -0.306   4.045  0.00  0.00     0.077 C 
ATOM      8  C7  UNL d   1       2.320  -2.142   3.109  0.00  0.00    -0.001 A 
ENDROOT
TORSDOF 0
ENDMDL
