MODEL 1
REMARK minimizedAffinity 7.25361538
REMARK minimizedRMSD -1
REMARK  0 active torsions:
REMARK  status: ('A' for Active; 'I' for Inactive)
ROOT
ATOM      1  C   UNL d   1       1.114  -4.780   6.000  0.00  0.00     0.077 C 
ATOM      2  C1  UNL d   1       1.479  -4.290   4.630  0.00  0.00    -0.074 A 
ATOM      3  C2  UNL d   1       1.921  -5.178   3.644  0.00  0.00    -0.005 A 
ATOM      4  C3  UNL d   1       2.247  -4.710   2.371  0.00  0.00     0.006 A 
ATOM      5  C4  UNL d   1       2.136  -3.351   2.073  0.00  0.00    -0.005 A 
ATOM      6  C5  UNL d   1       1.695  -2.449   3.046  0.00  0.00    -0.074 A 
ATOM      7  C6  UNL d   1       1.560  -0.987   2.739  0.00  0.00     0.077 C 
ATOM      8  C7  UNL d   1       1.362  -2.928   4.320  0.00  0.00    -0.001 A 
ENDROOT
TORSDOF 0
ENDMDL
