MODEL 1
REMARK minimizedAffinity -0.723090231
REMARK minimizedRMSD -1
REMARK  0 active torsions:
REMARK  status: ('A' for Active; 'I' for Inactive)
ROOT
ATOM      1  C   UNL d   1       2.440  -6.000  -0.323  0.00  0.00     0.077 C 
ATOM      2  C1  UNL d   1       3.106  -5.992  -1.667  0.00  0.00    -0.074 A 
ATOM      3  C2  UNL d   1       4.500  -5.997  -1.778  0.00  0.00    -0.005 A 
ATOM      4  C3  UNL d   1       5.106  -5.999  -3.034  0.00  0.00     0.006 A 
ATOM      5  C4  UNL d   1       4.325  -5.997  -4.190  0.00  0.00    -0.005 A 
ATOM      6  C5  UNL d   1       2.929  -5.993  -4.099  0.00  0.00    -0.074 A 
ATOM      7  C6  UNL d   1       2.075  -6.000  -5.332  0.00  0.00     0.077 C 
ATOM      8  C7  UNL d   1       2.328  -5.997  -2.833  0.00  0.00    -0.001 A 
ENDROOT
TORSDOF 0
ENDMDL
