MODEL 1
REMARK minimizedAffinity 15.0447083
REMARK minimizedRMSD -1
REMARK  0 active torsions:
REMARK  status: ('A' for Active; 'I' for Inactive)
ROOT
ATOM      1  C   UNL d   1       1.589  -0.825   2.609  0.00  0.00     0.077 C 
ATOM      2  C1  UNL d   1       2.143  -2.070   3.234  0.00  0.00    -0.074 A 
ATOM      3  C2  UNL d   1       1.516  -3.307   3.051  0.00  0.00    -0.005 A 
ATOM      4  C3  UNL d   1       2.049  -4.458   3.632  0.00  0.00     0.006 A 
ATOM      5  C4  UNL d   1       3.212  -4.384   4.400  0.00  0.00    -0.005 A 
ATOM      6  C5  UNL d   1       3.853  -3.157   4.593  0.00  0.00    -0.074 A 
ATOM      7  C6  UNL d   1       5.109  -3.061   5.407  0.00  0.00     0.077 C 
ATOM      8  C7  UNL d   1       3.315  -2.006   4.001  0.00  0.00    -0.001 A 
ENDROOT
TORSDOF 0
ENDMDL
