MODEL 1
REMARK minimizedAffinity 8.98862076
REMARK minimizedRMSD -1
REMARK  0 active torsions:
REMARK  status: ('A' for Active; 'I' for Inactive)
ROOT
ATOM      1  C   UNL d   1       3.393   2.141   0.065  0.00  0.00     0.077 C 
ATOM      2  C1  UNL d   1       2.896   1.503   1.328  0.00  0.00    -0.074 A 
ATOM      3  C2  UNL d   1       2.752   2.248   2.502  0.00  0.00    -0.005 A 
ATOM      4  C3  UNL d   1       2.280   1.643   3.667  0.00  0.00     0.006 A 
ATOM      5  C4  UNL d   1       1.947   0.288   3.669  0.00  0.00    -0.005 A 
ATOM      6  C5  UNL d   1       2.084  -0.474   2.504  0.00  0.00    -0.074 A 
ATOM      7  C6  UNL d   1       1.721  -1.929   2.486  0.00  0.00     0.077 C 
ATOM      8  C7  UNL d   1       2.552   0.143   1.336  0.00  0.00    -0.001 A 
ENDROOT
TORSDOF 0
ENDMDL
