MODEL 1
REMARK minimizedAffinity 11.3357582
REMARK minimizedRMSD -1
REMARK  0 active torsions:
REMARK  status: ('A' for Active; 'I' for Inactive)
ROOT
ATOM      1  C   UNL d   1      -4.535   2.561  -3.922  0.00  0.00     0.077 C 
ATOM      2  C1  UNL d   1      -3.769   1.620  -3.041  0.00  0.00    -0.074 A 
ATOM      3  C2  UNL d   1      -3.005   2.097  -1.971  0.00  0.00    -0.005 A 
ATOM      4  C3  UNL d   1      -2.306   1.209  -1.154  0.00  0.00     0.006 A 
ATOM      5  C4  UNL d   1      -2.364  -0.164  -1.398  0.00  0.00    -0.005 A 
ATOM      6  C5  UNL d   1      -3.123  -0.660  -2.463  0.00  0.00    -0.074 A 
ATOM      7  C6  UNL d   1      -3.203  -2.133  -2.733  0.00  0.00     0.077 C 
ATOM      8  C7  UNL d   1      -3.828   0.239  -3.275  0.00  0.00    -0.001 A 
ENDROOT
TORSDOF 0
ENDMDL
