MODEL 1
REMARK minimizedAffinity -0.940488636
REMARK minimizedRMSD -1
REMARK  1 active torsions:
REMARK  status: ('A' for Active; 'I' for Inactive)
REMARK    1  A    between atoms: C1_2  and  C2_3 
ROOT
ATOM      1  C2  UNL d   1      -0.516   1.227  -0.655  0.00  0.00    -0.081 A 
ATOM      2  C3  UNL d   1       0.791   1.009  -1.108  0.00  0.00     0.006 A 
ATOM      3  C4  UNL d   1       1.627   0.104  -0.450  0.00  0.00     0.002 A 
ATOM      4  C5  UNL d   1       1.167  -0.605   0.665  0.00  0.00    -0.080 A 
ATOM      5  C6  UNL d   1       2.044  -1.603   1.362  0.00  0.00     0.076 C 
ATOM      6  C7  UNL d   1      -0.133  -0.375   1.128  0.00  0.00     0.002 A 
ATOM      7  C8  UNL d   1      -0.969   0.531   0.471  0.00  0.00     0.006 A 
ENDROOT
BRANCH   1   8
ATOM      8  C1  UNL d   1      -1.441   2.155  -1.401  0.00  0.00     0.054 C 
ATOM      9  C   UNL d   1      -2.107   1.448  -2.573  0.00  0.00     0.018 C 
ENDBRANCH   1   8
TORSDOF 1
ENDMDL
