MODEL 1
REMARK minimizedAffinity -4.66656637
REMARK minimizedRMSD -1
REMARK  1 active torsions:
REMARK  status: ('A' for Active; 'I' for Inactive)
REMARK    1  A    between atoms: C1_2  and  C2_3 
ROOT
ATOM      1  C2  UNL d   1      -0.282   0.847  -0.209  0.00  0.00    -0.081 A 
ATOM      2  C3  UNL d   1       1.035   0.561  -0.590  0.00  0.00     0.006 A 
ATOM      3  C4  UNL d   1       1.722  -0.511  -0.015  0.00  0.00     0.002 A 
ATOM      4  C5  UNL d   1       1.102  -1.319   0.944  0.00  0.00    -0.080 A 
ATOM      5  C6  UNL d   1       1.818  -2.491   1.547  0.00  0.00     0.076 C 
ATOM      6  C7  UNL d   1      -0.207  -1.023   1.338  0.00  0.00     0.002 A 
ATOM      7  C8  UNL d   1      -0.895   0.049   0.764  0.00  0.00     0.006 A 
ENDROOT
BRANCH   1   8
ATOM      8  C1  UNL d   1      -1.047   1.962  -0.874  0.00  0.00     0.054 C 
ATOM      9  C   UNL d   1      -2.273   1.433  -1.604  0.00  0.00     0.018 C 
ENDBRANCH   1   8
TORSDOF 1
ENDMDL
