MODEL 1
REMARK minimizedAffinity -2.8230114
REMARK minimizedRMSD -1
REMARK  1 active torsions:
REMARK  status: ('A' for Active; 'I' for Inactive)
REMARK    1  A    between atoms: C1_2  and  C2_3 
ROOT
ATOM      1  C2  UNL d   1      -0.928   1.352  -1.348  0.00  0.00    -0.081 A 
ATOM      2  C3  UNL d   1      -0.250   0.319  -2.006  0.00  0.00     0.006 A 
ATOM      3  C4  UNL d   1       0.581  -0.549  -1.294  0.00  0.00     0.002 A 
ATOM      4  C5  UNL d   1       0.742  -0.403   0.088  0.00  0.00    -0.080 A 
ATOM      5  C6  UNL d   1       1.608  -1.346   0.869  0.00  0.00     0.076 C 
ATOM      6  C7  UNL d   1       0.079   0.640   0.743  0.00  0.00     0.002 A 
ATOM      7  C8  UNL d   1      -0.751   1.509   0.031  0.00  0.00     0.006 A 
ENDROOT
BRANCH   1   8
ATOM      8  C1  UNL d   1      -1.875   2.250  -2.103  0.00  0.00     0.054 C 
ATOM      9  C   UNL d   1      -3.170   1.526  -2.443  0.00  0.00     0.018 C 
ENDBRANCH   1   8
TORSDOF 1
ENDMDL
