MODEL 1
REMARK minimizedAffinity -1.72442317
REMARK minimizedRMSD -1
REMARK  1 active torsions:
REMARK  status: ('A' for Active; 'I' for Inactive)
REMARK    1  A    between atoms: C1_2  and  C2_3 
ROOT
ATOM      1  C2  UNL d   1      -0.456   0.815  -0.854  0.00  0.00    -0.081 A 
ATOM      2  C3  UNL d   1      -0.874   0.565   0.458  0.00  0.00     0.006 A 
ATOM      3  C4  UNL d   1      -0.221  -0.390   1.240  0.00  0.00     0.002 A 
ATOM      4  C5  UNL d   1       0.865  -1.106   0.726  0.00  0.00    -0.080 A 
ATOM      5  C6  UNL d   1       1.594  -2.113   1.565  0.00  0.00     0.076 C 
ATOM      6  C7  UNL d   1       1.272  -0.870  -0.591  0.00  0.00     0.002 A 
ATOM      7  C8  UNL d   1       0.619   0.085  -1.374  0.00  0.00     0.006 A 
ENDROOT
BRANCH   1   8
ATOM      8  C1  UNL d   1      -1.117   1.890  -1.678  0.00  0.00     0.054 C 
ATOM      9  C   UNL d   1      -1.400   1.407  -3.094  0.00  0.00     0.018 C 
ENDBRANCH   1   8
TORSDOF 1
ENDMDL
