MODEL 1
REMARK minimizedAffinity 5.56220198
REMARK minimizedRMSD -1
REMARK  1 active torsions:
REMARK  status: ('A' for Active; 'I' for Inactive)
REMARK    1  A    between atoms: C1_2  and  C2_3 
ROOT
ATOM      1  C2  UNL d   1       0.963  -1.957   1.468  0.00  0.00    -0.081 A 
ATOM      2  C3  UNL d   1       1.604  -0.737   1.220  0.00  0.00     0.006 A 
ATOM      3  C4  UNL d   1       2.483  -0.604   0.143  0.00  0.00     0.002 A 
ATOM      4  C5  UNL d   1       2.730  -1.686  -0.709  0.00  0.00    -0.080 A 
ATOM      5  C6  UNL d   1       3.648  -1.547  -1.887  0.00  0.00     0.076 C 
ATOM      6  C7  UNL d   1       2.104  -2.910  -0.452  0.00  0.00     0.002 A 
ATOM      7  C8  UNL d   1       1.225  -3.044   0.626  0.00  0.00     0.006 A 
ENDROOT
BRANCH   1   8
ATOM      8  C1  UNL d   1      -0.035  -2.086   2.590  0.00  0.00     0.054 C 
ATOM      9  C   UNL d   1      -1.014  -0.921   2.596  0.00  0.00     0.018 C 
ENDBRANCH   1   8
TORSDOF 1
ENDMDL
