MODEL 1
REMARK minimizedAffinity -1.52776313
REMARK minimizedRMSD -1
REMARK  1 active torsions:
REMARK  status: ('A' for Active; 'I' for Inactive)
REMARK    1  A    between atoms: C1_2  and  C2_3 
ROOT
ATOM      1  C2  UNL d   1      -0.548   1.331  -0.915  0.00  0.00    -0.081 A 
ATOM      2  C3  UNL d   1       0.733   1.284  -1.479  0.00  0.00     0.006 A 
ATOM      3  C4  UNL d   1       1.758   0.574  -0.850  0.00  0.00     0.002 A 
ATOM      4  C5  UNL d   1       1.518  -0.108   0.348  0.00  0.00    -0.080 A 
ATOM      5  C6  UNL d   1       2.602  -0.899   1.018  0.00  0.00     0.076 C 
ATOM      6  C7  UNL d   1       0.243  -0.047   0.920  0.00  0.00     0.002 A 
ATOM      7  C8  UNL d   1      -0.783   0.664   0.292  0.00  0.00     0.006 A 
ENDROOT
BRANCH   1   8
ATOM      8  C1  UNL d   1      -1.672   2.042  -1.625  0.00  0.00     0.054 C 
ATOM      9  C   UNL d   1      -1.887   1.481  -3.023  0.00  0.00     0.018 C 
ENDBRANCH   1   8
TORSDOF 1
ENDMDL
