MODEL 1
REMARK minimizedAffinity -1.76516032
REMARK minimizedRMSD -1
REMARK  1 active torsions:
REMARK  status: ('A' for Active; 'I' for Inactive)
REMARK    1  A    between atoms: C1_2  and  C2_3 
ROOT
ATOM      1  C2  UNL d   1      -1.103   1.005  -1.036  0.00  0.00    -0.081 A 
ATOM      2  C3  UNL d   1      -0.983   0.693   0.324  0.00  0.00     0.006 A 
ATOM      3  C4  UNL d   1       0.115  -0.034   0.789  0.00  0.00     0.002 A 
ATOM      4  C5  UNL d   1       1.114  -0.454  -0.096  0.00  0.00    -0.080 A 
ATOM      5  C6  UNL d   1       2.314  -1.210   0.395  0.00  0.00     0.076 C 
ATOM      6  C7  UNL d   1       0.985  -0.157  -1.457  0.00  0.00     0.002 A 
ATOM      7  C8  UNL d   1      -0.113   0.569  -1.922  0.00  0.00     0.006 A 
ENDROOT
BRANCH   1   8
ATOM      8  C1  UNL d   1      -2.253   1.845  -1.530  0.00  0.00     0.054 C 
ATOM      9  C   UNL d   1      -2.747   1.364  -2.887  0.00  0.00     0.018 C 
ENDBRANCH   1   8
TORSDOF 1
ENDMDL
