MODEL 1
REMARK minimizedAffinity -1.40541685
REMARK minimizedRMSD -1
REMARK  1 active torsions:
REMARK  status: ('A' for Active; 'I' for Inactive)
REMARK    1  A    between atoms: C1_2  and  C2_3 
ROOT
ATOM      1  C2  UNL d   1      -2.006   0.986  -0.193  0.00  0.00    -0.081 A 
ATOM      2  C3  UNL d   1      -3.138   0.742  -0.980  0.00  0.00     0.006 A 
ATOM      3  C4  UNL d   1      -3.240   1.286  -2.263  0.00  0.00     0.002 A 
ATOM      4  C5  UNL d   1      -2.209   2.077  -2.782  0.00  0.00    -0.080 A 
ATOM      5  C6  UNL d   1      -2.293   2.643  -4.168  0.00  0.00     0.076 C 
ATOM      6  C7  UNL d   1      -1.086   2.335  -1.989  0.00  0.00     0.002 A 
ATOM      7  C8  UNL d   1      -0.984   1.791  -0.707  0.00  0.00     0.006 A 
ENDROOT
BRANCH   1   8
ATOM      8  C1  UNL d   1      -1.864   0.347   1.165  0.00  0.00     0.054 C 
ATOM      9  C   UNL d   1      -0.965  -0.879   1.108  0.00  0.00     0.018 C 
ENDBRANCH   1   8
TORSDOF 1
ENDMDL
