MODEL 1
REMARK minimizedAffinity 0.152244881
REMARK minimizedRMSD -1
REMARK  1 active torsions:
REMARK  status: ('A' for Active; 'I' for Inactive)
REMARK    1  A    between atoms: C1_2  and  C2_3 
ROOT
ATOM      1  C2  UNL d   1      -0.583   1.095  -0.786  0.00  0.00    -0.081 A 
ATOM      2  C3  UNL d   1       0.721   1.129  -1.294  0.00  0.00     0.006 A 
ATOM      3  C4  UNL d   1       1.712   0.303  -0.759  0.00  0.00     0.002 A 
ATOM      4  C5  UNL d   1       1.413  -0.576   0.288  0.00  0.00    -0.080 A 
ATOM      5  C6  UNL d   1       2.460  -1.490   0.852  0.00  0.00     0.076 C 
ATOM      6  C7  UNL d   1       0.115  -0.598   0.807  0.00  0.00     0.002 A 
ATOM      7  C8  UNL d   1      -0.876   0.228   0.272  0.00  0.00     0.006 A 
ENDROOT
BRANCH   1   8
ATOM      8  C1  UNL d   1      -1.669   1.938  -1.405  0.00  0.00     0.054 C 
ATOM      9  C   UNL d   1      -1.615   1.881  -2.925  0.00  0.00     0.018 C 
ENDBRANCH   1   8
TORSDOF 1
ENDMDL
