MODEL 1
REMARK minimizedAffinity -4.06748009
REMARK minimizedRMSD -1
REMARK  1 active torsions:
REMARK  status: ('A' for Active; 'I' for Inactive)
REMARK    1  A    between atoms: C1_2  and  C2_3 
ROOT
ATOM      1  C2  UNL d   1       0.115   0.148  -0.253  0.00  0.00    -0.081 A 
ATOM      2  C3  UNL d   1      -0.634  -0.670  -1.108  0.00  0.00     0.006 A 
ATOM      3  C4  UNL d   1      -1.692  -0.139  -1.849  0.00  0.00     0.002 A 
ATOM      4  C5  UNL d   1      -2.013   1.219  -1.755  0.00  0.00    -0.080 A 
ATOM      5  C6  UNL d   1      -3.127   1.808  -2.569  0.00  0.00     0.076 C 
ATOM      6  C7  UNL d   1      -1.277   2.033  -0.888  0.00  0.00     0.002 A 
ATOM      7  C8  UNL d   1      -0.219   1.503  -0.145  0.00  0.00     0.006 A 
ENDROOT
BRANCH   1   8
ATOM      8  C1  UNL d   1       1.297  -0.407   0.500  0.00  0.00     0.054 C 
ATOM      9  C   UNL d   1       2.245  -1.151  -0.431  0.00  0.00     0.018 C 
ENDBRANCH   1   8
TORSDOF 1
ENDMDL
