MODEL 1
REMARK minimizedAffinity -5.23403406
REMARK minimizedRMSD -1
REMARK  1 active torsions:
REMARK  status: ('A' for Active; 'I' for Inactive)
REMARK    1  A    between atoms: C1_2  and  C2_3 
ROOT
ATOM      1  C2  UNL d   1      -0.349   1.210  -0.646  0.00  0.00    -0.081 A 
ATOM      2  C3  UNL d   1       1.012   1.132  -0.963  0.00  0.00     0.006 A 
ATOM      3  C4  UNL d   1       1.821   0.154  -0.377  0.00  0.00     0.002 A 
ATOM      4  C5  UNL d   1       1.280  -0.765   0.528  0.00  0.00    -0.080 A 
ATOM      5  C6  UNL d   1       2.130  -1.838   1.141  0.00  0.00     0.076 C 
ATOM      6  C7  UNL d   1      -0.077  -0.676   0.858  0.00  0.00     0.002 A 
ATOM      7  C8  UNL d   1      -0.885   0.302   0.273  0.00  0.00     0.006 A 
ENDROOT
BRANCH   1   8
ATOM      8  C1  UNL d   1      -1.237   2.221  -1.325  0.00  0.00     0.054 C 
ATOM      9  C   UNL d   1      -2.350   1.542  -2.110  0.00  0.00     0.018 C 
ENDBRANCH   1   8
TORSDOF 1
ENDMDL
