MODEL 1
REMARK minimizedAffinity -2.78230047
REMARK minimizedRMSD -1
REMARK  1 active torsions:
REMARK  status: ('A' for Active; 'I' for Inactive)
REMARK    1  A    between atoms: C1_2  and  C2_3 
ROOT
ATOM      1  C2  UNL d   1      -0.452   1.254  -1.093  0.00  0.00    -0.081 A 
ATOM      2  C3  UNL d   1      -0.897   0.469  -0.022  0.00  0.00     0.006 A 
ATOM      3  C4  UNL d   1      -0.029  -0.425   0.608  0.00  0.00     0.002 A 
ATOM      4  C5  UNL d   1       1.299  -0.544   0.185  0.00  0.00    -0.080 A 
ATOM      5  C6  UNL d   1       2.249  -1.479   0.872  0.00  0.00     0.076 C 
ATOM      6  C7  UNL d   1       1.739   0.227  -0.896  0.00  0.00     0.002 A 
ATOM      7  C8  UNL d   1       0.871   1.121  -1.528  0.00  0.00     0.006 A 
ENDROOT
BRANCH   1   8
ATOM      8  C1  UNL d   1      -1.367   2.267  -1.733  0.00  0.00     0.054 C 
ATOM      9  C   UNL d   1      -2.185   1.642  -2.854  0.00  0.00     0.018 C 
ENDBRANCH   1   8
TORSDOF 1
ENDMDL
