MODEL 1
REMARK minimizedAffinity -1.3732208
REMARK minimizedRMSD -1
REMARK  0 active torsions:
REMARK  status: ('A' for Active; 'I' for Inactive)
ROOT
ATOM      1  N1  IND d   1       1.137  -5.866  -1.741  0.00  0.00    -0.196 N 
ATOM      2  C2  IND d   1       1.497  -5.938  -0.424  0.00  0.00     0.054 A 
ATOM      3  C3  IND d   1       1.566  -4.700   0.113  0.00  0.00    -0.031 A 
ATOM      4  C4  IND d   1       1.032  -2.420  -0.957  0.00  0.00     0.051 A 
ATOM      5  C5  IND d   1       0.698  -1.842  -2.149  0.00  0.00    -0.031 A 
ATOM      6  C6  IND d   1       0.487  -2.590  -3.289  0.00  0.00     0.015 A 
ATOM      7  C7  IND d   1       0.590  -3.952  -3.276  0.00  0.00    -0.016 A 
ATOM      8  C8  IND d   1       0.936  -4.543  -2.069  0.00  0.00    -0.047 A 
ATOM      9  C9  IND d   1       1.194  -3.785  -0.919  0.00  0.00    -0.096 A 
ATOM     10  HN1 IND d   1       1.051  -6.534  -2.275  0.00  0.00     0.298 HD
ENDROOT
TORSDOF 0
ENDMDL
