MODEL 1
REMARK minimizedAffinity -3.10181236
REMARK minimizedRMSD -1
REMARK  0 active torsions:
REMARK  status: ('A' for Active; 'I' for Inactive)
ROOT
ATOM      1  N1  IND d   1       0.715   2.740  -0.459  0.00  0.00    -0.196 N 
ATOM      2  C2  IND d   1       0.264   3.765   0.325  0.00  0.00     0.054 A 
ATOM      3  C3  IND d   1      -0.309   3.280   1.449  0.00  0.00    -0.031 A 
ATOM      4  C4  IND d   1      -0.525   0.844   2.255  0.00  0.00     0.051 A 
ATOM      5  C5  IND d   1      -0.295  -0.445   1.863  0.00  0.00    -0.031 A 
ATOM      6  C6  IND d   1       0.298  -0.744   0.654  0.00  0.00     0.015 A 
ATOM      7  C7  IND d   1       0.695   0.239  -0.208  0.00  0.00    -0.016 A 
ATOM      8  C8  IND d   1       0.456   1.549   0.184  0.00  0.00    -0.047 A 
ATOM      9  C9  IND d   1      -0.183   1.858   1.391  0.00  0.00    -0.096 A 
ATOM     10  HN1 IND d   1       1.096   2.824  -1.225  0.00  0.00     0.298 HD
ENDROOT
TORSDOF 0
ENDMDL
