MODEL 1
REMARK minimizedAffinity -0.817342103
REMARK minimizedRMSD -1
REMARK  0 active torsions:
REMARK  status: ('A' for Active; 'I' for Inactive)
ROOT
ATOM      1  N1  IND d   1       0.820  -0.139  -0.512  0.00  0.00    -0.196 N 
ATOM      2  C2  IND d   1       0.490  -1.369  -0.015  0.00  0.00     0.054 A 
ATOM      3  C3  IND d   1      -0.280  -1.239   1.088  0.00  0.00    -0.031 A 
ATOM      4  C4  IND d   1      -1.206   0.893   2.195  0.00  0.00     0.051 A 
ATOM      5  C5  IND d   1      -1.147   2.256   2.123  0.00  0.00    -0.031 A 
ATOM      6  C6  IND d   1      -0.417   2.904   1.147  0.00  0.00     0.015 A 
ATOM      7  C7  IND d   1       0.275   2.209   0.196  0.00  0.00    -0.016 A 
ATOM      8  C8  IND d   1       0.224   0.825   0.271  0.00  0.00    -0.047 A 
ATOM      9  C9  IND d   1      -0.481   0.162   1.284  0.00  0.00    -0.096 A 
ATOM     10  HN1 IND d   1       1.317   0.008  -1.199  0.00  0.00     0.298 HD
ENDROOT
TORSDOF 0
ENDMDL
