MODEL 1
REMARK minimizedAffinity -2.5385685
REMARK minimizedRMSD -1
REMARK  0 active torsions:
REMARK  status: ('A' for Active; 'I' for Inactive)
ROOT
ATOM      1  N1  IND d   1       1.311  -1.363  -2.298  0.00  0.00    -0.196 N 
ATOM      2  C2  IND d   1       0.925  -2.641  -2.596  0.00  0.00     0.054 A 
ATOM      3  C3  IND d   1       0.037  -3.089  -1.681  0.00  0.00    -0.031 A 
ATOM      4  C4  IND d   1      -1.003  -1.862   0.329  0.00  0.00     0.051 A 
ATOM      5  C5  IND d   1      -0.934  -0.689   1.028  0.00  0.00    -0.031 A 
ATOM      6  C6  IND d   1      -0.099   0.340   0.645  0.00  0.00     0.015 A 
ATOM      7  C7  IND d   1       0.694   0.240  -0.463  0.00  0.00    -0.016 A 
ATOM      8  C8  IND d   1       0.632  -0.952  -1.171  0.00  0.00    -0.047 A 
ATOM      9  C9  IND d   1      -0.182  -2.017  -0.763  0.00  0.00    -0.096 A 
ATOM     10  HN1 IND d   1       1.881  -0.895  -2.740  0.00  0.00     0.298 HD
ENDROOT
TORSDOF 0
ENDMDL
