MODEL 1
REMARK minimizedAffinity -2.75578427
REMARK minimizedRMSD -1
REMARK  0 active torsions:
REMARK  status: ('A' for Active; 'I' for Inactive)
ROOT
ATOM      1  N1  IND d   1       0.062   2.906  -0.799  0.00  0.00    -0.196 N 
ATOM      2  C2  IND d   1      -0.272   3.987  -0.031  0.00  0.00     0.054 A 
ATOM      3  C3  IND d   1      -0.820   3.582   1.137  0.00  0.00    -0.031 A 
ATOM      4  C4  IND d   1      -1.172   1.197   2.039  0.00  0.00     0.051 A 
ATOM      5  C5  IND d   1      -1.057  -0.117   1.683  0.00  0.00    -0.031 A 
ATOM      6  C6  IND d   1      -0.551  -0.499   0.457  0.00  0.00     0.015 A 
ATOM      7  C7  IND d   1      -0.128   0.424  -0.457  0.00  0.00    -0.016 A 
ATOM      8  C8  IND d   1      -0.249   1.760  -0.102  0.00  0.00    -0.047 A 
ATOM      9  C9  IND d   1      -0.802   2.154   1.124  0.00  0.00    -0.096 A 
ATOM     10  HN1 IND d   1       0.408   2.938  -1.585  0.00  0.00     0.298 HD
ENDROOT
TORSDOF 0
ENDMDL
