MODEL 1
REMARK minimizedAffinity 0.970926464
REMARK minimizedRMSD -1
REMARK  0 active torsions:
REMARK  status: ('A' for Active; 'I' for Inactive)
ROOT
ATOM      1  N1  IND d   1       1.352  -0.467  -0.839  0.00  0.00    -0.196 N 
ATOM      2  C2  IND d   1       0.984  -1.655  -1.407  0.00  0.00     0.054 A 
ATOM      3  C3  IND d   1      -0.159  -2.110  -0.847  0.00  0.00    -0.031 A 
ATOM      4  C4  IND d   1      -1.649  -1.020   0.946  0.00  0.00     0.051 A 
ATOM      5  C5  IND d   1      -1.707   0.051   1.794  0.00  0.00    -0.031 A 
ATOM      6  C6  IND d   1      -0.729   1.025   1.805  0.00  0.00     0.015 A 
ATOM      7  C7  IND d   1       0.341   0.970   0.958  0.00  0.00    -0.016 A 
ATOM      8  C8  IND d   1       0.406  -0.120   0.101  0.00  0.00    -0.047 A 
ATOM      9  C9  IND d   1      -0.561  -1.133   0.114  0.00  0.00    -0.096 A 
ATOM     10  HN1 IND d   1       2.056  -0.014  -1.035  0.00  0.00     0.298 HD
ENDROOT
TORSDOF 0
ENDMDL
