MODEL 1
REMARK minimizedAffinity -2.66310835
REMARK minimizedRMSD -1
REMARK  0 active torsions:
REMARK  status: ('A' for Active; 'I' for Inactive)
ROOT
ATOM      1  N1  IND d   1       0.719   2.310  -0.867  0.00  0.00    -0.196 N 
ATOM      2  C2  IND d   1       0.263   3.511  -0.402  0.00  0.00     0.054 A 
ATOM      3  C3  IND d   1      -0.491   3.331   0.706  0.00  0.00    -0.031 A 
ATOM      4  C4  IND d   1      -1.022   1.162   1.988  0.00  0.00     0.051 A 
ATOM      5  C5  IND d   1      -0.858  -0.193   1.926  0.00  0.00    -0.031 A 
ATOM      6  C6  IND d   1      -0.143  -0.795   0.911  0.00  0.00     0.015 A 
ATOM      7  C7  IND d   1       0.447  -0.060  -0.078  0.00  0.00    -0.016 A 
ATOM      8  C8  IND d   1       0.276   1.316  -0.023  0.00  0.00    -0.047 A 
ATOM      9  C9  IND d   1      -0.484   1.929   0.981  0.00  0.00    -0.096 A 
ATOM     10  HN1 IND d   1       1.201   2.194  -1.570  0.00  0.00     0.298 HD
ENDROOT
TORSDOF 0
ENDMDL
