MODEL 1
REMARK minimizedAffinity 0.403869957
REMARK minimizedRMSD -1
REMARK  0 active torsions:
REMARK  status: ('A' for Active; 'I' for Inactive)
ROOT
ATOM      1  N1  IND d   1       1.316  -0.139  -0.799  0.00  0.00    -0.196 N 
ATOM      2  C2  IND d   1       0.926   0.989  -1.464  0.00  0.00     0.054 A 
ATOM      3  C3  IND d   1       0.132   1.749  -0.676  0.00  0.00    -0.031 A 
ATOM      4  C4  IND d   1      -0.573   1.383   1.773  0.00  0.00     0.051 A 
ATOM      5  C5  IND d   1      -0.495   0.477   2.792  0.00  0.00    -0.031 A 
ATOM      6  C6  IND d   1       0.208  -0.704   2.665  0.00  0.00     0.015 A 
ATOM      7  C7  IND d   1       0.870  -1.019   1.513  0.00  0.00    -0.016 A 
ATOM      8  C8  IND d   1       0.787  -0.104   0.473  0.00  0.00    -0.047 A 
ATOM      9  C9  IND d   1       0.041   1.077   0.581  0.00  0.00    -0.096 A 
ATOM     10  HN1 IND d   1       1.809  -0.766  -1.120  0.00  0.00     0.298 HD
ENDROOT
TORSDOF 0
ENDMDL
