MODEL 1
REMARK minimizedAffinity -4.27353573
REMARK minimizedRMSD -1
REMARK  0 active torsions:
REMARK  status: ('A' for Active; 'I' for Inactive)
ROOT
ATOM      1  N1  IND d   1       0.302   0.546  -0.637  0.00  0.00    -0.196 N 
ATOM      2  C2  IND d   1       0.051  -0.675  -0.076  0.00  0.00     0.054 A 
ATOM      3  C3  IND d   1      -0.672  -0.532   1.058  0.00  0.00    -0.031 A 
ATOM      4  C4  IND d   1      -1.637   1.603   2.124  0.00  0.00     0.051 A 
ATOM      5  C5  IND d   1      -1.643   2.963   1.995  0.00  0.00    -0.031 A 
ATOM      6  C6  IND d   1      -0.990   3.600   0.960  0.00  0.00     0.015 A 
ATOM      7  C7  IND d   1      -0.313   2.897   0.005  0.00  0.00    -0.016 A 
ATOM      8  C8  IND d   1      -0.299   1.515   0.136  0.00  0.00    -0.047 A 
ATOM      9  C9  IND d   1      -0.925   0.866   1.208  0.00  0.00    -0.096 A 
ATOM     10  HN1 IND d   1       0.758   0.685  -1.352  0.00  0.00     0.298 HD
ENDROOT
TORSDOF 0
ENDMDL
