MODEL 1
REMARK minimizedAffinity -4.51990938
REMARK minimizedRMSD -1
REMARK  0 active torsions:
REMARK  status: ('A' for Active; 'I' for Inactive)
ROOT
ATOM      1  N1  IND d   1       0.400   0.090  -0.131  0.00  0.00    -0.196 N 
ATOM      2  C2  IND d   1       0.144  -0.945   0.725  0.00  0.00     0.054 A 
ATOM      3  C3  IND d   1      -0.687  -0.545   1.713  0.00  0.00    -0.031 A 
ATOM      4  C4  IND d   1      -1.831   1.735   2.064  0.00  0.00     0.051 A 
ATOM      5  C5  IND d   1      -1.876   3.006   1.563  0.00  0.00    -0.031 A 
ATOM      6  C6  IND d   1      -1.153   3.376   0.448  0.00  0.00     0.015 A 
ATOM      7  C7  IND d   1      -0.362   2.483  -0.218  0.00  0.00    -0.016 A 
ATOM      8  C8  IND d   1      -0.308   1.193   0.292  0.00  0.00    -0.047 A 
ATOM      9  C9  IND d   1      -1.007   0.823   1.449  0.00  0.00    -0.096 A 
ATOM     10  HN1 IND d   1       0.916   0.057  -0.817  0.00  0.00     0.298 HD
ENDROOT
TORSDOF 0
ENDMDL
