MODEL 1
REMARK minimizedAffinity -4.23941946
REMARK minimizedRMSD -1
REMARK  0 active torsions:
REMARK  status: ('A' for Active; 'I' for Inactive)
ROOT
ATOM      1  N1  IND d   1       0.779   0.232  -0.942  0.00  0.00    -0.196 N 
ATOM      2  C2  IND d   1       0.466  -1.071  -0.668  0.00  0.00     0.054 A 
ATOM      3  C3  IND d   1      -0.351  -1.143   0.407  0.00  0.00    -0.031 A 
ATOM      4  C4  IND d   1      -1.380   0.755   1.808  0.00  0.00     0.051 A 
ATOM      5  C5  IND d   1      -1.359   2.113   1.964  0.00  0.00    -0.031 A 
ATOM      6  C6  IND d   1      -0.611   2.930   1.141  0.00  0.00     0.015 A 
ATOM      7  C7  IND d   1       0.138   2.418   0.120  0.00  0.00    -0.016 A 
ATOM      8  C8  IND d   1       0.124   1.039  -0.037  0.00  0.00    -0.047 A 
ATOM      9  C9  IND d   1      -0.599   0.202   0.822  0.00  0.00    -0.096 A 
ATOM     10  HN1 IND d   1       1.297   0.502  -1.572  0.00  0.00     0.298 HD
ENDROOT
TORSDOF 0
ENDMDL
