MODEL 1
REMARK minimizedAffinity -4.97279167
REMARK minimizedRMSD -1
REMARK  0 active torsions:
REMARK  status: ('A' for Active; 'I' for Inactive)
ROOT
ATOM      1  N1  IND d   1       1.329  -5.973  -0.719  0.00  0.00    -0.196 N 
ATOM      2  C2  IND d   1       2.258  -5.816   0.271  0.00  0.00     0.054 A 
ATOM      3  C3  IND d   1       2.699  -4.539   0.304  0.00  0.00    -0.031 A 
ATOM      4  C4  IND d   1       1.959  -2.516  -1.106  0.00  0.00     0.051 A 
ATOM      5  C5  IND d   1       1.163  -2.173  -2.162  0.00  0.00    -0.031 A 
ATOM      6  C6  IND d   1       0.363  -3.097  -2.803  0.00  0.00     0.015 A 
ATOM      7  C7  IND d   1       0.321  -4.402  -2.402  0.00  0.00    -0.016 A 
ATOM      8  C8  IND d   1       1.133  -4.756  -1.334  0.00  0.00    -0.047 A 
ATOM      9  C9  IND d   1       1.979  -3.832  -0.707  0.00  0.00    -0.096 A 
ATOM     10  HN1 IND d   1       0.933  -6.709  -0.924  0.00  0.00     0.298 HD
ENDROOT
TORSDOF 0
ENDMDL
