MODEL 1
REMARK minimizedAffinity -1.91171885
REMARK minimizedRMSD -1
REMARK  0 active torsions:
REMARK  status: ('A' for Active; 'I' for Inactive)
ROOT
ATOM      1  N1  IND d   1       0.808  -0.132  -0.055  0.00  0.00    -0.196 N 
ATOM      2  C2  IND d   1       0.184  -0.987   0.809  0.00  0.00     0.054 A 
ATOM      3  C3  IND d   1      -0.571  -0.296   1.692  0.00  0.00    -0.031 A 
ATOM      4  C4  IND d   1      -1.009   2.237   1.838  0.00  0.00     0.051 A 
ATOM      5  C5  IND d   1      -0.631   3.429   1.287  0.00  0.00    -0.031 A 
ATOM      6  C6  IND d   1       0.262   3.497   0.238  0.00  0.00     0.015 A 
ATOM      7  C7  IND d   1       0.804   2.368  -0.310  0.00  0.00    -0.016 A 
ATOM      8  C8  IND d   1       0.428   1.156   0.251  0.00  0.00    -0.047 A 
ATOM      9  C9  IND d   1      -0.445   1.084   1.345  0.00  0.00    -0.096 A 
ATOM     10  HN1 IND d   1       1.348  -0.360  -0.685  0.00  0.00     0.298 HD
ENDROOT
TORSDOF 0
ENDMDL
