MODEL 1
REMARK minimizedAffinity -0.86526525
REMARK minimizedRMSD -1
REMARK  0 active torsions:
REMARK  status: ('A' for Active; 'I' for Inactive)
ROOT
ATOM      1  N1  IND d   1       0.923   0.240  -0.649  0.00  0.00    -0.196 N 
ATOM      2  C2  IND d   1       0.494  -0.696   0.250  0.00  0.00     0.054 A 
ATOM      3  C3  IND d   1      -0.064  -0.094   1.325  0.00  0.00    -0.031 A 
ATOM      4  C4  IND d   1      -0.470   2.408   1.771  0.00  0.00     0.051 A 
ATOM      5  C5  IND d   1      -0.219   3.649   1.257  0.00  0.00    -0.031 A 
ATOM      6  C6  IND d   1       0.437   3.820   0.054  0.00  0.00     0.015 A 
ATOM      7  C7  IND d   1       0.857   2.752  -0.686  0.00  0.00    -0.016 A 
ATOM      8  C8  IND d   1       0.610   1.491  -0.163  0.00  0.00    -0.047 A 
ATOM      9  C9  IND d   1      -0.017   1.312   1.077  0.00  0.00    -0.096 A 
ATOM     10  HN1 IND d   1       1.321   0.076  -1.393  0.00  0.00     0.298 HD
ENDROOT
TORSDOF 0
ENDMDL
