MODEL 1
REMARK minimizedAffinity -1.92208004
REMARK minimizedRMSD -1
REMARK  1 active torsions:
REMARK  status: ('A' for Active; 'I' for Inactive)
REMARK    1  A    between atoms: N_2  and  C1_3 
ROOT
ATOM      1  C1  UNL d   1       0.503   0.077   0.054  0.00  0.00     0.143 A 
ATOM      2  C2  UNL d   1      -0.210   1.275   0.176  0.00  0.00    -0.057 A 
ATOM      3  C3  UNL d   1      -0.930   1.575   1.339  0.00  0.00     0.033 A 
ATOM      4  C4  UNL d   1      -0.974   0.667   2.391  0.00  0.00    -0.042 A 
ATOM      5  C5  UNL d   1      -0.294  -0.540   2.282  0.00  0.00     0.033 A 
ATOM      6  C6  UNL d   1       0.430  -0.832   1.121  0.00  0.00    -0.057 A 
ENDROOT
BRANCH   1   7
ATOM      7  N   UNL d   1       1.157  -0.323  -1.114  0.00  0.00    -0.732 N 
ATOM      8  C   UNL d   1       1.098  -1.699  -1.558  0.00  0.00     0.284 C 
ATOM      9  H3  UNL d   1       1.067   0.360  -1.863  0.00  0.00     0.395 HD
ENDBRANCH   1   7
TORSDOF 1
ENDMDL
