MODEL 1
REMARK minimizedAffinity -0.417684227
REMARK minimizedRMSD -1
REMARK  1 active torsions:
REMARK  status: ('A' for Active; 'I' for Inactive)
REMARK    1  A    between atoms: N_2  and  C1_3 
ROOT
ATOM      1  C1  UNL d   1       0.374  -0.189   0.221  0.00  0.00     0.143 A 
ATOM      2  C2  UNL d   1      -0.063  -0.922   1.329  0.00  0.00    -0.057 A 
ATOM      3  C3  UNL d   1      -0.649  -0.291   2.433  0.00  0.00     0.033 A 
ATOM      4  C4  UNL d   1      -0.782   1.094   2.460  0.00  0.00    -0.042 A 
ATOM      5  C5  UNL d   1      -0.332   1.845   1.380  0.00  0.00     0.033 A 
ATOM      6  C6  UNL d   1       0.246   1.208   0.278  0.00  0.00    -0.057 A 
ENDROOT
BRANCH   1   7
ATOM      7  N   UNL d   1       1.053  -0.748  -0.864  0.00  0.00    -0.732 N 
ATOM      8  C   UNL d   1       0.608  -1.995  -1.449  0.00  0.00     0.284 C 
ATOM      9  H3  UNL d   1       1.341  -0.049  -1.545  0.00  0.00     0.395 HD
ENDBRANCH   1   7
TORSDOF 1
ENDMDL
