MODEL 1
REMARK minimizedAffinity -3.22713971
REMARK minimizedRMSD -1
REMARK  1 active torsions:
REMARK  status: ('A' for Active; 'I' for Inactive)
REMARK    1  A    between atoms: N_2  and  C1_3 
ROOT
ATOM      1  C1  UNL d   1       0.569   0.027   0.115  0.00  0.00     0.143 A 
ATOM      2  C2  UNL d   1      -0.048  -0.251   1.339  0.00  0.00    -0.057 A 
ATOM      3  C3  UNL d   1      -0.714   0.748   2.060  0.00  0.00     0.033 A 
ATOM      4  C4  UNL d   1      -0.748   2.054   1.581  0.00  0.00    -0.042 A 
ATOM      5  C5  UNL d   1      -0.120   2.358   0.379  0.00  0.00     0.033 A 
ATOM      6  C6  UNL d   1       0.537   1.355  -0.340  0.00  0.00    -0.057 A 
ENDROOT
BRANCH   1   7
ATOM      7  N   UNL d   1       1.330  -0.901  -0.601  0.00  0.00    -0.732 N 
ATOM      8  C   UNL d   1       0.688  -1.908  -1.418  0.00  0.00     0.284 C 
ATOM      9  H3  UNL d   1       2.153  -0.481  -1.028  0.00  0.00     0.395 HD
ENDBRANCH   1   7
TORSDOF 1
ENDMDL
