MODEL 1
REMARK minimizedAffinity -3.65671539
REMARK minimizedRMSD -1
REMARK  1 active torsions:
REMARK  status: ('A' for Active; 'I' for Inactive)
REMARK    1  A    between atoms: N_2  and  C1_3 
ROOT
ATOM      1  C1  UNL d   1      -0.122   2.246   1.306  0.00  0.00     0.143 A 
ATOM      2  C2  UNL d   1      -0.993   2.021   2.378  0.00  0.00    -0.057 A 
ATOM      3  C3  UNL d   1      -1.320   0.723   2.787  0.00  0.00     0.033 A 
ATOM      4  C4  UNL d   1      -0.803  -0.377   2.110  0.00  0.00    -0.042 A 
ATOM      5  C5  UNL d   1       0.044  -0.177   1.026  0.00  0.00     0.033 A 
ATOM      6  C6  UNL d   1       0.373   1.122   0.627  0.00  0.00    -0.057 A 
ENDROOT
BRANCH   1   7
ATOM      7  N   UNL d   1       0.164   3.512   0.790  0.00  0.00    -0.732 N 
ATOM      8  C   UNL d   1       0.694   3.660  -0.549  0.00  0.00     0.284 C 
ATOM      9  H3  UNL d   1      -0.543   4.201   1.035  0.00  0.00     0.395 HD
ENDBRANCH   1   7
TORSDOF 1
ENDMDL
