MODEL 1
REMARK minimizedAffinity -1.35107934
REMARK minimizedRMSD -1
REMARK  1 active torsions:
REMARK  status: ('A' for Active; 'I' for Inactive)
REMARK    1  A    between atoms: N_2  and  C1_3 
ROOT
ATOM      1  C1  UNL d   1      -0.634   0.418   2.981  0.00  0.00     0.143 A 
ATOM      2  C2  UNL d   1      -1.628   0.668   2.028  0.00  0.00    -0.057 A 
ATOM      3  C3  UNL d   1      -1.532   0.159   0.727  0.00  0.00     0.033 A 
ATOM      4  C4  UNL d   1      -0.421  -0.588   0.347  0.00  0.00    -0.042 A 
ATOM      5  C5  UNL d   1       0.591  -0.827   1.270  0.00  0.00     0.033 A 
ATOM      6  C6  UNL d   1       0.485  -0.321   2.569  0.00  0.00    -0.057 A 
ENDROOT
BRANCH   1   7
ATOM      7  N   UNL d   1      -0.625   0.979   4.260  0.00  0.00    -0.732 N 
ATOM      8  C   UNL d   1       0.426   1.891   4.658  0.00  0.00     0.284 C 
ATOM      9  H3  UNL d   1      -1.554   1.255   4.570  0.00  0.00     0.395 HD
ENDBRANCH   1   7
TORSDOF 1
ENDMDL
