MODEL 1
REMARK minimizedAffinity 1.37640667
REMARK minimizedRMSD -1
REMARK  1 active torsions:
REMARK  status: ('A' for Active; 'I' for Inactive)
REMARK    1  A    between atoms: N_2  and  C1_3 
ROOT
ATOM      1  C1  UNL d   1      -0.386   3.356   1.746  0.00  0.00     0.143 A 
ATOM      2  C2  UNL d   1       0.308   3.698   2.911  0.00  0.00    -0.057 A 
ATOM      3  C3  UNL d   1       0.994   4.914   3.017  0.00  0.00     0.033 A 
ATOM      4  C4  UNL d   1       1.022   5.799   1.944  0.00  0.00    -0.042 A 
ATOM      5  C5  UNL d   1       0.360   5.468   0.767  0.00  0.00     0.033 A 
ATOM      6  C6  UNL d   1      -0.329   4.255   0.670  0.00  0.00    -0.057 A 
ENDROOT
BRANCH   1   7
ATOM      7  N   UNL d   1      -1.005   2.119   1.544  0.00  0.00    -0.732 N 
ATOM      8  C   UNL d   1      -0.475   1.179   0.580  0.00  0.00     0.284 C 
ATOM      9  H3  UNL d   1      -1.314   1.693   2.414  0.00  0.00     0.395 HD
ENDBRANCH   1   7
TORSDOF 1
ENDMDL
