MODEL 1
REMARK minimizedAffinity -4.15784693
REMARK minimizedRMSD -1
REMARK  1 active torsions:
REMARK  status: ('A' for Active; 'I' for Inactive)
REMARK    1  A    between atoms: N_2  and  C1_3 
ROOT
ATOM      1  C1  UNL d   1       0.467  -1.728  -1.825  0.00  0.00     0.143 A 
ATOM      2  C2  UNL d   1       1.270  -1.670  -0.681  0.00  0.00    -0.057 A 
ATOM      3  C3  UNL d   1       1.304  -0.525   0.124  0.00  0.00     0.033 A 
ATOM      4  C4  UNL d   1       0.556   0.597  -0.219  0.00  0.00    -0.042 A 
ATOM      5  C5  UNL d   1      -0.229   0.570  -1.366  0.00  0.00     0.033 A 
ATOM      6  C6  UNL d   1      -0.265  -0.579  -2.162  0.00  0.00    -0.057 A 
ENDROOT
BRANCH   1   7
ATOM      7  N   UNL d   1       0.465  -2.801  -2.720  0.00  0.00    -0.732 N 
ATOM      8  C   UNL d   1       0.022  -4.113  -2.297  0.00  0.00     0.284 C 
ATOM      9  H3  UNL d   1       0.143  -2.533  -3.647  0.00  0.00     0.395 HD
ENDBRANCH   1   7
TORSDOF 1
ENDMDL
