MODEL 1
REMARK minimizedAffinity -2.98259091
REMARK minimizedRMSD -1
REMARK  1 active torsions:
REMARK  status: ('A' for Active; 'I' for Inactive)
REMARK    1  A    between atoms: N_2  and  C1_3 
ROOT
ATOM      1  C1  UNL d   1       0.057  -0.567  -0.087  0.00  0.00     0.143 A 
ATOM      2  C2  UNL d   1       0.128   0.783  -0.446  0.00  0.00    -0.057 A 
ATOM      3  C3  UNL d   1      -0.218   1.794   0.458  0.00  0.00     0.033 A 
ATOM      4  C4  UNL d   1      -0.671   1.470   1.733  0.00  0.00    -0.042 A 
ATOM      5  C5  UNL d   1      -0.774   0.134   2.103  0.00  0.00     0.033 A 
ATOM      6  C6  UNL d   1      -0.420  -0.871   1.197  0.00  0.00    -0.057 A 
ENDROOT
BRANCH   1   7
ATOM      7  N   UNL d   1       0.293  -1.621  -0.973  0.00  0.00    -0.732 N 
ATOM      8  C   UNL d   1      -0.213  -1.572  -2.328  0.00  0.00     0.284 C 
ATOM      9  H3  UNL d   1       1.238  -1.990  -0.896  0.00  0.00     0.395 HD
ENDBRANCH   1   7
TORSDOF 1
ENDMDL
