MODEL 1
REMARK minimizedAffinity 3.22677803
REMARK minimizedRMSD -1
REMARK  1 active torsions:
REMARK  status: ('A' for Active; 'I' for Inactive)
REMARK    1  A    between atoms: N_2  and  C1_3 
ROOT
ATOM      1  C1  UNL d   1      -0.137  -0.201   0.391  0.00  0.00     0.143 A 
ATOM      2  C2  UNL d   1       0.895  -0.824   1.101  0.00  0.00    -0.057 A 
ATOM      3  C3  UNL d   1       0.875  -0.895   2.499  0.00  0.00     0.033 A 
ATOM      4  C4  UNL d   1      -0.167  -0.316   3.216  0.00  0.00    -0.042 A 
ATOM      5  C5  UNL d   1      -1.191   0.331   2.532  0.00  0.00     0.033 A 
ATOM      6  C6  UNL d   1      -1.168   0.392   1.136  0.00  0.00    -0.057 A 
ENDROOT
BRANCH   1   7
ATOM      7  N   UNL d   1      -0.125  -0.012  -0.993  0.00  0.00    -0.732 N 
ATOM      8  C   UNL d   1       0.224   1.274  -1.558  0.00  0.00     0.284 C 
ATOM      9  H3  UNL d   1       0.271  -0.806  -1.490  0.00  0.00     0.395 HD
ENDBRANCH   1   7
TORSDOF 1
ENDMDL
