MODEL 1
REMARK minimizedAffinity -4.760077
REMARK minimizedRMSD -1
REMARK  0 active torsions:
REMARK  status: ('A' for Active; 'I' for Inactive)
ROOT
ATOM      1  O1  BZF d   1       0.819  -0.625  -0.847  0.00  0.00    -0.204 OA
ATOM      2  C2  BZF d   1      -0.394  -1.270  -0.701  0.00  0.00     0.174 A 
ATOM      3  C3  BZF d   1      -1.129  -0.691   0.270  0.00  0.00    -0.012 A 
ATOM      4  C3A BZF d   1      -0.364   0.439   0.698  0.00  0.00    -0.107 A 
ATOM      5  C4  BZF d   1      -0.574   1.417   1.629  0.00  0.00     0.055 A 
ATOM      6  C5  BZF d   1       0.403   2.334   1.855  0.00  0.00    -0.016 A 
ATOM      7  C6  BZF d   1       1.603   2.300   1.174  0.00  0.00     0.022 A 
ATOM      8  C7  BZF d   1       1.855   1.352   0.238  0.00  0.00     0.029 A 
ATOM      9  C7A BZF d   1       0.856   0.444  -0.016  0.00  0.00     0.058 A 
ENDROOT
TORSDOF 0
ENDMDL
