MODEL 1
REMARK minimizedAffinity -5.07410431
REMARK minimizedRMSD -1
REMARK  0 active torsions:
REMARK  status: ('A' for Active; 'I' for Inactive)
ROOT
ATOM      1  O1  BZF d   1       2.362   0.293  -0.330  0.00  0.00    -0.204 OA
ATOM      2  C2  BZF d   1       3.126   1.374   0.065  0.00  0.00     0.174 A 
ATOM      3  C3  BZF d   1       2.409   2.205   0.848  0.00  0.00    -0.012 A 
ATOM      4  C3A BZF d   1       1.144   1.559   1.024  0.00  0.00    -0.107 A 
ATOM      5  C4  BZF d   1       0.012   1.884   1.715  0.00  0.00     0.055 A 
ATOM      6  C5  BZF d   1      -1.074   1.073   1.622  0.00  0.00    -0.016 A 
ATOM      7  C6  BZF d   1      -1.065  -0.067   0.844  0.00  0.00     0.022 A 
ATOM      8  C7  BZF d   1       0.037  -0.433   0.145  0.00  0.00     0.029 A 
ATOM      9  C7A BZF d   1       1.147   0.368   0.263  0.00  0.00     0.058 A 
ENDROOT
TORSDOF 0
ENDMDL
