MODEL 1
REMARK minimizedAffinity -4.63205099
REMARK minimizedRMSD -1
REMARK  0 active torsions:
REMARK  status: ('A' for Active; 'I' for Inactive)
ROOT
ATOM      1  O1  BZF d   1       3.177   1.657   0.289  0.00  0.00    -0.204 OA
ATOM      2  C2  BZF d   1       2.630   2.680   1.040  0.00  0.00     0.174 A 
ATOM      3  C3  BZF d   1       1.312   2.478   1.236  0.00  0.00    -0.012 A 
ATOM      4  C3A BZF d   1       1.034   1.205   0.644  0.00  0.00    -0.107 A 
ATOM      5  C4  BZF d   1      -0.098   0.449   0.530  0.00  0.00     0.055 A 
ATOM      6  C5  BZF d   1      -0.047  -0.714  -0.171  0.00  0.00    -0.016 A 
ATOM      7  C6  BZF d   1       1.115  -1.149  -0.774  0.00  0.00     0.022 A 
ATOM      8  C7  BZF d   1       2.264  -0.436  -0.684  0.00  0.00     0.029 A 
ATOM      9  C7A BZF d   1       2.224   0.724   0.052  0.00  0.00     0.058 A 
ENDROOT
TORSDOF 0
ENDMDL
