MODEL 1
REMARK minimizedAffinity -1.70630395
REMARK minimizedRMSD -1
REMARK  0 active torsions:
REMARK  status: ('A' for Active; 'I' for Inactive)
ROOT
ATOM      1  O1  BZF d   1       0.410   1.605   2.233  0.00  0.00    -0.204 OA
ATOM      2  C2  BZF d   1      -0.904   1.193   2.128  0.00  0.00     0.174 A 
ATOM      3  C3  BZF d   1      -1.056   0.335   1.099  0.00  0.00    -0.012 A 
ATOM      4  C3A BZF d   1       0.263   0.131   0.582  0.00  0.00    -0.107 A 
ATOM      5  C4  BZF d   1       0.766  -0.630  -0.435  0.00  0.00     0.055 A 
ATOM      6  C5  BZF d   1       2.090  -0.549  -0.728  0.00  0.00    -0.016 A 
ATOM      7  C6  BZF d   1       2.939   0.285  -0.029  0.00  0.00     0.022 A 
ATOM      8  C7  BZF d   1       2.487   1.055   0.991  0.00  0.00     0.029 A 
ATOM      9  C7A BZF d   1       1.155   0.951   1.311  0.00  0.00     0.058 A 
ENDROOT
TORSDOF 0
ENDMDL
