MODEL 1
REMARK minimizedAffinity -4.11467552
REMARK minimizedRMSD -1
REMARK  0 active torsions:
REMARK  status: ('A' for Active; 'I' for Inactive)
ROOT
ATOM      1  O1  BZF d   1       0.697   1.515   2.047  0.00  0.00    -0.204 OA
ATOM      2  C2  BZF d   1       1.526   2.379   1.358  0.00  0.00     0.174 A 
ATOM      3  C3  BZF d   1       1.467   2.144   0.032  0.00  0.00    -0.012 A 
ATOM      4  C3A BZF d   1       0.473   1.127  -0.126  0.00  0.00    -0.107 A 
ATOM      5  C4  BZF d   1      -0.048   0.484  -1.212  0.00  0.00     0.055 A 
ATOM      6  C5  BZF d   1      -0.953  -0.511  -1.019  0.00  0.00    -0.016 A 
ATOM      7  C6  BZF d   1      -1.356  -0.891   0.244  0.00  0.00     0.022 A 
ATOM      8  C7  BZF d   1      -0.871  -0.279   1.352  0.00  0.00     0.029 A 
ATOM      9  C7A BZF d   1       0.019   0.749   1.159  0.00  0.00     0.058 A 
ENDROOT
TORSDOF 0
ENDMDL
