MODEL 1
REMARK minimizedAffinity -5.6961875
REMARK minimizedRMSD -1
REMARK  0 active torsions:
REMARK  status: ('A' for Active; 'I' for Inactive)
ROOT
ATOM      1  O1  BZF d   1       1.879  -0.373  -0.748  0.00  0.00    -0.204 OA
ATOM      2  C2  BZF d   1       0.739  -1.149  -0.659  0.00  0.00     0.174 A 
ATOM      3  C3  BZF d   1      -0.119  -0.637   0.246  0.00  0.00    -0.012 A 
ATOM      4  C3A BZF d   1       0.484   0.583   0.688  0.00  0.00    -0.107 A 
ATOM      5  C4  BZF d   1       0.105   1.551   1.574  0.00  0.00     0.055 A 
ATOM      6  C5  BZF d   1       0.955   2.578   1.834  0.00  0.00    -0.016 A 
ATOM      7  C6  BZF d   1       2.193   2.667   1.231  0.00  0.00     0.022 A 
ATOM      8  C7  BZF d   1       2.611   1.733   0.342  0.00  0.00     0.029 A 
ATOM      9  C7A BZF d   1       1.740   0.711   0.052  0.00  0.00     0.058 A 
ENDROOT
TORSDOF 0
ENDMDL
