MODEL 1
REMARK minimizedAffinity -3.37158179
REMARK minimizedRMSD -1
REMARK  0 active torsions:
REMARK  status: ('A' for Active; 'I' for Inactive)
ROOT
ATOM      1  O1  BZF d   1       1.667  -0.910  -0.574  0.00  0.00    -0.204 OA
ATOM      2  C2  BZF d   1       0.435  -1.497  -0.788  0.00  0.00     0.174 A 
ATOM      3  C3  BZF d   1      -0.532  -0.839  -0.117  0.00  0.00    -0.012 A 
ATOM      4  C3A BZF d   1       0.124   0.281   0.485  0.00  0.00    -0.107 A 
ATOM      5  C4  BZF d   1      -0.309   1.314   1.266  0.00  0.00     0.055 A 
ATOM      6  C5  BZF d   1       0.598   2.202   1.750  0.00  0.00    -0.016 A 
ATOM      7  C6  BZF d   1       1.946   2.084   1.478  0.00  0.00     0.022 A 
ATOM      8  C7  BZF d   1       2.422   1.079   0.704  0.00  0.00     0.029 A 
ATOM      9  C7A BZF d   1       1.504   0.199   0.186  0.00  0.00     0.058 A 
ENDROOT
TORSDOF 0
ENDMDL
