MODEL 1
REMARK minimizedAffinity -5.58225298
REMARK minimizedRMSD -1
REMARK  0 active torsions:
REMARK  status: ('A' for Active; 'I' for Inactive)
ROOT
ATOM      1  O1  BZF d   1      -0.319  -0.031   0.392  0.00  0.00    -0.204 OA
ATOM      2  C2  BZF d   1      -1.021   0.828   1.216  0.00  0.00     0.174 A 
ATOM      3  C3  BZF d   1      -0.232   1.836   1.638  0.00  0.00    -0.012 A 
ATOM      4  C3A BZF d   1       1.017   1.644   0.968  0.00  0.00    -0.107 A 
ATOM      5  C4  BZF d   1       2.198   2.330   0.965  0.00  0.00     0.055 A 
ATOM      6  C5  BZF d   1       3.248   1.837   0.258  0.00  0.00    -0.016 A 
ATOM      7  C6  BZF d   1       3.154   0.658  -0.453  0.00  0.00     0.022 A 
ATOM      8  C7  BZF d   1       2.003  -0.056  -0.484  0.00  0.00     0.029 A 
ATOM      9  C7A BZF d   1       0.930   0.458   0.202  0.00  0.00     0.058 A 
ENDROOT
TORSDOF 0
ENDMDL
