MODEL 1
REMARK minimizedAffinity -6.48988438
REMARK minimizedRMSD -1
REMARK  0 active torsions:
REMARK  status: ('A' for Active; 'I' for Inactive)
ROOT
ATOM      1  O1  BZF d   1       0.468  -0.742  -0.629  0.00  0.00    -0.204 OA
ATOM      2  C2  BZF d   1      -0.769  -0.899  -0.034  0.00  0.00     0.174 A 
ATOM      3  C3  BZF d   1      -0.942   0.000   0.955  0.00  0.00    -0.012 A 
ATOM      4  C3A BZF d   1       0.224   0.828   0.920  0.00  0.00    -0.107 A 
ATOM      5  C4  BZF d   1       0.631   1.910   1.648  0.00  0.00     0.055 A 
ATOM      6  C5  BZF d   1       1.858   2.443   1.410  0.00  0.00    -0.016 A 
ATOM      7  C6  BZF d   1       2.705   1.918   0.457  0.00  0.00     0.022 A 
ATOM      8  C7  BZF d   1       2.344   0.849  -0.294  0.00  0.00     0.029 A 
ATOM      9  C7A BZF d   1       1.092   0.328  -0.079  0.00  0.00     0.058 A 
ENDROOT
TORSDOF 0
ENDMDL
