MODEL 1
REMARK minimizedAffinity -6.02028894
REMARK minimizedRMSD -1
REMARK  0 active torsions:
REMARK  status: ('A' for Active; 'I' for Inactive)
ROOT
ATOM      1  O1  BZF d   1       1.444  -1.204  -0.054  0.00  0.00    -0.204 OA
ATOM      2  C2  BZF d   1       0.067  -1.189  -0.160  0.00  0.00     0.174 A 
ATOM      3  C3  BZF d   1      -0.404   0.073  -0.099  0.00  0.00    -0.012 A 
ATOM      4  C3A BZF d   1       0.758   0.906  -0.037  0.00  0.00    -0.107 A 
ATOM      5  C4  BZF d   1       0.942   2.258   0.024  0.00  0.00     0.055 A 
ATOM      6  C5  BZF d   1       2.204   2.748   0.149  0.00  0.00    -0.016 A 
ATOM      7  C6  BZF d   1       3.302   1.916   0.220  0.00  0.00     0.022 A 
ATOM      8  C7  BZF d   1       3.169   0.568   0.159  0.00  0.00     0.029 A 
ATOM      9  C7A BZF d   1       1.899   0.071  -0.000  0.00  0.00     0.058 A 
ENDROOT
TORSDOF 0
ENDMDL
