MODEL 1
REMARK minimizedAffinity -4.46429443
REMARK minimizedRMSD -1
REMARK  0 active torsions:
REMARK  status: ('A' for Active; 'I' for Inactive)
ROOT
ATOM      1  O1  BZF d   1       0.947  -0.995  -0.660  0.00  0.00    -0.204 OA
ATOM      2  C2  BZF d   1      -0.373  -0.812  -0.295  0.00  0.00     0.174 A 
ATOM      3  C3  BZF d   1      -0.530   0.353   0.365  0.00  0.00    -0.012 A 
ATOM      4  C3A BZF d   1       0.757   0.979   0.336  0.00  0.00    -0.107 A 
ATOM      5  C4  BZF d   1       1.235   2.165   0.813  0.00  0.00     0.055 A 
ATOM      6  C5  BZF d   1       2.559   2.444   0.683  0.00  0.00    -0.016 A 
ATOM      7  C6  BZF d   1       3.432   1.559   0.087  0.00  0.00     0.022 A 
ATOM      8  C7  BZF d   1       3.003   0.371  -0.407  0.00  0.00     0.029 A 
ATOM      9  C7A BZF d   1       1.661   0.101  -0.306  0.00  0.00     0.058 A 
ENDROOT
TORSDOF 0
ENDMDL
