MODEL 1
REMARK minimizedAffinity -3.75210524
REMARK minimizedRMSD -1
REMARK  0 active torsions:
REMARK  status: ('A' for Active; 'I' for Inactive)
ROOT
ATOM      1  O1  BZF d   1       0.447  -0.913  -1.046  0.00  0.00    -0.204 OA
ATOM      2  C2  BZF d   1      -0.895  -0.810  -0.735  0.00  0.00     0.174 A 
ATOM      3  C3  BZF d   1      -1.080   0.010   0.320  0.00  0.00    -0.012 A 
ATOM      4  C3A BZF d   1       0.220   0.519   0.634  0.00  0.00    -0.107 A 
ATOM      5  C4  BZF d   1       0.684   1.392   1.576  0.00  0.00     0.055 A 
ATOM      6  C5  BZF d   1       2.021   1.621   1.663  0.00  0.00    -0.016 A 
ATOM      7  C6  BZF d   1       2.921   0.990   0.829  0.00  0.00     0.022 A 
ATOM      8  C7  BZF d   1       2.508   0.119  -0.124  0.00  0.00     0.029 A 
ATOM      9  C7A BZF d   1       1.155  -0.089  -0.236  0.00  0.00     0.058 A 
ENDROOT
TORSDOF 0
ENDMDL
