MODEL 1
REMARK minimizedAffinity -6.57535505
REMARK minimizedRMSD -1
REMARK  0 active torsions:
REMARK  status: ('A' for Active; 'I' for Inactive)
ROOT
ATOM      1  O1  BZF d   1       1.122  -0.618  -0.329  0.00  0.00    -0.204 OA
ATOM      2  C2  BZF d   1      -0.193  -0.845   0.028  0.00  0.00     0.174 A 
ATOM      3  C3  BZF d   1      -0.639   0.125   0.853  0.00  0.00    -0.012 A 
ATOM      4  C3A BZF d   1       0.437   1.063   0.948  0.00  0.00    -0.107 A 
ATOM      5  C4  BZF d   1       0.595   2.247   1.609  0.00  0.00     0.055 A 
ATOM      6  C5  BZF d   1       1.796   2.880   1.552  0.00  0.00    -0.016 A 
ATOM      7  C6  BZF d   1       2.861   2.355   0.850  0.00  0.00     0.022 A 
ATOM      8  C7  BZF d   1       2.751   1.186   0.174  0.00  0.00     0.029 A 
ATOM      9  C7A BZF d   1       1.529   0.560   0.202  0.00  0.00     0.058 A 
ENDROOT
TORSDOF 0
ENDMDL
