MODEL 1
REMARK minimizedAffinity -6.77566147
REMARK minimizedRMSD -1
REMARK  0 active torsions:
REMARK  status: ('A' for Active; 'I' for Inactive)
ROOT
ATOM      1  O1  BZF d   1       1.303  -0.517  -0.508  0.00  0.00    -0.204 OA
ATOM      2  C2  BZF d   1       0.090  -0.949  -0.009  0.00  0.00     0.174 A 
ATOM      3  C3  BZF d   1      -0.329  -0.147   0.992  0.00  0.00    -0.012 A 
ATOM      4  C3A BZF d   1       0.642   0.902   1.064  0.00  0.00    -0.107 A 
ATOM      5  C4  BZF d   1       0.769   2.011   1.851  0.00  0.00     0.055 A 
ATOM      6  C5  BZF d   1       1.873   2.792   1.718  0.00  0.00    -0.016 A 
ATOM      7  C6  BZF d   1       2.870   2.492   0.813  0.00  0.00     0.022 A 
ATOM      8  C7  BZF d   1       2.786   1.406   0.007  0.00  0.00     0.029 A 
ATOM      9  C7A BZF d   1       1.656   0.632   0.117  0.00  0.00     0.058 A 
ENDROOT
TORSDOF 0
ENDMDL
