MODEL 1
REMARK minimizedAffinity -2.57145619
REMARK minimizedRMSD -1
REMARK  0 active torsions:
REMARK  status: ('A' for Active; 'I' for Inactive)
ROOT
ATOM      1  O1  BZF d   1       0.989   1.407   1.876  0.00  0.00    -0.204 OA
ATOM      2  C2  BZF d   1       2.340   1.698   1.869  0.00  0.00     0.174 A 
ATOM      3  C3  BZF d   1       3.013   0.826   1.091  0.00  0.00    -0.012 A 
ATOM      4  C3A BZF d   1       2.010  -0.010   0.507  0.00  0.00    -0.107 A 
ATOM      5  C4  BZF d   1       2.053  -1.056  -0.370  0.00  0.00     0.055 A 
ATOM      6  C5  BZF d   1       0.900  -1.703  -0.683  0.00  0.00    -0.016 A 
ATOM      7  C6  BZF d   1      -0.312  -1.335  -0.135  0.00  0.00     0.022 A 
ATOM      8  C7  BZF d   1      -0.405  -0.301   0.736  0.00  0.00     0.029 A 
ATOM      9  C7A BZF d   1       0.753   0.376   1.029  0.00  0.00     0.058 A 
ENDROOT
TORSDOF 0
ENDMDL
