MODEL 1
REMARK minimizedAffinity -3.79448771
REMARK minimizedRMSD -1
REMARK  0 active torsions:
REMARK  status: ('A' for Active; 'I' for Inactive)
ROOT
ATOM      1  O1  BZF d   1       2.760   1.889   0.801  0.00  0.00    -0.204 OA
ATOM      2  C2  BZF d   1       2.314   2.650   1.865  0.00  0.00     0.174 A 
ATOM      3  C3  BZF d   1       1.102   2.230   2.279  0.00  0.00    -0.012 A 
ATOM      4  C3A BZF d   1       0.809   1.079   1.480  0.00  0.00    -0.107 A 
ATOM      5  C4  BZF d   1      -0.245   0.213   1.432  0.00  0.00     0.055 A 
ATOM      6  C5  BZF d   1      -0.256  -0.763   0.487  0.00  0.00    -0.016 A 
ATOM      7  C6  BZF d   1       0.767  -0.899  -0.428  0.00  0.00     0.022 A 
ATOM      8  C7  BZF d   1       1.837  -0.066  -0.417  0.00  0.00     0.029 A 
ATOM      9  C7A BZF d   1       1.866   0.901   0.558  0.00  0.00     0.058 A 
ENDROOT
TORSDOF 0
ENDMDL
