MODEL 1
REMARK minimizedAffinity 8.31429672
REMARK minimizedRMSD -1
REMARK  0 active torsions:
REMARK  status: ('A' for Active; 'I' for Inactive)
ROOT
ATOM      1  O1  BZF d   1       4.475   2.562  -0.828  0.00  0.00    -0.204 OA
ATOM      2  C2  BZF d   1       4.904   2.792  -2.121  0.00  0.00     0.174 A 
ATOM      3  C3  BZF d   1       4.352   1.905  -2.973  0.00  0.00    -0.012 A 
ATOM      4  C3A BZF d   1       3.454   1.126  -2.177  0.00  0.00    -0.107 A 
ATOM      5  C4  BZF d   1       2.603   0.095  -2.457  0.00  0.00     0.055 A 
ATOM      6  C5  BZF d   1       1.922  -0.494  -1.440  0.00  0.00    -0.016 A 
ATOM      7  C6  BZF d   1       2.071  -0.083  -0.132  0.00  0.00     0.022 A 
ATOM      8  C7  BZF d   1       2.899   0.939   0.195  0.00  0.00     0.029 A 
ATOM      9  C7A BZF d   1       3.565   1.558  -0.835  0.00  0.00     0.058 A 
ENDROOT
TORSDOF 0
ENDMDL
