MODEL 1
REMARK minimizedAffinity 1.28321028
REMARK minimizedRMSD -1
REMARK  0 active torsions:
REMARK  status: ('A' for Active; 'I' for Inactive)
ROOT
ATOM      1  C   UNL d   1       0.626   0.385   2.224  0.00  0.00     0.172 C 
ATOM      2  N   UNL d   1      -0.680   0.946   1.965  0.00  0.00    -0.070 N 
ATOM      3  C1  UNL d   1      -1.402   0.787   0.812  0.00  0.00    -0.004 A 
ATOM      4  C2  UNL d   1      -2.588   1.474   0.960  0.00  0.00    -0.047 A 
ATOM      5  C3  UNL d   1      -2.578   2.066   2.245  0.00  0.00    -0.047 A 
ATOM      6  C4  UNL d   1      -1.385   1.723   2.846  0.00  0.00    -0.004 A 
ENDROOT
TORSDOF 0
ENDMDL
