MODEL 1
REMARK minimizedAffinity 2.88427854
REMARK minimizedRMSD -1
REMARK  0 active torsions:
REMARK  status: ('A' for Active; 'I' for Inactive)
ROOT
ATOM      1  C   UNL d   1      -1.810   0.470   1.145  0.00  0.00     0.172 C 
ATOM      2  N   UNL d   1      -1.370   1.161   2.335  0.00  0.00    -0.070 N 
ATOM      3  C1  UNL d   1      -0.067   1.380   2.694  0.00  0.00    -0.004 A 
ATOM      4  C2  UNL d   1      -0.069   2.069   3.888  0.00  0.00    -0.047 A 
ATOM      5  C3  UNL d   1      -1.419   2.271   4.259  0.00  0.00    -0.047 A 
ATOM      6  C4  UNL d   1      -2.204   1.698   3.280  0.00  0.00    -0.004 A 
ENDROOT
TORSDOF 0
ENDMDL
