MODEL 1
REMARK minimizedAffinity -0.246004164
REMARK minimizedRMSD -1
REMARK  0 active torsions:
REMARK  status: ('A' for Active; 'I' for Inactive)
ROOT
ATOM      1  C   UNL d   1       0.506   0.523   2.200  0.00  0.00     0.172 C 
ATOM      2  N   UNL d   1       1.933   0.443   1.992  0.00  0.00    -0.070 N 
ATOM      3  C1  UNL d   1       2.632   1.075   0.998  0.00  0.00    -0.004 A 
ATOM      4  C2  UNL d   1       3.962   0.747   1.143  0.00  0.00    -0.047 A 
ATOM      5  C3  UNL d   1       4.067  -0.113   2.262  0.00  0.00    -0.047 A 
ATOM      6  C4  UNL d   1       2.796  -0.284   2.769  0.00  0.00    -0.004 A 
ENDROOT
TORSDOF 0
ENDMDL
