MODEL 1
REMARK minimizedAffinity 1.82872033
REMARK minimizedRMSD -1
REMARK  0 active torsions:
REMARK  status: ('A' for Active; 'I' for Inactive)
ROOT
ATOM      1  C   UNL d   1       1.627   1.173   2.118  0.00  0.00     0.172 C 
ATOM      2  N   UNL d   1       0.256   1.540   2.386  0.00  0.00    -0.070 N 
ATOM      3  C1  UNL d   1      -0.850   0.818   2.024  0.00  0.00    -0.004 A 
ATOM      4  C2  UNL d   1      -1.963   1.502   2.463  0.00  0.00    -0.047 A 
ATOM      5  C3  UNL d   1      -1.510   2.676   3.110  0.00  0.00    -0.047 A 
ATOM      6  C4  UNL d   1      -0.133   2.674   3.049  0.00  0.00    -0.004 A 
ENDROOT
TORSDOF 0
ENDMDL
