MODEL 1
REMARK minimizedAffinity 1.35806203
REMARK minimizedRMSD -1
REMARK  0 active torsions:
REMARK  status: ('A' for Active; 'I' for Inactive)
ROOT
ATOM      1  C   UNL d   1       2.840  -0.481  -4.010  0.00  0.00     0.172 C 
ATOM      2  N   UNL d   1       2.462   0.818  -4.515  0.00  0.00    -0.070 N 
ATOM      3  C1  UNL d   1       2.268   1.136  -5.833  0.00  0.00    -0.004 A 
ATOM      4  C2  UNL d   1       1.919   2.468  -5.898  0.00  0.00    -0.047 A 
ATOM      5  C3  UNL d   1       1.903   2.967  -4.574  0.00  0.00    -0.047 A 
ATOM      6  C4  UNL d   1       2.244   1.925  -3.738  0.00  0.00    -0.004 A 
ENDROOT
TORSDOF 0
ENDMDL
