MODEL 1
REMARK minimizedAffinity 2.17785144
REMARK minimizedRMSD -1
REMARK  0 active torsions:
REMARK  status: ('A' for Active; 'I' for Inactive)
ROOT
ATOM      1  C   UNL d   1      -1.938   0.585   0.349  0.00  0.00     0.172 C 
ATOM      2  N   UNL d   1      -1.100   0.845   1.496  0.00  0.00    -0.070 N 
ATOM      3  C1  UNL d   1       0.077   0.207   1.786  0.00  0.00    -0.004 A 
ATOM      4  C2  UNL d   1       0.568   0.739   2.958  0.00  0.00    -0.047 A 
ATOM      5  C3  UNL d   1      -0.345   1.731   3.388  0.00  0.00    -0.047 A 
ATOM      6  C4  UNL d   1      -1.368   1.775   2.465  0.00  0.00    -0.004 A 
ENDROOT
TORSDOF 0
ENDMDL
