MODEL 1
REMARK minimizedAffinity 1.60581708
REMARK minimizedRMSD -1
REMARK  0 active torsions:
REMARK  status: ('A' for Active; 'I' for Inactive)
ROOT
ATOM      1  C   UNL d   1      -3.874   0.815   3.660  0.00  0.00     0.172 C 
ATOM      2  N   UNL d   1      -2.743   0.746   2.763  0.00  0.00    -0.070 N 
ATOM      3  C1  UNL d   1      -2.799   0.435   1.431  0.00  0.00    -0.004 A 
ATOM      4  C2  UNL d   1      -1.514   0.477   0.934  0.00  0.00    -0.047 A 
ATOM      5  C3  UNL d   1      -0.657   0.825   2.005  0.00  0.00    -0.047 A 
ATOM      6  C4  UNL d   1      -1.444   0.985   3.126  0.00  0.00    -0.004 A 
ENDROOT
TORSDOF 0
ENDMDL
