MODEL 1
REMARK minimizedAffinity -0.382563502
REMARK minimizedRMSD -1
REMARK  0 active torsions:
REMARK  status: ('A' for Active; 'I' for Inactive)
ROOT
ATOM      1  C   UNL d   1       3.150   1.514  -5.058  0.00  0.00     0.172 C 
ATOM      2  N   UNL d   1       2.916   0.116  -4.780  0.00  0.00    -0.070 N 
ATOM      3  C1  UNL d   1       3.449  -0.590  -3.735  0.00  0.00    -0.004 A 
ATOM      4  C2  UNL d   1       2.984  -1.885  -3.820  0.00  0.00    -0.047 A 
ATOM      5  C3  UNL d   1       2.144  -1.959  -4.956  0.00  0.00    -0.047 A 
ATOM      6  C4  UNL d   1       2.119  -0.706  -5.532  0.00  0.00    -0.004 A 
ENDROOT
TORSDOF 0
ENDMDL
