MODEL 1
REMARK minimizedAffinity 1.777879
REMARK minimizedRMSD -1
REMARK  0 active torsions:
REMARK  status: ('A' for Active; 'I' for Inactive)
ROOT
ATOM      1  C   UNL d   1      -5.501  -2.159   5.972  0.00  0.00     0.172 C 
ATOM      2  N   UNL d   1      -5.130  -0.763   5.979  0.00  0.00    -0.070 N 
ATOM      3  C1  UNL d   1      -5.999   0.294   5.968  0.00  0.00    -0.004 A 
ATOM      4  C2  UNL d   1      -5.254   1.454   5.981  0.00  0.00    -0.047 A 
ATOM      5  C3  UNL d   1      -3.890   1.080   5.999  0.00  0.00    -0.047 A 
ATOM      6  C4  UNL d   1      -3.841  -0.298   5.998  0.00  0.00    -0.004 A 
ENDROOT
TORSDOF 0
ENDMDL
