MODEL 1
REMARK minimizedAffinity 1.66436028
REMARK minimizedRMSD -1
REMARK  0 active torsions:
REMARK  status: ('A' for Active; 'I' for Inactive)
ROOT
ATOM      1  C   UNL d   1      -1.564  -5.520   0.792  0.00  0.00     0.172 C 
ATOM      2  N   UNL d   1      -0.372  -5.715   1.583  0.00  0.00    -0.070 N 
ATOM      3  C1  UNL d   1      -0.328  -5.823   2.947  0.00  0.00    -0.004 A 
ATOM      4  C2  UNL d   1       0.988  -6.000   3.314  0.00  0.00    -0.047 A 
ATOM      5  C3  UNL d   1       1.762  -5.998   2.129  0.00  0.00    -0.047 A 
ATOM      6  C4  UNL d   1       0.895  -5.820   1.073  0.00  0.00    -0.004 A 
ENDROOT
TORSDOF 0
ENDMDL
