MODEL 1
REMARK minimizedAffinity 6.95413399
REMARK minimizedRMSD -1
REMARK  0 active torsions:
REMARK  status: ('A' for Active; 'I' for Inactive)
ROOT
ATOM      1  C   UNL d   1      -0.477   3.685  -2.999  0.00  0.00     0.172 C 
ATOM      2  N   UNL d   1       0.150   4.148  -4.214  0.00  0.00    -0.070 N 
ATOM      3  C1  UNL d   1      -0.130   5.323  -4.860  0.00  0.00    -0.004 A 
ATOM      4  C2  UNL d   1       0.678   5.395  -5.974  0.00  0.00    -0.047 A 
ATOM      5  C3  UNL d   1       1.472   4.224  -5.999  0.00  0.00    -0.047 A 
ATOM      6  C4  UNL d   1       1.124   3.469  -4.898  0.00  0.00    -0.004 A 
ENDROOT
TORSDOF 0
ENDMDL
