MODEL 1
REMARK minimizedAffinity 0.747654319
REMARK minimizedRMSD -1
REMARK  0 active torsions:
REMARK  status: ('A' for Active; 'I' for Inactive)
ROOT
ATOM      1  C   UNL d   1       0.094  -0.071   2.048  0.00  0.00     0.172 C 
ATOM      2  N   UNL d   1      -1.261   0.396   2.227  0.00  0.00    -0.070 N 
ATOM      3  C1  UNL d   1      -2.120  -0.004   3.215  0.00  0.00    -0.004 A 
ATOM      4  C2  UNL d   1      -3.309   0.671   3.040  0.00  0.00    -0.047 A 
ATOM      5  C3  UNL d   1      -3.159   1.504   1.906  0.00  0.00    -0.047 A 
ATOM      6  C4  UNL d   1      -1.882   1.314   1.422  0.00  0.00    -0.004 A 
ENDROOT
TORSDOF 0
ENDMDL
