MODEL 1
REMARK minimizedAffinity 2.23557782
REMARK minimizedRMSD -1
REMARK  0 active torsions:
REMARK  status: ('A' for Active; 'I' for Inactive)
ROOT
ATOM      1  C   UNL d   1       2.387   1.786  -5.540  0.00  0.00     0.172 C 
ATOM      2  N   UNL d   1       2.640   0.560  -4.821  0.00  0.00    -0.070 N 
ATOM      3  C1  UNL d   1       2.018  -0.640  -5.044  0.00  0.00    -0.004 A 
ATOM      4  C2  UNL d   1       2.538  -1.556  -4.155  0.00  0.00    -0.047 A 
ATOM      5  C3  UNL d   1       3.506  -0.884  -3.371  0.00  0.00    -0.047 A 
ATOM      6  C4  UNL d   1       3.549   0.424  -3.805  0.00  0.00    -0.004 A 
ENDROOT
TORSDOF 0
ENDMDL
