MODEL 1
REMARK minimizedAffinity 3.9854455
REMARK minimizedRMSD -1
REMARK  0 active torsions:
REMARK  status: ('A' for Active; 'I' for Inactive)
ROOT
ATOM      1  C   UNL d   1      -2.734   1.830   2.731  0.00  0.00     0.172 C 
ATOM      2  N   UNL d   1      -1.593   1.076   2.267  0.00  0.00    -0.070 N 
ATOM      3  C1  UNL d   1      -0.395   0.957   2.920  0.00  0.00    -0.004 A 
ATOM      4  C2  UNL d   1       0.426   0.160   2.153  0.00  0.00    -0.047 A 
ATOM      5  C3  UNL d   1      -0.302  -0.213   0.999  0.00  0.00    -0.047 A 
ATOM      6  C4  UNL d   1      -1.549   0.369   1.095  0.00  0.00    -0.004 A 
ENDROOT
TORSDOF 0
ENDMDL
