MODEL 1
REMARK minimizedAffinity 0.465990335
REMARK minimizedRMSD -1
REMARK  0 active torsions:
REMARK  status: ('A' for Active; 'I' for Inactive)
ROOT
ATOM      1  C   UNL d   1       0.121   1.498   2.926  0.00  0.00     0.172 C 
ATOM      2  N   UNL d   1      -0.989   1.215   2.046  0.00  0.00    -0.070 N 
ATOM      3  C1  UNL d   1      -2.283   1.619   2.239  0.00  0.00    -0.004 A 
ATOM      4  C2  UNL d   1      -3.033   1.150   1.182  0.00  0.00    -0.047 A 
ATOM      5  C3  UNL d   1      -2.160   0.439   0.325  0.00  0.00    -0.047 A 
ATOM      6  C4  UNL d   1      -0.900   0.495   0.884  0.00  0.00    -0.004 A 
ENDROOT
TORSDOF 0
ENDMDL
