MODEL 1
REMARK minimizedAffinity 2.6065464
REMARK minimizedRMSD -1
REMARK  0 active torsions:
REMARK  status: ('A' for Active; 'I' for Inactive)
ROOT
ATOM      1  C   UNL d   1      -5.512   2.264   5.999  0.00  0.00     0.172 C 
ATOM      2  N   UNL d   1      -5.704   0.985   5.357  0.00  0.00    -0.070 N 
ATOM      3  C1  UNL d   1      -5.831  -0.219   5.997  0.00  0.00    -0.004 A 
ATOM      4  C2  UNL d   1      -5.998  -1.192   5.036  0.00  0.00    -0.047 A 
ATOM      5  C3  UNL d   1      -5.970  -0.551   3.775  0.00  0.00    -0.047 A 
ATOM      6  C4  UNL d   1      -5.787   0.796   4.003  0.00  0.00    -0.004 A 
ENDROOT
TORSDOF 0
ENDMDL
