MODEL 1
REMARK minimizedAffinity -3.39870119
REMARK minimizedRMSD -1
REMARK  2 active torsions:
REMARK  status: ('A' for Active; 'I' for Inactive)
REMARK    1  A    between atoms: C2'_3  and  C1'_4 
REMARK    2  A    between atoms: C1'_4  and  C1_5 
ROOT
ATOM      1  C1  I4B d   1       0.488  -0.799   0.788  0.00  0.00    -0.075 A 
ATOM      2  C2  I4B d   1       0.881  -0.059  -0.299  0.00  0.00     0.003 A 
ATOM      3  C3  I4B d   1       0.268   1.187  -0.573  0.00  0.00     0.002 A 
ATOM      4  C4  I4B d   1      -0.762   1.629   0.232  0.00  0.00    -0.004 A 
ATOM      5  C5  I4B d   1      -1.144   0.889   1.347  0.00  0.00     0.002 A 
ATOM      6  C6  I4B d   1      -0.507  -0.327   1.634  0.00  0.00     0.003 A 
ENDROOT
BRANCH   1   7
ATOM      7  C1' I4B d   1       1.135  -2.126   1.029  0.00  0.00     0.060 C 
BRANCH   7   8
ATOM      8  C2' I4B d   1       0.520  -3.125   0.071  0.00  0.00    -0.013 C 
ATOM      9  C4' I4B d   1      -0.981  -3.151   0.198  0.00  0.00     0.013 C 
ATOM     10  C3' I4B d   1       0.939  -2.752  -1.320  0.00  0.00     0.013 C 
ENDBRANCH   7   8
ENDBRANCH   1   7
TORSDOF 2
ENDMDL
