MODEL 1
REMARK minimizedAffinity -2.22613883
REMARK minimizedRMSD -1
REMARK  2 active torsions:
REMARK  status: ('A' for Active; 'I' for Inactive)
REMARK    1  A    between atoms: C2'_3  and  C1'_4 
REMARK    2  A    between atoms: C1'_4  and  C1_5 
ROOT
ATOM      1  C1  I4B d   1       0.217   0.338   0.026  0.00  0.00    -0.075 A 
ATOM      2  C2  I4B d   1      -1.081   0.245   0.463  0.00  0.00     0.003 A 
ATOM      3  C3  I4B d   1      -1.560  -0.964   1.023  0.00  0.00     0.002 A 
ATOM      4  C4  I4B d   1      -0.728  -2.063   1.081  0.00  0.00    -0.004 A 
ATOM      5  C5  I4B d   1       0.594  -1.960   0.658  0.00  0.00     0.002 A 
ATOM      6  C6  I4B d   1       1.074  -0.749   0.139  0.00  0.00     0.003 A 
ENDROOT
BRANCH   1   7
ATOM      7  C1' I4B d   1       0.680   1.620  -0.591  0.00  0.00     0.060 C 
BRANCH   7   8
ATOM      8  C2' I4B d   1       1.124   2.542   0.527  0.00  0.00    -0.013 C 
ATOM      9  C4' I4B d   1       2.540   3.008   0.318  0.00  0.00     0.013 C 
ATOM     10  C3' I4B d   1       0.173   3.701   0.576  0.00  0.00     0.013 C 
ENDBRANCH   7   8
ENDBRANCH   1   7
TORSDOF 2
ENDMDL
