MODEL 1
REMARK minimizedAffinity -2.62830615
REMARK minimizedRMSD -1
REMARK  2 active torsions:
REMARK  status: ('A' for Active; 'I' for Inactive)
REMARK    1  A    between atoms: C2'_3  and  C1'_4 
REMARK    2  A    between atoms: C1'_4  and  C1_5 
ROOT
ATOM      1  C1  I4B d   1       0.026   0.603  -0.847  0.00  0.00    -0.075 A 
ATOM      2  C2  I4B d   1       0.510  -0.160  -1.881  0.00  0.00     0.003 A 
ATOM      3  C3  I4B d   1       0.605  -1.566  -1.745  0.00  0.00     0.002 A 
ATOM      4  C4  I4B d   1       0.255  -2.159  -0.549  0.00  0.00    -0.004 A 
ATOM      5  C5  I4B d   1      -0.258  -1.387   0.489  0.00  0.00     0.002 A 
ATOM      6  C6  I4B d   1      -0.385   0.001   0.335  0.00  0.00     0.003 A 
ENDROOT
BRANCH   1   7
ATOM      7  C1' I4B d   1      -0.030   2.088  -1.013  0.00  0.00     0.060 C 
BRANCH   7   8
ATOM      8  C2' I4B d   1       0.905   2.707   0.007  0.00  0.00    -0.013 C 
ATOM      9  C4' I4B d   1       2.027   3.454  -0.664  0.00  0.00     0.013 C 
ATOM     10  C3' I4B d   1       0.097   3.617   0.884  0.00  0.00     0.013 C 
ENDBRANCH   7   8
ENDBRANCH   1   7
TORSDOF 2
ENDMDL
