MODEL 1
REMARK minimizedAffinity -4.70845795
REMARK minimizedRMSD -1
REMARK  2 active torsions:
REMARK  status: ('A' for Active; 'I' for Inactive)
REMARK    1  A    between atoms: C2'_3  and  C1'_4 
REMARK    2  A    between atoms: C1'_4  and  C1_5 
ROOT
ATOM      1  C1  I4B d   1      -0.086   1.252  -0.136  0.00  0.00    -0.075 A 
ATOM      2  C2  I4B d   1      -0.280   0.739  -1.394  0.00  0.00     0.003 A 
ATOM      3  C3  I4B d   1      -0.159  -0.653  -1.622  0.00  0.00     0.002 A 
ATOM      4  C4  I4B d   1       0.204  -1.483  -0.581  0.00  0.00    -0.004 A 
ATOM      5  C5  I4B d   1       0.377  -0.964   0.698  0.00  0.00     0.002 A 
ATOM      6  C6  I4B d   1       0.219   0.411   0.925  0.00  0.00     0.003 A 
ENDROOT
BRANCH   1   7
ATOM      7  C1' I4B d   1      -0.189   2.732   0.062  0.00  0.00     0.060 C 
BRANCH   7   8
ATOM      8  C2' I4B d   1       1.085   3.202   0.734  0.00  0.00    -0.013 C 
ATOM      9  C4' I4B d   1       1.916   4.041  -0.201  0.00  0.00     0.013 C 
ATOM     10  C3' I4B d   1       0.703   3.976   1.960  0.00  0.00     0.013 C 
ENDBRANCH   7   8
ENDBRANCH   1   7
TORSDOF 2
ENDMDL
