MODEL 1
REMARK minimizedAffinity -2.48531699
REMARK minimizedRMSD -1
REMARK  2 active torsions:
REMARK  status: ('A' for Active; 'I' for Inactive)
REMARK    1  A    between atoms: C2'_3  and  C1'_4 
REMARK    2  A    between atoms: C1'_4  and  C1_5 
ROOT
ATOM      1  C1  I4B d   1      -0.336   0.174   0.137  0.00  0.00    -0.075 A 
ATOM      2  C2  I4B d   1       0.444  -0.786  -0.457  0.00  0.00     0.003 A 
ATOM      3  C3  I4B d   1       0.259  -2.153  -0.138  0.00  0.00     0.002 A 
ATOM      4  C4  I4B d   1      -0.676  -2.509   0.812  0.00  0.00    -0.004 A 
ATOM      5  C5  I4B d   1      -1.482  -1.537   1.397  0.00  0.00     0.002 A 
ATOM      6  C6  I4B d   1      -1.320  -0.188   1.049  0.00  0.00     0.003 A 
ENDROOT
BRANCH   1   7
ATOM      7  C1' I4B d   1      -0.092   1.611  -0.198  0.00  0.00     0.060 C 
BRANCH   7   8
ATOM      8  C2' I4B d   1       1.296   1.975   0.289  0.00  0.00    -0.013 C 
ATOM      9  C4' I4B d   1       2.307   1.876  -0.822  0.00  0.00     0.013 C 
ATOM     10  C3' I4B d   1       1.240   3.365   0.849  0.00  0.00     0.013 C 
ENDBRANCH   7   8
ENDBRANCH   1   7
TORSDOF 2
ENDMDL
