MODEL 1
REMARK minimizedAffinity -3.43771195
REMARK minimizedRMSD -1
REMARK  2 active torsions:
REMARK  status: ('A' for Active; 'I' for Inactive)
REMARK    1  A    between atoms: C2'_3  and  C1'_4 
REMARK    2  A    between atoms: C1'_4  and  C1_5 
ROOT
ATOM      1  C1  I4B d   1      -0.109   0.019  -0.171  0.00  0.00    -0.075 A 
ATOM      2  C2  I4B d   1       0.808  -0.969  -0.424  0.00  0.00     0.003 A 
ATOM      3  C3  I4B d   1       0.661  -2.247   0.169  0.00  0.00     0.002 A 
ATOM      4  C4  I4B d   1      -0.383  -2.475   1.042  0.00  0.00    -0.004 A 
ATOM      5  C5  I4B d   1      -1.325  -1.478   1.279  0.00  0.00     0.002 A 
ATOM      6  C6  I4B d   1      -1.195  -0.227   0.660  0.00  0.00     0.003 A 
ENDROOT
BRANCH   1   7
ATOM      7  C1' I4B d   1       0.095   1.367  -0.788  0.00  0.00     0.060 C 
BRANCH   7   8
ATOM      8  C2' I4B d   1       0.963   2.182   0.149  0.00  0.00    -0.013 C 
ATOM      9  C4' I4B d   1       2.335   2.401  -0.432  0.00  0.00     0.013 C 
ATOM     10  C3' I4B d   1       0.270   3.487   0.406  0.00  0.00     0.013 C 
ENDBRANCH   7   8
ENDBRANCH   1   7
TORSDOF 2
ENDMDL
