MODEL 1
REMARK minimizedAffinity -0.694638908
REMARK minimizedRMSD -1
REMARK  2 active torsions:
REMARK  status: ('A' for Active; 'I' for Inactive)
REMARK    1  A    between atoms: C2'_3  and  C1'_4 
REMARK    2  A    between atoms: C1'_4  and  C1_5 
ROOT
ATOM      1  C1  I4B d   1       0.896   2.696   0.031  0.00  0.00    -0.075 A 
ATOM      2  C2  I4B d   1       0.665   3.200   1.287  0.00  0.00     0.003 A 
ATOM      3  C3  I4B d   1       1.659   3.969   1.940  0.00  0.00     0.002 A 
ATOM      4  C4  I4B d   1       2.880   4.164   1.326  0.00  0.00    -0.004 A 
ATOM      5  C5  I4B d   1       3.104   3.671   0.044  0.00  0.00     0.002 A 
ATOM      6  C6  I4B d   1       2.101   2.943  -0.613  0.00  0.00     0.003 A 
ENDROOT
BRANCH   1   7
ATOM      7  C1' I4B d   1      -0.163   1.860  -0.616  0.00  0.00     0.060 C 
BRANCH   7   8
ATOM      8  C2' I4B d   1       0.327   0.427  -0.647  0.00  0.00    -0.013 C 
ATOM      9  C4' I4B d   1      -0.567  -0.472   0.165  0.00  0.00     0.013 C 
ATOM     10  C3' I4B d   1       0.381  -0.013  -2.079  0.00  0.00     0.013 C 
ENDBRANCH   7   8
ENDBRANCH   1   7
TORSDOF 2
ENDMDL
