MODEL 1
REMARK minimizedAffinity -5.60018539
REMARK minimizedRMSD -1
REMARK  2 active torsions:
REMARK  status: ('A' for Active; 'I' for Inactive)
REMARK    1  A    between atoms: C2'_3  and  C1'_4 
REMARK    2  A    between atoms: C1'_4  and  C1_5 
ROOT
ATOM      1  C1  I4B d   1       0.153  -1.428  -0.387  0.00  0.00    -0.075 A 
ATOM      2  C2  I4B d   1       0.003  -1.361  -1.749  0.00  0.00     0.003 A 
ATOM      3  C3  I4B d   1       0.105  -2.533  -2.537  0.00  0.00     0.002 A 
ATOM      4  C4  I4B d   1       0.407  -3.735  -1.930  0.00  0.00    -0.004 A 
ATOM      5  C5  I4B d   1       0.537  -3.806  -0.546  0.00  0.00     0.002 A 
ATOM      6  C6  I4B d   1       0.397  -2.647   0.232  0.00  0.00     0.003 A 
ENDROOT
BRANCH   1   7
ATOM      7  C1' I4B d   1       0.071  -0.165   0.411  0.00  0.00     0.060 C 
BRANCH   7   8
ATOM      8  C2' I4B d   1       0.199   1.001  -0.548  0.00  0.00    -0.013 C 
ATOM      9  C4' I4B d   1      -1.143   1.623  -0.832  0.00  0.00     0.013 C 
ATOM     10  C3' I4B d   1       1.141   1.998   0.059  0.00  0.00     0.013 C 
ENDBRANCH   7   8
ENDBRANCH   1   7
TORSDOF 2
ENDMDL
