MODEL 1
REMARK minimizedAffinity -3.45575881
REMARK minimizedRMSD -1
REMARK  2 active torsions:
REMARK  status: ('A' for Active; 'I' for Inactive)
REMARK    1  A    between atoms: C2'_3  and  C1'_4 
REMARK    2  A    between atoms: C1'_4  and  C1_5 
ROOT
ATOM      1  C1  I4B d   1       0.020   0.172  -0.372  0.00  0.00    -0.075 A 
ATOM      2  C2  I4B d   1       0.574  -0.872  -1.069  0.00  0.00     0.003 A 
ATOM      3  C3  I4B d   1       0.368  -2.205  -0.640  0.00  0.00     0.002 A 
ATOM      4  C4  I4B d   1      -0.352  -2.444   0.513  0.00  0.00    -0.004 A 
ATOM      5  C5  I4B d   1      -0.933  -1.386   1.206  0.00  0.00     0.002 A 
ATOM      6  C6  I4B d   1      -0.756  -0.070   0.754  0.00  0.00     0.003 A 
ENDROOT
BRANCH   1   7
ATOM      7  C1' I4B d   1       0.285   1.569  -0.835  0.00  0.00     0.060 C 
BRANCH   7   8
ATOM      8  C2' I4B d   1       1.036   2.291   0.265  0.00  0.00    -0.013 C 
ATOM      9  C4' I4B d   1       2.459   2.573  -0.139  0.00  0.00     0.013 C 
ATOM     10  C3' I4B d   1       0.299   3.561   0.573  0.00  0.00     0.013 C 
ENDBRANCH   7   8
ENDBRANCH   1   7
TORSDOF 2
ENDMDL
