MODEL 1
REMARK minimizedAffinity -0.853929281
REMARK minimizedRMSD -1
REMARK  2 active torsions:
REMARK  status: ('A' for Active; 'I' for Inactive)
REMARK    1  A    between atoms: C2'_3  and  C1'_4 
REMARK    2  A    between atoms: C1'_4  and  C1_5 
ROOT
ATOM      1  C1  I4B d   1       0.497  -0.998   0.347  0.00  0.00    -0.075 A 
ATOM      2  C2  I4B d   1       1.341  -2.047   0.077  0.00  0.00     0.003 A 
ATOM      3  C3  I4B d   1       0.860  -3.378   0.123  0.00  0.00     0.002 A 
ATOM      4  C4  I4B d   1      -0.448  -3.616   0.491  0.00  0.00    -0.004 A 
ATOM      5  C5  I4B d   1      -1.308  -2.551   0.743  0.00  0.00     0.002 A 
ATOM      6  C6  I4B d   1      -0.836  -1.233   0.659  0.00  0.00     0.003 A 
ENDROOT
BRANCH   1   7
ATOM      7  C1' I4B d   1       1.046   0.393   0.322  0.00  0.00     0.060 C 
BRANCH   7   8
ATOM      8  C2' I4B d   1       0.319   1.162  -0.762  0.00  0.00    -0.013 C 
ATOM      9  C4' I4B d   1       0.254   0.371  -2.042  0.00  0.00     0.013 C 
ATOM     10  C3' I4B d   1      -1.056   1.486  -0.257  0.00  0.00     0.013 C 
ENDBRANCH   7   8
ENDBRANCH   1   7
TORSDOF 2
ENDMDL
