MODEL 1
REMARK minimizedAffinity -4.91808462
REMARK minimizedRMSD -1
REMARK  2 active torsions:
REMARK  status: ('A' for Active; 'I' for Inactive)
REMARK    1  A    between atoms: C2'_3  and  C1'_4 
REMARK    2  A    between atoms: C1'_4  and  C1_5 
ROOT
ATOM      1  C1  I4B d   1      -0.962  -0.456   1.243  0.00  0.00    -0.075 A 
ATOM      2  C2  I4B d   1       0.208  -0.179   0.580  0.00  0.00     0.003 A 
ATOM      3  C3  I4B d   1       0.932  -1.217  -0.053  0.00  0.00     0.002 A 
ATOM      4  C4  I4B d   1       0.480  -2.518   0.043  0.00  0.00    -0.004 A 
ATOM      5  C5  I4B d   1      -0.718  -2.794   0.695  0.00  0.00     0.002 A 
ATOM      6  C6  I4B d   1      -1.450  -1.756   1.289  0.00  0.00     0.003 A 
ENDROOT
BRANCH   1   7
ATOM      7  C1' I4B d   1      -1.684   0.660   1.928  0.00  0.00     0.060 C 
BRANCH   7   8
ATOM      8  C2' I4B d   1      -2.608   0.051   2.964  0.00  0.00    -0.013 C 
ATOM      9  C4' I4B d   1      -1.887  -0.188   4.264  0.00  0.00     0.013 C 
ATOM     10  C3' I4B d   1      -3.769   0.981   3.152  0.00  0.00     0.013 C 
ENDBRANCH   7   8
ENDBRANCH   1   7
TORSDOF 2
ENDMDL
