MODEL 1
REMARK minimizedAffinity 6.21709871
REMARK minimizedRMSD -1
REMARK  0 active torsions:
REMARK  status: ('A' for Active; 'I' for Inactive)
ROOT
ATOM      1  C   UNL d   1       2.125  -0.215  -1.034  0.00  0.00     0.020 A 
ATOM      2  C1  UNL d   1       2.288  -0.203   0.351  0.00  0.00     0.020 A 
ATOM      3  C2  UNL d   1       3.183   0.692   0.941  0.00  0.00     0.034 A 
ATOM      4  C3  UNL d   1       3.918   1.579   0.146  0.00  0.00     0.017 A 
ATOM      5  C4  UNL d   1       3.754   1.566  -1.244  0.00  0.00     0.017 A 
ATOM      6  C5  UNL d   1       2.856   0.668  -1.829  0.00  0.00     0.034 A 
ATOM      7 Cl   UNL d   1       4.626   2.630  -2.290  0.00  0.00    -0.070 Cl
ATOM      8 Cl1  UNL d   1       5.007   2.659   0.943  0.00  0.00    -0.070 Cl
ENDROOT
TORSDOF 0
ENDMDL
