MODEL 1
REMARK minimizedAffinity 7.93178701
REMARK minimizedRMSD -1
REMARK  0 active torsions:
REMARK  status: ('A' for Active; 'I' for Inactive)
ROOT
ATOM      1  C   UNL d   1       3.407   1.509  -0.219  0.00  0.00     0.020 A 
ATOM      2  C1  UNL d   1       3.654   1.474  -1.591  0.00  0.00     0.020 A 
ATOM      3  C2  UNL d   1       3.475   0.286  -2.302  0.00  0.00     0.034 A 
ATOM      4  C3  UNL d   1       3.050  -0.873  -1.641  0.00  0.00     0.017 A 
ATOM      5  C4  UNL d   1       2.802  -0.836  -0.264  0.00  0.00     0.017 A 
ATOM      6  C5  UNL d   1       2.982   0.357   0.443  0.00  0.00     0.034 A 
ATOM      7 Cl   UNL d   1       2.275  -2.225   0.620  0.00  0.00    -0.070 Cl
ATOM      8 Cl1  UNL d   1       2.850  -2.307  -2.583  0.00  0.00    -0.070 Cl
ENDROOT
TORSDOF 0
ENDMDL
