MODEL 1
REMARK minimizedAffinity 4.88067245
REMARK minimizedRMSD -1
REMARK  0 active torsions:
REMARK  status: ('A' for Active; 'I' for Inactive)
ROOT
ATOM      1  C   UNL d   1      -3.741   0.462   0.004  0.00  0.00     0.020 A 
ATOM      2  C1  UNL d   1      -2.489   0.140  -0.520  0.00  0.00     0.020 A 
ATOM      3  C2  UNL d   1      -2.305   0.082  -1.903  0.00  0.00     0.034 A 
ATOM      4  C3  UNL d   1      -3.374   0.347  -2.767  0.00  0.00     0.017 A 
ATOM      5  C4  UNL d   1      -4.630   0.671  -2.240  0.00  0.00     0.017 A 
ATOM      6  C5  UNL d   1      -4.808   0.727  -0.855  0.00  0.00     0.034 A 
ATOM      7 Cl   UNL d   1      -5.996   1.011  -3.243  0.00  0.00    -0.070 Cl
ATOM      8 Cl1  UNL d   1      -3.074   0.258  -4.467  0.00  0.00    -0.070 Cl
ENDROOT
TORSDOF 0
ENDMDL
