MODEL 1
REMARK minimizedAffinity 10.4016094
REMARK minimizedRMSD -1
REMARK  0 active torsions:
REMARK  status: ('A' for Active; 'I' for Inactive)
ROOT
ATOM      1  C   UNL d   1       2.569   1.320   0.384  0.00  0.00     0.020 A 
ATOM      2  C1  UNL d   1       1.844   0.135   0.504  0.00  0.00     0.020 A 
ATOM      3  C2  UNL d   1       1.934  -0.842  -0.490  0.00  0.00     0.034 A 
ATOM      4  C3  UNL d   1       2.751  -0.636  -1.608  0.00  0.00     0.017 A 
ATOM      5  C4  UNL d   1       3.478   0.554  -1.727  0.00  0.00     0.017 A 
ATOM      6  C5  UNL d   1       3.384   1.529  -0.729  0.00  0.00     0.034 A 
ATOM      7 Cl   UNL d   1       4.506   0.881  -3.078  0.00  0.00    -0.070 Cl
ATOM      8 Cl1  UNL d   1       2.814  -1.886  -2.799  0.00  0.00    -0.070 Cl
ENDROOT
TORSDOF 0
ENDMDL
