MODEL 1
REMARK minimizedAffinity 11.2019148
REMARK minimizedRMSD -1
REMARK  0 active torsions:
REMARK  status: ('A' for Active; 'I' for Inactive)
ROOT
ATOM      1  C   UNL d   1       4.283   0.675   0.126  0.00  0.00     0.020 A 
ATOM      2  C1  UNL d   1       3.538   1.605  -0.598  0.00  0.00     0.020 A 
ATOM      3  C2  UNL d   1       2.300   1.243  -1.135  0.00  0.00     0.034 A 
ATOM      4  C3  UNL d   1       1.804  -0.052  -0.948  0.00  0.00     0.017 A 
ATOM      5  C4  UNL d   1       2.552  -0.985  -0.220  0.00  0.00     0.017 A 
ATOM      6  C5  UNL d   1       3.791  -0.617   0.314  0.00  0.00     0.034 A 
ATOM      7 Cl   UNL d   1       2.005  -2.602   0.052  0.00  0.00    -0.070 Cl
ATOM      8 Cl1  UNL d   1       0.266  -0.431  -1.638  0.00  0.00    -0.070 Cl
ENDROOT
TORSDOF 0
ENDMDL
