MODEL 1
REMARK minimizedAffinity 18.3035908
REMARK minimizedRMSD -1
REMARK  0 active torsions:
REMARK  status: ('A' for Active; 'I' for Inactive)
ROOT
ATOM      1  C   UNL d   1       1.034   5.134   3.345  0.00  0.00     0.020 A 
ATOM      2  C1  UNL d   1       1.007   3.740   3.329  0.00  0.00     0.020 A 
ATOM      3  C2  UNL d   1       2.203   3.019   3.323  0.00  0.00     0.034 A 
ATOM      4  C3  UNL d   1       3.430   3.692   3.332  0.00  0.00     0.017 A 
ATOM      5  C4  UNL d   1       3.456   5.091   3.348  0.00  0.00     0.017 A 
ATOM      6  C5  UNL d   1       2.256   5.808   3.355  0.00  0.00     0.034 A 
ATOM      7 Cl   UNL d   1       4.932   5.991   3.361  0.00  0.00    -0.070 Cl
ATOM      8 Cl1  UNL d   1       4.870   2.736   3.324  0.00  0.00    -0.070 Cl
ENDROOT
TORSDOF 0
ENDMDL
