MODEL 1
REMARK minimizedAffinity 7.57165813
REMARK minimizedRMSD -1
REMARK  0 active torsions:
REMARK  status: ('A' for Active; 'I' for Inactive)
ROOT
ATOM      1  C   UNL d   1      -5.010   5.774   5.991  0.00  0.00     0.020 A 
ATOM      2  C1  UNL d   1      -6.000   4.979   5.415  0.00  0.00     0.020 A 
ATOM      3  C2  UNL d   1      -5.773   4.367   4.180  0.00  0.00     0.034 A 
ATOM      4  C3  UNL d   1      -4.553   4.548   3.518  0.00  0.00     0.017 A 
ATOM      5  C4  UNL d   1      -3.560   5.347   4.097  0.00  0.00     0.017 A 
ATOM      6  C5  UNL d   1      -3.793   5.957   5.333  0.00  0.00     0.034 A 
ATOM      7 Cl   UNL d   1      -2.030   5.618   3.340  0.00  0.00    -0.070 Cl
ATOM      8 Cl1  UNL d   1      -4.341   3.761   1.995  0.00  0.00    -0.070 Cl
ENDROOT
TORSDOF 0
ENDMDL
