MODEL 1
REMARK minimizedAffinity 11.4022083
REMARK minimizedRMSD -1
REMARK  0 active torsions:
REMARK  status: ('A' for Active; 'I' for Inactive)
ROOT
ATOM      1  C   UNL d   1      -5.999   5.847   4.311  0.00  0.00     0.020 A 
ATOM      2  C1  UNL d   1      -6.000   4.577   4.888  0.00  0.00     0.020 A 
ATOM      3  C2  UNL d   1      -5.664   3.461   4.120  0.00  0.00     0.034 A 
ATOM      4  C3  UNL d   1      -5.325   3.611   2.770  0.00  0.00     0.017 A 
ATOM      5  C4  UNL d   1      -5.324   4.885   2.191  0.00  0.00     0.017 A 
ATOM      6  C5  UNL d   1      -5.661   6.000   2.965  0.00  0.00     0.034 A 
ATOM      7 Cl   UNL d   1      -4.917   5.150   0.533  0.00  0.00    -0.070 Cl
ATOM      8 Cl1  UNL d   1      -4.920   2.186   1.880  0.00  0.00    -0.070 Cl
ENDROOT
TORSDOF 0
ENDMDL
