MODEL 1
REMARK minimizedAffinity 19.0558891
REMARK minimizedRMSD -1
REMARK  0 active torsions:
REMARK  status: ('A' for Active; 'I' for Inactive)
ROOT
ATOM      1  C   UNL d   1      -1.055  -4.148   5.659  0.00  0.00     0.020 A 
ATOM      2  C1  UNL d   1       0.056  -3.376   5.995  0.00  0.00     0.020 A 
ATOM      3  C2  UNL d   1       0.924  -2.931   4.995  0.00  0.00     0.034 A 
ATOM      4  C3  UNL d   1       0.682  -3.257   3.656  0.00  0.00     0.017 A 
ATOM      5  C4  UNL d   1      -0.434  -4.031   3.320  0.00  0.00     0.017 A 
ATOM      6  C5  UNL d   1      -1.300  -4.475   4.325  0.00  0.00     0.034 A 
ATOM      7 Cl   UNL d   1      -0.799  -4.474   1.690  0.00  0.00    -0.070 Cl
ATOM      8 Cl1  UNL d   1       1.797  -2.671   2.473  0.00  0.00    -0.070 Cl
ENDROOT
TORSDOF 0
ENDMDL
