MODEL 1
REMARK minimizedAffinity -2.78785539
REMARK minimizedRMSD -1
REMARK  2 active torsions:
REMARK  status: ('A' for Active; 'I' for Inactive)
REMARK    1  A    between atoms: C2'_3  and  C1'_4 
REMARK    2  A    between atoms: C1'_4  and  C1_5 
ROOT
ATOM      1  C1  I4B d   1       0.207  -0.757   0.090  0.00  0.00    -0.075 A 
ATOM      2  C2  I4B d   1      -0.991  -0.416   0.668  0.00  0.00     0.003 A 
ATOM      3  C3  I4B d   1      -1.382   0.942   0.748  0.00  0.00     0.002 A 
ATOM      4  C4  I4B d   1      -0.530   1.924   0.285  0.00  0.00    -0.004 A 
ATOM      5  C5  I4B d   1       0.673   1.575  -0.321  0.00  0.00     0.002 A 
ATOM      6  C6  I4B d   1       1.039   0.225  -0.431  0.00  0.00     0.003 A 
ENDROOT
BRANCH   1   7
ATOM      7  C1' I4B d   1       0.604  -2.199   0.052  0.00  0.00     0.060 C 
BRANCH   7   8
ATOM      8  C2' I4B d   1      -0.176  -2.869  -1.061  0.00  0.00    -0.013 C 
ATOM      9  C4' I4B d   1       0.742  -3.385  -2.137  0.00  0.00     0.013 C 
ATOM     10  C3' I4B d   1      -0.981  -3.981  -0.457  0.00  0.00     0.013 C 
ENDBRANCH   7   8
ENDBRANCH   1   7
TORSDOF 2
ENDMDL
