MODEL 1
REMARK minimizedAffinity -4.43583632
REMARK minimizedRMSD -1
REMARK  2 active torsions:
REMARK  status: ('A' for Active; 'I' for Inactive)
REMARK    1  A    between atoms: C2'_3  and  C1'_4 
REMARK    2  A    between atoms: C1'_4  and  C1_5 
ROOT
ATOM      1  C1  I4B d   1       0.225  -0.400   0.220  0.00  0.00    -0.075 A 
ATOM      2  C2  I4B d   1       1.183   0.471  -0.236  0.00  0.00     0.003 A 
ATOM      3  C3  I4B d   1       0.941   1.866  -0.226  0.00  0.00     0.002 A 
ATOM      4  C4  I4B d   1      -0.283   2.340   0.199  0.00  0.00    -0.004 A 
ATOM      5  C5  I4B d   1      -1.245   1.458   0.682  0.00  0.00     0.002 A 
ATOM      6  C6  I4B d   1      -0.985   0.080   0.705  0.00  0.00     0.003 A 
ENDROOT
BRANCH   1   7
ATOM      7  C1' I4B d   1       0.500  -1.869   0.164  0.00  0.00     0.060 C 
BRANCH   7   8
ATOM      8  C2' I4B d   1      -0.148  -2.419  -1.090  0.00  0.00    -0.013 C 
ATOM      9  C4' I4B d   1       0.886  -2.904  -2.071  0.00  0.00     0.013 C 
ATOM     10  C3' I4B d   1      -1.073  -3.527  -0.685  0.00  0.00     0.013 C 
ENDBRANCH   7   8
ENDBRANCH   1   7
TORSDOF 2
ENDMDL
