MODEL 1
REMARK minimizedAffinity -1.84090066
REMARK minimizedRMSD -1
REMARK  2 active torsions:
REMARK  status: ('A' for Active; 'I' for Inactive)
REMARK    1  A    between atoms: C2'_3  and  C1'_4 
REMARK    2  A    between atoms: C1'_4  and  C1_5 
ROOT
ATOM      1  C1  I4B d   1      -0.449  -1.209   0.143  0.00  0.00    -0.075 A 
ATOM      2  C2  I4B d   1       0.846  -0.757   0.202  0.00  0.00     0.003 A 
ATOM      3  C3  I4B d   1       1.113   0.613   0.436  0.00  0.00     0.002 A 
ATOM      4  C4  I4B d   1       0.062   1.500   0.554  0.00  0.00    -0.004 A 
ATOM      5  C5  I4B d   1      -1.250   1.037   0.516  0.00  0.00     0.002 A 
ATOM      6  C6  I4B d   1      -1.508  -0.328   0.321  0.00  0.00     0.003 A 
ENDROOT
BRANCH   1   7
ATOM      7  C1' I4B d   1      -0.695  -2.657  -0.139  0.00  0.00     0.060 C 
BRANCH   7   8
ATOM      8  C2' I4B d   1      -1.117  -2.786  -1.589  0.00  0.00    -0.013 C 
ATOM      9  C4' I4B d   1      -0.035  -3.427  -2.417  0.00  0.00     0.013 C 
ATOM     10  C3' I4B d   1      -2.382  -3.591  -1.633  0.00  0.00     0.013 C 
ENDBRANCH   7   8
ENDBRANCH   1   7
TORSDOF 2
ENDMDL
