MODEL 1
REMARK minimizedAffinity -0.966091871
REMARK minimizedRMSD -1
REMARK  2 active torsions:
REMARK  status: ('A' for Active; 'I' for Inactive)
REMARK    1  A    between atoms: C2'_3  and  C1'_4 
REMARK    2  A    between atoms: C1'_4  and  C1_5 
ROOT
ATOM      1  C1  I4B d   1       0.206  -1.275  -0.208  0.00  0.00    -0.075 A 
ATOM      2  C2  I4B d   1      -0.891  -0.462  -0.063  0.00  0.00     0.003 A 
ATOM      3  C3  I4B d   1      -0.725   0.911   0.242  0.00  0.00     0.002 A 
ATOM      4  C4  I4B d   1       0.544   1.414   0.441  0.00  0.00    -0.004 A 
ATOM      5  C5  I4B d   1       1.656   0.594   0.271  0.00  0.00     0.002 A 
ATOM      6  C6  I4B d   1       1.487  -0.757  -0.068  0.00  0.00     0.003 A 
ENDROOT
BRANCH   1   7
ATOM      7  C1' I4B d   1      -0.007  -2.727  -0.497  0.00  0.00     0.060 C 
BRANCH   7   8
ATOM      8  C2' I4B d   1      -0.674  -2.840  -1.853  0.00  0.00    -0.013 C 
ATOM      9  C4' I4B d   1       0.337  -3.106  -2.937  0.00  0.00     0.013 C 
ATOM     10  C3' I4B d   1      -1.690  -3.941  -1.779  0.00  0.00     0.013 C 
ENDBRANCH   7   8
ENDBRANCH   1   7
TORSDOF 2
ENDMDL
