MODEL 1
REMARK minimizedAffinity -4.30928421
REMARK minimizedRMSD -1
REMARK  2 active torsions:
REMARK  status: ('A' for Active; 'I' for Inactive)
REMARK    1  A    between atoms: C2'_3  and  C1'_4 
REMARK    2  A    between atoms: C1'_4  and  C1_5 
ROOT
ATOM      1  C1  I4B d   1      -0.100  -0.764   0.239  0.00  0.00    -0.075 A 
ATOM      2  C2  I4B d   1       0.910   0.132  -0.004  0.00  0.00     0.003 A 
ATOM      3  C3  I4B d   1       0.685   1.521   0.153  0.00  0.00     0.002 A 
ATOM      4  C4  I4B d   1      -0.572   1.970   0.504  0.00  0.00    -0.004 A 
ATOM      5  C5  I4B d   1      -1.589   1.059   0.773  0.00  0.00     0.002 A 
ATOM      6  C6  I4B d   1      -1.349  -0.317   0.652  0.00  0.00     0.003 A 
ENDROOT
BRANCH   1   7
ATOM      7  C1' I4B d   1       0.164  -2.221   0.032  0.00  0.00     0.060 C 
BRANCH   7   8
ATOM      8  C2' I4B d   1      -0.816  -2.730  -1.007  0.00  0.00    -0.013 C 
ATOM      9  C4' I4B d   1      -0.097  -3.291  -2.205  0.00  0.00     0.013 C 
ATOM     10  C3' I4B d   1      -1.680  -3.770  -0.358  0.00  0.00     0.013 C 
ENDBRANCH   7   8
ENDBRANCH   1   7
TORSDOF 2
ENDMDL
