MODEL 1
REMARK minimizedAffinity -4.43601179
REMARK minimizedRMSD -1
REMARK  2 active torsions:
REMARK  status: ('A' for Active; 'I' for Inactive)
REMARK    1  A    between atoms: C2'_3  and  C1'_4 
REMARK    2  A    between atoms: C1'_4  and  C1_5 
ROOT
ATOM      1  C1  I4B d   1       0.749   0.687  -0.155  0.00  0.00    -0.075 A 
ATOM      2  C2  I4B d   1       0.110   1.858   0.167  0.00  0.00     0.003 A 
ATOM      3  C3  I4B d   1       0.812   2.896   0.826  0.00  0.00     0.002 A 
ATOM      4  C4  I4B d   1       2.130   2.701   1.188  0.00  0.00    -0.004 A 
ATOM      5  C5  I4B d   1       2.782   1.522   0.840  0.00  0.00     0.002 A 
ATOM      6  C6  I4B d   1       2.091   0.513   0.154  0.00  0.00     0.003 A 
ENDROOT
BRANCH   1   7
ATOM      7  C1' I4B d   1      -0.033  -0.401  -0.821  0.00  0.00     0.060 C 
BRANCH   7   8
ATOM      8  C2' I4B d   1       0.311  -1.709  -0.138  0.00  0.00    -0.013 C 
ATOM      9  C4' I4B d   1      -0.438  -1.859   1.160  0.00  0.00     0.013 C 
ATOM     10  C3' I4B d   1      -0.016  -2.826  -1.084  0.00  0.00     0.013 C 
ENDBRANCH   7   8
ENDBRANCH   1   7
TORSDOF 2
ENDMDL
