MODEL 1
REMARK minimizedAffinity -5.55356646
REMARK minimizedRMSD -1
REMARK  2 active torsions:
REMARK  status: ('A' for Active; 'I' for Inactive)
REMARK    1  A    between atoms: C2'_3  and  C1'_4 
REMARK    2  A    between atoms: C1'_4  and  C1_5 
ROOT
ATOM      1  C1  I4B d   1       0.102  -0.394  -0.020  0.00  0.00    -0.075 A 
ATOM      2  C2  I4B d   1       1.221   0.234  -0.506  0.00  0.00     0.003 A 
ATOM      3  C3  I4B d   1       1.302   1.648  -0.506  0.00  0.00     0.002 A 
ATOM      4  C4  I4B d   1       0.227   2.390  -0.060  0.00  0.00    -0.004 A 
ATOM      5  C5  I4B d   1      -0.898   1.750   0.453  0.00  0.00     0.002 A 
ATOM      6  C6  I4B d   1      -0.956   0.350   0.485  0.00  0.00     0.003 A 
ENDROOT
BRANCH   1   7
ATOM      7  C1' I4B d   1       0.037  -1.888  -0.065  0.00  0.00     0.060 C 
BRANCH   7   8
ATOM      8  C2' I4B d   1      -0.686  -2.285  -1.336  0.00  0.00    -0.013 C 
ATOM      9  C4' I4B d   1       0.282  -2.752  -2.391  0.00  0.00     0.013 C 
ATOM     10  C3' I4B d   1      -1.671  -3.362  -0.991  0.00  0.00     0.013 C 
ENDBRANCH   7   8
ENDBRANCH   1   7
TORSDOF 2
ENDMDL
