MODEL 1
REMARK minimizedAffinity -3.88664913
REMARK minimizedRMSD -1
REMARK  2 active torsions:
REMARK  status: ('A' for Active; 'I' for Inactive)
REMARK    1  A    between atoms: C2'_3  and  C1'_4 
REMARK    2  A    between atoms: C1'_4  and  C1_5 
ROOT
ATOM      1  C1  I4B d   1       0.348  -1.335   0.253  0.00  0.00    -0.075 A 
ATOM      2  C2  I4B d   1       1.646  -0.892   0.272  0.00  0.00     0.003 A 
ATOM      3  C3  I4B d   1       1.926   0.492   0.375  0.00  0.00     0.002 A 
ATOM      4  C4  I4B d   1       0.883   1.396   0.406  0.00  0.00    -0.004 A 
ATOM      5  C5  I4B d   1      -0.433   0.943   0.410  0.00  0.00     0.002 A 
ATOM      6  C6  I4B d   1      -0.703  -0.432   0.346  0.00  0.00     0.003 A 
ENDROOT
BRANCH   1   7
ATOM      7  C1' I4B d   1       0.089  -2.802   0.110  0.00  0.00     0.060 C 
BRANCH   7   8
ATOM      8  C2' I4B d   1      -0.587  -3.028  -1.227  0.00  0.00    -0.013 C 
ATOM      9  C4' I4B d   1       0.392  -3.532  -2.254  0.00  0.00     0.013 C 
ATOM     10  C3' I4B d   1      -1.706  -4.005  -1.020  0.00  0.00     0.013 C 
ENDBRANCH   7   8
ENDBRANCH   1   7
TORSDOF 2
ENDMDL
