MODEL 1
REMARK minimizedAffinity -5.15270329
REMARK minimizedRMSD -1
REMARK  2 active torsions:
REMARK  status: ('A' for Active; 'I' for Inactive)
REMARK    1  A    between atoms: C2'_3  and  C1'_4 
REMARK    2  A    between atoms: C1'_4  and  C1_5 
ROOT
ATOM      1  C1  I4B d   1       0.111  -0.470  -0.020  0.00  0.00    -0.075 A 
ATOM      2  C2  I4B d   1      -1.100   0.043   0.373  0.00  0.00     0.003 A 
ATOM      3  C3  I4B d   1      -1.265   1.440   0.531  0.00  0.00     0.002 A 
ATOM      4  C4  I4B d   1      -0.186   2.278   0.336  0.00  0.00    -0.004 A 
ATOM      5  C5  I4B d   1       1.035   1.759  -0.084  0.00  0.00     0.002 A 
ATOM      6  C6  I4B d   1       1.182   0.377  -0.276  0.00  0.00     0.003 A 
ENDROOT
BRANCH   1   7
ATOM      7  C1' I4B d   1       0.260  -1.953  -0.146  0.00  0.00     0.060 C 
BRANCH   7   8
ATOM      8  C2' I4B d   1      -0.601  -2.412  -1.306  0.00  0.00    -0.013 C 
ATOM      9  C4' I4B d   1       0.173  -2.400  -2.597  0.00  0.00     0.013 C 
ATOM     10  C3' I4B d   1      -1.108  -3.787  -0.990  0.00  0.00     0.013 C 
ENDBRANCH   7   8
ENDBRANCH   1   7
TORSDOF 2
ENDMDL
