MODEL 1
REMARK minimizedAffinity 1.13592267
REMARK minimizedRMSD -1
REMARK  2 active torsions:
REMARK  status: ('A' for Active; 'I' for Inactive)
REMARK    1  A    between atoms: C2'_3  and  C1'_4 
REMARK    2  A    between atoms: C1'_4  and  C1_5 
ROOT
ATOM      1  C1  I4B d   1      -0.351  -0.334   0.223  0.00  0.00    -0.075 A 
ATOM      2  C2  I4B d   1       0.753   0.481   0.248  0.00  0.00     0.003 A 
ATOM      3  C3  I4B d   1       0.607   1.873   0.456  0.00  0.00     0.002 A 
ATOM      4  C4  I4B d   1      -0.657   2.413   0.583  0.00  0.00    -0.004 A 
ATOM      5  C5  I4B d   1      -1.774   1.582   0.580  0.00  0.00     0.002 A 
ATOM      6  C6  I4B d   1      -1.620   0.199   0.411  0.00  0.00     0.003 A 
ENDROOT
BRANCH   1   7
ATOM      7  C1' I4B d   1      -0.163  -1.796  -0.032  0.00  0.00     0.060 C 
BRANCH   7   8
ATOM      8  C2' I4B d   1      -1.084  -2.194  -1.168  0.00  0.00    -0.013 C 
ATOM      9  C4' I4B d   1      -0.310  -2.442  -2.436  0.00  0.00     0.013 C 
ATOM     10  C3' I4B d   1      -1.837  -3.420  -0.745  0.00  0.00     0.013 C 
ENDBRANCH   7   8
ENDBRANCH   1   7
TORSDOF 2
ENDMDL
