MODEL 1
REMARK minimizedAffinity 3.00321722
REMARK minimizedRMSD -1
REMARK  0 active torsions:
REMARK  status: ('A' for Active; 'I' for Inactive)
ROOT
ATOM      1  C   UNL d   1       1.501   2.189  -0.360  0.00  0.00     0.020 A 
ATOM      2  C1  UNL d   1       2.599   2.142   0.499  0.00  0.00     0.020 A 
ATOM      3  C2  UNL d   1       2.705   1.117   1.441  0.00  0.00     0.034 A 
ATOM      4  C3  UNL d   1       1.711   0.135   1.528  0.00  0.00     0.017 A 
ATOM      5  C4  UNL d   1       0.610   0.183   0.665  0.00  0.00     0.017 A 
ATOM      6  C5  UNL d   1       0.509   1.212  -0.277  0.00  0.00     0.034 A 
ATOM      7 Cl   UNL d   1      -0.656  -0.993   0.712  0.00  0.00    -0.070 Cl
ATOM      8 Cl1  UNL d   1       1.907  -1.104   2.716  0.00  0.00    -0.070 Cl
ENDROOT
TORSDOF 0
ENDMDL
