MODEL 1
REMARK minimizedAffinity 6.64212942
REMARK minimizedRMSD -1
REMARK  0 active torsions:
REMARK  status: ('A' for Active; 'I' for Inactive)
ROOT
ATOM      1  C   UNL d   1       2.733   0.158   1.478  0.00  0.00     0.020 A 
ATOM      2  C1  UNL d   1       3.585   0.929   0.689  0.00  0.00     0.020 A 
ATOM      3  C2  UNL d   1       3.092   2.049   0.017  0.00  0.00     0.034 A 
ATOM      4  C3  UNL d   1       1.742   2.402   0.133  0.00  0.00     0.017 A 
ATOM      5  C4  UNL d   1       0.888   1.627   0.926  0.00  0.00     0.017 A 
ATOM      6  C5  UNL d   1       1.387   0.506   1.597  0.00  0.00     0.034 A 
ATOM      7 Cl   UNL d   1      -0.789   1.999   1.118  0.00  0.00    -0.070 Cl
ATOM      8 Cl1  UNL d   1       1.200   3.800  -0.725  0.00  0.00    -0.070 Cl
ENDROOT
TORSDOF 0
ENDMDL
