MODEL 1
REMARK minimizedAffinity 12.1328135
REMARK minimizedRMSD -1
REMARK  0 active torsions:
REMARK  status: ('A' for Active; 'I' for Inactive)
ROOT
ATOM      1  C   UNL d   1      -0.530  -2.140   0.074  0.00  0.00     0.020 A 
ATOM      2  C1  UNL d   1      -0.350  -2.452   1.421  0.00  0.00     0.020 A 
ATOM      3  C2  UNL d   1       0.669  -3.327   1.805  0.00  0.00     0.034 A 
ATOM      4  C3  UNL d   1       1.512  -3.892   0.840  0.00  0.00     0.017 A 
ATOM      5  C4  UNL d   1       1.330  -3.577  -0.511  0.00  0.00     0.017 A 
ATOM      6  C5  UNL d   1       0.308  -2.701  -0.890  0.00  0.00     0.034 A 
ATOM      7 Cl   UNL d   1       2.330  -4.235  -1.758  0.00  0.00    -0.070 Cl
ATOM      8 Cl1  UNL d   1       2.751  -4.965   1.386  0.00  0.00    -0.070 Cl
ENDROOT
TORSDOF 0
ENDMDL
