MODEL 1
REMARK minimizedAffinity 6.53247643
REMARK minimizedRMSD -1
REMARK  0 active torsions:
REMARK  status: ('A' for Active; 'I' for Inactive)
ROOT
ATOM      1  C   UNL d   1      -1.692  -2.177   0.931  0.00  0.00     0.020 A 
ATOM      2  C1  UNL d   1      -0.303  -2.292   0.900  0.00  0.00     0.020 A 
ATOM      3  C2  UNL d   1       0.343  -2.634  -0.290  0.00  0.00     0.034 A 
ATOM      4  C3  UNL d   1      -0.401  -2.863  -1.454  0.00  0.00     0.017 A 
ATOM      5  C4  UNL d   1      -1.795  -2.748  -1.421  0.00  0.00     0.017 A 
ATOM      6  C5  UNL d   1      -2.437  -2.404  -0.227  0.00  0.00     0.034 A 
ATOM      7 Cl   UNL d   1      -2.780  -3.015  -2.816  0.00  0.00    -0.070 Cl
ATOM      8 Cl1  UNL d   1       0.463  -3.282  -2.890  0.00  0.00    -0.070 Cl
ENDROOT
TORSDOF 0
ENDMDL
