MODEL 1
REMARK minimizedAffinity 1.50415337
REMARK minimizedRMSD -1
REMARK  0 active torsions:
REMARK  status: ('A' for Active; 'I' for Inactive)
ROOT
ATOM      1  C   UNL d   1       3.849   0.228  -0.039  0.00  0.00     0.020 A 
ATOM      2  C1  UNL d   1       3.594  -0.160   1.276  0.00  0.00     0.020 A 
ATOM      3  C2  UNL d   1       2.798   0.641   2.098  0.00  0.00     0.034 A 
ATOM      4  C3  UNL d   1       2.254   1.832   1.606  0.00  0.00     0.017 A 
ATOM      5  C4  UNL d   1       2.510   2.221   0.286  0.00  0.00     0.017 A 
ATOM      6  C5  UNL d   1       3.308   1.415  -0.533  0.00  0.00     0.034 A 
ATOM      7 Cl   UNL d   1       1.874   3.677  -0.393  0.00  0.00    -0.070 Cl
ATOM      8 Cl1  UNL d   1       1.278   2.773   2.677  0.00  0.00    -0.070 Cl
ENDROOT
TORSDOF 0
ENDMDL
