MODEL 1
REMARK minimizedAffinity 1.41523015
REMARK minimizedRMSD -1
REMARK  0 active torsions:
REMARK  status: ('A' for Active; 'I' for Inactive)
ROOT
ATOM      1  C   UNL d   1       1.365   0.910   0.799  0.00  0.00     0.020 A 
ATOM      2  C1  UNL d   1       2.448   1.619   0.282  0.00  0.00     0.020 A 
ATOM      3  C2  UNL d   1       2.264   2.912  -0.213  0.00  0.00     0.034 A 
ATOM      4  C3  UNL d   1       0.993   3.499  -0.192  0.00  0.00     0.017 A 
ATOM      5  C4  UNL d   1      -0.093   2.786   0.328  0.00  0.00     0.017 A 
ATOM      6  C5  UNL d   1       0.097   1.492   0.822  0.00  0.00     0.034 A 
ATOM      7 Cl   UNL d   1      -1.690   3.444   0.387  0.00  0.00    -0.070 Cl
ATOM      8 Cl1  UNL d   1       0.838   5.101  -0.820  0.00  0.00    -0.070 Cl
ENDROOT
TORSDOF 0
ENDMDL
