MODEL 1
REMARK minimizedAffinity 0.596969843
REMARK minimizedRMSD -1
REMARK  0 active torsions:
REMARK  status: ('A' for Active; 'I' for Inactive)
ROOT
ATOM      1  C   UNL d   1       2.630  -1.147   2.079  0.00  0.00     0.020 A 
ATOM      2  C1  UNL d   1       3.010   0.163   1.787  0.00  0.00     0.020 A 
ATOM      3  C2  UNL d   1       2.064   1.074   1.312  0.00  0.00     0.034 A 
ATOM      4  C3  UNL d   1       0.735   0.677   1.127  0.00  0.00     0.017 A 
ATOM      5  C4  UNL d   1       0.355  -0.638   1.421  0.00  0.00     0.017 A 
ATOM      6  C5  UNL d   1       1.306  -1.546   1.897  0.00  0.00     0.034 A 
ATOM      7 Cl   UNL d   1      -1.266  -1.201   1.219  0.00  0.00    -0.070 Cl
ATOM      8 Cl1  UNL d   1      -0.381   1.856   0.537  0.00  0.00    -0.070 Cl
ENDROOT
TORSDOF 0
ENDMDL
