MODEL 1
REMARK minimizedAffinity -1.14067709
REMARK minimizedRMSD -1
REMARK  0 active torsions:
REMARK  status: ('A' for Active; 'I' for Inactive)
ROOT
ATOM      1  C   UNL d   1       2.101   0.850   2.201  0.00  0.00     0.020 A 
ATOM      2  C1  UNL d   1       1.399   0.634   1.016  0.00  0.00     0.020 A 
ATOM      3  C2  UNL d   1       0.589  -0.496   0.880  0.00  0.00     0.034 A 
ATOM      4  C3  UNL d   1       0.480  -1.414   1.931  0.00  0.00     0.017 A 
ATOM      5  C4  UNL d   1       1.186  -1.196   3.120  0.00  0.00     0.017 A 
ATOM      6  C5  UNL d   1       1.995  -0.063   3.251  0.00  0.00     0.034 A 
ATOM      7 Cl   UNL d   1       1.102  -2.284   4.461  0.00  0.00    -0.070 Cl
ATOM      8 Cl1  UNL d   1      -0.539  -2.789   1.695  0.00  0.00    -0.070 Cl
ENDROOT
TORSDOF 0
ENDMDL
