MODEL 1
REMARK minimizedAffinity 6.55229473
REMARK minimizedRMSD -1
REMARK  0 active torsions:
REMARK  status: ('A' for Active; 'I' for Inactive)
ROOT
ATOM      1  C   UNL d   1       0.917  -2.203   1.904  0.00  0.00     0.020 A 
ATOM      2  C1  UNL d   1       0.933  -1.820   3.244  0.00  0.00     0.020 A 
ATOM      3  C2  UNL d   1       1.306  -0.521   3.595  0.00  0.00     0.034 A 
ATOM      4  C3  UNL d   1       1.665   0.400   2.604  0.00  0.00     0.017 A 
ATOM      5  C4  UNL d   1       1.648   0.015   1.259  0.00  0.00     0.017 A 
ATOM      6  C5  UNL d   1       1.273  -1.287   0.913  0.00  0.00     0.034 A 
ATOM      7 Cl   UNL d   1       2.077   1.096  -0.020  0.00  0.00    -0.070 Cl
ATOM      8 Cl1  UNL d   1       2.116   1.989   3.110  0.00  0.00    -0.070 Cl
ENDROOT
TORSDOF 0
ENDMDL
