MODEL 1
REMARK minimizedAffinity 3.37432933
REMARK minimizedRMSD -1
REMARK  0 active torsions:
REMARK  status: ('A' for Active; 'I' for Inactive)
ROOT
ATOM      1  C   UNL d   1       1.870  -1.084   1.777  0.00  0.00     0.020 A 
ATOM      2  C1  UNL d   1       0.910  -1.487   2.704  0.00  0.00     0.020 A 
ATOM      3  C2  UNL d   1       1.273  -2.309   3.774  0.00  0.00     0.034 A 
ATOM      4  C3  UNL d   1       2.600  -2.731   3.918  0.00  0.00     0.017 A 
ATOM      5  C4  UNL d   1       3.562  -2.326   2.986  0.00  0.00     0.017 A 
ATOM      6  C5  UNL d   1       3.193  -1.503   1.917  0.00  0.00     0.034 A 
ATOM      7 Cl   UNL d   1       5.219  -2.806   3.097  0.00  0.00    -0.070 Cl
ATOM      8 Cl1  UNL d   1       2.978  -3.746   5.264  0.00  0.00    -0.070 Cl
ENDROOT
TORSDOF 0
ENDMDL
