MODEL 1
REMARK minimizedAffinity -5.86565542
REMARK minimizedRMSD -1
REMARK  2 active torsions:
REMARK  status: ('A' for Active; 'I' for Inactive)
REMARK    1  A    between atoms: C1_2  and  C2_3 
REMARK    2  A    between atoms: C2_3  and  C3_4 
ROOT
ATOM      1  C3  UNL d   1      -0.419   0.189  -0.861  0.00  0.00    -0.075 A 
ATOM      2  C4  UNL d   1      -0.859  -0.797  -1.757  0.00  0.00     0.002 A 
ATOM      3  C5  UNL d   1      -1.896  -0.530  -2.650  0.00  0.00     0.002 A 
ATOM      4  C6  UNL d   1      -2.513   0.719  -2.653  0.00  0.00    -0.004 A 
ATOM      5  C7  UNL d   1      -2.096   1.700  -1.756  0.00  0.00     0.002 A 
ATOM      6  C8  UNL d   1      -1.056   1.438  -0.864  0.00  0.00     0.002 A 
ENDROOT
BRANCH   1   7
ATOM      7  C2  UNL d   1       0.723  -0.084   0.089  0.00  0.00     0.056 C 
BRANCH   7   8
ATOM      8  C1  UNL d   1       0.487  -1.277   1.021  0.00  0.00     0.007 C 
ATOM      9  C   UNL d   1       1.686  -2.211   1.114  0.00  0.00     0.009 C 
ENDBRANCH   7   8
ENDBRANCH   1   7
TORSDOF 2
ENDMDL
