MODEL 1
REMARK minimizedAffinity -2.93758059
REMARK minimizedRMSD -1
REMARK  2 active torsions:
REMARK  status: ('A' for Active; 'I' for Inactive)
REMARK    1  A    between atoms: C1_2  and  C2_3 
REMARK    2  A    between atoms: C2_3  and  C3_4 
ROOT
ATOM      1  C3  UNL d   1       0.227  -1.144  -0.095  0.00  0.00    -0.075 A 
ATOM      2  C4  UNL d   1      -0.882  -0.857   0.715  0.00  0.00     0.002 A 
ATOM      3  C5  UNL d   1      -1.079  -1.541   1.915  0.00  0.00     0.002 A 
ATOM      4  C6  UNL d   1      -0.178  -2.526   2.314  0.00  0.00    -0.004 A 
ATOM      5  C7  UNL d   1       0.918  -2.831   1.510  0.00  0.00     0.002 A 
ATOM      6  C8  UNL d   1       1.120  -2.144   0.311  0.00  0.00     0.002 A 
ENDROOT
BRANCH   1   7
ATOM      7  C2  UNL d   1       0.461  -0.386  -1.380  0.00  0.00     0.056 C 
BRANCH   7   8
ATOM      8  C1  UNL d   1       1.314   0.876  -1.213  0.00  0.00     0.007 C 
ATOM      9  C   UNL d   1       2.459   0.701  -0.223  0.00  0.00     0.009 C 
ENDBRANCH   7   8
ENDBRANCH   1   7
TORSDOF 2
ENDMDL
