MODEL 1
REMARK minimizedAffinity -4.36365318
REMARK minimizedRMSD -1
REMARK  2 active torsions:
REMARK  status: ('A' for Active; 'I' for Inactive)
REMARK    1  A    between atoms: C1_2  and  C2_3 
REMARK    2  A    between atoms: C2_3  and  C3_4 
ROOT
ATOM      1  C3  UNL d   1       0.110   0.174  -0.028  0.00  0.00    -0.075 A 
ATOM      2  C4  UNL d   1       1.406   0.666  -0.240  0.00  0.00     0.002 A 
ATOM      3  C5  UNL d   1       2.519  -0.131   0.033  0.00  0.00     0.002 A 
ATOM      4  C6  UNL d   1       2.351  -1.422   0.529  0.00  0.00    -0.004 A 
ATOM      5  C7  UNL d   1       1.068  -1.914   0.759  0.00  0.00     0.002 A 
ATOM      6  C8  UNL d   1      -0.047  -1.121   0.483  0.00  0.00     0.002 A 
ENDROOT
BRANCH   1   7
ATOM      7  C2  UNL d   1      -1.099   1.020  -0.349  0.00  0.00     0.056 C 
BRANCH   7   8
ATOM      8  C1  UNL d   1      -1.247   1.358  -1.837  0.00  0.00     0.007 C 
ATOM      9  C   UNL d   1      -2.670   1.191  -2.352  0.00  0.00     0.009 C 
ENDBRANCH   7   8
ENDBRANCH   1   7
TORSDOF 2
ENDMDL
