MODEL 1
REMARK minimizedAffinity -3.75728726
REMARK minimizedRMSD -1
REMARK  2 active torsions:
REMARK  status: ('A' for Active; 'I' for Inactive)
REMARK    1  A    between atoms: C1_2  and  C2_3 
REMARK    2  A    between atoms: C2_3  and  C3_4 
ROOT
ATOM      1  C3  UNL d   1       0.564   0.020  -0.414  0.00  0.00    -0.075 A 
ATOM      2  C4  UNL d   1       1.946   0.244  -0.327  0.00  0.00     0.002 A 
ATOM      3  C5  UNL d   1       2.756  -0.609   0.424  0.00  0.00     0.002 A 
ATOM      4  C6  UNL d   1       2.195  -1.687   1.104  0.00  0.00    -0.004 A 
ATOM      5  C7  UNL d   1       0.821  -1.910   1.037  0.00  0.00     0.002 A 
ATOM      6  C8  UNL d   1       0.009  -1.061   0.283  0.00  0.00     0.002 A 
ENDROOT
BRANCH   1   7
ATOM      7  C2  UNL d   1      -0.313   0.922  -1.249  0.00  0.00     0.056 C 
BRANCH   7   8
ATOM      8  C1  UNL d   1      -1.434   0.188  -1.992  0.00  0.00     0.007 C 
ATOM      9  C   UNL d   1      -2.035   1.004  -3.129  0.00  0.00     0.009 C 
ENDBRANCH   7   8
ENDBRANCH   1   7
TORSDOF 2
ENDMDL
