MODEL 1
REMARK minimizedAffinity -3.66927481
REMARK minimizedRMSD -1
REMARK  2 active torsions:
REMARK  status: ('A' for Active; 'I' for Inactive)
REMARK    1  A    between atoms: C1_2  and  C2_3 
REMARK    2  A    between atoms: C2_3  and  C3_4 
ROOT
ATOM      1  C3  UNL d   1      -0.643   1.182  -0.444  0.00  0.00    -0.075 A 
ATOM      2  C4  UNL d   1       0.516   0.491  -0.824  0.00  0.00     0.002 A 
ATOM      3  C5  UNL d   1       1.012  -0.548  -0.036  0.00  0.00     0.002 A 
ATOM      4  C6  UNL d   1       0.362  -0.902   1.144  0.00  0.00    -0.004 A 
ATOM      5  C7  UNL d   1      -0.782  -0.211   1.540  0.00  0.00     0.002 A 
ATOM      6  C8  UNL d   1      -1.282   0.826   0.751  0.00  0.00     0.002 A 
ENDROOT
BRANCH   1   7
ATOM      7  C2  UNL d   1      -1.202   2.288  -1.308  0.00  0.00     0.056 C 
BRANCH   7   8
ATOM      8  C1  UNL d   1      -1.892   1.795  -2.584  0.00  0.00     0.007 C 
ATOM      9  C   UNL d   1      -3.375   1.509  -2.391  0.00  0.00     0.009 C 
ENDBRANCH   7   8
ENDBRANCH   1   7
TORSDOF 2
ENDMDL
