MODEL 1
REMARK minimizedAffinity -3.51041842
REMARK minimizedRMSD -1
REMARK  2 active torsions:
REMARK  status: ('A' for Active; 'I' for Inactive)
REMARK    1  A    between atoms: C1_2  and  C2_3 
REMARK    2  A    between atoms: C2_3  and  C3_4 
ROOT
ATOM      1  C3  UNL d   1      -0.053   0.356  -0.382  0.00  0.00    -0.075 A 
ATOM      2  C4  UNL d   1      -0.260  -1.030  -0.451  0.00  0.00     0.002 A 
ATOM      3  C5  UNL d   1       0.800  -1.915  -0.255  0.00  0.00     0.002 A 
ATOM      4  C6  UNL d   1       2.080  -1.428   0.002  0.00  0.00    -0.004 A 
ATOM      5  C7  UNL d   1       2.300  -0.054   0.057  0.00  0.00     0.002 A 
ATOM      6  C8  UNL d   1       1.241   0.834  -0.135  0.00  0.00     0.002 A 
ENDROOT
BRANCH   1   7
ATOM      7  C2  UNL d   1      -1.202   1.319  -0.564  0.00  0.00     0.056 C 
BRANCH   7   8
ATOM      8  C1  UNL d   1      -1.322   1.884  -1.983  0.00  0.00     0.007 C 
ATOM      9  C   UNL d   1      -2.748   1.867  -2.517  0.00  0.00     0.009 C 
ENDBRANCH   7   8
ENDBRANCH   1   7
TORSDOF 2
ENDMDL
