MODEL 1
REMARK minimizedAffinity -3.21257567
REMARK minimizedRMSD -1
REMARK  2 active torsions:
REMARK  status: ('A' for Active; 'I' for Inactive)
REMARK    1  A    between atoms: C1_2  and  C2_3 
REMARK    2  A    between atoms: C2_3  and  C3_4 
ROOT
ATOM      1  C3  UNL d   1       0.546   0.382  -0.237  0.00  0.00    -0.075 A 
ATOM      2  C4  UNL d   1       0.241  -0.456   0.846  0.00  0.00     0.002 A 
ATOM      3  C5  UNL d   1       1.210  -1.308   1.376  0.00  0.00     0.002 A 
ATOM      4  C6  UNL d   1       2.490  -1.340   0.827  0.00  0.00    -0.004 A 
ATOM      5  C7  UNL d   1       2.799  -0.524  -0.259  0.00  0.00     0.002 A 
ATOM      6  C8  UNL d   1       1.833   0.333  -0.789  0.00  0.00     0.002 A 
ENDROOT
BRANCH   1   7
ATOM      7  C2  UNL d   1      -0.490   1.328  -0.797  0.00  0.00     0.056 C 
BRANCH   7   8
ATOM      8  C1  UNL d   1      -1.335   0.729  -1.926  0.00  0.00     0.007 C 
ATOM      9  C   UNL d   1      -1.684   1.736  -3.014  0.00  0.00     0.009 C 
ENDBRANCH   7   8
ENDBRANCH   1   7
TORSDOF 2
ENDMDL
