MODEL 1
REMARK minimizedAffinity -4.00856304
REMARK minimizedRMSD -1
REMARK  2 active torsions:
REMARK  status: ('A' for Active; 'I' for Inactive)
REMARK    1  A    between atoms: C1_2  and  C2_3 
REMARK    2  A    between atoms: C2_3  and  C3_4 
ROOT
ATOM      1  C3  UNL d   1      -0.272   0.091  -1.470  0.00  0.00    -0.075 A 
ATOM      2  C4  UNL d   1      -0.693   0.348  -2.783  0.00  0.00     0.002 A 
ATOM      3  C5  UNL d   1      -1.498   1.451  -3.066  0.00  0.00     0.002 A 
ATOM      4  C6  UNL d   1      -1.901   2.305  -2.041  0.00  0.00    -0.004 A 
ATOM      5  C7  UNL d   1      -1.503   2.050  -0.731  0.00  0.00     0.002 A 
ATOM      6  C8  UNL d   1      -0.693   0.949  -0.445  0.00  0.00     0.002 A 
ENDROOT
BRANCH   1   7
ATOM      7  C2  UNL d   1       0.624  -1.085  -1.162  0.00  0.00     0.056 C 
BRANCH   7   8
ATOM      8  C1  UNL d   1       1.763  -0.763  -0.188  0.00  0.00     0.007 C 
ATOM      9  C   UNL d   1       1.826  -1.716   0.998  0.00  0.00     0.009 C 
ENDBRANCH   7   8
ENDBRANCH   1   7
TORSDOF 2
ENDMDL
