MODEL 1
REMARK minimizedAffinity -2.74434638
REMARK minimizedRMSD -1
REMARK  2 active torsions:
REMARK  status: ('A' for Active; 'I' for Inactive)
REMARK    1  A    between atoms: C1_2  and  C2_3 
REMARK    2  A    between atoms: C2_3  and  C3_4 
ROOT
ATOM      1  C3  UNL d   1       1.140  -0.431  -0.317  0.00  0.00    -0.075 A 
ATOM      2  C4  UNL d   1       1.145  -1.510   0.578  0.00  0.00     0.002 A 
ATOM      3  C5  UNL d   1       2.256  -1.756   1.384  0.00  0.00     0.002 A 
ATOM      4  C6  UNL d   1       3.378  -0.935   1.299  0.00  0.00    -0.004 A 
ATOM      5  C7  UNL d   1       3.391   0.130   0.402  0.00  0.00     0.002 A 
ATOM      6  C8  UNL d   1       2.278   0.382  -0.403  0.00  0.00     0.002 A 
ENDROOT
BRANCH   1   7
ATOM      7  C2  UNL d   1      -0.071  -0.141  -1.172  0.00  0.00     0.056 C 
BRANCH   7   8
ATOM      8  C1  UNL d   1      -0.825   1.132  -0.774  0.00  0.00     0.007 C 
ATOM      9  C   UNL d   1      -1.418   1.875  -1.963  0.00  0.00     0.009 C 
ENDBRANCH   7   8
ENDBRANCH   1   7
TORSDOF 2
ENDMDL
