MODEL 1
REMARK minimizedAffinity -3.6147995
REMARK minimizedRMSD -1
REMARK  2 active torsions:
REMARK  status: ('A' for Active; 'I' for Inactive)
REMARK    1  A    between atoms: C1_2  and  C2_3 
REMARK    2  A    between atoms: C2_3  and  C3_4 
ROOT
ATOM      1  C3  UNL d   1      -0.074   0.440  -0.329  0.00  0.00    -0.075 A 
ATOM      2  C4  UNL d   1      -0.379  -0.734   0.374  0.00  0.00     0.002 A 
ATOM      3  C5  UNL d   1       0.583  -1.730   0.541  0.00  0.00     0.002 A 
ATOM      4  C6  UNL d   1       1.856  -1.570  -0.001  0.00  0.00    -0.004 A 
ATOM      5  C7  UNL d   1       2.166  -0.415  -0.716  0.00  0.00     0.002 A 
ATOM      6  C8  UNL d   1       1.206   0.585  -0.880  0.00  0.00     0.002 A 
ENDROOT
BRANCH   1   7
ATOM      7  C2  UNL d   1      -1.102   1.535  -0.488  0.00  0.00     0.056 C 
BRANCH   7   8
ATOM      8  C1  UNL d   1      -1.428   1.878  -1.945  0.00  0.00     0.007 C 
ATOM      9  C   UNL d   1      -2.822   1.437  -2.369  0.00  0.00     0.009 C 
ENDBRANCH   7   8
ENDBRANCH   1   7
TORSDOF 2
ENDMDL
