MODEL 1
REMARK minimizedAffinity 5.38942862
REMARK minimizedRMSD -1
REMARK  1 active torsions:
REMARK  status: ('A' for Active; 'I' for Inactive)
REMARK    1  A    between atoms: N_2  and  C1_3 
ROOT
ATOM      1  C1  UNL d   1       4.612   3.761  -0.567  0.00  0.00     0.143 A 
ATOM      2  C2  UNL d   1       4.315   3.033   0.590  0.00  0.00    -0.057 A 
ATOM      3  C3  UNL d   1       3.639   1.808   0.523  0.00  0.00     0.033 A 
ATOM      4  C4  UNL d   1       3.221   1.304  -0.704  0.00  0.00    -0.042 A 
ATOM      5  C5  UNL d   1       3.484   2.023  -1.864  0.00  0.00     0.033 A 
ATOM      6  C6  UNL d   1       4.165   3.242  -1.792  0.00  0.00    -0.057 A 
ENDROOT
BRANCH   1   7
ATOM      7  N   UNL d   1       5.194   5.031  -0.558  0.00  0.00    -0.732 N 
ATOM      8  C   UNL d   1       5.533   5.678   0.691  0.00  0.00     0.284 C 
ATOM      9  H3  UNL d   1       5.895   5.142  -1.288  0.00  0.00     0.395 HD
ENDBRANCH   1   7
TORSDOF 1
ENDMDL
