MODEL 1
REMARK minimizedAffinity 2.74555826
REMARK minimizedRMSD -1
REMARK  1 active torsions:
REMARK  status: ('A' for Active; 'I' for Inactive)
REMARK    1  A    between atoms: N_2  and  C1_3 
ROOT
ATOM      1  C1  UNL d   1       4.678   1.547  -0.560  0.00  0.00     0.143 A 
ATOM      2  C2  UNL d   1       4.588   0.748   0.585  0.00  0.00    -0.057 A 
ATOM      3  C3  UNL d   1       3.462  -0.047   0.829  0.00  0.00     0.033 A 
ATOM      4  C4  UNL d   1       2.389  -0.034  -0.056  0.00  0.00    -0.042 A 
ATOM      5  C5  UNL d   1       2.446   0.771  -1.188  0.00  0.00     0.033 A 
ATOM      6  C6  UNL d   1       3.576   1.558  -1.430  0.00  0.00    -0.057 A 
ENDROOT
BRANCH   1   7
ATOM      7  N   UNL d   1       5.728   2.434  -0.810  0.00  0.00    -0.732 N 
ATOM      8  C   UNL d   1       5.968   3.558   0.070  0.00  0.00     0.284 C 
ATOM      9  H3  UNL d   1       6.574   1.958  -1.117  0.00  0.00     0.395 HD
ENDBRANCH   1   7
TORSDOF 1
ENDMDL
