MODEL 1
REMARK minimizedAffinity 11.4614162
REMARK minimizedRMSD -1
REMARK  1 active torsions:
REMARK  status: ('A' for Active; 'I' for Inactive)
REMARK    1  A    between atoms: N_2  and  C1_3 
ROOT
ATOM      1  C1  UNL d   1       4.748   0.257   0.397  0.00  0.00     0.143 A 
ATOM      2  C2  UNL d   1       4.596   1.492  -0.242  0.00  0.00    -0.057 A 
ATOM      3  C3  UNL d   1       3.371   1.874  -0.803  0.00  0.00     0.033 A 
ATOM      4  C4  UNL d   1       2.281   1.011  -0.760  0.00  0.00    -0.042 A 
ATOM      5  C5  UNL d   1       2.416  -0.232  -0.152  0.00  0.00     0.033 A 
ATOM      6  C6  UNL d   1       3.640  -0.604   0.412  0.00  0.00    -0.057 A 
ENDROOT
BRANCH   1   7
ATOM      7  N   UNL d   1       5.966  -0.220   0.887  0.00  0.00    -0.732 N 
ATOM      8  C   UNL d   1       6.000  -1.292   1.859  0.00  0.00     0.284 C 
ATOM      9  H3  UNL d   1       6.674  -0.295   0.161  0.00  0.00     0.395 HD
ENDBRANCH   1   7
TORSDOF 1
ENDMDL
