MODEL 1
REMARK minimizedAffinity 10.4657688
REMARK minimizedRMSD -1
REMARK  1 active torsions:
REMARK  status: ('A' for Active; 'I' for Inactive)
REMARK    1  A    between atoms: N_2  and  C1_3 
ROOT
ATOM      1  C1  UNL d   1      -1.510  -5.399   3.556  0.00  0.00     0.143 A 
ATOM      2  C2  UNL d   1      -0.618  -4.321   3.595  0.00  0.00    -0.057 A 
ATOM      3  C3  UNL d   1      -0.054  -3.889   4.802  0.00  0.00     0.033 A 
ATOM      4  C4  UNL d   1      -0.396  -4.512   5.998  0.00  0.00    -0.042 A 
ATOM      5  C5  UNL d   1      -1.299  -5.569   5.986  0.00  0.00     0.033 A 
ATOM      6  C6  UNL d   1      -1.853  -6.000   4.777  0.00  0.00    -0.057 A 
ENDROOT
BRANCH   1   7
ATOM      7  N   UNL d   1      -2.179  -5.812   2.402  0.00  0.00    -0.732 N 
ATOM      8  C   UNL d   1      -1.462  -5.992   1.157  0.00  0.00     0.284 C 
ATOM      9  H3  UNL d   1      -2.870  -6.535   2.591  0.00  0.00     0.395 HD
ENDBRANCH   1   7
TORSDOF 1
ENDMDL
