MODEL 1
REMARK minimizedAffinity 3.1284287
REMARK minimizedRMSD -1
REMARK  1 active torsions:
REMARK  status: ('A' for Active; 'I' for Inactive)
REMARK    1  A    between atoms: N_2  and  C1_3 
ROOT
ATOM      1  C1  UNL d   1       2.547  -0.604  -0.978  0.00  0.00     0.143 A 
ATOM      2  C2  UNL d   1       2.817  -0.492   0.390  0.00  0.00    -0.057 A 
ATOM      3  C3  UNL d   1       3.418   0.656   0.920  0.00  0.00     0.033 A 
ATOM      4  C4  UNL d   1       3.787   1.704   0.083  0.00  0.00    -0.042 A 
ATOM      5  C5  UNL d   1       3.551   1.604  -1.283  0.00  0.00     0.033 A 
ATOM      6  C6  UNL d   1       2.945   0.458  -1.805  0.00  0.00    -0.057 A 
ENDROOT
BRANCH   1   7
ATOM      7  N   UNL d   1       2.042  -1.760  -1.579  0.00  0.00    -0.732 N 
ATOM      8  C   UNL d   1       1.694  -2.915  -0.780  0.00  0.00     0.284 C 
ATOM      9  H3  UNL d   1       1.378  -1.553  -2.322  0.00  0.00     0.395 HD
ENDBRANCH   1   7
TORSDOF 1
ENDMDL
