MODEL 1
REMARK minimizedAffinity 13.9724369
REMARK minimizedRMSD -1
REMARK  1 active torsions:
REMARK  status: ('A' for Active; 'I' for Inactive)
REMARK    1  A    between atoms: N_2  and  C1_3 
ROOT
ATOM      1  C1  UNL d   1       5.432   4.610  -2.174  0.00  0.00     0.143 A 
ATOM      2  C2  UNL d   1       5.999   4.144  -3.365  0.00  0.00    -0.057 A 
ATOM      3  C3  UNL d   1       5.529   2.982  -3.988  0.00  0.00     0.033 A 
ATOM      4  C4  UNL d   1       4.498   2.246  -3.413  0.00  0.00    -0.042 A 
ATOM      5  C5  UNL d   1       3.936   2.676  -2.216  0.00  0.00     0.033 A 
ATOM      6  C6  UNL d   1       4.406   3.841  -1.602  0.00  0.00    -0.057 A 
ENDROOT
BRANCH   1   7
ATOM      7  N   UNL d   1       5.921   5.703  -1.455  0.00  0.00    -0.732 N 
ATOM      8  C   UNL d   1       5.696   5.808  -0.029  0.00  0.00     0.284 C 
ATOM      9  H3  UNL d   1       6.856   5.975  -1.749  0.00  0.00     0.395 HD
ENDBRANCH   1   7
TORSDOF 1
ENDMDL
