MODEL 1
REMARK minimizedAffinity 9.47508335
REMARK minimizedRMSD -1
REMARK  1 active torsions:
REMARK  status: ('A' for Active; 'I' for Inactive)
REMARK    1  A    between atoms: N_2  and  C1_3 
ROOT
ATOM      1  C1  UNL d   1       2.909   1.375  -1.300  0.00  0.00     0.143 A 
ATOM      2  C2  UNL d   1       2.916   2.747  -1.027  0.00  0.00    -0.057 A 
ATOM      3  C3  UNL d   1       3.616   3.646  -1.841  0.00  0.00     0.033 A 
ATOM      4  C4  UNL d   1       4.348   3.183  -2.929  0.00  0.00    -0.042 A 
ATOM      5  C5  UNL d   1       4.376   1.820  -3.205  0.00  0.00     0.033 A 
ATOM      6  C6  UNL d   1       3.669   0.928  -2.392  0.00  0.00    -0.057 A 
ENDROOT
BRANCH   1   7
ATOM      7  N   UNL d   1       2.314   0.420  -0.472  0.00  0.00    -0.732 N 
ATOM      8  C   UNL d   1       2.254   0.620   0.960  0.00  0.00     0.284 C 
ATOM      9  H3  UNL d   1       1.462   0.035  -0.874  0.00  0.00     0.395 HD
ENDBRANCH   1   7
TORSDOF 1
ENDMDL
