MODEL 1
REMARK minimizedAffinity 2.72333407
REMARK minimizedRMSD -1
REMARK  1 active torsions:
REMARK  status: ('A' for Active; 'I' for Inactive)
REMARK    1  A    between atoms: N_2  and  C1_3 
ROOT
ATOM      1  C1  UNL d   1      -4.895   4.347   3.272  0.00  0.00     0.143 A 
ATOM      2  C2  UNL d   1      -6.000   4.149   4.107  0.00  0.00    -0.057 A 
ATOM      3  C3  UNL d   1      -5.970   4.532   5.454  0.00  0.00     0.033 A 
ATOM      4  C4  UNL d   1      -4.821   5.095   5.998  0.00  0.00    -0.042 A 
ATOM      5  C5  UNL d   1      -3.702   5.278   5.193  0.00  0.00     0.033 A 
ATOM      6  C6  UNL d   1      -3.740   4.900   3.848  0.00  0.00    -0.057 A 
ENDROOT
BRANCH   1   7
ATOM      7  N   UNL d   1      -4.828   3.899   1.951  0.00  0.00    -0.732 N 
ATOM      8  C   UNL d   1      -3.731   3.063   1.511  0.00  0.00     0.284 C 
ATOM      9  H3  UNL d   1      -5.736   3.617   1.590  0.00  0.00     0.395 HD
ENDBRANCH   1   7
TORSDOF 1
ENDMDL
