MODEL 1
REMARK minimizedAffinity 0.282441735
REMARK minimizedRMSD -1
REMARK  1 active torsions:
REMARK  status: ('A' for Active; 'I' for Inactive)
REMARK    1  A    between atoms: N_2  and  C1_3 
ROOT
ATOM      1  C1  UNL d   1      -5.571   1.545  -2.273  0.00  0.00     0.143 A 
ATOM      2  C2  UNL d   1      -4.984   0.885  -1.188  0.00  0.00    -0.057 A 
ATOM      3  C3  UNL d   1      -4.485   1.595  -0.090  0.00  0.00     0.033 A 
ATOM      4  C4  UNL d   1      -4.538   2.985  -0.070  0.00  0.00    -0.042 A 
ATOM      5  C5  UNL d   1      -5.093   3.664  -1.149  0.00  0.00     0.033 A 
ATOM      6  C6  UNL d   1      -5.596   2.948  -2.240  0.00  0.00    -0.057 A 
ENDROOT
BRANCH   1   7
ATOM      7  N   UNL d   1      -5.996   0.902  -3.438  0.00  0.00    -0.732 N 
ATOM      8  C   UNL d   1      -5.999   1.599  -4.706  0.00  0.00     0.284 C 
ATOM      9  H3  UNL d   1      -5.667  -0.060  -3.493  0.00  0.00     0.395 HD
ENDBRANCH   1   7
TORSDOF 1
ENDMDL
