MODEL 1
REMARK minimizedAffinity 7.80579329
REMARK minimizedRMSD -1
REMARK  1 active torsions:
REMARK  status: ('A' for Active; 'I' for Inactive)
REMARK    1  A    between atoms: N_2  and  C1_3 
ROOT
ATOM      1  C1  UNL d   1      -4.818   3.970   4.030  0.00  0.00     0.143 A 
ATOM      2  C2  UNL d   1      -3.767   4.879   4.195  0.00  0.00    -0.057 A 
ATOM      3  C3  UNL d   1      -3.815   5.874   5.179  0.00  0.00     0.033 A 
ATOM      4  C4  UNL d   1      -4.931   5.996   6.000  0.00  0.00    -0.042 A 
ATOM      5  C5  UNL d   1      -5.998   5.119   5.837  0.00  0.00     0.033 A 
ATOM      6  C6  UNL d   1      -5.942   4.124   4.857  0.00  0.00    -0.057 A 
ENDROOT
BRANCH   1   7
ATOM      7  N   UNL d   1      -4.873   3.022   3.006  0.00  0.00    -0.732 N 
ATOM      8  C   UNL d   1      -4.453   3.362   1.664  0.00  0.00     0.284 C 
ATOM      9  H3  UNL d   1      -4.573   2.100   3.315  0.00  0.00     0.395 HD
ENDBRANCH   1   7
TORSDOF 1
ENDMDL
