MODEL 1
REMARK minimizedAffinity 18.4604549
REMARK minimizedRMSD -1
REMARK  1 active torsions:
REMARK  status: ('A' for Active; 'I' for Inactive)
REMARK    1  A    between atoms: N_2  and  C1_3 
ROOT
ATOM      1  C1  UNL d   1      -4.234   2.591  -0.483  0.00  0.00     0.143 A 
ATOM      2  C2  UNL d   1      -3.305   1.560  -0.307  0.00  0.00    -0.057 A 
ATOM      3  C3  UNL d   1      -3.544   0.274  -0.808  0.00  0.00     0.033 A 
ATOM      4  C4  UNL d   1      -4.734  -0.011  -1.469  0.00  0.00    -0.042 A 
ATOM      5  C5  UNL d   1      -5.682   0.992  -1.633  0.00  0.00     0.033 A 
ATOM      6  C6  UNL d   1      -5.435   2.275  -1.138  0.00  0.00    -0.057 A 
ENDROOT
BRANCH   1   7
ATOM      7  N   UNL d   1      -4.098   3.864   0.076  0.00  0.00    -0.732 N 
ATOM      8  C   UNL d   1      -4.466   5.043  -0.677  0.00  0.00     0.284 C 
ATOM      9  H3  UNL d   1      -4.379   3.891   1.054  0.00  0.00     0.395 HD
ENDBRANCH   1   7
TORSDOF 1
ENDMDL
