MODEL 1
REMARK minimizedAffinity 15.1652994
REMARK minimizedRMSD -1
REMARK  2 active torsions:
REMARK  status: ('A' for Active; 'I' for Inactive)
REMARK    1  A    between atoms: C2'_3  and  C1'_4 
REMARK    2  A    between atoms: C1'_4  and  C1_5 
ROOT
ATOM      1  C1  I4B d   1      -0.481   1.855   0.071  0.00  0.00    -0.075 A 
ATOM      2  C2  I4B d   1       0.477   1.065  -0.513  0.00  0.00     0.003 A 
ATOM      3  C3  I4B d   1       0.099  -0.051  -1.299  0.00  0.00     0.002 A 
ATOM      4  C4  I4B d   1      -1.237  -0.367  -1.432  0.00  0.00    -0.004 A 
ATOM      5  C5  I4B d   1      -2.208   0.448  -0.858  0.00  0.00     0.002 A 
ATOM      6  C6  I4B d   1      -1.829   1.574  -0.112  0.00  0.00     0.003 A 
ENDROOT
BRANCH   1   7
ATOM      7  C1' I4B d   1      -0.046   3.006   0.921  0.00  0.00     0.060 C 
BRANCH   7   8
ATOM      8  C2' I4B d   1       0.791   3.931   0.061  0.00  0.00    -0.013 C 
ATOM      9  C4' I4B d   1      -0.043   5.046  -0.512  0.00  0.00     0.013 C 
ATOM     10  C3' I4B d   1       1.905   4.469   0.909  0.00  0.00     0.013 C 
ENDBRANCH   7   8
ENDBRANCH   1   7
TORSDOF 2
ENDMDL
