MODEL 1
REMARK minimizedAffinity 12.5010319
REMARK minimizedRMSD -1
REMARK  2 active torsions:
REMARK  status: ('A' for Active; 'I' for Inactive)
REMARK    1  A    between atoms: C2'_3  and  C1'_4 
REMARK    2  A    between atoms: C1'_4  and  C1_5 
ROOT
ATOM      1  C1  I4B d   1      -0.068   3.320   0.343  0.00  0.00    -0.075 A 
ATOM      2  C2  I4B d   1      -0.938   4.006   1.152  0.00  0.00     0.003 A 
ATOM      3  C3  I4B d   1      -1.265   5.354   0.865  0.00  0.00     0.002 A 
ATOM      4  C4  I4B d   1      -0.665   5.987  -0.204  0.00  0.00    -0.004 A 
ATOM      5  C5  I4B d   1       0.199   5.282  -1.037  0.00  0.00     0.002 A 
ATOM      6  C6  I4B d   1       0.491   3.936  -0.769  0.00  0.00     0.003 A 
ENDROOT
BRANCH   1   7
ATOM      7  C1' I4B d   1       0.282   1.908   0.694  0.00  0.00     0.060 C 
BRANCH   7   8
ATOM      8  C2' I4B d   1       0.072   1.055  -0.541  0.00  0.00    -0.013 C 
ATOM      9  C4' I4B d   1       1.069  -0.073  -0.600  0.00  0.00     0.013 C 
ATOM     10  C3' I4B d   1      -1.334   0.533  -0.510  0.00  0.00     0.013 C 
ENDBRANCH   7   8
ENDBRANCH   1   7
TORSDOF 2
ENDMDL
