MODEL 1
REMARK minimizedAffinity 11.7891722
REMARK minimizedRMSD -1
REMARK  2 active torsions:
REMARK  status: ('A' for Active; 'I' for Inactive)
REMARK    1  A    between atoms: C2'_3  and  C1'_4 
REMARK    2  A    between atoms: C1'_4  and  C1_5 
ROOT
ATOM      1  C1  I4B d   1       4.934  -3.319  -1.263  0.00  0.00    -0.075 A 
ATOM      2  C2  I4B d   1       5.405  -2.049  -1.487  0.00  0.00     0.003 A 
ATOM      3  C3  I4B d   1       5.022  -0.986  -0.634  0.00  0.00     0.002 A 
ATOM      4  C4  I4B d   1       4.133  -1.226   0.394  0.00  0.00    -0.004 A 
ATOM      5  C5  I4B d   1       3.674  -2.518   0.633  0.00  0.00     0.002 A 
ATOM      6  C6  I4B d   1       4.086  -3.574  -0.193  0.00  0.00     0.003 A 
ENDROOT
BRANCH   1   7
ATOM      7  C1' I4B d   1       5.332  -4.412  -2.203  0.00  0.00     0.060 C 
BRANCH   7   8
ATOM      8  C2' I4B d   1       4.569  -4.216  -3.497  0.00  0.00    -0.013 C 
ATOM      9  C4' I4B d   1       5.206  -4.981  -4.628  0.00  0.00     0.013 C 
ATOM     10  C3' I4B d   1       3.154  -4.661  -3.272  0.00  0.00     0.013 C 
ENDBRANCH   7   8
ENDBRANCH   1   7
TORSDOF 2
ENDMDL
