MODEL 1
REMARK minimizedAffinity 7.96631002
REMARK minimizedRMSD -1
REMARK  2 active torsions:
REMARK  status: ('A' for Active; 'I' for Inactive)
REMARK    1  A    between atoms: C2'_3  and  C1'_4 
REMARK    2  A    between atoms: C1'_4  and  C1_5 
ROOT
ATOM      1  C1  I4B d   1       4.431  -3.687  -2.716  0.00  0.00    -0.075 A 
ATOM      2  C2  I4B d   1       3.323  -4.426  -2.386  0.00  0.00     0.003 A 
ATOM      3  C3  I4B d   1       3.020  -5.612  -3.099  0.00  0.00     0.002 A 
ATOM      4  C4  I4B d   1       3.818  -5.991  -4.158  0.00  0.00    -0.004 A 
ATOM      5  C5  I4B d   1       4.954  -5.252  -4.476  0.00  0.00     0.002 A 
ATOM      6  C6  I4B d   1       5.270  -4.100  -3.742  0.00  0.00     0.003 A 
ENDROOT
BRANCH   1   7
ATOM      7  C1' I4B d   1       4.704  -2.422  -1.964  0.00  0.00     0.060 C 
BRANCH   7   8
ATOM      8  C2' I4B d   1       4.729  -2.754  -0.486  0.00  0.00    -0.013 C 
ATOM      9  C4' I4B d   1       5.985  -3.498  -0.116  0.00  0.00     0.013 C 
ATOM     10  C3' I4B d   1       4.616  -1.469   0.279  0.00  0.00     0.013 C 
ENDBRANCH   7   8
ENDBRANCH   1   7
TORSDOF 2
ENDMDL
