MODEL 1
REMARK minimizedAffinity 10.399044
REMARK minimizedRMSD -1
REMARK  2 active torsions:
REMARK  status: ('A' for Active; 'I' for Inactive)
REMARK    1  A    between atoms: C2'_3  and  C1'_4 
REMARK    2  A    between atoms: C1'_4  and  C1_5 
ROOT
ATOM      1  C1  I4B d   1      -0.062   5.135  -1.187  0.00  0.00    -0.075 A 
ATOM      2  C2  I4B d   1      -1.432   5.204  -1.212  0.00  0.00     0.003 A 
ATOM      3  C3  I4B d   1      -2.106   5.571  -2.402  0.00  0.00     0.002 A 
ATOM      4  C4  I4B d   1      -1.374   5.908  -3.522  0.00  0.00    -0.004 A 
ATOM      5  C5  I4B d   1       0.015   5.815  -3.501  0.00  0.00     0.002 A 
ATOM      6  C6  I4B d   1       0.675   5.415  -2.331  0.00  0.00     0.003 A 
ENDROOT
BRANCH   1   7
ATOM      7  C1' I4B d   1       0.619   4.776   0.095  0.00  0.00     0.060 C 
BRANCH   7   8
ATOM      8  C2' I4B d   1      -0.127   3.609   0.709  0.00  0.00    -0.013 C 
ATOM      9  C4' I4B d   1      -0.053   2.390  -0.173  0.00  0.00     0.013 C 
ATOM     10  C3' I4B d   1       0.467   3.337   2.059  0.00  0.00     0.013 C 
ENDBRANCH   7   8
ENDBRANCH   1   7
TORSDOF 2
ENDMDL
