MODEL 1
REMARK minimizedAffinity 12.4332943
REMARK minimizedRMSD -1
REMARK  1 active torsions:
REMARK  status: ('A' for Active; 'I' for Inactive)
REMARK    1  A    between atoms: C1_2  and  C2_3 
ROOT
ATOM      1  C2  UNL d   1       3.190  -1.343  -0.855  0.00  0.00    -0.073 A 
ATOM      2  C3  UNL d   1       1.994  -1.159  -1.559  0.00  0.00    -0.002 A 
ATOM      3  C4  UNL d   1       1.445   0.117  -1.693  0.00  0.00     0.004 A 
ATOM      4  C5  UNL d   1       2.087   1.220  -1.132  0.00  0.00    -0.004 A 
ATOM      5  C6  UNL d   1       3.289   1.058  -0.435  0.00  0.00    -0.075 A 
ATOM      6  C7  UNL d   1       3.991   2.235   0.176  0.00  0.00     0.076 C 
ATOM      7  C8  UNL d   1       3.833  -0.226  -0.302  0.00  0.00     0.001 A 
ENDROOT
BRANCH   1   8
ATOM      8  C1  UNL d   1       3.790  -2.718  -0.712  0.00  0.00     0.053 C 
ATOM      9  C   UNL d   1       5.269  -2.660  -0.364  0.00  0.00     0.018 C 
ENDBRANCH   1   8
TORSDOF 1
ENDMDL
