MODEL 1
REMARK minimizedAffinity -2.23555183
REMARK minimizedRMSD -1
REMARK  1 active torsions:
REMARK  status: ('A' for Active; 'I' for Inactive)
REMARK    1  A    between atoms: C1_2  and  C2_3 
ROOT
ATOM      1  C2  UNL d   1       2.634  -3.132   0.966  0.00  0.00    -0.073 A 
ATOM      2  C3  UNL d   1       1.474  -3.090   1.748  0.00  0.00    -0.002 A 
ATOM      3  C4  UNL d   1       0.633  -1.977   1.702  0.00  0.00     0.004 A 
ATOM      4  C5  UNL d   1       0.939  -0.900   0.870  0.00  0.00    -0.004 A 
ATOM      5  C6  UNL d   1       2.088  -0.928   0.073  0.00  0.00    -0.075 A 
ATOM      6  C7  UNL d   1       2.432   0.223  -0.825  0.00  0.00     0.076 C 
ATOM      7  C8  UNL d   1       2.928  -2.048   0.127  0.00  0.00     0.001 A 
ENDROOT
BRANCH   1   8
ATOM      8  C1  UNL d   1       3.541  -4.334   1.008  0.00  0.00     0.053 C 
ATOM      9  C   UNL d   1       3.935  -4.703   2.430  0.00  0.00     0.018 C 
ENDBRANCH   1   8
TORSDOF 1
ENDMDL
