MODEL 1
REMARK minimizedAffinity 1.77181292
REMARK minimizedRMSD -1
REMARK  1 active torsions:
REMARK  status: ('A' for Active; 'I' for Inactive)
REMARK    1  A    between atoms: C1_2  and  C2_3 
ROOT
ATOM      1  C2  UNL d   1       0.617  -1.898   1.732  0.00  0.00    -0.073 A 
ATOM      2  C3  UNL d   1       1.550  -1.908   0.689  0.00  0.00    -0.002 A 
ATOM      3  C4  UNL d   1       1.437  -1.002  -0.367  0.00  0.00     0.004 A 
ATOM      4  C5  UNL d   1       0.396  -0.073  -0.386  0.00  0.00    -0.004 A 
ATOM      5  C6  UNL d   1      -0.539  -0.040   0.653  0.00  0.00    -0.075 A 
ATOM      6  C7  UNL d   1      -1.666   0.951   0.646  0.00  0.00     0.076 C 
ATOM      7  C8  UNL d   1      -0.420  -0.955   1.708  0.00  0.00     0.001 A 
ENDROOT
BRANCH   1   8
ATOM      8  C1  UNL d   1       0.739  -2.870   2.877  0.00  0.00     0.053 C 
ATOM      9  C   UNL d   1       0.489  -4.303   2.436  0.00  0.00     0.018 C 
ENDBRANCH   1   8
TORSDOF 1
ENDMDL
