MODEL 1
REMARK minimizedAffinity 6.90483809
REMARK minimizedRMSD -1
REMARK  1 active torsions:
REMARK  status: ('A' for Active; 'I' for Inactive)
REMARK    1  A    between atoms: C1_2  and  C2_3 
ROOT
ATOM      1  C2  UNL d   1      -0.067  -1.167   2.195  0.00  0.00    -0.073 A 
ATOM      2  C3  UNL d   1       0.406  -0.748   0.946  0.00  0.00    -0.002 A 
ATOM      3  C4  UNL d   1      -0.352   0.122   0.161  0.00  0.00     0.004 A 
ATOM      4  C5  UNL d   1      -1.584   0.587   0.619  0.00  0.00    -0.004 A 
ATOM      5  C6  UNL d   1      -2.069   0.189   1.869  0.00  0.00    -0.075 A 
ATOM      6  C7  UNL d   1      -3.394   0.678   2.375  0.00  0.00     0.076 C 
ATOM      7  C8  UNL d   1      -1.303  -0.687   2.650  0.00  0.00     0.001 A 
ENDROOT
BRANCH   1   8
ATOM      8  C1  UNL d   1       0.751  -2.101   3.049  0.00  0.00     0.053 C 
ATOM      9  C   UNL d   1       1.128  -3.372   2.304  0.00  0.00     0.018 C 
ENDBRANCH   1   8
TORSDOF 1
ENDMDL
