MODEL 1
REMARK minimizedAffinity 0.355633348
REMARK minimizedRMSD -1
REMARK  1 active torsions:
REMARK  status: ('A' for Active; 'I' for Inactive)
REMARK    1  A    between atoms: C1_2  and  C2_3 
ROOT
ATOM      1  C2  UNL d   1      -0.828  -0.802   1.566  0.00  0.00    -0.073 A 
ATOM      2  C3  UNL d   1      -1.963  -0.476   0.816  0.00  0.00    -0.002 A 
ATOM      3  C4  UNL d   1      -1.843  -0.134  -0.532  0.00  0.00     0.004 A 
ATOM      4  C5  UNL d   1      -0.589  -0.122  -1.144  0.00  0.00    -0.004 A 
ATOM      5  C6  UNL d   1       0.556  -0.457  -0.414  0.00  0.00    -0.075 A 
ATOM      6  C7  UNL d   1       1.911  -0.447  -1.057  0.00  0.00     0.076 C 
ATOM      7  C8  UNL d   1       0.427  -0.797   0.940  0.00  0.00     0.001 A 
ENDROOT
BRANCH   1   8
ATOM      8  C1  UNL d   1      -0.953  -1.178   3.020  0.00  0.00     0.053 C 
ATOM      9  C   UNL d   1      -0.704  -2.661   3.249  0.00  0.00     0.018 C 
ENDBRANCH   1   8
TORSDOF 1
ENDMDL
