MODEL 1
REMARK minimizedAffinity 1.19855416
REMARK minimizedRMSD -1
REMARK  1 active torsions:
REMARK  status: ('A' for Active; 'I' for Inactive)
REMARK    1  A    between atoms: C1_2  and  C2_3 
ROOT
ATOM      1  C2  UNL d   1       0.691  -0.476  -0.127  0.00  0.00    -0.073 A 
ATOM      2  C3  UNL d   1      -0.440  -0.041  -0.826  0.00  0.00    -0.002 A 
ATOM      3  C4  UNL d   1      -1.656   0.132  -0.163  0.00  0.00     0.004 A 
ATOM      4  C5  UNL d   1      -1.751  -0.121   1.205  0.00  0.00    -0.004 A 
ATOM      5  C6  UNL d   1      -0.629  -0.545   1.924  0.00  0.00    -0.075 A 
ATOM      6  C7  UNL d   1      -0.716  -0.823   3.396  0.00  0.00     0.076 C 
ATOM      7  C8  UNL d   1       0.587  -0.719   1.250  0.00  0.00     0.001 A 
ENDROOT
BRANCH   1   8
ATOM      8  C1  UNL d   1       2.007  -0.658  -0.837  0.00  0.00     0.053 C 
ATOM      9  C   UNL d   1       2.835   0.617  -0.839  0.00  0.00     0.018 C 
ENDBRANCH   1   8
TORSDOF 1
ENDMDL
