MODEL 1
REMARK minimizedAffinity 7.74169159
REMARK minimizedRMSD -1
REMARK  0 active torsions:
REMARK  status: ('A' for Active; 'I' for Inactive)
ROOT
ATOM      1  C1  DEN d   1       4.488   3.026   5.995  0.00  0.00     0.130 A 
ATOM      2  C2  DEN d   1       5.217   2.360   4.920  0.00  0.00    -0.031 A 
ATOM      3  C3  DEN d   1       4.904   3.057   3.656  0.00  0.00     0.027 A 
ATOM      4  C4  DEN d   1       3.374   5.096   3.264  0.00  0.00     0.027 A 
ATOM      5  C5  DEN d   1       2.530   6.000   3.871  0.00  0.00    -0.003 A 
ATOM      6  C6  DEN d   1       2.256   5.956   5.212  0.00  0.00     0.001 A 
ATOM      7  C7  DEN d   1       2.866   5.015   5.999  0.00  0.00     0.017 A 
ATOM      8  C8  DEN d   1       3.712   4.095   5.393  0.00  0.00    -0.094 A 
ATOM      9  C9  DEN d   1       3.986   4.164   4.037  0.00  0.00    -0.072 A 
ENDROOT
TORSDOF 0
ENDMDL
