MODEL 1
REMARK minimizedAffinity 7.58846235
REMARK minimizedRMSD -1
REMARK  0 active torsions:
REMARK  status: ('A' for Active; 'I' for Inactive)
ROOT
ATOM      1  C1  DEN d   1       4.575   0.012  -1.823  0.00  0.00     0.130 A 
ATOM      2  C2  DEN d   1       4.491   0.777  -0.583  0.00  0.00    -0.031 A 
ATOM      3  C3  DEN d   1       3.570   0.070   0.329  0.00  0.00     0.027 A 
ATOM      4  C4  DEN d   1       2.276  -2.128  -0.056  0.00  0.00     0.027 A 
ATOM      5  C5  DEN d   1       2.018  -3.135  -0.960  0.00  0.00    -0.003 A 
ATOM      6  C6  DEN d   1       2.563  -3.146  -2.216  0.00  0.00     0.001 A 
ATOM      7  C7  DEN d   1       3.431  -2.153  -2.588  0.00  0.00     0.017 A 
ATOM      8  C8  DEN d   1       3.690  -1.131  -1.686  0.00  0.00    -0.094 A 
ATOM      9  C9  DEN d   1       3.138  -1.144  -0.416  0.00  0.00    -0.072 A 
ENDROOT
TORSDOF 0
ENDMDL
