MODEL 1
REMARK minimizedAffinity 11.6014528
REMARK minimizedRMSD -1
REMARK  0 active torsions:
REMARK  status: ('A' for Active; 'I' for Inactive)
ROOT
ATOM      1  C1  DEN d   1       1.824   0.157  -0.036  0.00  0.00     0.130 A 
ATOM      2  C2  DEN d   1       2.030   0.405   1.389  0.00  0.00    -0.031 A 
ATOM      3  C3  DEN d   1       0.777   0.071   2.095  0.00  0.00     0.027 A 
ATOM      4  C4  DEN d   1      -1.447  -0.807   1.128  0.00  0.00     0.027 A 
ATOM      5  C5  DEN d   1      -2.106  -1.162  -0.028  0.00  0.00    -0.003 A 
ATOM      6  C6  DEN d   1      -1.517  -1.072  -1.262  0.00  0.00     0.001 A 
ATOM      7  C7  DEN d   1      -0.215  -0.657  -1.363  0.00  0.00     0.017 A 
ATOM      8  C8  DEN d   1       0.453  -0.290  -0.202  0.00  0.00    -0.094 A 
ATOM      9  C9  DEN d   1      -0.156  -0.400   1.036  0.00  0.00    -0.072 A 
ENDROOT
TORSDOF 0
ENDMDL
