MODEL 1
REMARK minimizedAffinity 5.58124495
REMARK minimizedRMSD -1
REMARK  0 active torsions:
REMARK  status: ('A' for Active; 'I' for Inactive)
ROOT
ATOM      1  C1  DEN d   1       1.388  -3.631   4.694  0.00  0.00     0.130 A 
ATOM      2  C2  DEN d   1       2.108  -4.877   4.443  0.00  0.00    -0.031 A 
ATOM      3  C3  DEN d   1       1.205  -5.999   4.767  0.00  0.00     0.027 A 
ATOM      4  C4  DEN d   1      -1.226  -5.931   5.624  0.00  0.00     0.027 A 
ATOM      5  C5  DEN d   1      -2.261  -5.104   6.000  0.00  0.00    -0.003 A 
ATOM      6  C6  DEN d   1      -2.142  -3.739   5.999  0.00  0.00     0.001 A 
ATOM      7  C7  DEN d   1      -0.977  -3.160   5.572  0.00  0.00     0.017 A 
ATOM      8  C8  DEN d   1       0.074  -3.988   5.198  0.00  0.00    -0.094 A 
ATOM      9  C9  DEN d   1      -0.070  -5.365   5.194  0.00  0.00    -0.072 A 
ENDROOT
TORSDOF 0
ENDMDL
