MODEL 1
REMARK minimizedAffinity 10.617919
REMARK minimizedRMSD -1
REMARK  0 active torsions:
REMARK  status: ('A' for Active; 'I' for Inactive)
ROOT
ATOM      1  C1  DEN d   1       1.789  -0.451   0.439  0.00  0.00     0.130 A 
ATOM      2  C2  DEN d   1       1.881  -0.119   1.859  0.00  0.00    -0.031 A 
ATOM      3  C3  DEN d   1       0.545  -0.311   2.459  0.00  0.00     0.027 A 
ATOM      4  C4  DEN d   1      -1.642  -1.090   1.336  0.00  0.00     0.027 A 
ATOM      5  C5  DEN d   1      -2.216  -1.478   0.146  0.00  0.00    -0.003 A 
ATOM      6  C6  DEN d   1      -1.510  -1.516  -1.027  0.00  0.00     0.001 A 
ATOM      7  C7  DEN d   1      -0.176  -1.205  -1.027  0.00  0.00     0.017 A 
ATOM      8  C8  DEN d   1       0.409  -0.807   0.168  0.00  0.00    -0.094 A 
ATOM      9  C9  DEN d   1      -0.319  -0.786   1.346  0.00  0.00    -0.072 A 
ENDROOT
TORSDOF 0
ENDMDL
