MODEL 1
REMARK minimizedAffinity 20.1232395
REMARK minimizedRMSD -1
REMARK  0 active torsions:
REMARK  status: ('A' for Active; 'I' for Inactive)
ROOT
ATOM      1  C1  DEN d   1       2.430  -2.682  -3.202  0.00  0.00     0.130 A 
ATOM      2  C2  DEN d   1       3.755  -2.938  -2.644  0.00  0.00    -0.031 A 
ATOM      3  C3  DEN d   1       3.596  -3.231  -1.205  0.00  0.00     0.027 A 
ATOM      4  C4  DEN d   1       1.437  -3.317   0.204  0.00  0.00     0.027 A 
ATOM      5  C5  DEN d   1       0.069  -3.159   0.172  0.00  0.00    -0.003 A 
ATOM      6  C6  DEN d   1      -0.599  -2.800  -0.968  0.00  0.00     0.001 A 
ATOM      7  C7  DEN d   1       0.096  -2.631  -2.137  0.00  0.00     0.017 A 
ATOM      8  C8  DEN d   1       1.476  -2.782  -2.112  0.00  0.00    -0.094 A 
ATOM      9  C9  DEN d   1       2.132  -3.158  -0.951  0.00  0.00    -0.072 A 
ENDROOT
TORSDOF 0
ENDMDL
