MODEL 1
REMARK minimizedAffinity 10.7520752
REMARK minimizedRMSD -1
REMARK  0 active torsions:
REMARK  status: ('A' for Active; 'I' for Inactive)
ROOT
ATOM      1  C1  DEN d   1       2.406  -3.437  -2.816  0.00  0.00     0.130 A 
ATOM      2  C2  DEN d   1       3.709  -3.188  -2.205  0.00  0.00    -0.031 A 
ATOM      3  C3  DEN d   1       3.515  -2.248  -1.083  0.00  0.00     0.027 A 
ATOM      4  C4  DEN d   1       1.334  -1.163  -0.234  0.00  0.00     0.027 A 
ATOM      5  C5  DEN d   1      -0.023  -1.061  -0.441  0.00  0.00    -0.003 A 
ATOM      6  C6  DEN d   1      -0.657  -1.712  -1.466  0.00  0.00     0.001 A 
ATOM      7  C7  DEN d   1       0.062  -2.531  -2.297  0.00  0.00     0.017 A 
ATOM      8  C8  DEN d   1       1.433  -2.632  -2.099  0.00  0.00    -0.094 A 
ATOM      9  C9  DEN d   1       2.053  -1.976  -1.050  0.00  0.00    -0.072 A 
ENDROOT
TORSDOF 0
ENDMDL
