MODEL 1
REMARK minimizedAffinity 7.47374392
REMARK minimizedRMSD -1
REMARK  0 active torsions:
REMARK  status: ('A' for Active; 'I' for Inactive)
ROOT
ATOM      1  C1  DEN d   1       1.658  -1.400   0.271  0.00  0.00     0.130 A 
ATOM      2  C2  DEN d   1       1.549  -0.042   0.798  0.00  0.00    -0.031 A 
ATOM      3  C3  DEN d   1       0.390   0.606   0.153  0.00  0.00     0.027 A 
ATOM      4  C4  DEN d   1      -1.240  -0.356  -1.598  0.00  0.00     0.027 A 
ATOM      5  C5  DEN d   1      -1.544  -1.463  -2.361  0.00  0.00    -0.003 A 
ATOM      6  C6  DEN d   1      -0.788  -2.604  -2.325  0.00  0.00     0.001 A 
ATOM      7  C7  DEN d   1       0.284  -2.682  -1.475  0.00  0.00     0.017 A 
ATOM      8  C8  DEN d   1       0.601  -1.568  -0.709  0.00  0.00    -0.094 A 
ATOM      9  C9  DEN d   1      -0.183  -0.427  -0.751  0.00  0.00    -0.072 A 
ENDROOT
TORSDOF 0
ENDMDL
