MODEL 1
REMARK minimizedAffinity 7.91488647
REMARK minimizedRMSD -1
REMARK  0 active torsions:
REMARK  status: ('A' for Active; 'I' for Inactive)
ROOT
ATOM      1  C1  DEN d   1       0.060  -3.780  -1.013  0.00  0.00     0.130 A 
ATOM      2  C2  DEN d   1       0.223  -5.221  -0.842  0.00  0.00    -0.031 A 
ATOM      3  C3  DEN d   1       1.640  -5.485  -0.520  0.00  0.00     0.027 A 
ATOM      4  C4  DEN d   1       3.585  -3.811  -0.267  0.00  0.00     0.027 A 
ATOM      5  C5  DEN d   1       3.937  -2.480  -0.331  0.00  0.00    -0.003 A 
ATOM      6  C6  DEN d   1       3.036  -1.502  -0.657  0.00  0.00     0.001 A 
ATOM      7  C7  DEN d   1       1.727  -1.834  -0.888  0.00  0.00     0.017 A 
ATOM      8  C8  DEN d   1       1.366  -3.174  -0.833  0.00  0.00    -0.094 A 
ATOM      9  C9  DEN d   1       2.289  -4.147  -0.489  0.00  0.00    -0.072 A 
ENDROOT
TORSDOF 0
ENDMDL
