MODEL 1
REMARK minimizedAffinity 5.64590216
REMARK minimizedRMSD -1
REMARK  0 active torsions:
REMARK  status: ('A' for Active; 'I' for Inactive)
ROOT
ATOM      1  C1  DEN d   1       0.649  -4.168  -0.868  0.00  0.00     0.130 A 
ATOM      2  C2  DEN d   1       1.947  -4.132  -0.199  0.00  0.00    -0.031 A 
ATOM      3  C3  DEN d   1       2.996  -4.130  -1.238  0.00  0.00     0.027 A 
ATOM      4  C4  DEN d   1       2.739  -4.172  -3.804  0.00  0.00     0.027 A 
ATOM      5  C5  DEN d   1       1.833  -4.217  -4.841  0.00  0.00    -0.003 A 
ATOM      6  C6  DEN d   1       0.481  -4.283  -4.628  0.00  0.00     0.001 A 
ATOM      7  C7  DEN d   1      -0.005  -4.260  -3.347  0.00  0.00     0.017 A 
ATOM      8  C8  DEN d   1       0.902  -4.222  -2.297  0.00  0.00    -0.094 A 
ATOM      9  C9  DEN d   1       2.264  -4.143  -2.533  0.00  0.00    -0.072 A 
ENDROOT
TORSDOF 0
ENDMDL
