MODEL 1
REMARK minimizedAffinity 15.7960844
REMARK minimizedRMSD -1
REMARK  0 active torsions:
REMARK  status: ('A' for Active; 'I' for Inactive)
ROOT
ATOM      1  C1  DEN d   1       1.483  -2.818  -2.116  0.00  0.00     0.130 A 
ATOM      2  C2  DEN d   1       0.963  -4.146  -1.802  0.00  0.00    -0.031 A 
ATOM      3  C3  DEN d   1       1.259  -4.429  -0.383  0.00  0.00     0.027 A 
ATOM      4  C4  DEN d   1       2.461  -2.946   1.350  0.00  0.00     0.027 A 
ATOM      5  C5  DEN d   1       3.092  -1.738   1.549  0.00  0.00    -0.003 A 
ATOM      6  C6  DEN d   1       3.260  -0.827   0.540  0.00  0.00     0.001 A 
ATOM      7  C7  DEN d   1       2.751  -1.091  -0.704  0.00  0.00     0.017 A 
ATOM      8  C8  DEN d   1       2.119  -2.310  -0.914  0.00  0.00    -0.094 A 
ATOM      9  C9  DEN d   1       1.949  -3.212   0.122  0.00  0.00    -0.072 A 
ENDROOT
TORSDOF 0
ENDMDL
