MODEL 1
REMARK minimizedAffinity 15.3430843
REMARK minimizedRMSD -1
REMARK  0 active torsions:
REMARK  status: ('A' for Active; 'I' for Inactive)
ROOT
ATOM      1  C1  DEN d   1       1.116  -4.376  -0.410  0.00  0.00     0.130 A 
ATOM      2  C2  DEN d   1       0.035  -3.991  -1.314  0.00  0.00    -0.031 A 
ATOM      3  C3  DEN d   1       0.168  -2.548  -1.596  0.00  0.00     0.027 A 
ATOM      4  C4  DEN d   1       1.937  -0.882  -0.731  0.00  0.00     0.027 A 
ATOM      5  C5  DEN d   1       3.048  -0.739   0.070  0.00  0.00    -0.003 A 
ATOM      6  C6  DEN d   1       3.569  -1.783   0.788  0.00  0.00     0.001 A 
ATOM      7  C7  DEN d   1       3.005  -3.027   0.684  0.00  0.00     0.017 A 
ATOM      8  C8  DEN d   1       1.880  -3.177  -0.116  0.00  0.00    -0.094 A 
ATOM      9  C9  DEN d   1       1.375  -2.112  -0.844  0.00  0.00    -0.072 A 
ENDROOT
TORSDOF 0
ENDMDL
