MODEL 1
REMARK minimizedAffinity 17.0174923
REMARK minimizedRMSD -1
REMARK  0 active torsions:
REMARK  status: ('A' for Active; 'I' for Inactive)
ROOT
ATOM      1  C1  DEN d   1       1.054   4.621  -2.149  0.00  0.00     0.130 A 
ATOM      2  C2  DEN d   1       2.443   4.886  -1.785  0.00  0.00    -0.031 A 
ATOM      3  C3  DEN d   1       2.745   4.129  -0.553  0.00  0.00     0.027 A 
ATOM      4  C4  DEN d   1       1.206   2.576   0.815  0.00  0.00     0.027 A 
ATOM      5  C5  DEN d   1      -0.063   2.049   0.905  0.00  0.00    -0.003 A 
ATOM      6  C6  DEN d   1      -1.051   2.366   0.011  0.00  0.00     0.001 A 
ATOM      7  C7  DEN d   1      -0.773   3.199  -1.041  0.00  0.00     0.017 A 
ATOM      8  C8  DEN d   1       0.503   3.741  -1.134  0.00  0.00    -0.094 A 
ATOM      9  C9  DEN d   1       1.491   3.398  -0.226  0.00  0.00    -0.072 A 
ENDROOT
TORSDOF 0
ENDMDL
