MODEL 1
REMARK minimizedAffinity 15.0867863
REMARK minimizedRMSD -1
REMARK  0 active torsions:
REMARK  status: ('A' for Active; 'I' for Inactive)
ROOT
ATOM      1  C1  DEN d   1       4.124  -1.443  -0.130  0.00  0.00     0.130 A 
ATOM      2  C2  DEN d   1       5.209  -2.277   0.380  0.00  0.00    -0.031 A 
ATOM      3  C3  DEN d   1       4.817  -3.691   0.209  0.00  0.00     0.027 A 
ATOM      4  C4  DEN d   1       2.649  -4.663  -0.794  0.00  0.00     0.027 A 
ATOM      5  C5  DEN d   1       1.429  -4.348  -1.351  0.00  0.00    -0.003 A 
ATOM      6  C6  DEN d   1       1.011  -3.053  -1.507  0.00  0.00     0.001 A 
ATOM      7  C7  DEN d   1       1.839  -2.024  -1.143  0.00  0.00     0.017 A 
ATOM      8  C8  DEN d   1       3.067  -2.334  -0.574  0.00  0.00    -0.094 A 
ATOM      9  C9  DEN d   1       3.477  -3.650  -0.436  0.00  0.00    -0.072 A 
ENDROOT
TORSDOF 0
ENDMDL
