MODEL 1
REMARK minimizedAffinity 26.4393902
REMARK minimizedRMSD -1
REMARK  0 active torsions:
REMARK  status: ('A' for Active; 'I' for Inactive)
ROOT
ATOM      1  C1  DEN d   1      -0.141  -1.329   5.629  0.00  0.00     0.130 A 
ATOM      2  C2  DEN d   1      -0.970  -2.473   5.999  0.00  0.00    -0.031 A 
ATOM      3  C3  DEN d   1      -2.100  -2.543   5.052  0.00  0.00     0.027 A 
ATOM      4  C4  DEN d   1      -2.642  -1.003   3.055  0.00  0.00     0.027 A 
ATOM      5  C5  DEN d   1      -2.235   0.110   2.353  0.00  0.00    -0.003 A 
ATOM      6  C6  DEN d   1      -1.130   0.835   2.712  0.00  0.00     0.001 A 
ATOM      7  C7  DEN d   1      -0.367   0.429   3.774  0.00  0.00     0.017 A 
ATOM      8  C8  DEN d   1      -0.775  -0.688   4.491  0.00  0.00    -0.094 A 
ATOM      9  C9  DEN d   1      -1.888  -1.415   4.106  0.00  0.00    -0.072 A 
ENDROOT
TORSDOF 0
ENDMDL
