MODEL 1
REMARK minimizedAffinity 14.6743813
REMARK minimizedRMSD -1
REMARK  0 active torsions:
REMARK  status: ('A' for Active; 'I' for Inactive)
ROOT
ATOM      1  C1  DEN d   1       2.731  -3.103  -0.179  0.00  0.00     0.130 A 
ATOM      2  C2  DEN d   1       1.504  -3.628  -0.773  0.00  0.00    -0.031 A 
ATOM      3  C3  DEN d   1       1.846  -4.858  -1.514  0.00  0.00     0.027 A 
ATOM      4  C4  DEN d   1       4.142  -5.999  -1.795  0.00  0.00     0.027 A 
ATOM      5  C5  DEN d   1       5.481  -5.918  -1.483  0.00  0.00    -0.003 A 
ATOM      6  C6  DEN d   1       5.999  -4.884  -0.750  0.00  0.00     0.001 A 
ATOM      7  C7  DEN d   1       5.165  -3.911  -0.265  0.00  0.00     0.017 A 
ATOM      8  C8  DEN d   1       3.814  -3.982  -0.581  0.00  0.00    -0.094 A 
ATOM      9  C9  DEN d   1       3.308  -5.043  -1.313  0.00  0.00    -0.072 A 
ENDROOT
TORSDOF 0
ENDMDL
