MODEL 1
REMARK minimizedAffinity -2.97585964
REMARK minimizedRMSD -1
REMARK  0 active torsions:
REMARK  status: ('A' for Active; 'I' for Inactive)
ROOT
ATOM      1  C   UNL d   1       0.760  -0.396   2.778  0.00  0.00     0.023 A 
ATOM      2  C1  UNL d   1      -0.565  -0.423   2.341  0.00  0.00     0.003 A 
ATOM      3  C2  UNL d   1      -0.862  -0.199   0.995  0.00  0.00     0.048 A 
ATOM      4  C3  UNL d   1       0.170   0.050   0.091  0.00  0.00     0.023 A 
ATOM      5  C4  UNL d   1       1.497   0.077   0.523  0.00  0.00     0.048 A 
ATOM      6  C5  UNL d   1       1.789  -0.147   1.870  0.00  0.00     0.003 A 
ATOM      7  I   UNL d   1      -0.270   0.384  -1.912  0.00  0.00    -0.146 I 
ENDROOT
TORSDOF 0
ENDMDL
