MODEL 1
REMARK minimizedAffinity -0.630864143
REMARK minimizedRMSD -1
REMARK  0 active torsions:
REMARK  status: ('A' for Active; 'I' for Inactive)
ROOT
ATOM      1  C   UNL d   1      -1.026  -1.770   2.695  0.00  0.00     0.023 A 
ATOM      2  C1  UNL d   1       0.319  -1.491   2.454  0.00  0.00     0.003 A 
ATOM      3  C2  UNL d   1       0.690  -0.748   1.331  0.00  0.00     0.048 A 
ATOM      4  C3  UNL d   1      -0.290  -0.286   0.454  0.00  0.00     0.023 A 
ATOM      5  C4  UNL d   1      -1.638  -0.561   0.691  0.00  0.00     0.048 A 
ATOM      6  C5  UNL d   1      -2.004  -1.306   1.815  0.00  0.00     0.003 A 
ATOM      7  I   UNL d   1       0.258   0.821  -1.218  0.00  0.00    -0.146 I 
ENDROOT
TORSDOF 0
ENDMDL
