MODEL 1
REMARK minimizedAffinity -5.01774168
REMARK minimizedRMSD -1
REMARK  0 active torsions:
REMARK  status: ('A' for Active; 'I' for Inactive)
ROOT
ATOM      1  C   UNL d   1      -0.117  -1.033   2.596  0.00  0.00     0.023 A 
ATOM      2  C1  UNL d   1      -1.346  -0.935   1.942  0.00  0.00     0.003 A 
ATOM      3  C2  UNL d   1      -1.432  -0.289   0.707  0.00  0.00     0.048 A 
ATOM      4  C3  UNL d   1      -0.285   0.256   0.131  0.00  0.00     0.023 A 
ATOM      5  C4  UNL d   1       0.947   0.159   0.780  0.00  0.00     0.048 A 
ATOM      6  C5  UNL d   1       1.028  -0.487   2.015  0.00  0.00     0.003 A 
ATOM      7  I   UNL d   1      -0.410   1.217  -1.708  0.00  0.00    -0.146 I 
ENDROOT
TORSDOF 0
ENDMDL
