MODEL 1
REMARK minimizedAffinity -4.60133457
REMARK minimizedRMSD -1
REMARK  0 active torsions:
REMARK  status: ('A' for Active; 'I' for Inactive)
ROOT
ATOM      1  C   UNL d   1       0.387  -0.774   3.310  0.00  0.00     0.023 A 
ATOM      2  C1  UNL d   1      -0.921  -0.641   2.841  0.00  0.00     0.003 A 
ATOM      3  C2  UNL d   1      -1.154  -0.304   1.506  0.00  0.00     0.048 A 
ATOM      4  C3  UNL d   1      -0.076  -0.103   0.645  0.00  0.00     0.023 A 
ATOM      5  C4  UNL d   1       1.234  -0.236   1.109  0.00  0.00     0.048 A 
ATOM      6  C5  UNL d   1       1.462  -0.572   2.445  0.00  0.00     0.003 A 
ATOM      7  I   UNL d   1      -0.421   0.398  -1.342  0.00  0.00    -0.146 I 
ENDROOT
TORSDOF 0
ENDMDL
