MODEL 1
REMARK minimizedAffinity -2.78358626
REMARK minimizedRMSD -1
REMARK  0 active torsions:
REMARK  status: ('A' for Active; 'I' for Inactive)
ROOT
ATOM      1  C   UNL d   1       0.907  -0.970   3.210  0.00  0.00     0.023 A 
ATOM      2  C1  UNL d   1      -0.459  -0.903   2.939  0.00  0.00     0.003 A 
ATOM      3  C2  UNL d   1      -0.903  -0.494   1.679  0.00  0.00     0.048 A 
ATOM      4  C3  UNL d   1       0.025  -0.155   0.696  0.00  0.00     0.023 A 
ATOM      5  C4  UNL d   1       1.394  -0.221   0.963  0.00  0.00     0.048 A 
ATOM      6  C5  UNL d   1       1.833  -0.630   2.224  0.00  0.00     0.003 A 
ATOM      7  I   UNL d   1      -0.633   0.454  -1.179  0.00  0.00    -0.146 I 
ENDROOT
TORSDOF 0
ENDMDL
