MODEL 1
REMARK minimizedAffinity -3.77906585
REMARK minimizedRMSD -1
REMARK  0 active torsions:
REMARK  status: ('A' for Active; 'I' for Inactive)
ROOT
ATOM      1  C   UNL d   1       0.751  -0.775   3.009  0.00  0.00     0.023 A 
ATOM      2  C1  UNL d   1       1.752  -0.278   2.174  0.00  0.00     0.003 A 
ATOM      3  C2  UNL d   1       1.442   0.119   0.872  0.00  0.00     0.048 A 
ATOM      4  C3  UNL d   1       0.130   0.019   0.411  0.00  0.00     0.023 A 
ATOM      5  C4  UNL d   1      -0.875  -0.476   1.244  0.00  0.00     0.048 A 
ATOM      6  C5  UNL d   1      -0.560  -0.874   2.545  0.00  0.00     0.003 A 
ATOM      7  I   UNL d   1      -0.333   0.611  -1.526  0.00  0.00    -0.146 I 
ENDROOT
TORSDOF 0
ENDMDL
