MODEL 1
REMARK minimizedAffinity -1.41694868
REMARK minimizedRMSD -1
REMARK  0 active torsions:
REMARK  status: ('A' for Active; 'I' for Inactive)
ROOT
ATOM      1  C   UNL d   1      -0.993   2.062  -3.732  0.00  0.00     0.023 A 
ATOM      2  C1  UNL d   1       0.389   1.890  -3.665  0.00  0.00     0.003 A 
ATOM      3  C2  UNL d   1       0.950   1.129  -2.637  0.00  0.00     0.048 A 
ATOM      4  C3  UNL d   1       0.123   0.543  -1.680  0.00  0.00     0.023 A 
ATOM      5  C4  UNL d   1      -1.261   0.712  -1.744  0.00  0.00     0.048 A 
ATOM      6  C5  UNL d   1      -1.818   1.474  -2.773  0.00  0.00     0.003 A 
ATOM      7  I   UNL d   1       0.955  -0.589  -0.149  0.00  0.00    -0.146 I 
ENDROOT
TORSDOF 0
ENDMDL
