MODEL 1
REMARK minimizedAffinity -3.43036556
REMARK minimizedRMSD -1
REMARK  0 active torsions:
REMARK  status: ('A' for Active; 'I' for Inactive)
ROOT
ATOM      1  C   UNL d   1       1.129  -3.349   2.574  0.00  0.00     0.023 A 
ATOM      2  C1  UNL d   1       0.040  -2.678   3.131  0.00  0.00     0.003 A 
ATOM      3  C2  UNL d   1      -0.702  -1.784   2.357  0.00  0.00     0.048 A 
ATOM      4  C3  UNL d   1      -0.350  -1.566   1.025  0.00  0.00     0.023 A 
ATOM      5  C4  UNL d   1       0.738  -2.236   0.463  0.00  0.00     0.048 A 
ATOM      6  C5  UNL d   1       1.477  -3.128   1.241  0.00  0.00     0.003 A 
ATOM      7  I   UNL d   1      -1.453  -0.236  -0.130  0.00  0.00    -0.146 I 
ENDROOT
TORSDOF 0
ENDMDL
