MODEL 1
REMARK minimizedAffinity 1.52757096
REMARK minimizedRMSD -1
REMARK  0 active torsions:
REMARK  status: ('A' for Active; 'I' for Inactive)
ROOT
ATOM      1  N1  IND d   1       0.886   3.863   0.560  0.00  0.00    -0.196 N 
ATOM      2  C2  IND d   1       1.164   4.883  -0.308  0.00  0.00     0.054 A 
ATOM      3  C3  IND d   1       1.426   4.393  -1.540  0.00  0.00    -0.031 A 
ATOM      4  C4  IND d   1       1.357   1.961  -2.383  0.00  0.00     0.051 A 
ATOM      5  C5  IND d   1       1.188   0.676  -1.950  0.00  0.00    -0.031 A 
ATOM      6  C6  IND d   1       0.902   0.381  -0.633  0.00  0.00     0.015 A 
ATOM      7  C7  IND d   1       0.761   1.367   0.303  0.00  0.00    -0.016 A 
ATOM      8  C8  IND d   1       0.939   2.673  -0.131  0.00  0.00    -0.047 A 
ATOM      9  C9  IND d   1       1.272   2.975  -1.458  0.00  0.00    -0.096 A 
ATOM     10  HN1 IND d   1       0.709   3.951   1.396  0.00  0.00     0.298 HD
ENDROOT
TORSDOF 0
ENDMDL
