MODEL 1
REMARK minimizedAffinity -3.54178309
REMARK minimizedRMSD -1
REMARK  0 active torsions:
REMARK  status: ('A' for Active; 'I' for Inactive)
ROOT
ATOM      1  N1  IND d   1       1.461   3.568   0.192  0.00  0.00    -0.196 N 
ATOM      2  C2  IND d   1       1.829   4.318  -0.889  0.00  0.00     0.054 A 
ATOM      3  C3  IND d   1       1.932   3.539  -1.989  0.00  0.00    -0.031 A 
ATOM      4  C4  IND d   1       1.442   1.026  -2.265  0.00  0.00     0.051 A 
ATOM      5  C5  IND d   1       1.113  -0.092  -1.551  0.00  0.00    -0.031 A 
ATOM      6  C6  IND d   1       0.874  -0.045  -0.192  0.00  0.00     0.015 A 
ATOM      7  C7  IND d   1       0.947   1.128   0.504  0.00  0.00    -0.016 A 
ATOM      8  C8  IND d   1       1.288   2.264  -0.217  0.00  0.00    -0.047 A 
ATOM      9  C9  IND d   1       1.573   2.216  -1.587  0.00  0.00    -0.096 A 
ATOM     10  HN1 IND d   1       1.355   3.861   0.994  0.00  0.00     0.298 HD
ENDROOT
TORSDOF 0
ENDMDL
