MODEL 1
REMARK minimizedAffinity -5.04788876
REMARK minimizedRMSD -1
REMARK  0 active torsions:
REMARK  status: ('A' for Active; 'I' for Inactive)
ROOT
ATOM      1  N1  IND d   1       1.240   0.022  -2.283  0.00  0.00    -0.196 N 
ATOM      2  C2  IND d   1       1.045  -1.034  -1.437  0.00  0.00     0.054 A 
ATOM      3  C3  IND d   1       1.002  -0.608  -0.155  0.00  0.00    -0.031 A 
ATOM      4  C4  IND d   1       1.128   1.788   0.778  0.00  0.00     0.051 A 
ATOM      5  C5  IND d   1       1.340   3.083   0.395  0.00  0.00    -0.031 A 
ATOM      6  C6  IND d   1       1.531   3.431  -0.926  0.00  0.00     0.015 A 
ATOM      7  C7  IND d   1       1.506   2.494  -1.920  0.00  0.00    -0.016 A 
ATOM      8  C8  IND d   1       1.297   1.178  -1.535  0.00  0.00    -0.047 A 
ATOM      9  C9  IND d   1       1.145   0.813  -0.191  0.00  0.00    -0.096 A 
ATOM     10  HN1 IND d   1       1.315  -0.027  -3.138  0.00  0.00     0.298 HD
ENDROOT
TORSDOF 0
ENDMDL
