MODEL 1
REMARK minimizedAffinity -0.231287852
REMARK minimizedRMSD -1
REMARK  0 active torsions:
REMARK  status: ('A' for Active; 'I' for Inactive)
ROOT
ATOM      1  N1  IND d   1       0.681   2.142   1.252  0.00  0.00    -0.196 N 
ATOM      2  C2  IND d   1       0.616   3.413   0.752  0.00  0.00     0.054 A 
ATOM      3  C3  IND d   1       1.135   3.455  -0.495  0.00  0.00    -0.031 A 
ATOM      4  C4  IND d   1       2.055   1.541  -1.950  0.00  0.00     0.051 A 
ATOM      5  C5  IND d   1       2.355   0.208  -1.913  0.00  0.00    -0.031 A 
ATOM      6  C6  IND d   1       2.104  -0.565  -0.797  0.00  0.00     0.015 A 
ATOM      7  C7  IND d   1       1.532  -0.033   0.324  0.00  0.00    -0.016 A 
ATOM      8  C8  IND d   1       1.233   1.322   0.292  0.00  0.00    -0.047 A 
ATOM      9  C9  IND d   1       1.524   2.120  -0.822  0.00  0.00    -0.096 A 
ATOM     10  HN1 IND d   1       0.422   1.896   2.034  0.00  0.00     0.298 HD
ENDROOT
TORSDOF 0
ENDMDL
