MODEL 1
REMARK minimizedAffinity 0.442595452
REMARK minimizedRMSD -1
REMARK  0 active torsions:
REMARK  status: ('A' for Active; 'I' for Inactive)
ROOT
ATOM      1  N1  IND d   1       2.333   3.955  -1.421  0.00  0.00    -0.196 N 
ATOM      2  C2  IND d   1       2.320   4.677  -0.261  0.00  0.00     0.054 A 
ATOM      3  C3  IND d   1       1.791   3.943   0.744  0.00  0.00    -0.031 A 
ATOM      4  C4  IND d   1       0.978   1.500   0.731  0.00  0.00     0.051 A 
ATOM      5  C5  IND d   1       0.759   0.442  -0.105  0.00  0.00    -0.031 A 
ATOM      6  C6  IND d   1       1.063   0.501  -1.450  0.00  0.00     0.015 A 
ATOM      7  C7  IND d   1       1.609   1.622  -2.009  0.00  0.00    -0.016 A 
ATOM      8  C8  IND d   1       1.826   2.700  -1.163  0.00  0.00    -0.047 A 
ATOM      9  C9  IND d   1       1.481   2.661   0.194  0.00  0.00    -0.096 A 
ATOM     10  HN1 IND d   1       2.612   4.237  -2.184  0.00  0.00     0.298 HD
ENDROOT
TORSDOF 0
ENDMDL
