MODEL 1
REMARK minimizedAffinity -3.80553126
REMARK minimizedRMSD -1
REMARK  0 active torsions:
REMARK  status: ('A' for Active; 'I' for Inactive)
ROOT
ATOM      1  N1  IND d   1       1.802   3.537  -2.077  0.00  0.00    -0.196 N 
ATOM      2  C2  IND d   1       1.604   4.512  -1.140  0.00  0.00     0.054 A 
ATOM      3  C3  IND d   1       1.153   3.970   0.014  0.00  0.00    -0.031 A 
ATOM      4  C4  IND d   1       0.764   1.498   0.618  0.00  0.00     0.051 A 
ATOM      5  C5  IND d   1       0.771   0.243   0.077  0.00  0.00    -0.031 A 
ATOM      6  C6  IND d   1       1.132   0.017  -1.235  0.00  0.00     0.015 A 
ATOM      7  C7  IND d   1       1.512   1.041  -2.056  0.00  0.00    -0.016 A 
ATOM      8  C8  IND d   1       1.499   2.317  -1.512  0.00  0.00    -0.047 A 
ATOM      9  C9  IND d   1       1.093   2.558  -0.194  0.00  0.00    -0.096 A 
ATOM     10  HN1 IND d   1       2.069   3.664  -2.884  0.00  0.00     0.298 HD
ENDROOT
TORSDOF 0
ENDMDL
