MODEL 1
REMARK minimizedAffinity 2.22806859
REMARK minimizedRMSD -1
REMARK  0 active torsions:
REMARK  status: ('A' for Active; 'I' for Inactive)
ROOT
ATOM      1  N1  IND d   1       1.165   1.597  -3.226  0.00  0.00    -0.196 N 
ATOM      2  C2  IND d   1       1.631   2.870  -3.051  0.00  0.00     0.054 A 
ATOM      3  C3  IND d   1       1.972   3.073  -1.759  0.00  0.00    -0.031 A 
ATOM      4  C4  IND d   1       1.944   1.423   0.218  0.00  0.00     0.051 A 
ATOM      5  C5  IND d   1       1.564   0.155   0.557  0.00  0.00    -0.031 A 
ATOM      6  C6  IND d   1       1.024  -0.716  -0.367  0.00  0.00     0.015 A 
ATOM      7  C7  IND d   1       0.853  -0.353  -1.673  0.00  0.00    -0.016 A 
ATOM      8  C8  IND d   1       1.231   0.936  -2.019  0.00  0.00    -0.047 A 
ATOM      9  C9  IND d   1       1.740   1.839  -1.077  0.00  0.00    -0.096 A 
ATOM     10  HN1 IND d   1       0.879   1.265  -3.966  0.00  0.00     0.298 HD
ENDROOT
TORSDOF 0
ENDMDL
