MODEL 1
REMARK minimizedAffinity -0.697487533
REMARK minimizedRMSD -1
REMARK  0 active torsions:
REMARK  status: ('A' for Active; 'I' for Inactive)
ROOT
ATOM      1  N1  IND d   1       1.674   3.895  -0.668  0.00  0.00    -0.196 N 
ATOM      2  C2  IND d   1       1.645   4.121  -2.016  0.00  0.00     0.054 A 
ATOM      3  C3  IND d   1       1.453   2.961  -2.683  0.00  0.00    -0.031 A 
ATOM      4  C4  IND d   1       1.059   0.589  -1.762  0.00  0.00     0.051 A 
ATOM      5  C5  IND d   1       1.034  -0.123  -0.595  0.00  0.00    -0.031 A 
ATOM      6  C6  IND d   1       1.222   0.481   0.631  0.00  0.00     0.015 A 
ATOM      7  C7  IND d   1       1.432   1.827   0.739  0.00  0.00    -0.016 A 
ATOM      8  C8  IND d   1       1.465   2.552  -0.444  0.00  0.00    -0.047 A 
ATOM      9  C9  IND d   1       1.317   1.938  -1.695  0.00  0.00    -0.096 A 
ATOM     10  HN1 IND d   1       1.801   4.491  -0.062  0.00  0.00     0.298 HD
ENDROOT
TORSDOF 0
ENDMDL
