MODEL 1
REMARK minimizedAffinity -1.72807336
REMARK minimizedRMSD -1
REMARK  0 active torsions:
REMARK  status: ('A' for Active; 'I' for Inactive)
ROOT
ATOM      1  N1  IND d   1       1.453   3.629  -0.753  0.00  0.00    -0.196 N 
ATOM      2  C2  IND d   1       1.506   3.588  -2.118  0.00  0.00     0.054 A 
ATOM      3  C3  IND d   1       1.477   2.308  -2.552  0.00  0.00    -0.031 A 
ATOM      4  C4  IND d   1       1.242   0.129  -1.201  0.00  0.00     0.051 A 
ATOM      5  C5  IND d   1       1.197  -0.345   0.080  0.00  0.00    -0.031 A 
ATOM      6  C6  IND d   1       1.232   0.500   1.171  0.00  0.00     0.015 A 
ATOM      7  C7  IND d   1       1.303   1.856   1.021  0.00  0.00    -0.016 A 
ATOM      8  C8  IND d   1       1.357   2.339  -0.279  0.00  0.00    -0.047 A 
ATOM      9  C9  IND d   1       1.365   1.485  -1.389  0.00  0.00    -0.096 A 
ATOM     10  HN1 IND d   1       1.476   4.341  -0.271  0.00  0.00     0.298 HD
ENDROOT
TORSDOF 0
ENDMDL
