MODEL 1
REMARK minimizedAffinity 5.12709236
REMARK minimizedRMSD -1
REMARK  0 active torsions:
REMARK  status: ('A' for Active; 'I' for Inactive)
ROOT
ATOM      1  N1  IND d   1       0.353  -2.322   4.403  0.00  0.00    -0.196 N 
ATOM      2  C2  IND d   1       0.004  -1.168   5.048  0.00  0.00     0.054 A 
ATOM      3  C3  IND d   1      -1.342  -1.055   5.113  0.00  0.00    -0.031 A 
ATOM      4  C4  IND d   1      -3.162  -2.692   4.317  0.00  0.00     0.051 A 
ATOM      5  C5  IND d   1      -3.332  -3.865   3.636  0.00  0.00    -0.031 A 
ATOM      6  C6  IND d   1      -2.262  -4.599   3.169  0.00  0.00     0.015 A 
ATOM      7  C7  IND d   1      -0.974  -4.192   3.376  0.00  0.00    -0.016 A 
ATOM      8  C8  IND d   1      -0.797  -2.998   4.061  0.00  0.00    -0.047 A 
ATOM      9  C9  IND d   1      -1.881  -2.227   4.500  0.00  0.00    -0.096 A 
ATOM     10  HN1 IND d   1       1.156  -2.581   4.238  0.00  0.00     0.298 HD
ENDROOT
TORSDOF 0
ENDMDL
