MODEL 1
REMARK minimizedAffinity -1.47557724
REMARK minimizedRMSD -1
REMARK  0 active torsions:
REMARK  status: ('A' for Active; 'I' for Inactive)
ROOT
ATOM      1  N1  IND d   1       1.558  -1.682   0.283  0.00  0.00    -0.196 N 
ATOM      2  C2  IND d   1       1.380  -2.326  -0.910  0.00  0.00     0.054 A 
ATOM      3  C3  IND d   1       1.110  -1.435  -1.890  0.00  0.00    -0.031 A 
ATOM      4  C4  IND d   1       1.011   1.135  -1.781  0.00  0.00     0.051 A 
ATOM      5  C5  IND d   1       1.069   2.179  -0.900  0.00  0.00    -0.031 A 
ATOM      6  C6  IND d   1       1.301   1.986   0.446  0.00  0.00     0.015 A 
ATOM      7  C7  IND d   1       1.495   0.736   0.963  0.00  0.00    -0.016 A 
ATOM      8  C8  IND d   1       1.429  -0.327   0.073  0.00  0.00    -0.047 A 
ATOM      9  C9  IND d   1       1.152  -0.140  -1.287  0.00  0.00    -0.096 A 
ATOM     10  HN1 IND d   1       1.722  -2.061   1.038  0.00  0.00     0.298 HD
ENDROOT
TORSDOF 0
ENDMDL
