MODEL 1
REMARK minimizedAffinity -1.28978372
REMARK minimizedRMSD -1
REMARK  0 active torsions:
REMARK  status: ('A' for Active; 'I' for Inactive)
ROOT
ATOM      1  N1  IND d   1       0.995   3.497  -0.147  0.00  0.00    -0.196 N 
ATOM      2  C2  IND d   1       0.619   3.188   1.131  0.00  0.00     0.054 A 
ATOM      3  C3  IND d   1       0.490   1.850   1.272  0.00  0.00    -0.031 A 
ATOM      4  C4  IND d   1       0.945  -0.026  -0.431  0.00  0.00     0.051 A 
ATOM      5  C5  IND d   1       1.272  -0.236  -1.741  0.00  0.00    -0.031 A 
ATOM      6  C6  IND d   1       1.532   0.810  -2.604  0.00  0.00     0.015 A 
ATOM      7  C7  IND d   1       1.485   2.109  -2.183  0.00  0.00    -0.016 A 
ATOM      8  C8  IND d   1       1.146   2.325  -0.855  0.00  0.00    -0.047 A 
ATOM      9  C9  IND d   1       0.840   1.270   0.014  0.00  0.00    -0.096 A 
ATOM     10  HN1 IND d   1       1.117   4.290  -0.456  0.00  0.00     0.298 HD
ENDROOT
TORSDOF 0
ENDMDL
