MODEL 1
REMARK minimizedAffinity -0.479365975
REMARK minimizedRMSD -1
REMARK  0 active torsions:
REMARK  status: ('A' for Active; 'I' for Inactive)
ROOT
ATOM      1  N1  IND d   1       1.117  -0.211  -2.053  0.00  0.00    -0.196 N 
ATOM      2  C2  IND d   1       1.107  -1.031  -0.959  0.00  0.00     0.054 A 
ATOM      3  C3  IND d   1       1.199  -0.303   0.176  0.00  0.00    -0.031 A 
ATOM      4  C4  IND d   1       1.276   2.253   0.478  0.00  0.00     0.051 A 
ATOM      5  C5  IND d   1       1.347   3.420  -0.231  0.00  0.00    -0.031 A 
ATOM      6  C6  IND d   1       1.342   3.436  -1.611  0.00  0.00     0.015 A 
ATOM      7  C7  IND d   1       1.254   2.282  -2.337  0.00  0.00    -0.016 A 
ATOM      8  C8  IND d   1       1.189   1.095  -1.621  0.00  0.00    -0.047 A 
ATOM      9  C9  IND d   1       1.237   1.069  -0.221  0.00  0.00    -0.096 A 
ATOM     10  HN1 IND d   1       1.084  -0.468  -2.873  0.00  0.00     0.298 HD
ENDROOT
TORSDOF 0
ENDMDL
