MODEL 1
REMARK minimizedAffinity 3.35937905
REMARK minimizedRMSD -1
REMARK  0 active torsions:
REMARK  status: ('A' for Active; 'I' for Inactive)
ROOT
ATOM      1  N1  IND d   1      -1.470  -4.587  -4.725  0.00  0.00    -0.196 N 
ATOM      2  C2  IND d   1      -2.350  -3.652  -5.193  0.00  0.00     0.054 A 
ATOM      3  C3  IND d   1      -2.904  -2.971  -4.165  0.00  0.00    -0.031 A 
ATOM      4  C4  IND d   1      -2.437  -3.157  -1.640  0.00  0.00     0.051 A 
ATOM      5  C5  IND d   1      -1.740  -3.894  -0.725  0.00  0.00    -0.031 A 
ATOM      6  C6  IND d   1      -0.898  -4.919  -1.104  0.00  0.00     0.015 A 
ATOM      7  C7  IND d   1      -0.712  -5.239  -2.419  0.00  0.00    -0.016 A 
ATOM      8  C8  IND d   1      -1.424  -4.497  -3.351  0.00  0.00    -0.047 A 
ATOM      9  C9  IND d   1      -2.313  -3.484  -2.969  0.00  0.00    -0.096 A 
ATOM     10  HN1 IND d   1      -1.021  -5.140  -5.207  0.00  0.00     0.298 HD
ENDROOT
TORSDOF 0
ENDMDL
