MODEL 1
REMARK minimizedAffinity 4.06514883
REMARK minimizedRMSD -1
REMARK  0 active torsions:
REMARK  status: ('A' for Active; 'I' for Inactive)
ROOT
ATOM      1  N1  IND d   1      -3.433   3.515   1.157  0.00  0.00    -0.196 N 
ATOM      2  C2  IND d   1      -4.086   2.325   0.999  0.00  0.00     0.054 A 
ATOM      3  C3  IND d   1      -4.062   1.618   2.151  0.00  0.00    -0.031 A 
ATOM      4  C4  IND d   1      -3.095   2.266   4.447  0.00  0.00     0.051 A 
ATOM      5  C5  IND d   1      -2.370   3.240   5.075  0.00  0.00    -0.031 A 
ATOM      6  C6  IND d   1      -1.956   4.379   4.416  0.00  0.00     0.015 A 
ATOM      7  C7  IND d   1      -2.263   4.594   3.102  0.00  0.00    -0.016 A 
ATOM      8  C8  IND d   1      -2.993   3.604   2.460  0.00  0.00    -0.047 A 
ATOM      9  C9  IND d   1      -3.379   2.426   3.111  0.00  0.00    -0.096 A 
ATOM     10  HN1 IND d   1      -3.316   4.108   0.546  0.00  0.00     0.298 HD
ENDROOT
TORSDOF 0
ENDMDL
