MODEL 1
REMARK minimizedAffinity 4.14910507
REMARK minimizedRMSD -1
REMARK  0 active torsions:
REMARK  status: ('A' for Active; 'I' for Inactive)
ROOT
ATOM      1  N1  IND d   1       1.874   5.203  -2.236  0.00  0.00    -0.196 N 
ATOM      2  C2  IND d   1       1.663   5.999  -1.144  0.00  0.00     0.054 A 
ATOM      3  C3  IND d   1       1.321   5.247  -0.074  0.00  0.00    -0.031 A 
ATOM      4  C4  IND d   1       1.145   2.688   0.139  0.00  0.00     0.051 A 
ATOM      5  C5  IND d   1       1.210   1.539  -0.597  0.00  0.00    -0.031 A 
ATOM      6  C6  IND d   1       1.508   1.552  -1.945  0.00  0.00     0.015 A 
ATOM      7  C7  IND d   1       1.765   2.720  -2.606  0.00  0.00    -0.016 A 
ATOM      8  C8  IND d   1       1.693   3.889  -1.862  0.00  0.00    -0.047 A 
ATOM      9  C9  IND d   1       1.349   3.885  -0.504  0.00  0.00    -0.096 A 
ATOM     10  HN1 IND d   1       2.084   5.477  -3.023  0.00  0.00     0.298 HD
ENDROOT
TORSDOF 0
ENDMDL
