MODEL 1
REMARK minimizedAffinity 2.97202611
REMARK minimizedRMSD -1
REMARK  0 active torsions:
REMARK  status: ('A' for Active; 'I' for Inactive)
ROOT
ATOM      1  N1  IND d   1       1.239   0.922  -2.884  0.00  0.00    -0.196 N 
ATOM      2  C2  IND d   1       1.386   2.053  -2.130  0.00  0.00     0.054 A 
ATOM      3  C3  IND d   1       1.449   1.738  -0.816  0.00  0.00    -0.031 A 
ATOM      4  C4  IND d   1       1.433  -0.576   0.313  0.00  0.00     0.051 A 
ATOM      5  C5  IND d   1       1.280  -1.906   0.041  0.00  0.00    -0.031 A 
ATOM      6  C6  IND d   1       1.104  -2.371  -1.246  0.00  0.00     0.015 A 
ATOM      7  C7  IND d   1       1.086  -1.521  -2.315  0.00  0.00    -0.016 A 
ATOM      8  C8  IND d   1       1.235  -0.168  -2.042  0.00  0.00    -0.047 A 
ATOM      9  C9  IND d   1       1.371   0.314  -0.734  0.00  0.00    -0.096 A 
ATOM     10  HN1 IND d   1       1.161   0.897  -3.739  0.00  0.00     0.298 HD
ENDROOT
TORSDOF 0
ENDMDL
