MODEL 1
REMARK minimizedAffinity -0.748991728
REMARK minimizedRMSD -1
REMARK  0 active torsions:
REMARK  status: ('A' for Active; 'I' for Inactive)
ROOT
ATOM      1  N1  IND d   1       2.132   4.999  -2.029  0.00  0.00    -0.196 N 
ATOM      2  C2  IND d   1       2.171   5.929  -1.027  0.00  0.00     0.054 A 
ATOM      3  C3  IND d   1       1.820   5.366   0.151  0.00  0.00    -0.031 A 
ATOM      4  C4  IND d   1       1.240   2.915   0.684  0.00  0.00     0.051 A 
ATOM      5  C5  IND d   1       1.035   1.703   0.088  0.00  0.00    -0.031 A 
ATOM      6  C6  IND d   1       1.190   1.523  -1.271  0.00  0.00     0.015 A 
ATOM      7  C7  IND d   1       1.570   2.551  -2.087  0.00  0.00    -0.016 A 
ATOM      8  C8  IND d   1       1.772   3.785  -1.486  0.00  0.00    -0.047 A 
ATOM      9  C9  IND d   1       1.575   3.984  -0.113  0.00  0.00    -0.096 A 
ATOM     10  HN1 IND d   1       2.302   5.148  -2.858  0.00  0.00     0.298 HD
ENDROOT
TORSDOF 0
ENDMDL
