MODEL 1
REMARK minimizedAffinity -4.3946681
REMARK minimizedRMSD -1
REMARK  0 active torsions:
REMARK  status: ('A' for Active; 'I' for Inactive)
ROOT
ATOM      1  N1  IND d   1       1.839   4.391  -1.980  0.00  0.00    -0.196 N 
ATOM      2  C2  IND d   1       1.951   5.412  -1.078  0.00  0.00     0.054 A 
ATOM      3  C3  IND d   1       1.635   4.980   0.163  0.00  0.00    -0.031 A 
ATOM      4  C4  IND d   1       1.007   2.614   0.961  0.00  0.00     0.051 A 
ATOM      5  C5  IND d   1       0.740   1.357   0.498  0.00  0.00    -0.031 A 
ATOM      6  C6  IND d   1       0.830   1.039  -0.842  0.00  0.00     0.015 A 
ATOM      7  C7  IND d   1       1.203   1.969  -1.771  0.00  0.00    -0.016 A 
ATOM      8  C8  IND d   1       1.468   3.248  -1.305  0.00  0.00    -0.047 A 
ATOM      9  C9  IND d   1       1.338   3.587   0.048  0.00  0.00    -0.096 A 
ATOM     10  HN1 IND d   1       1.977   4.451  -2.826  0.00  0.00     0.298 HD
ENDROOT
TORSDOF 0
ENDMDL
