MODEL 1
REMARK minimizedAffinity -5.55228043
REMARK minimizedRMSD -1
REMARK  1 active torsions:
REMARK  status: ('A' for Active; 'I' for Inactive)
REMARK    1  A    between atoms: C1_2  and  C2_3 
ROOT
ATOM      1  C2  UNL d   1      -0.108  -0.457  -0.636  0.00  0.00    -0.081 A 
ATOM      2  C3  UNL d   1      -1.424  -0.188  -0.238  0.00  0.00     0.006 A 
ATOM      3  C4  UNL d   1      -1.679   0.444   0.981  0.00  0.00     0.002 A 
ATOM      4  C5  UNL d   1      -0.625   0.824   1.818  0.00  0.00    -0.080 A 
ATOM      5  C6  UNL d   1      -0.885   1.531   3.115  0.00  0.00     0.076 C 
ATOM      6  C7  UNL d   1       0.688   0.540   1.429  0.00  0.00     0.002 A 
ATOM      7  C8  UNL d   1       0.944  -0.093   0.210  0.00  0.00     0.006 A 
ENDROOT
BRANCH   1   8
ATOM      8  C1  UNL d   1       0.174  -1.081  -1.979  0.00  0.00     0.054 C 
ATOM      9  C   UNL d   1       0.593  -0.031  -2.999  0.00  0.00     0.018 C 
ENDBRANCH   1   8
TORSDOF 1
ENDMDL
