MODEL 1
REMARK minimizedAffinity -3.0657146
REMARK minimizedRMSD -1
REMARK  1 active torsions:
REMARK  status: ('A' for Active; 'I' for Inactive)
REMARK    1  A    between atoms: C1_2  and  C2_3 
ROOT
ATOM      1  C2  UNL d   1       0.220   0.311  -1.697  0.00  0.00    -0.081 A 
ATOM      2  C3  UNL d   1      -0.388  -0.786  -2.319  0.00  0.00     0.006 A 
ATOM      3  C4  UNL d   1      -0.492  -0.842  -3.711  0.00  0.00     0.002 A 
ATOM      4  C5  UNL d   1       0.015   0.193  -4.503  0.00  0.00    -0.080 A 
ATOM      5  C6  UNL d   1      -0.063   0.131  -6.000  0.00  0.00     0.076 C 
ATOM      6  C7  UNL d   1       0.606   1.298  -3.881  0.00  0.00     0.002 A 
ATOM      7  C8  UNL d   1       0.710   1.355  -2.489  0.00  0.00     0.006 A 
ENDROOT
BRANCH   1   8
ATOM      8  C1  UNL d   1       0.392   0.345  -0.200  0.00  0.00     0.054 C 
ATOM      9  C   UNL d   1       0.794  -1.019   0.342  0.00  0.00     0.018 C 
ENDBRANCH   1   8
TORSDOF 1
ENDMDL
