MODEL 1
REMARK minimizedAffinity -5.10086441
REMARK minimizedRMSD -1
REMARK  1 active torsions:
REMARK  status: ('A' for Active; 'I' for Inactive)
REMARK    1  A    between atoms: C1_2  and  C2_3 
ROOT
ATOM      1  C2  UNL d   1      -0.390  -0.437  -0.383  0.00  0.00    -0.081 A 
ATOM      2  C3  UNL d   1      -1.637  -0.159   0.190  0.00  0.00     0.006 A 
ATOM      3  C4  UNL d   1      -1.721   0.526   1.405  0.00  0.00     0.002 A 
ATOM      4  C5  UNL d   1      -0.562   0.950   2.063  0.00  0.00    -0.080 A 
ATOM      5  C6  UNL d   1      -0.640   1.712   3.352  0.00  0.00     0.076 C 
ATOM      6  C7  UNL d   1       0.685   0.656   1.499  0.00  0.00     0.002 A 
ATOM      7  C8  UNL d   1       0.770  -0.028   0.285  0.00  0.00     0.006 A 
ENDROOT
BRANCH   1   8
ATOM      8  C1  UNL d   1      -0.297  -1.118  -1.725  0.00  0.00     0.054 C 
ATOM      9  C   UNL d   1       0.076  -0.131  -2.821  0.00  0.00     0.018 C 
ENDBRANCH   1   8
TORSDOF 1
ENDMDL
