MODEL 1
REMARK minimizedAffinity 14.210021
REMARK minimizedRMSD -1
REMARK  1 active torsions:
REMARK  status: ('A' for Active; 'I' for Inactive)
REMARK    1  A    between atoms: C1_2  and  C2_3 
ROOT
ATOM      1  C2  UNL d   1      -1.718   0.428   0.883  0.00  0.00    -0.073 A 
ATOM      2  C3  UNL d   1      -2.399  -0.646   1.468  0.00  0.00    -0.002 A 
ATOM      3  C4  UNL d   1      -2.717  -0.624   2.826  0.00  0.00     0.004 A 
ATOM      4  C5  UNL d   1      -2.365   0.474   3.612  0.00  0.00    -0.004 A 
ATOM      5  C6  UNL d   1      -1.694   1.562   3.043  0.00  0.00    -0.075 A 
ATOM      6  C7  UNL d   1      -1.306   2.749   3.875  0.00  0.00     0.076 C 
ATOM      7  C8  UNL d   1      -1.376   1.531   1.679  0.00  0.00     0.001 A 
ENDROOT
BRANCH   1   8
ATOM      8  C1  UNL d   1      -1.379   0.411  -0.585  0.00  0.00     0.053 C 
ATOM      9  C   UNL d   1       0.100   0.667  -0.831  0.00  0.00     0.018 C 
ENDBRANCH   1   8
TORSDOF 1
ENDMDL
