MODEL 1
REMARK minimizedAffinity 2.27371526
REMARK minimizedRMSD -1
REMARK  1 active torsions:
REMARK  status: ('A' for Active; 'I' for Inactive)
REMARK    1  A    between atoms: C1_2  and  C2_3 
ROOT
ATOM      1  C2  UNL d   1      -4.715   0.372   3.182  0.00  0.00    -0.073 A 
ATOM      2  C3  UNL d   1      -3.431  -0.046   3.549  0.00  0.00    -0.002 A 
ATOM      3  C4  UNL d   1      -2.308   0.639   3.084  0.00  0.00     0.004 A 
ATOM      4  C5  UNL d   1      -2.456   1.751   2.254  0.00  0.00    -0.004 A 
ATOM      5  C6  UNL d   1      -3.732   2.190   1.886  0.00  0.00    -0.075 A 
ATOM      6  C7  UNL d   1      -3.909   3.383   0.993  0.00  0.00     0.076 C 
ATOM      7  C8  UNL d   1      -4.855   1.496   2.355  0.00  0.00     0.001 A 
ENDROOT
BRANCH   1   8
ATOM      8  C1  UNL d   1      -5.932  -0.360   3.687  0.00  0.00     0.053 C 
ATOM      9  C   UNL d   1      -5.999  -0.374   5.206  0.00  0.00     0.018 C 
ENDBRANCH   1   8
TORSDOF 1
ENDMDL
