MODEL 1
REMARK minimizedAffinity 6.968503
REMARK minimizedRMSD -1
REMARK  1 active torsions:
REMARK  status: ('A' for Active; 'I' for Inactive)
REMARK    1  A    between atoms: C1_2  and  C2_3 
ROOT
ATOM      1  C2  UNL d   1      -2.321   2.131   2.515  0.00  0.00    -0.073 A 
ATOM      2  C3  UNL d   1      -1.619   3.012   3.346  0.00  0.00    -0.002 A 
ATOM      3  C4  UNL d   1      -1.940   4.370   3.366  0.00  0.00     0.004 A 
ATOM      4  C5  UNL d   1      -2.968   4.860   2.562  0.00  0.00    -0.004 A 
ATOM      5  C6  UNL d   1      -3.690   3.994   1.733  0.00  0.00    -0.075 A 
ATOM      6  C7  UNL d   1      -4.798   4.505   0.861  0.00  0.00     0.076 C 
ATOM      7  C8  UNL d   1      -3.360   2.632   1.717  0.00  0.00     0.001 A 
ENDROOT
BRANCH   1   8
ATOM      8  C1  UNL d   1      -1.983   0.663   2.495  0.00  0.00     0.053 C 
ATOM      9  C   UNL d   1      -2.972  -0.161   3.305  0.00  0.00     0.018 C 
ENDBRANCH   1   8
TORSDOF 1
ENDMDL
