MODEL 1
REMARK minimizedAffinity 10.8483047
REMARK minimizedRMSD -1
REMARK  1 active torsions:
REMARK  status: ('A' for Active; 'I' for Inactive)
REMARK    1  A    between atoms: C1_2  and  C2_3 
ROOT
ATOM      1  C2  UNL d   1       1.102  -2.484  -2.434  0.00  0.00    -0.073 A 
ATOM      2  C3  UNL d   1       2.096  -2.819  -1.508  0.00  0.00    -0.002 A 
ATOM      3  C4  UNL d   1       2.851  -1.820  -0.892  0.00  0.00     0.004 A 
ATOM      4  C5  UNL d   1       2.616  -0.478  -1.189  0.00  0.00    -0.004 A 
ATOM      5  C6  UNL d   1       1.618  -0.123  -2.103  0.00  0.00    -0.075 A 
ATOM      6  C7  UNL d   1       1.354   1.316  -2.436  0.00  0.00     0.076 C 
ATOM      7  C8  UNL d   1       0.866  -1.132  -2.719  0.00  0.00     0.001 A 
ENDROOT
BRANCH   1   8
ATOM      8  C1  UNL d   1       0.279  -3.559  -3.096  0.00  0.00     0.053 C 
ATOM      9  C   UNL d   1      -1.027  -3.812  -2.361  0.00  0.00     0.018 C 
ENDBRANCH   1   8
TORSDOF 1
ENDMDL
