MODEL 1
REMARK minimizedAffinity 10.6672192
REMARK minimizedRMSD -1
REMARK  1 active torsions:
REMARK  status: ('A' for Active; 'I' for Inactive)
REMARK    1  A    between atoms: C1_2  and  C2_3 
ROOT
ATOM      1  C2  UNL d   1      -1.018   0.030  -0.496  0.00  0.00    -0.073 A 
ATOM      2  C3  UNL d   1      -1.743  -1.155  -0.657  0.00  0.00    -0.002 A 
ATOM      3  C4  UNL d   1      -2.494  -1.671   0.401  0.00  0.00     0.004 A 
ATOM      4  C5  UNL d   1      -2.532  -1.005   1.625  0.00  0.00    -0.004 A 
ATOM      5  C6  UNL d   1      -1.823   0.188   1.802  0.00  0.00    -0.075 A 
ATOM      6  C7  UNL d   1      -1.852   0.916   3.114  0.00  0.00     0.076 C 
ATOM      7  C8  UNL d   1      -1.070   0.698   0.736  0.00  0.00     0.001 A 
ENDROOT
BRANCH   1   8
ATOM      8  C1  UNL d   1      -0.211   0.595  -1.637  0.00  0.00     0.053 C 
ATOM      9  C   UNL d   1       1.195   0.019  -1.680  0.00  0.00     0.018 C 
ENDBRANCH   1   8
TORSDOF 1
ENDMDL
