MODEL 1
REMARK minimizedAffinity 8.0894146
REMARK minimizedRMSD -1
REMARK  1 active torsions:
REMARK  status: ('A' for Active; 'I' for Inactive)
REMARK    1  A    between atoms: C1_2  and  C2_3 
ROOT
ATOM      1  C2  UNL d   1       1.675   1.605  -2.543  0.00  0.00    -0.073 A 
ATOM      2  C3  UNL d   1       0.411   2.031  -2.121  0.00  0.00    -0.002 A 
ATOM      3  C4  UNL d   1      -0.564   1.099  -1.762  0.00  0.00     0.004 A 
ATOM      4  C5  UNL d   1      -0.282  -0.266  -1.813  0.00  0.00    -0.004 A 
ATOM      5  C6  UNL d   1       0.980  -0.711  -2.221  0.00  0.00    -0.075 A 
ATOM      6  C7  UNL d   1       1.299  -2.176  -2.284  0.00  0.00     0.076 C 
ATOM      7  C8  UNL d   1       1.952   0.231  -2.583  0.00  0.00     0.001 A 
ENDROOT
BRANCH   1   8
ATOM      8  C1  UNL d   1       2.732   2.608  -2.926  0.00  0.00     0.053 C 
ATOM      9  C   UNL d   1       2.153   4.000  -3.122  0.00  0.00     0.018 C 
ENDBRANCH   1   8
TORSDOF 1
ENDMDL
