MODEL 1
REMARK minimizedAffinity 4.69420958
REMARK minimizedRMSD -1
REMARK  1 active torsions:
REMARK  status: ('A' for Active; 'I' for Inactive)
REMARK    1  A    between atoms: C1_2  and  C2_3 
ROOT
ATOM      1  C2  UNL d   1       5.240   5.473   2.912  0.00  0.00    -0.073 A 
ATOM      2  C3  UNL d   1       3.948   5.988   2.755  0.00  0.00    -0.002 A 
ATOM      3  C4  UNL d   1       3.323   5.955   1.508  0.00  0.00     0.004 A 
ATOM      4  C5  UNL d   1       3.979   5.402   0.408  0.00  0.00    -0.004 A 
ATOM      5  C6  UNL d   1       5.266   4.872   0.548  0.00  0.00    -0.075 A 
ATOM      6  C7  UNL d   1       5.986   4.276  -0.626  0.00  0.00     0.076 C 
ATOM      7  C8  UNL d   1       5.888   4.912   1.803  0.00  0.00     0.001 A 
ENDROOT
BRANCH   1   8
ATOM      8  C1  UNL d   1       5.916   5.501   4.259  0.00  0.00     0.053 C 
ATOM      9  C   UNL d   1       4.943   5.832   5.379  0.00  0.00     0.018 C 
ENDBRANCH   1   8
TORSDOF 1
ENDMDL
