MODEL 1
REMARK minimizedAffinity 3.42558169
REMARK minimizedRMSD -1
REMARK  1 active torsions:
REMARK  status: ('A' for Active; 'I' for Inactive)
REMARK    1  A    between atoms: C1_2  and  C2_3 
ROOT
ATOM      1  C2  UNL d   1       5.259   4.976   2.103  0.00  0.00    -0.073 A 
ATOM      2  C3  UNL d   1       4.085   5.730   2.206  0.00  0.00    -0.002 A 
ATOM      3  C4  UNL d   1       3.528   6.000   3.457  0.00  0.00     0.004 A 
ATOM      4  C5  UNL d   1       4.142   5.525   4.616  0.00  0.00    -0.004 A 
ATOM      5  C6  UNL d   1       5.323   4.779   4.534  0.00  0.00    -0.075 A 
ATOM      6  C7  UNL d   1       5.995   4.260   5.771  0.00  0.00     0.076 C 
ATOM      7  C8  UNL d   1       5.874   4.511   3.274  0.00  0.00     0.001 A 
ENDROOT
BRANCH   1   8
ATOM      8  C1  UNL d   1       5.868   4.688   0.754  0.00  0.00     0.053 C 
ATOM      9  C   UNL d   1       5.482   5.734  -0.280  0.00  0.00     0.018 C 
ENDBRANCH   1   8
TORSDOF 1
ENDMDL
