MODEL 1
REMARK minimizedAffinity 6.54506445
REMARK minimizedRMSD -1
REMARK  1 active torsions:
REMARK  status: ('A' for Active; 'I' for Inactive)
REMARK    1  A    between atoms: C1_2  and  C2_3 
ROOT
ATOM      1  C2  UNL d   1       1.782   0.023  -2.277  0.00  0.00    -0.073 A 
ATOM      2  C3  UNL d   1       0.900  -0.004  -3.363  0.00  0.00    -0.002 A 
ATOM      3  C4  UNL d   1       0.676   1.149  -4.118  0.00  0.00     0.004 A 
ATOM      4  C5  UNL d   1       1.335   2.336  -3.800  0.00  0.00    -0.004 A 
ATOM      5  C6  UNL d   1       2.229   2.380  -2.725  0.00  0.00    -0.075 A 
ATOM      6  C7  UNL d   1       2.945   3.649  -2.368  0.00  0.00     0.076 C 
ATOM      7  C8  UNL d   1       2.447   1.219  -1.970  0.00  0.00     0.001 A 
ENDROOT
BRANCH   1   8
ATOM      8  C1  UNL d   1       2.032  -1.220  -1.463  0.00  0.00     0.053 C 
ATOM      9  C   UNL d   1       0.962  -2.276  -1.692  0.00  0.00     0.018 C 
ENDBRANCH   1   8
TORSDOF 1
ENDMDL
