MODEL 1
REMARK minimizedAffinity 10.617197
REMARK minimizedRMSD -1
REMARK  0 active torsions:
REMARK  status: ('A' for Active; 'I' for Inactive)
ROOT
ATOM      1  C4' PXY d   1       3.049  -2.049  -1.891  0.00  0.00     0.077 C 
ATOM      2  C1' PXY d   1       6.000   0.748  -6.000  0.00  0.00     0.077 C 
ATOM      3  C1  PXY d   1       5.221   0.026  -4.918  0.00  0.00    -0.082 A 
ATOM      4  C2  PXY d   1       5.615  -1.172  -4.518  0.00  0.00     0.003 A 
ATOM      5  C3  PXY d   1       4.905  -1.853  -3.563  0.00  0.00     0.003 A 
ATOM      6  C4  PXY d   1       3.810  -1.279  -2.974  0.00  0.00    -0.082 A 
ATOM      7  C5  PXY d   1       3.408  -0.052  -3.369  0.00  0.00     0.003 A 
ATOM      8  C6  PXY d   1       4.119   0.605  -4.369  0.00  0.00     0.003 A 
ENDROOT
TORSDOF 0
ENDMDL
