MODEL 1
REMARK minimizedAffinity 13.7245054
REMARK minimizedRMSD -1
REMARK  0 active torsions:
REMARK  status: ('A' for Active; 'I' for Inactive)
ROOT
ATOM      1  C4' PXY d   1       3.793   0.183   0.692  0.00  0.00     0.077 C 
ATOM      2  C1' PXY d   1       1.464  -2.577   5.206  0.00  0.00     0.077 C 
ATOM      3  C1  PXY d   1       2.084  -1.862   4.022  0.00  0.00    -0.082 A 
ATOM      4  C2  PXY d   1       1.827  -0.579   3.824  0.00  0.00     0.003 A 
ATOM      5  C3  PXY d   1       2.354   0.075   2.741  0.00  0.00     0.003 A 
ATOM      6  C4  PXY d   1       3.196  -0.577   1.880  0.00  0.00    -0.082 A 
ATOM      7  C5  PXY d   1       3.472  -1.883   2.081  0.00  0.00     0.003 A 
ATOM      8  C6  PXY d   1       2.894  -2.539   3.164  0.00  0.00     0.003 A 
ENDROOT
TORSDOF 0
ENDMDL
