MODEL 1
REMARK minimizedAffinity 7.0366931
REMARK minimizedRMSD -1
REMARK  0 active torsions:
REMARK  status: ('A' for Active; 'I' for Inactive)
ROOT
ATOM      1  C4' PXY d   1       1.591  -5.261  -1.851  0.00  0.00     0.077 C 
ATOM      2  C1' PXY d   1       5.594  -5.995  -5.955  0.00  0.00     0.077 C 
ATOM      3  C1  PXY d   1       4.553  -5.807  -4.870  0.00  0.00    -0.082 A 
ATOM      4  C2  PXY d   1       3.269  -5.800  -5.190  0.00  0.00     0.003 A 
ATOM      5  C3  PXY d   1       2.315  -5.599  -4.225  0.00  0.00     0.003 A 
ATOM      6  C4  PXY d   1       2.677  -5.457  -2.912  0.00  0.00    -0.082 A 
ATOM      7  C5  PXY d   1       3.984  -5.474  -2.576  0.00  0.00     0.003 A 
ATOM      8  C6  PXY d   1       4.939  -5.638  -3.576  0.00  0.00     0.003 A 
ENDROOT
TORSDOF 0
ENDMDL
