MODEL 1
REMARK minimizedAffinity 7.90143776
REMARK minimizedRMSD -1
REMARK  0 active torsions:
REMARK  status: ('A' for Active; 'I' for Inactive)
ROOT
ATOM      1  C4' PXY d   1       3.866  -4.613   3.139  0.00  0.00     0.077 C 
ATOM      2  C1' PXY d   1       1.336   0.575   2.819  0.00  0.00     0.077 C 
ATOM      3  C1  PXY d   1       2.000  -0.785   2.916  0.00  0.00    -0.082 A 
ATOM      4  C2  PXY d   1       2.661  -1.266   1.875  0.00  0.00     0.003 A 
ATOM      5  C3  PXY d   1       3.240  -2.507   1.935  0.00  0.00     0.003 A 
ATOM      6  C4  PXY d   1       3.188  -3.241   3.089  0.00  0.00    -0.082 A 
ATOM      7  C5  PXY d   1       2.525  -2.753   4.159  0.00  0.00     0.003 A 
ATOM      8  C6  PXY d   1       1.909  -1.508   4.065  0.00  0.00     0.003 A 
ENDROOT
TORSDOF 0
ENDMDL
