MODEL 1
REMARK minimizedAffinity -1.04053736
REMARK minimizedRMSD -1
REMARK  0 active torsions:
REMARK  status: ('A' for Active; 'I' for Inactive)
ROOT
ATOM      1  C4' PXY d   1       2.040   3.345   0.151  0.00  0.00     0.077 C 
ATOM      2  C1' PXY d   1       3.167  -1.598   2.928  0.00  0.00     0.077 C 
ATOM      3  C1  PXY d   1       2.884  -0.301   2.195  0.00  0.00    -0.082 A 
ATOM      4  C2  PXY d   1       1.913   0.491   2.619  0.00  0.00     0.003 A 
ATOM      5  C3  PXY d   1       1.622   1.652   1.949  0.00  0.00     0.003 A 
ATOM      6  C4  PXY d   1       2.367   2.031   0.865  0.00  0.00    -0.082 A 
ATOM      7  C5  PXY d   1       3.367   1.234   0.433  0.00  0.00     0.003 A 
ATOM      8  C6  PXY d   1       3.619   0.040   1.102  0.00  0.00     0.003 A 
ENDROOT
TORSDOF 0
ENDMDL
