MODEL 1
REMARK minimizedAffinity 12.9830875
REMARK minimizedRMSD -1
REMARK  0 active torsions:
REMARK  status: ('A' for Active; 'I' for Inactive)
ROOT
ATOM      1  C4' PXY d   1       3.530  -3.289   2.941  0.00  0.00     0.077 C 
ATOM      2  C1' PXY d   1       1.880   2.092   1.623  0.00  0.00     0.077 C 
ATOM      3  C1  PXY d   1       2.310   0.683   1.981  0.00  0.00    -0.082 A 
ATOM      4  C2  PXY d   1       3.132   0.026   1.179  0.00  0.00     0.003 A 
ATOM      5  C3  PXY d   1       3.506  -1.260   1.471  0.00  0.00     0.003 A 
ATOM      6  C4  PXY d   1       3.077  -1.861   2.624  0.00  0.00    -0.082 A 
ATOM      7  C5  PXY d   1       2.246  -1.194   3.453  0.00  0.00     0.003 A 
ATOM      8  C6  PXY d   1       1.846   0.096   3.117  0.00  0.00     0.003 A 
ENDROOT
TORSDOF 0
ENDMDL
