MODEL 1
REMARK minimizedAffinity 8.77903557
REMARK minimizedRMSD -1
REMARK  0 active torsions:
REMARK  status: ('A' for Active; 'I' for Inactive)
ROOT
ATOM      1  C4' PXY d   1       2.722   1.651   1.078  0.00  0.00     0.077 C 
ATOM      2  C1' PXY d   1       1.795  -3.447   3.642  0.00  0.00     0.077 C 
ATOM      3  C1  PXY d   1       2.038  -2.116   2.958  0.00  0.00    -0.082 A 
ATOM      4  C2  PXY d   1       2.641  -1.141   3.619  0.00  0.00     0.003 A 
ATOM      5  C3  PXY d   1       2.840   0.079   3.026  0.00  0.00     0.003 A 
ATOM      6  C4  PXY d   1       2.465   0.287   1.726  0.00  0.00    -0.082 A 
ATOM      7  C5  PXY d   1       1.858  -0.705   1.041  0.00  0.00     0.003 A 
ATOM      8  C6  PXY d   1       1.629  -1.924   1.674  0.00  0.00     0.003 A 
ENDROOT
TORSDOF 0
ENDMDL
