MODEL 1
REMARK minimizedAffinity 8.00143433
REMARK minimizedRMSD -1
REMARK  0 active torsions:
REMARK  status: ('A' for Active; 'I' for Inactive)
ROOT
ATOM      1  C4' PXY d   1       2.603   3.371   0.808  0.00  0.00     0.077 C 
ATOM      2  C1' PXY d   1       2.467  -1.838   3.311  0.00  0.00     0.077 C 
ATOM      3  C1  PXY d   1       2.512  -0.476   2.646  0.00  0.00    -0.082 A 
ATOM      4  C2  PXY d   1       2.158   0.599   3.332  0.00  0.00     0.003 A 
ATOM      5  C3  PXY d   1       2.161   1.834   2.736  0.00  0.00     0.003 A 
ATOM      6  C4  PXY d   1       2.583   1.977   1.441  0.00  0.00    -0.082 A 
ATOM      7  C5  PXY d   1       2.956   0.887   0.738  0.00  0.00     0.003 A 
ATOM      8  C6  PXY d   1       2.905  -0.363   1.348  0.00  0.00     0.003 A 
ENDROOT
TORSDOF 0
ENDMDL
