MODEL 1
REMARK minimizedAffinity -2.76789522
REMARK minimizedRMSD -1
REMARK  0 active torsions:
REMARK  status: ('A' for Active; 'I' for Inactive)
ROOT
ATOM      1  C   UNL d   1       0.931   3.012   5.213  0.00  0.00    -0.002 A 
ATOM      2  C1  UNL d   1       1.124   2.885   3.844  0.00  0.00     0.010 A 
ATOM      3  C2  UNL d   1       2.257   3.427   3.234  0.00  0.00     0.041 A 
ATOM      4  C3  UNL d   1       3.203   4.103   4.030  0.00  0.00    -0.075 A 
ATOM      5  S   UNL d   1       4.665   4.846   3.501  0.00  0.00     0.015 SA
ATOM      6  C4  UNL d   1       5.069   5.349   5.079  0.00  0.00     0.022 A 
ATOM      7  C5  UNL d   1       4.122   4.967   5.999  0.00  0.00     0.026 A 
ATOM      8  C6  UNL d   1       3.031   4.243   5.410  0.00  0.00    -0.082 A 
ATOM      9  C7  UNL d   1       1.871   3.683   5.999  0.00  0.00     0.045 A 
ENDROOT
TORSDOF 0
ENDMDL
