MODEL 1
REMARK minimizedAffinity 6.45278597
REMARK minimizedRMSD -1
REMARK  0 active torsions:
REMARK  status: ('A' for Active; 'I' for Inactive)
ROOT
ATOM      1  C   UNL d   1      -1.133   2.889   0.325  0.00  0.00    -0.002 A 
ATOM      2  C1  UNL d   1       0.196   2.708  -0.033  0.00  0.00     0.010 A 
ATOM      3  C2  UNL d   1       0.575   1.628  -0.833  0.00  0.00     0.041 A 
ATOM      4  C3  UNL d   1      -0.414   0.726  -1.273  0.00  0.00    -0.075 A 
ATOM      5  S   UNL d   1      -0.183  -0.668  -2.261  0.00  0.00     0.015 SA
ATOM      6  C4  UNL d   1      -1.843  -1.055  -2.232  0.00  0.00     0.022 A 
ATOM      7  C5  UNL d   1      -2.570  -0.154  -1.491  0.00  0.00     0.026 A 
ATOM      8  C6  UNL d   1      -1.758   0.888  -0.926  0.00  0.00    -0.082 A 
ATOM      9  C7  UNL d   1      -2.110   1.992  -0.113  0.00  0.00     0.045 A 
ENDROOT
TORSDOF 0
ENDMDL
