MODEL 1
REMARK minimizedAffinity 7.13088942
REMARK minimizedRMSD -1
REMARK  0 active torsions:
REMARK  status: ('A' for Active; 'I' for Inactive)
ROOT
ATOM      1  C   UNL d   1       3.148   1.231   0.319  0.00  0.00    -0.002 A 
ATOM      2  C1  UNL d   1       2.422   0.750  -0.761  0.00  0.00     0.010 A 
ATOM      3  C2  UNL d   1       1.129   1.213  -1.011  0.00  0.00     0.041 A 
ATOM      4  C3  UNL d   1       0.573   2.179  -0.150  0.00  0.00    -0.075 A 
ATOM      5  S   UNL d   1      -0.993   2.893  -0.261  0.00  0.00     0.015 SA
ATOM      6  C4  UNL d   1      -0.734   3.854   1.123  0.00  0.00     0.022 A 
ATOM      7  C5  UNL d   1       0.510   3.648   1.669  0.00  0.00     0.026 A 
ATOM      8  C6  UNL d   1       1.285   2.680   0.944  0.00  0.00    -0.082 A 
ATOM      9  C7  UNL d   1       2.593   2.189   1.171  0.00  0.00     0.045 A 
ENDROOT
TORSDOF 0
ENDMDL
