MODEL 1
REMARK minimizedAffinity 7.05209351
REMARK minimizedRMSD -1
REMARK  0 active torsions:
REMARK  status: ('A' for Active; 'I' for Inactive)
ROOT
ATOM      1  C   UNL d   1       2.163  -0.132  -1.130  0.00  0.00    -0.002 A 
ATOM      2  C1  UNL d   1       2.604   0.065  -2.432  0.00  0.00     0.010 A 
ATOM      3  C2  UNL d   1       3.763   0.801  -2.686  0.00  0.00     0.041 A 
ATOM      4  C3  UNL d   1       4.479   1.340  -1.599  0.00  0.00    -0.075 A 
ATOM      5  S   UNL d   1       5.926   2.275  -1.670  0.00  0.00     0.015 SA
ATOM      6  C4  UNL d   1       5.994   2.435   0.026  0.00  0.00     0.022 A 
ATOM      7  C5  UNL d   1       4.946   1.798   0.646  0.00  0.00     0.026 A 
ATOM      8  C6  UNL d   1       4.056   1.156  -0.280  0.00  0.00    -0.082 A 
ATOM      9  C7  UNL d   1       2.877   0.405  -0.055  0.00  0.00     0.045 A 
ENDROOT
TORSDOF 0
ENDMDL
