MODEL 1
REMARK minimizedAffinity 7.41416407
REMARK minimizedRMSD -1
REMARK  0 active torsions:
REMARK  status: ('A' for Active; 'I' for Inactive)
ROOT
ATOM      1  C   UNL d   1      -2.685   3.594   0.722  0.00  0.00    -0.002 A 
ATOM      2  C1  UNL d   1      -1.356   3.877   1.005  0.00  0.00     0.010 A 
ATOM      3  C2  UNL d   1      -0.337   3.051   0.528  0.00  0.00     0.041 A 
ATOM      4  C3  UNL d   1      -0.678   1.926  -0.248  0.00  0.00    -0.075 A 
ATOM      5  S   UNL d   1       0.402   0.773  -0.939  0.00  0.00     0.015 SA
ATOM      6  C4  UNL d   1      -0.875  -0.121  -1.628  0.00  0.00     0.022 A 
ATOM      7  C5  UNL d   1      -2.102   0.431  -1.346  0.00  0.00     0.026 A 
ATOM      8  C6  UNL d   1      -2.009   1.620  -0.547  0.00  0.00    -0.082 A 
ATOM      9  C7  UNL d   1      -3.020   2.477  -0.047  0.00  0.00     0.045 A 
ENDROOT
TORSDOF 0
ENDMDL
