MODEL 1
REMARK minimizedAffinity -5.43079805
REMARK minimizedRMSD -1
REMARK  1 active torsions:
REMARK  status: ('A' for Active; 'I' for Inactive)
REMARK    1  A    between atoms: C1_2  and  C2_3 
ROOT
ATOM      1  C2  UNL d   1      -0.566   0.842  -0.867  0.00  0.00    -0.081 A 
ATOM      2  C3  UNL d   1      -1.134  -0.101  -0.001  0.00  0.00     0.006 A 
ATOM      3  C4  UNL d   1      -0.323  -0.989   0.710  0.00  0.00     0.002 A 
ATOM      4  C5  UNL d   1       1.069  -0.944   0.573  0.00  0.00    -0.080 A 
ATOM      5  C6  UNL d   1       1.952  -1.872   1.353  0.00  0.00     0.076 C 
ATOM      6  C7  UNL d   1       1.635  -0.015  -0.306  0.00  0.00     0.002 A 
ATOM      7  C8  UNL d   1       0.825   0.873  -1.017  0.00  0.00     0.006 A 
ENDROOT
BRANCH   1   8
ATOM      8  C1  UNL d   1      -1.433   1.843  -1.585  0.00  0.00     0.054 C 
ATOM      9  C   UNL d   1      -2.292   1.171  -2.646  0.00  0.00     0.018 C 
ENDBRANCH   1   8
TORSDOF 1
ENDMDL
