MODEL 1
REMARK minimizedAffinity -3.48313498
REMARK minimizedRMSD -1
REMARK  1 active torsions:
REMARK  status: ('A' for Active; 'I' for Inactive)
REMARK    1  A    between atoms: C1_2  and  C2_3 
ROOT
ATOM      1  C2  UNL d   1      -1.033   0.579  -0.788  0.00  0.00    -0.081 A 
ATOM      2  C3  UNL d   1      -0.030   1.479  -0.408  0.00  0.00     0.006 A 
ATOM      3  C4  UNL d   1       1.169   1.014   0.137  0.00  0.00     0.002 A 
ATOM      4  C5  UNL d   1       1.388  -0.358   0.303  0.00  0.00    -0.080 A 
ATOM      5  C6  UNL d   1       2.683  -0.872   0.859  0.00  0.00     0.076 C 
ATOM      6  C7  UNL d   1       0.379  -1.256  -0.061  0.00  0.00     0.002 A 
ATOM      7  C8  UNL d   1      -0.820  -0.791  -0.605  0.00  0.00     0.006 A 
ENDROOT
BRANCH   1   8
ATOM      8  C1  UNL d   1      -2.301   1.074  -1.436  0.00  0.00     0.054 C 
ATOM      9  C   UNL d   1      -2.008   1.809  -2.736  0.00  0.00     0.018 C 
ENDBRANCH   1   8
TORSDOF 1
ENDMDL
