MODEL 1
REMARK minimizedAffinity 2.36478949
REMARK minimizedRMSD -1
REMARK  1 active torsions:
REMARK  status: ('A' for Active; 'I' for Inactive)
REMARK    1  A    between atoms: C1_2  and  C2_3 
ROOT
ATOM      1  C2  UNL d   1      -1.134   0.534  -0.154  0.00  0.00    -0.081 A 
ATOM      2  C3  UNL d   1      -2.305   0.257  -0.870  0.00  0.00     0.006 A 
ATOM      3  C4  UNL d   1      -2.590   0.941  -2.054  0.00  0.00     0.002 A 
ATOM      4  C5  UNL d   1      -1.706   1.908  -2.545  0.00  0.00    -0.080 A 
ATOM      5  C6  UNL d   1      -1.986   2.629  -3.830  0.00  0.00     0.076 C 
ATOM      6  C7  UNL d   1      -0.545   2.198  -1.821  0.00  0.00     0.002 A 
ATOM      7  C8  UNL d   1      -0.260   1.514  -0.637  0.00  0.00     0.006 A 
ENDROOT
BRANCH   1   8
ATOM      8  C1  UNL d   1      -0.792  -0.248   1.088  0.00  0.00     0.054 C 
ATOM      9  C   UNL d   1      -0.478  -1.701   0.759  0.00  0.00     0.018 C 
ENDBRANCH   1   8
TORSDOF 1
ENDMDL
