MODEL 1
REMARK minimizedAffinity -3.01589513
REMARK minimizedRMSD -1
REMARK  1 active torsions:
REMARK  status: ('A' for Active; 'I' for Inactive)
REMARK    1  A    between atoms: C1_2  and  C2_3 
ROOT
ATOM      1  C2  UNL d   1      -0.566   0.728  -0.684  0.00  0.00    -0.081 A 
ATOM      2  C3  UNL d   1       0.453   0.166  -1.462  0.00  0.00     0.006 A 
ATOM      3  C4  UNL d   1       1.176  -0.934  -0.994  0.00  0.00     0.002 A 
ATOM      4  C5  UNL d   1       0.888  -1.495   0.254  0.00  0.00    -0.080 A 
ATOM      5  C6  UNL d   1       1.636  -2.694   0.755  0.00  0.00     0.076 C 
ATOM      6  C7  UNL d   1      -0.119  -0.922   1.040  0.00  0.00     0.002 A 
ATOM      7  C8  UNL d   1      -0.842   0.178   0.573  0.00  0.00     0.006 A 
ENDROOT
BRANCH   1   8
ATOM      8  C1  UNL d   1      -1.391   1.874  -1.213  0.00  0.00     0.054 C 
ATOM      9  C   UNL d   1      -2.003   1.537  -2.565  0.00  0.00     0.018 C 
ENDBRANCH   1   8
TORSDOF 1
ENDMDL
