MODEL 1
REMARK minimizedAffinity -1.85693407
REMARK minimizedRMSD -1
REMARK  1 active torsions:
REMARK  status: ('A' for Active; 'I' for Inactive)
REMARK    1  A    between atoms: C1_2  and  C2_3 
ROOT
ATOM      1  C2  UNL d   1      -0.308  -1.491   1.126  0.00  0.00    -0.081 A 
ATOM      2  C3  UNL d   1       0.592  -2.556   0.997  0.00  0.00     0.006 A 
ATOM      3  C4  UNL d   1       1.798  -2.385   0.313  0.00  0.00     0.002 A 
ATOM      4  C5  UNL d   1       2.128  -1.146  -0.246  0.00  0.00    -0.080 A 
ATOM      5  C6  UNL d   1       3.433  -0.942  -0.957  0.00  0.00     0.076 C 
ATOM      6  C7  UNL d   1       1.221  -0.087  -0.133  0.00  0.00     0.002 A 
ATOM      7  C8  UNL d   1       0.015  -0.257   0.550  0.00  0.00     0.006 A 
ENDROOT
BRANCH   1   8
ATOM      8  C1  UNL d   1      -1.580  -1.653   1.918  0.00  0.00     0.054 C 
ATOM      9  C   UNL d   1      -2.162  -0.304   2.313  0.00  0.00     0.018 C 
ENDBRANCH   1   8
TORSDOF 1
ENDMDL
