MODEL 1
REMARK minimizedAffinity -2.99038219
REMARK minimizedRMSD -1
REMARK  1 active torsions:
REMARK  status: ('A' for Active; 'I' for Inactive)
REMARK    1  A    between atoms: C1_2  and  C2_3 
ROOT
ATOM      1  C2  UNL d   1      -0.236  -0.193  -0.333  0.00  0.00    -0.081 A 
ATOM      2  C3  UNL d   1      -0.621   1.104   0.026  0.00  0.00     0.006 A 
ATOM      3  C4  UNL d   1      -1.428   1.864  -0.825  0.00  0.00     0.002 A 
ATOM      4  C5  UNL d   1      -1.869   1.337  -2.043  0.00  0.00    -0.080 A 
ATOM      5  C6  UNL d   1      -2.761   2.131  -2.951  0.00  0.00     0.076 C 
ATOM      6  C7  UNL d   1      -1.470   0.047  -2.410  0.00  0.00     0.002 A 
ATOM      7  C8  UNL d   1      -0.663  -0.713  -1.560  0.00  0.00     0.006 A 
ENDROOT
BRANCH   1   8
ATOM      8  C1  UNL d   1       0.580  -1.039   0.610  0.00  0.00     0.054 C 
ATOM      9  C   UNL d   1       0.642  -2.487   0.144  0.00  0.00     0.018 C 
ENDBRANCH   1   8
TORSDOF 1
ENDMDL
