MODEL 1
REMARK minimizedAffinity -3.08131766
REMARK minimizedRMSD -1
REMARK  1 active torsions:
REMARK  status: ('A' for Active; 'I' for Inactive)
REMARK    1  A    between atoms: C1_2  and  C2_3 
ROOT
ATOM      1  C2  UNL d   1      -1.026   0.436  -0.546  0.00  0.00    -0.081 A 
ATOM      2  C3  UNL d   1      -1.120  -0.816   0.075  0.00  0.00     0.006 A 
ATOM      3  C4  UNL d   1      -0.003  -1.385   0.692  0.00  0.00     0.002 A 
ATOM      4  C5  UNL d   1       1.222  -0.710   0.705  0.00  0.00    -0.080 A 
ATOM      5  C6  UNL d   1       2.421  -1.297   1.390  0.00  0.00     0.076 C 
ATOM      6  C7  UNL d   1       1.320   0.532   0.069  0.00  0.00     0.002 A 
ATOM      7  C8  UNL d   1       0.204   1.102  -0.548  0.00  0.00     0.006 A 
ENDROOT
BRANCH   1   8
ATOM      8  C1  UNL d   1      -2.244   1.082  -1.155  0.00  0.00     0.054 C 
ATOM      9  C   UNL d   1      -1.883   1.880  -2.400  0.00  0.00     0.018 C 
ENDBRANCH   1   8
TORSDOF 1
ENDMDL
