MODEL 1
REMARK minimizedAffinity -3.58491278
REMARK minimizedRMSD -1
REMARK  1 active torsions:
REMARK  status: ('A' for Active; 'I' for Inactive)
REMARK    1  A    between atoms: C1_2  and  C2_3 
ROOT
ATOM      1  C2  UNL d   1      -0.249   0.464  -0.605  0.00  0.00    -0.081 A 
ATOM      2  C3  UNL d   1       1.099   0.099  -0.708  0.00  0.00     0.006 A 
ATOM      3  C4  UNL d   1       1.571  -1.054  -0.076  0.00  0.00     0.002 A 
ATOM      4  C5  UNL d   1       0.702  -1.865   0.662  0.00  0.00    -0.080 A 
ATOM      5  C6  UNL d   1       1.189  -3.121   1.320  0.00  0.00     0.076 C 
ATOM      6  C7  UNL d   1      -0.641  -1.491   0.780  0.00  0.00     0.002 A 
ATOM      7  C8  UNL d   1      -1.113  -0.338   0.149  0.00  0.00     0.006 A 
ENDROOT
BRANCH   1   8
ATOM      8  C1  UNL d   1      -0.774   1.671  -1.339  0.00  0.00     0.054 C 
ATOM      9  C   UNL d   1      -1.711   1.268  -2.468  0.00  0.00     0.018 C 
ENDBRANCH   1   8
TORSDOF 1
ENDMDL
