MODEL 1
REMARK minimizedAffinity -5.63854027
REMARK minimizedRMSD -1
REMARK  1 active torsions:
REMARK  status: ('A' for Active; 'I' for Inactive)
REMARK    1  A    between atoms: C1_2  and  C2_3 
ROOT
ATOM      1  C2  UNL d   1      -0.507   0.533  -0.259  0.00  0.00    -0.081 A 
ATOM      2  C3  UNL d   1       0.680   0.028  -0.803  0.00  0.00     0.006 A 
ATOM      3  C4  UNL d   1       1.271  -1.121  -0.270  0.00  0.00     0.002 A 
ATOM      4  C5  UNL d   1       0.681  -1.786   0.810  0.00  0.00    -0.080 A 
ATOM      5  C6  UNL d   1       1.289  -3.037   1.372  0.00  0.00     0.076 C 
ATOM      6  C7  UNL d   1      -0.495  -1.271   1.365  0.00  0.00     0.002 A 
ATOM      7  C8  UNL d   1      -1.086  -0.123   0.833  0.00  0.00     0.006 A 
ENDROOT
BRANCH   1   8
ATOM      8  C1  UNL d   1      -1.181   1.734  -0.872  0.00  0.00     0.054 C 
ATOM      9  C   UNL d   1      -2.042   1.336  -2.063  0.00  0.00     0.018 C 
ENDBRANCH   1   8
TORSDOF 1
ENDMDL
