MODEL 1
REMARK minimizedAffinity -4.93494797
REMARK minimizedRMSD -1
REMARK  1 active torsions:
REMARK  status: ('A' for Active; 'I' for Inactive)
REMARK    1  A    between atoms: C1_2  and  C2_3 
ROOT
ATOM      1  C2  UNL d   1      -0.546   0.729  -0.620  0.00  0.00    -0.081 A 
ATOM      2  C3  UNL d   1       0.766   0.845  -0.146  0.00  0.00     0.006 A 
ATOM      3  C4  UNL d   1       1.480  -0.290   0.245  0.00  0.00     0.002 A 
ATOM      4  C5  UNL d   1       0.898  -1.559   0.161  0.00  0.00    -0.080 A 
ATOM      5  C6  UNL d   1       1.664  -2.789   0.549  0.00  0.00     0.076 C 
ATOM      6  C7  UNL d   1      -0.420  -1.673  -0.296  0.00  0.00     0.002 A 
ATOM      7  C8  UNL d   1      -1.135  -0.539  -0.686  0.00  0.00     0.006 A 
ENDROOT
BRANCH   1   8
ATOM      8  C1  UNL d   1      -1.297   1.944  -1.104  0.00  0.00     0.054 C 
ATOM      9  C   UNL d   1      -2.389   1.563  -2.093  0.00  0.00     0.018 C 
ENDBRANCH   1   8
TORSDOF 1
ENDMDL
