MODEL 1
REMARK minimizedAffinity -4.21865225
REMARK minimizedRMSD -1
REMARK  1 active torsions:
REMARK  status: ('A' for Active; 'I' for Inactive)
REMARK    1  A    between atoms: C1_2  and  C2_3 
ROOT
ATOM      1  C2  UNL d   1      -0.231   0.433   0.024  0.00  0.00    -0.081 A 
ATOM      2  C3  UNL d   1       1.122   0.179  -0.232  0.00  0.00     0.006 A 
ATOM      3  C4  UNL d   1       1.726  -0.986   0.245  0.00  0.00     0.002 A 
ATOM      4  C5  UNL d   1       0.987  -1.920   0.979  0.00  0.00    -0.080 A 
ATOM      5  C6  UNL d   1       1.617  -3.189   1.471  0.00  0.00     0.076 C 
ATOM      6  C7  UNL d   1      -0.360  -1.658   1.250  0.00  0.00     0.002 A 
ATOM      7  C8  UNL d   1      -0.965  -0.493   0.773  0.00  0.00     0.006 A 
ENDROOT
BRANCH   1   8
ATOM      8  C1  UNL d   1      -0.903   1.657  -0.544  0.00  0.00     0.054 C 
ATOM      9  C   UNL d   1      -1.497   1.376  -1.916  0.00  0.00     0.018 C 
ENDBRANCH   1   8
TORSDOF 1
ENDMDL
