MODEL 1
REMARK minimizedAffinity -4.06241083
REMARK minimizedRMSD -1
REMARK  1 active torsions:
REMARK  status: ('A' for Active; 'I' for Inactive)
REMARK    1  A    between atoms: C1_2  and  C2_3 
ROOT
ATOM      1  C2  UNL d   1      -0.196   0.907  -0.722  0.00  0.00    -0.081 A 
ATOM      2  C3  UNL d   1       1.111   0.502  -1.019  0.00  0.00     0.006 A 
ATOM      3  C4  UNL d   1       1.667  -0.614  -0.388  0.00  0.00     0.002 A 
ATOM      4  C5  UNL d   1       0.924  -1.347   0.542  0.00  0.00    -0.080 A 
ATOM      5  C6  UNL d   1       1.498  -2.565   1.203  0.00  0.00     0.076 C 
ATOM      6  C7  UNL d   1      -0.376  -0.933   0.851  0.00  0.00     0.002 A 
ATOM      7  C8  UNL d   1      -0.932   0.183   0.222  0.00  0.00     0.006 A 
ENDROOT
BRANCH   1   8
ATOM      8  C1  UNL d   1      -0.821   2.071  -1.448  0.00  0.00     0.054 C 
ATOM      9  C   UNL d   1      -1.260   1.677  -2.851  0.00  0.00     0.018 C 
ENDBRANCH   1   8
TORSDOF 1
ENDMDL
