MODEL 1
REMARK minimizedAffinity 3.95365357
REMARK minimizedRMSD -1
REMARK  1 active torsions:
REMARK  status: ('A' for Active; 'I' for Inactive)
REMARK    1  A    between atoms: C1_2  and  C2_3 
ROOT
ATOM      1  C2  UNL d   1      -1.118   0.867  -1.649  0.00  0.00    -0.081 A 
ATOM      2  C3  UNL d   1      -0.145   1.528  -0.889  0.00  0.00     0.006 A 
ATOM      3  C4  UNL d   1       0.217   1.047   0.371  0.00  0.00     0.002 A 
ATOM      4  C5  UNL d   1      -0.380  -0.108   0.888  0.00  0.00    -0.080 A 
ATOM      5  C6  UNL d   1       0.022  -0.653   2.227  0.00  0.00     0.076 C 
ATOM      6  C7  UNL d   1      -1.364  -0.759   0.137  0.00  0.00     0.002 A 
ATOM      7  C8  UNL d   1      -1.728  -0.277  -1.123  0.00  0.00     0.006 A 
ENDROOT
BRANCH   1   8
ATOM      8  C1  UNL d   1      -1.465   1.347  -3.036  0.00  0.00     0.054 C 
ATOM      9  C   UNL d   1      -2.804   0.789  -3.495  0.00  0.00     0.018 C 
ENDBRANCH   1   8
TORSDOF 1
ENDMDL
