MODEL 1
REMARK minimizedAffinity -3.5945437
REMARK minimizedRMSD -1
REMARK  1 active torsions:
REMARK  status: ('A' for Active; 'I' for Inactive)
REMARK    1  A    between atoms: C1_2  and  C2_3 
ROOT
ATOM      1  C2  UNL d   1      -1.003   0.800  -1.178  0.00  0.00    -0.081 A 
ATOM      2  C3  UNL d   1      -0.347   1.202  -0.008  0.00  0.00     0.006 A 
ATOM      3  C4  UNL d   1       0.470   0.309   0.689  0.00  0.00     0.002 A 
ATOM      4  C5  UNL d   1       0.651  -0.998   0.224  0.00  0.00    -0.080 A 
ATOM      5  C6  UNL d   1       1.549  -1.958   0.946  0.00  0.00     0.076 C 
ATOM      6  C7  UNL d   1      -0.019  -1.406  -0.935  0.00  0.00     0.002 A 
ATOM      7  C8  UNL d   1      -0.836  -0.513  -1.631  0.00  0.00     0.006 A 
ENDROOT
BRANCH   1   8
ATOM      8  C1  UNL d   1      -1.833   1.780  -1.967  0.00  0.00     0.054 C 
ATOM      9  C   UNL d   1      -2.243   1.200  -3.313  0.00  0.00     0.018 C 
ENDBRANCH   1   8
TORSDOF 1
ENDMDL
