MODEL 1
REMARK minimizedAffinity -2.28567052
REMARK minimizedRMSD -1
REMARK  0 active torsions:
REMARK  status: ('A' for Active; 'I' for Inactive)
ROOT
ATOM      1  C   UNL d   1      -2.651  -1.054  -3.079  0.00  0.00     0.172 C 
ATOM      2  N   UNL d   1      -3.501  -0.546  -4.130  0.00  0.00    -0.070 N 
ATOM      3  C1  UNL d   1      -3.077   0.127  -5.245  0.00  0.00    -0.004 A 
ATOM      4  C2  UNL d   1      -4.188   0.440  -5.998  0.00  0.00    -0.047 A 
ATOM      5  C3  UNL d   1      -5.320  -0.062  -5.311  0.00  0.00    -0.047 A 
ATOM      6  C4  UNL d   1      -4.865  -0.667  -4.159  0.00  0.00    -0.004 A 
ENDROOT
TORSDOF 0
ENDMDL
