MODEL 1
REMARK minimizedAffinity -1.42832041
REMARK minimizedRMSD -1
REMARK  0 active torsions:
REMARK  status: ('A' for Active; 'I' for Inactive)
ROOT
ATOM      1  C   UNL d   1      -4.736   0.376  -5.952  0.00  0.00     0.172 C 
ATOM      2  N   UNL d   1      -4.240  -0.332  -4.795  0.00  0.00    -0.070 N 
ATOM      3  C1  UNL d   1      -4.997  -1.072  -3.928  0.00  0.00    -0.004 A 
ATOM      4  C2  UNL d   1      -4.156  -1.584  -2.964  0.00  0.00    -0.047 A 
ATOM      5  C3  UNL d   1      -2.847  -1.134  -3.262  0.00  0.00    -0.047 A 
ATOM      6  C4  UNL d   1      -2.929  -0.361  -4.401  0.00  0.00    -0.004 A 
ENDROOT
TORSDOF 0
ENDMDL
