MODEL 1
REMARK minimizedAffinity 6.34323025
REMARK minimizedRMSD -1
REMARK  0 active torsions:
REMARK  status: ('A' for Active; 'I' for Inactive)
ROOT
ATOM      1  C   UNL d   1       2.247  -1.898   0.187  0.00  0.00     0.172 C 
ATOM      2  N   UNL d   1       2.539  -0.499  -0.017  0.00  0.00    -0.070 N 
ATOM      3  C1  UNL d   1       3.753   0.018  -0.382  0.00  0.00    -0.004 A 
ATOM      4  C2  UNL d   1       3.619   1.387  -0.472  0.00  0.00    -0.047 A 
ATOM      5  C3  UNL d   1       2.278   1.703  -0.149  0.00  0.00    -0.047 A 
ATOM      6  C4  UNL d   1       1.632   0.517   0.129  0.00  0.00    -0.004 A 
ENDROOT
TORSDOF 0
ENDMDL
