MODEL 1
REMARK minimizedAffinity 0.839658618
REMARK minimizedRMSD -1
REMARK  0 active torsions:
REMARK  status: ('A' for Active; 'I' for Inactive)
ROOT
ATOM      1  C   UNL d   1      -5.988   4.914  -5.563  0.00  0.00     0.172 C 
ATOM      2  N   UNL d   1      -4.549   4.875  -5.676  0.00  0.00    -0.070 N 
ATOM      3  C1  UNL d   1      -3.745   5.936  -5.996  0.00  0.00    -0.004 A 
ATOM      4  C2  UNL d   1      -2.441   5.491  -6.000  0.00  0.00    -0.047 A 
ATOM      5  C3  UNL d   1      -2.462   4.115  -5.672  0.00  0.00    -0.047 A 
ATOM      6  C4  UNL d   1      -3.780   3.760  -5.476  0.00  0.00    -0.004 A 
ENDROOT
TORSDOF 0
ENDMDL
