MODEL 1
REMARK minimizedAffinity 0.199603185
REMARK minimizedRMSD -1
REMARK  0 active torsions:
REMARK  status: ('A' for Active; 'I' for Inactive)
ROOT
ATOM      1  C   UNL d   1      -2.384   0.518  -5.993  0.00  0.00     0.172 C 
ATOM      2  N   UNL d   1      -3.164  -0.188  -5.003  0.00  0.00    -0.070 N 
ATOM      3  C1  UNL d   1      -2.706  -1.191  -4.192  0.00  0.00    -0.004 A 
ATOM      4  C2  UNL d   1      -3.752  -1.599  -3.393  0.00  0.00    -0.047 A 
ATOM      5  C3  UNL d   1      -4.878  -0.814  -3.737  0.00  0.00    -0.047 A 
ATOM      6  C4  UNL d   1      -4.486   0.051  -4.736  0.00  0.00    -0.004 A 
ENDROOT
TORSDOF 0
ENDMDL
