MODEL 1
REMARK minimizedAffinity -2.45411539
REMARK minimizedRMSD -1
REMARK  0 active torsions:
REMARK  status: ('A' for Active; 'I' for Inactive)
ROOT
ATOM      1  C   UNL d   1      -2.252   0.368  -6.000  0.00  0.00     0.172 C 
ATOM      2  N   UNL d   1      -3.281  -0.125  -5.115  0.00  0.00    -0.070 N 
ATOM      3  C1  UNL d   1      -3.077  -0.919  -4.018  0.00  0.00    -0.004 A 
ATOM      4  C2  UNL d   1      -4.304  -1.170  -3.444  0.00  0.00    -0.047 A 
ATOM      5  C3  UNL d   1      -5.280  -0.504  -4.224  0.00  0.00    -0.047 A 
ATOM      6  C4  UNL d   1      -4.619   0.134  -5.252  0.00  0.00    -0.004 A 
ENDROOT
TORSDOF 0
ENDMDL
