MODEL 1
REMARK minimizedAffinity -4.99517441
REMARK minimizedRMSD -1
REMARK  0 active torsions:
REMARK  status: ('A' for Active; 'I' for Inactive)
ROOT
ATOM      1  C   UNL d   1       0.301   1.478  -0.781  0.00  0.00     0.077 C 
ATOM      2  C1  UNL d   1      -0.121   0.261  -0.013  0.00  0.00    -0.074 A 
ATOM      3  C2  UNL d   1       0.440  -0.991  -0.287  0.00  0.00    -0.005 A 
ATOM      4  C3  UNL d   1       0.045  -2.113   0.442  0.00  0.00     0.006 A 
ATOM      5  C4  UNL d   1      -0.913  -1.995   1.449  0.00  0.00    -0.005 A 
ATOM      6  C5  UNL d   1      -1.484  -0.751   1.738  0.00  0.00    -0.074 A 
ATOM      7  C6  UNL d   1      -2.508  -0.605   2.824  0.00  0.00     0.077 C 
ATOM      8  C7  UNL d   1      -1.077   0.373   1.006  0.00  0.00    -0.001 A 
ENDROOT
TORSDOF 0
ENDMDL
