MODEL 1
REMARK minimizedAffinity -1.90157819
REMARK minimizedRMSD -1
REMARK  0 active torsions:
REMARK  status: ('A' for Active; 'I' for Inactive)
ROOT
ATOM      1  C   UNL d   1      -2.355  -0.747   2.888  0.00  0.00     0.077 C 
ATOM      2  C1  UNL d   1      -1.366  -0.996   1.788  0.00  0.00    -0.074 A 
ATOM      3  C2  UNL d   1      -1.032  -2.298   1.403  0.00  0.00    -0.005 A 
ATOM      4  C3  UNL d   1      -0.117  -2.514   0.373  0.00  0.00     0.006 A 
ATOM      5  C4  UNL d   1       0.472  -1.432  -0.282  0.00  0.00    -0.005 A 
ATOM      6  C5  UNL d   1       0.149  -0.123   0.088  0.00  0.00    -0.074 A 
ATOM      7  C6  UNL d   1       0.765   1.052  -0.612  0.00  0.00     0.077 C 
ATOM      8  C7  UNL d   1      -0.776   0.086   1.120  0.00  0.00    -0.001 A 
ENDROOT
TORSDOF 0
ENDMDL
