MODEL 1
REMARK minimizedAffinity -1.58376324
REMARK minimizedRMSD -1
REMARK  0 active torsions:
REMARK  status: ('A' for Active; 'I' for Inactive)
ROOT
ATOM      1  C   UNL d   1      -2.246  -0.957   2.905  0.00  0.00     0.077 C 
ATOM      2  C1  UNL d   1      -1.216  -1.072   1.822  0.00  0.00    -0.074 A 
ATOM      3  C2  UNL d   1      -0.597  -2.296   1.546  0.00  0.00    -0.005 A 
ATOM      4  C3  UNL d   1       0.353  -2.390   0.528  0.00  0.00     0.006 A 
ATOM      5  C4  UNL d   1       0.692  -1.264  -0.222  0.00  0.00    -0.005 A 
ATOM      6  C5  UNL d   1       0.083  -0.032   0.038  0.00  0.00    -0.074 A 
ATOM      7  C6  UNL d   1       0.429   1.185  -0.766  0.00  0.00     0.077 C 
ATOM      8  C7  UNL d   1      -0.875   0.053   1.058  0.00  0.00    -0.001 A 
ENDROOT
TORSDOF 0
ENDMDL
