MODEL 1
REMARK minimizedAffinity -4.29824209
REMARK minimizedRMSD -1
REMARK  0 active torsions:
REMARK  status: ('A' for Active; 'I' for Inactive)
ROOT
ATOM      1  C   UNL d   1      -2.182  -3.020  -1.983  0.00  0.00     0.077 C 
ATOM      2  C1  UNL d   1      -1.606  -2.332  -0.782  0.00  0.00    -0.074 A 
ATOM      3  C2  UNL d   1      -1.705  -2.903   0.491  0.00  0.00    -0.005 A 
ATOM      4  C3  UNL d   1      -1.156  -2.256   1.597  0.00  0.00     0.006 A 
ATOM      5  C4  UNL d   1      -0.503  -1.032   1.443  0.00  0.00    -0.005 A 
ATOM      6  C5  UNL d   1      -0.394  -0.445   0.178  0.00  0.00    -0.074 A 
ATOM      7  C6  UNL d   1       0.312   0.865  -0.007  0.00  0.00     0.077 C 
ATOM      8  C7  UNL d   1      -0.942  -1.106  -0.930  0.00  0.00    -0.001 A 
ENDROOT
TORSDOF 0
ENDMDL
