MODEL 1
REMARK minimizedAffinity -4.71769953
REMARK minimizedRMSD -1
REMARK  0 active torsions:
REMARK  status: ('A' for Active; 'I' for Inactive)
ROOT
ATOM      1  C   UNL d   1      -1.752  -2.537   0.779  0.00  0.00     0.077 C 
ATOM      2  C1  UNL d   1      -0.715  -1.466   0.615  0.00  0.00    -0.074 A 
ATOM      3  C2  UNL d   1       0.633  -1.792   0.435  0.00  0.00    -0.005 A 
ATOM      4  C3  UNL d   1       1.585  -0.785   0.274  0.00  0.00     0.006 A 
ATOM      5  C4  UNL d   1       1.199   0.556   0.291  0.00  0.00    -0.005 A 
ATOM      6  C5  UNL d   1      -0.144   0.901   0.468  0.00  0.00    -0.074 A 
ATOM      7  C6  UNL d   1      -0.577   2.337   0.479  0.00  0.00     0.077 C 
ATOM      8  C7  UNL d   1      -1.096  -0.116   0.623  0.00  0.00    -0.001 A 
ENDROOT
TORSDOF 0
ENDMDL
