MODEL 1
REMARK minimizedAffinity -5.11287069
REMARK minimizedRMSD -1
REMARK  0 active torsions:
REMARK  status: ('A' for Active; 'I' for Inactive)
ROOT
ATOM      1  C   UNL d   1      -3.004  -0.080   0.991  0.00  0.00     0.077 C 
ATOM      2  C1  UNL d   1      -1.598  -0.408   0.584  0.00  0.00    -0.074 A 
ATOM      3  C2  UNL d   1      -1.050  -1.668   0.843  0.00  0.00    -0.005 A 
ATOM      4  C3  UNL d   1       0.256  -1.962   0.450  0.00  0.00     0.006 A 
ATOM      5  C4  UNL d   1       1.026  -0.999  -0.204  0.00  0.00    -0.005 A 
ATOM      6  C5  UNL d   1       0.494   0.266  -0.473  0.00  0.00    -0.074 A 
ATOM      7  C6  UNL d   1       1.305   1.309  -1.184  0.00  0.00     0.077 C 
ATOM      8  C7  UNL d   1      -0.821   0.551  -0.081  0.00  0.00    -0.001 A 
ENDROOT
TORSDOF 0
ENDMDL
