MODEL 1
REMARK minimizedAffinity -2.62692332
REMARK minimizedRMSD -1
REMARK  0 active torsions:
REMARK  status: ('A' for Active; 'I' for Inactive)
ROOT
ATOM      1  C   UNL d   1       0.613  -2.449   3.194  0.00  0.00     0.077 C 
ATOM      2  C1  UNL d   1       0.020  -2.132   1.853  0.00  0.00    -0.074 A 
ATOM      3  C2  UNL d   1      -0.945  -2.965   1.278  0.00  0.00    -0.005 A 
ATOM      4  C3  UNL d   1      -1.494  -2.652   0.035  0.00  0.00     0.006 A 
ATOM      5  C4  UNL d   1      -1.084  -1.504  -0.645  0.00  0.00    -0.005 A 
ATOM      6  C5  UNL d   1      -0.121  -0.658  -0.086  0.00  0.00    -0.074 A 
ATOM      7  C6  UNL d   1       0.323   0.584  -0.799  0.00  0.00     0.077 C 
ATOM      8  C7  UNL d   1       0.421  -0.976   1.167  0.00  0.00    -0.001 A 
ENDROOT
TORSDOF 0
ENDMDL
