MODEL 1
REMARK minimizedAffinity 0.995380163
REMARK minimizedRMSD -1
REMARK  0 active torsions:
REMARK  status: ('A' for Active; 'I' for Inactive)
ROOT
ATOM      1  C   UNL d   1      -2.560  -3.500   1.797  0.00  0.00     0.077 C 
ATOM      2  C1  UNL d   1      -1.727  -2.325   1.378  0.00  0.00    -0.074 A 
ATOM      3  C2  UNL d   1      -0.446  -2.504   0.846  0.00  0.00    -0.005 A 
ATOM      4  C3  UNL d   1       0.312  -1.402   0.452  0.00  0.00     0.006 A 
ATOM      5  C4  UNL d   1      -0.201  -0.112   0.585  0.00  0.00    -0.005 A 
ATOM      6  C5  UNL d   1      -1.480   0.087   1.114  0.00  0.00    -0.074 A 
ATOM      7  C6  UNL d   1      -2.051   1.467   1.256  0.00  0.00     0.077 C 
ATOM      8  C7  UNL d   1      -2.239  -1.025   1.502  0.00  0.00    -0.001 A 
ENDROOT
TORSDOF 0
ENDMDL
