MODEL 1
REMARK minimizedAffinity -4.7603879
REMARK minimizedRMSD -1
REMARK  0 active torsions:
REMARK  status: ('A' for Active; 'I' for Inactive)
ROOT
ATOM      1  C   UNL d   1      -1.148  -2.945   0.807  0.00  0.00     0.077 C 
ATOM      2  C1  UNL d   1      -1.144  -1.458   0.616  0.00  0.00    -0.074 A 
ATOM      3  C2  UNL d   1      -2.161  -0.661   1.152  0.00  0.00    -0.005 A 
ATOM      4  C3  UNL d   1      -2.139   0.722   0.974  0.00  0.00     0.006 A 
ATOM      5  C4  UNL d   1      -1.101   1.322   0.261  0.00  0.00    -0.005 A 
ATOM      6  C5  UNL d   1      -0.074   0.542  -0.281  0.00  0.00    -0.074 A 
ATOM      7  C6  UNL d   1       1.054   1.172  -1.042  0.00  0.00     0.077 C 
ATOM      8  C7  UNL d   1      -0.100  -0.847  -0.093  0.00  0.00    -0.001 A 
ENDROOT
TORSDOF 0
ENDMDL
