MODEL 1
REMARK minimizedAffinity -0.478489518
REMARK minimizedRMSD -1
REMARK  0 active torsions:
REMARK  status: ('A' for Active; 'I' for Inactive)
ROOT
ATOM      1  C   UNL d   1      -2.340   0.708   1.492  0.00  0.00     0.077 C 
ATOM      2  C1  UNL d   1      -1.137  -0.067   1.044  0.00  0.00    -0.074 A 
ATOM      3  C2  UNL d   1      -0.965  -1.405   1.415  0.00  0.00    -0.005 A 
ATOM      4  C3  UNL d   1       0.155  -2.116   0.984  0.00  0.00     0.006 A 
ATOM      5  C4  UNL d   1       1.112  -1.498   0.178  0.00  0.00    -0.005 A 
ATOM      6  C5  UNL d   1       0.957  -0.162  -0.204  0.00  0.00    -0.074 A 
ATOM      7  C6  UNL d   1       1.971   0.515  -1.077  0.00  0.00     0.077 C 
ATOM      8  C7  UNL d   1      -0.174   0.544   0.228  0.00  0.00    -0.001 A 
ENDROOT
TORSDOF 0
ENDMDL
