MODEL 1
REMARK minimizedAffinity -2.05692029
REMARK minimizedRMSD -1
REMARK  0 active torsions:
REMARK  status: ('A' for Active; 'I' for Inactive)
ROOT
ATOM      1  C   UNL d   1      -1.608   2.141   0.674  0.00  0.00     0.077 C 
ATOM      2  C1  UNL d   1      -0.818   0.883   0.468  0.00  0.00    -0.074 A 
ATOM      3  C2  UNL d   1       0.439   0.916  -0.145  0.00  0.00    -0.005 A 
ATOM      4  C3  UNL d   1       1.166  -0.262  -0.321  0.00  0.00     0.006 A 
ATOM      5  C4  UNL d   1       0.644  -1.481   0.112  0.00  0.00    -0.005 A 
ATOM      6  C5  UNL d   1      -0.611  -1.533   0.727  0.00  0.00    -0.074 A 
ATOM      7  C6  UNL d   1      -1.182  -2.834   1.207  0.00  0.00     0.077 C 
ATOM      8  C7  UNL d   1      -1.332  -0.345   0.907  0.00  0.00    -0.001 A 
ENDROOT
TORSDOF 0
ENDMDL
