MODEL 1
REMARK minimizedAffinity -2.7980299
REMARK minimizedRMSD -1
REMARK  0 active torsions:
REMARK  status: ('A' for Active; 'I' for Inactive)
ROOT
ATOM      1  C   UNL d   1       0.420  -1.804   0.591  0.00  0.00     0.077 C 
ATOM      2  C1  UNL d   1       0.145  -0.364   0.274  0.00  0.00    -0.074 A 
ATOM      3  C2  UNL d   1      -0.669   0.412   1.105  0.00  0.00    -0.005 A 
ATOM      4  C3  UNL d   1      -0.909   1.752   0.802  0.00  0.00     0.006 A 
ATOM      5  C4  UNL d   1      -0.337   2.329  -0.333  0.00  0.00    -0.005 A 
ATOM      6  C5  UNL d   1       0.480   1.569  -1.175  0.00  0.00    -0.074 A 
ATOM      7  C6  UNL d   1       1.110   2.176  -2.393  0.00  0.00     0.077 C 
ATOM      8  C7  UNL d   1       0.722   0.225  -0.860  0.00  0.00    -0.001 A 
ENDROOT
TORSDOF 0
ENDMDL
