MODEL 1
REMARK minimizedAffinity -5.61712742
REMARK minimizedRMSD -1
REMARK  0 active torsions:
REMARK  status: ('A' for Active; 'I' for Inactive)
ROOT
ATOM      1  C   UNL d   1      -3.587  -0.459   1.999  0.00  0.00     0.077 C 
ATOM      2  C1  UNL d   1      -2.231  -0.850   1.492  0.00  0.00    -0.074 A 
ATOM      3  C2  UNL d   1      -1.870  -2.195   1.370  0.00  0.00    -0.005 A 
ATOM      4  C3  UNL d   1      -0.608  -2.544   0.888  0.00  0.00     0.006 A 
ATOM      5  C4  UNL d   1       0.304  -1.552   0.524  0.00  0.00    -0.005 A 
ATOM      6  C5  UNL d   1      -0.040  -0.201   0.639  0.00  0.00    -0.074 A 
ATOM      7  C6  UNL d   1       0.924   0.877   0.243  0.00  0.00     0.077 C 
ATOM      8  C7  UNL d   1      -1.312   0.141   1.117  0.00  0.00    -0.001 A 
ENDROOT
TORSDOF 0
ENDMDL
