MODEL 1
REMARK minimizedAffinity -4.11644506
REMARK minimizedRMSD -1
REMARK  0 active torsions:
REMARK  status: ('A' for Active; 'I' for Inactive)
ROOT
ATOM      1  C   UNL d   1      -0.871   1.920   0.397  0.00  0.00     0.077 C 
ATOM      2  C1  UNL d   1      -0.522   0.462   0.412  0.00  0.00    -0.074 A 
ATOM      3  C2  UNL d   1       0.775   0.030   0.112  0.00  0.00    -0.005 A 
ATOM      4  C3  UNL d   1       1.087  -1.329   0.139  0.00  0.00     0.006 A 
ATOM      5  C4  UNL d   1       0.109  -2.269   0.465  0.00  0.00    -0.005 A 
ATOM      6  C5  UNL d   1      -1.192  -1.856   0.769  0.00  0.00    -0.074 A 
ATOM      7  C6  UNL d   1      -2.253  -2.852   1.132  0.00  0.00     0.077 C 
ATOM      8  C7  UNL d   1      -1.497  -0.488   0.747  0.00  0.00    -0.001 A 
ENDROOT
TORSDOF 0
ENDMDL
