MODEL 1
REMARK minimizedAffinity 5.68377066
REMARK minimizedRMSD -1
REMARK  0 active torsions:
REMARK  status: ('A' for Active; 'I' for Inactive)
ROOT
ATOM      1  C   UNL d   1      -6.000  -0.800  -5.321  0.00  0.00     0.077 C 
ATOM      2  C1  UNL d   1      -5.451  -1.210  -3.987  0.00  0.00    -0.074 A 
ATOM      3  C2  UNL d   1      -4.432  -2.163  -3.890  0.00  0.00    -0.005 A 
ATOM      4  C3  UNL d   1      -3.926  -2.527  -2.643  0.00  0.00     0.006 A 
ATOM      5  C4  UNL d   1      -4.432  -1.943  -1.481  0.00  0.00    -0.005 A 
ATOM      6  C5  UNL d   1      -5.451  -0.988  -1.558  0.00  0.00    -0.074 A 
ATOM      7  C6  UNL d   1      -6.000  -0.343  -0.320  0.00  0.00     0.077 C 
ATOM      8  C7  UNL d   1      -5.950  -0.622  -2.816  0.00  0.00    -0.001 A 
ENDROOT
TORSDOF 0
ENDMDL
