MODEL 1
REMARK minimizedAffinity 2.01093078
REMARK minimizedRMSD -1
REMARK  0 active torsions:
REMARK  status: ('A' for Active; 'I' for Inactive)
ROOT
ATOM      1  C   UNL d   1       1.374   1.053   0.973  0.00  0.00     0.023 A 
ATOM      2  C1  UNL d   1       1.602  -0.223   0.458  0.00  0.00     0.003 A 
ATOM      3  C2  UNL d   1       1.104  -0.570  -0.799  0.00  0.00     0.048 A 
ATOM      4  C3  UNL d   1       0.379   0.365  -1.537  0.00  0.00     0.023 A 
ATOM      5  C4  UNL d   1       0.149   1.643  -1.027  0.00  0.00     0.048 A 
ATOM      6  C5  UNL d   1       0.648   1.985   0.231  0.00  0.00     0.003 A 
ATOM      7  I   UNL d   1      -0.364  -0.149  -3.409  0.00  0.00    -0.146 I 
ENDROOT
TORSDOF 0
ENDMDL
