MODEL 1
REMARK minimizedAffinity 4.88698149
REMARK minimizedRMSD -1
REMARK  0 active torsions:
REMARK  status: ('A' for Active; 'I' for Inactive)
ROOT
ATOM      1  C   UNL d   1       1.692  -1.487  -0.036  0.00  0.00     0.023 A 
ATOM      2  C1  UNL d   1       1.709  -0.804   1.180  0.00  0.00     0.003 A 
ATOM      3  C2  UNL d   1       1.334   0.540   1.233  0.00  0.00     0.048 A 
ATOM      4  C3  UNL d   1       0.941   1.194   0.067  0.00  0.00     0.023 A 
ATOM      5  C4  UNL d   1       0.921   0.515  -1.153  0.00  0.00     0.048 A 
ATOM      6  C5  UNL d   1       1.299  -0.828  -1.201  0.00  0.00     0.003 A 
ATOM      7  I   UNL d   1       0.381   3.195   0.143  0.00  0.00    -0.146 I 
ENDROOT
TORSDOF 0
ENDMDL
