MODEL 1
REMARK minimizedAffinity 6.96629524
REMARK minimizedRMSD -1
REMARK  0 active torsions:
REMARK  status: ('A' for Active; 'I' for Inactive)
ROOT
ATOM      1  C   UNL d   1       1.222   4.722  -0.450  0.00  0.00     0.023 A 
ATOM      2  C1  UNL d   1       0.161   5.310  -1.139  0.00  0.00     0.003 A 
ATOM      3  C2  UNL d   1      -1.010   4.585  -1.371  0.00  0.00     0.048 A 
ATOM      4  C3  UNL d   1      -1.113   3.273  -0.910  0.00  0.00     0.023 A 
ATOM      5  C4  UNL d   1      -0.055   2.681  -0.219  0.00  0.00     0.048 A 
ATOM      6  C5  UNL d   1       1.114   3.409   0.009  0.00  0.00     0.003 A 
ATOM      7  I   UNL d   1      -2.855   2.191  -1.254  0.00  0.00    -0.146 I 
ENDROOT
TORSDOF 0
ENDMDL
