MODEL 1
REMARK minimizedAffinity 9.03602028
REMARK minimizedRMSD -1
REMARK  0 active torsions:
REMARK  status: ('A' for Active; 'I' for Inactive)
ROOT
ATOM      1  C   UNL d   1      -2.079   0.803  -4.408  0.00  0.00     0.023 A 
ATOM      2  C1  UNL d   1      -1.257   1.785  -4.961  0.00  0.00     0.003 A 
ATOM      3  C2  UNL d   1      -1.722   3.095  -5.090  0.00  0.00     0.048 A 
ATOM      4  C3  UNL d   1      -3.011   3.416  -4.664  0.00  0.00     0.023 A 
ATOM      5  C4  UNL d   1      -3.836   2.437  -4.110  0.00  0.00     0.048 A 
ATOM      6  C5  UNL d   1      -3.367   1.128  -3.983  0.00  0.00     0.003 A 
ATOM      7  I   UNL d   1      -3.706   5.366  -4.856  0.00  0.00    -0.146 I 
ENDROOT
TORSDOF 0
ENDMDL
