MODEL 1
REMARK minimizedAffinity 9.80880928
REMARK minimizedRMSD -1
REMARK  0 active torsions:
REMARK  status: ('A' for Active; 'I' for Inactive)
ROOT
ATOM      1  C   UNL d   1       0.768   1.079   0.617  0.00  0.00     0.023 A 
ATOM      2  C1  UNL d   1       1.567   2.032   1.248  0.00  0.00     0.003 A 
ATOM      3  C2  UNL d   1       1.633   3.333   0.746  0.00  0.00     0.048 A 
ATOM      4  C3  UNL d   1       0.896   3.675  -0.388  0.00  0.00     0.023 A 
ATOM      5  C4  UNL d   1       0.094   2.724  -1.022  0.00  0.00     0.048 A 
ATOM      6  C5  UNL d   1       0.032   1.424  -0.517  0.00  0.00     0.003 A 
ATOM      7  I   UNL d   1       0.992   5.611  -1.137  0.00  0.00    -0.146 I 
ENDROOT
TORSDOF 0
ENDMDL
