MODEL 1
REMARK minimizedAffinity 10.4802303
REMARK minimizedRMSD -1
REMARK  0 active torsions:
REMARK  status: ('A' for Active; 'I' for Inactive)
ROOT
ATOM      1  C   UNL d   1       1.061   5.999  -1.079  0.00  0.00     0.023 A 
ATOM      2  C1  UNL d   1       2.259   5.347  -0.789  0.00  0.00     0.003 A 
ATOM      3  C2  UNL d   1       2.243   4.037  -0.304  0.00  0.00     0.048 A 
ATOM      4  C3  UNL d   1       1.025   3.386  -0.112  0.00  0.00     0.023 A 
ATOM      5  C4  UNL d   1      -0.177   4.035  -0.402  0.00  0.00     0.048 A 
ATOM      6  C5  UNL d   1      -0.155   5.344  -0.886  0.00  0.00     0.003 A 
ATOM      7  I   UNL d   1       0.998   1.437   0.609  0.00  0.00    -0.146 I 
ENDROOT
TORSDOF 0
ENDMDL
