MODEL 1
REMARK minimizedAffinity 0.422327757
REMARK minimizedRMSD -1
REMARK  0 active torsions:
REMARK  status: ('A' for Active; 'I' for Inactive)
ROOT
ATOM      1  C   UNL d   1      -3.982   5.508  -5.889  0.00  0.00     0.023 A 
ATOM      2  C1  UNL d   1      -5.349   5.255  -5.999  0.00  0.00     0.003 A 
ATOM      3  C2  UNL d   1      -5.930   4.217  -5.267  0.00  0.00     0.048 A 
ATOM      4  C3  UNL d   1      -5.137   3.437  -4.426  0.00  0.00     0.023 A 
ATOM      5  C4  UNL d   1      -3.769   3.687  -4.311  0.00  0.00     0.048 A 
ATOM      6  C5  UNL d   1      -3.193   4.725  -5.046  0.00  0.00     0.003 A 
ATOM      7  I   UNL d   1      -5.999   1.892  -3.335  0.00  0.00    -0.146 I 
ENDROOT
TORSDOF 0
ENDMDL
