MODEL 1
REMARK minimizedAffinity 5.94714975
REMARK minimizedRMSD -1
REMARK  0 active torsions:
REMARK  status: ('A' for Active; 'I' for Inactive)
ROOT
ATOM      1  C   UNL d   1      -1.567   0.494  -4.423  0.00  0.00     0.023 A 
ATOM      2  C1  UNL d   1      -2.191   1.141  -3.356  0.00  0.00     0.003 A 
ATOM      3  C2  UNL d   1      -2.828   2.368  -3.558  0.00  0.00     0.048 A 
ATOM      4  C3  UNL d   1      -2.838   2.941  -4.829  0.00  0.00     0.023 A 
ATOM      5  C4  UNL d   1      -2.216   2.297  -5.900  0.00  0.00     0.048 A 
ATOM      6  C5  UNL d   1      -1.580   1.071  -5.693  0.00  0.00     0.003 A 
ATOM      7  I   UNL d   1      -3.786   4.766  -5.131  0.00  0.00    -0.146 I 
ENDROOT
TORSDOF 0
ENDMDL
