MODEL 1
REMARK minimizedAffinity -6.47860432
REMARK minimizedRMSD -1
REMARK  1 active torsions:
REMARK  status: ('A' for Active; 'I' for Inactive)
REMARK    1  A    between atoms: C1_2  and  C2_3 
ROOT
ATOM      1  C2  UNL d   1      -0.674   0.079   0.629  0.00  0.00    -0.073 A 
ATOM      2  C3  UNL d   1      -1.637   0.753   1.389  0.00  0.00    -0.002 A 
ATOM      3  C4  UNL d   1      -1.381   1.080   2.722  0.00  0.00     0.004 A 
ATOM      4  C5  UNL d   1      -0.159   0.744   3.305  0.00  0.00    -0.004 A 
ATOM      5  C6  UNL d   1       0.821   0.082   2.558  0.00  0.00    -0.075 A 
ATOM      6  C7  UNL d   1       2.139  -0.288   3.171  0.00  0.00     0.076 C 
ATOM      7  C8  UNL d   1       0.555  -0.246   1.221  0.00  0.00     0.001 A 
ENDROOT
BRANCH   1   8
ATOM      8  C1  UNL d   1      -0.943  -0.270  -0.812  0.00  0.00     0.053 C 
ATOM      9  C   UNL d   1       0.339  -0.549  -1.580  0.00  0.00     0.018 C 
ENDBRANCH   1   8
TORSDOF 1
ENDMDL
