MODEL 1
REMARK minimizedAffinity -6.14714336
REMARK minimizedRMSD -1
REMARK  1 active torsions:
REMARK  status: ('A' for Active; 'I' for Inactive)
REMARK    1  A    between atoms: C1_2  and  C2_3 
ROOT
ATOM      1  C2  UNL d   1      -0.465   0.543   1.021  0.00  0.00    -0.073 A 
ATOM      2  C3  UNL d   1      -1.198   0.941   2.145  0.00  0.00    -0.002 A 
ATOM      3  C4  UNL d   1      -0.628   0.877   3.417  0.00  0.00     0.004 A 
ATOM      4  C5  UNL d   1       0.680   0.421   3.577  0.00  0.00    -0.004 A 
ATOM      5  C6  UNL d   1       1.433   0.029   2.465  0.00  0.00    -0.075 A 
ATOM      6  C7  UNL d   1       2.840  -0.466   2.621  0.00  0.00     0.076 C 
ATOM      7  C8  UNL d   1       0.852   0.095   1.191  0.00  0.00     0.001 A 
ENDROOT
BRANCH   1   8
ATOM      8  C1  UNL d   1      -1.074   0.618  -0.356  0.00  0.00     0.053 C 
ATOM      9  C   UNL d   1      -2.335  -0.225  -0.467  0.00  0.00     0.018 C 
ENDBRANCH   1   8
TORSDOF 1
ENDMDL
