MODEL 1
REMARK minimizedAffinity -4.79875565
REMARK minimizedRMSD -1
REMARK  1 active torsions:
REMARK  status: ('A' for Active; 'I' for Inactive)
REMARK    1  A    between atoms: C1_2  and  C2_3 
ROOT
ATOM      1  C2  UNL d   1       0.345  -0.339  -2.597  0.00  0.00    -0.073 A 
ATOM      2  C3  UNL d   1      -0.327  -0.957  -3.658  0.00  0.00    -0.002 A 
ATOM      3  C4  UNL d   1      -0.453  -0.307  -4.887  0.00  0.00     0.004 A 
ATOM      4  C5  UNL d   1       0.097   0.962  -5.069  0.00  0.00    -0.004 A 
ATOM      5  C6  UNL d   1       0.783   1.590  -4.025  0.00  0.00    -0.075 A 
ATOM      6  C7  UNL d   1       1.378   2.956  -4.204  0.00  0.00     0.076 C 
ATOM      7  C8  UNL d   1       0.902   0.932  -2.793  0.00  0.00     0.001 A 
ENDROOT
BRANCH   1   8
ATOM      8  C1  UNL d   1       0.489  -1.040  -1.271  0.00  0.00     0.053 C 
ATOM      9  C   UNL d   1      -0.688  -0.762  -0.349  0.00  0.00     0.018 C 
ENDBRANCH   1   8
TORSDOF 1
ENDMDL
