MODEL 1
REMARK minimizedAffinity 2.27254558
REMARK minimizedRMSD -1
REMARK  1 active torsions:
REMARK  status: ('A' for Active; 'I' for Inactive)
REMARK    1  A    between atoms: C1_2  and  C2_3 
ROOT
ATOM      1  C2  UNL d   1       0.096  -0.370  -4.131  0.00  0.00    -0.073 A 
ATOM      2  C3  UNL d   1      -0.570   0.494  -5.007  0.00  0.00    -0.002 A 
ATOM      3  C4  UNL d   1      -1.478  -0.010  -5.939  0.00  0.00     0.004 A 
ATOM      4  C5  UNL d   1      -1.734  -1.379  -5.999  0.00  0.00    -0.004 A 
ATOM      5  C6  UNL d   1      -1.087  -2.258  -5.124  0.00  0.00    -0.075 A 
ATOM      6  C7  UNL d   1      -1.350  -3.734  -5.178  0.00  0.00     0.076 C 
ATOM      7  C8  UNL d   1      -0.174  -1.744  -4.193  0.00  0.00     0.001 A 
ENDROOT
BRANCH   1   8
ATOM      8  C1  UNL d   1       1.073   0.171  -3.118  0.00  0.00     0.053 C 
ATOM      9  C   UNL d   1       2.266   0.842  -3.780  0.00  0.00     0.018 C 
ENDBRANCH   1   8
TORSDOF 1
ENDMDL
