MODEL 1
REMARK minimizedAffinity -5.039958
REMARK minimizedRMSD -1
REMARK  0 active torsions:
REMARK  status: ('A' for Active; 'I' for Inactive)
ROOT
ATOM      1  C   UNL d   1       1.644   0.079  -0.757  0.00  0.00     0.077 C 
ATOM      2  C1  UNL d   1       0.885  -0.672   0.297  0.00  0.00    -0.074 A 
ATOM      3  C2  UNL d   1      -0.400  -0.273   0.678  0.00  0.00    -0.005 A 
ATOM      4  C3  UNL d   1      -1.098  -0.987   1.652  0.00  0.00     0.006 A 
ATOM      5  C4  UNL d   1      -0.519  -2.104   2.254  0.00  0.00    -0.005 A 
ATOM      6  C5  UNL d   1       0.765  -2.518   1.886  0.00  0.00    -0.074 A 
ATOM      7  C6  UNL d   1       1.398  -3.723   2.516  0.00  0.00     0.077 C 
ATOM      8  C7  UNL d   1       1.457  -1.800   0.901  0.00  0.00    -0.001 A 
ENDROOT
TORSDOF 0
ENDMDL
