MODEL 1
REMARK minimizedAffinity -5.24698496
REMARK minimizedRMSD -1
REMARK  0 active torsions:
REMARK  status: ('A' for Active; 'I' for Inactive)
ROOT
ATOM      1  C   UNL d   1      -0.889   0.882  -0.533  0.00  0.00     0.077 C 
ATOM      2  C1  UNL d   1      -0.030  -0.181   0.084  0.00  0.00    -0.074 A 
ATOM      3  C2  UNL d   1       1.260  -0.431  -0.396  0.00  0.00    -0.005 A 
ATOM      4  C3  UNL d   1       2.052  -1.416   0.195  0.00  0.00     0.006 A 
ATOM      5  C4  UNL d   1       1.563  -2.159   1.270  0.00  0.00    -0.005 A 
ATOM      6  C5  UNL d   1       0.276  -1.923   1.764  0.00  0.00    -0.074 A 
ATOM      7  C6  UNL d   1      -0.261  -2.707   2.924  0.00  0.00     0.077 C 
ATOM      8  C7  UNL d   1      -0.511  -0.927   1.169  0.00  0.00    -0.001 A 
ENDROOT
TORSDOF 0
ENDMDL
