MODEL 1
REMARK minimizedAffinity -4.08448887
REMARK minimizedRMSD -1
REMARK  0 active torsions:
REMARK  status: ('A' for Active; 'I' for Inactive)
ROOT
ATOM      1  C   UNL d   1       1.439  -3.497   2.188  0.00  0.00     0.077 C 
ATOM      2  C1  UNL d   1       0.766  -2.331   1.528  0.00  0.00    -0.074 A 
ATOM      3  C2  UNL d   1      -0.626  -2.198   1.551  0.00  0.00    -0.005 A 
ATOM      4  C3  UNL d   1      -1.238  -1.103   0.940  0.00  0.00     0.006 A 
ATOM      5  C4  UNL d   1      -0.465  -0.132   0.302  0.00  0.00    -0.005 A 
ATOM      6  C5  UNL d   1       0.928  -0.248   0.270  0.00  0.00    -0.074 A 
ATOM      7  C6  UNL d   1       1.774   0.792  -0.403  0.00  0.00     0.077 C 
ATOM      8  C7  UNL d   1       1.536  -1.347   0.892  0.00  0.00    -0.001 A 
ENDROOT
TORSDOF 0
ENDMDL
