MODEL 1
REMARK minimizedAffinity -4.9700017
REMARK minimizedRMSD -1
REMARK  0 active torsions:
REMARK  status: ('A' for Active; 'I' for Inactive)
ROOT
ATOM      1  C   UNL d   1      -0.487   1.010  -0.502  0.00  0.00     0.077 C 
ATOM      2  C1  UNL d   1       0.360  -0.114   0.016  0.00  0.00    -0.074 A 
ATOM      3  C2  UNL d   1       1.600  -0.405  -0.560  0.00  0.00    -0.005 A 
ATOM      4  C3  UNL d   1       2.381  -1.447  -0.061  0.00  0.00     0.006 A 
ATOM      5  C4  UNL d   1       1.930  -2.209   1.017  0.00  0.00    -0.005 A 
ATOM      6  C5  UNL d   1       0.692  -1.933   1.607  0.00  0.00    -0.074 A 
ATOM      7  C6  UNL d   1       0.197  -2.736   2.773  0.00  0.00     0.077 C 
ATOM      8  C7  UNL d   1      -0.083  -0.879   1.105  0.00  0.00    -0.001 A 
ENDROOT
TORSDOF 0
ENDMDL
