MODEL 1
REMARK minimizedAffinity -5.27342129
REMARK minimizedRMSD -1
REMARK  0 active torsions:
REMARK  status: ('A' for Active; 'I' for Inactive)
ROOT
ATOM      1  C   UNL d   1      -0.941   1.198  -0.043  0.00  0.00     0.077 C 
ATOM      2  C1  UNL d   1       0.139   0.172   0.132  0.00  0.00    -0.074 A 
ATOM      3  C2  UNL d   1       1.377   0.317  -0.501  0.00  0.00    -0.005 A 
ATOM      4  C3  UNL d   1       2.376  -0.640  -0.322  0.00  0.00     0.006 A 
ATOM      5  C4  UNL d   1       2.146  -1.751   0.492  0.00  0.00    -0.005 A 
ATOM      6  C5  UNL d   1       0.914  -1.912   1.134  0.00  0.00    -0.074 A 
ATOM      7  C6  UNL d   1       0.654  -3.094   2.019  0.00  0.00     0.077 C 
ATOM      8  C7  UNL d   1      -0.082  -0.942   0.954  0.00  0.00    -0.001 A 
ENDROOT
TORSDOF 0
ENDMDL
