MODEL 1
REMARK minimizedAffinity -2.92914891
REMARK minimizedRMSD -1
REMARK  0 active torsions:
REMARK  status: ('A' for Active; 'I' for Inactive)
ROOT
ATOM      1  C   UNL d   1      -0.028   1.457  -0.739  0.00  0.00     0.077 C 
ATOM      2  C1  UNL d   1      -0.116   0.284   0.191  0.00  0.00    -0.074 A 
ATOM      3  C2  UNL d   1      -1.232   0.100   1.014  0.00  0.00    -0.005 A 
ATOM      4  C3  UNL d   1      -1.303  -1.001   1.867  0.00  0.00     0.006 A 
ATOM      5  C4  UNL d   1      -0.261  -1.927   1.907  0.00  0.00    -0.005 A 
ATOM      6  C5  UNL d   1       0.863  -1.761   1.091  0.00  0.00    -0.074 A 
ATOM      7  C6  UNL d   1       1.987  -2.753   1.114  0.00  0.00     0.077 C 
ATOM      8  C7  UNL d   1       0.924  -0.656   0.231  0.00  0.00    -0.001 A 
ENDROOT
TORSDOF 0
ENDMDL
