MODEL 1
REMARK minimizedAffinity -4.44981194
REMARK minimizedRMSD -1
REMARK  0 active torsions:
REMARK  status: ('A' for Active; 'I' for Inactive)
ROOT
ATOM      1  C   UNL d   1       2.378  -2.253   1.038  0.00  0.00     0.077 C 
ATOM      2  C1  UNL d   1       1.073  -1.552   1.273  0.00  0.00    -0.074 A 
ATOM      3  C2  UNL d   1       0.247  -1.909   2.344  0.00  0.00    -0.005 A 
ATOM      4  C3  UNL d   1      -0.959  -1.241   2.555  0.00  0.00     0.006 A 
ATOM      5  C4  UNL d   1      -1.351  -0.211   1.700  0.00  0.00    -0.005 A 
ATOM      6  C5  UNL d   1      -0.538   0.161   0.624  0.00  0.00    -0.074 A 
ATOM      7  C6  UNL d   1      -0.940   1.272  -0.299  0.00  0.00     0.077 C 
ATOM      8  C7  UNL d   1       0.676  -0.511   0.423  0.00  0.00    -0.001 A 
ENDROOT
TORSDOF 0
ENDMDL
