MODEL 1
REMARK minimizedAffinity -4.57331514
REMARK minimizedRMSD -1
REMARK  0 active torsions:
REMARK  status: ('A' for Active; 'I' for Inactive)
ROOT
ATOM      1  C   UNL d   1      -1.458   0.573   1.476  0.00  0.00     0.077 C 
ATOM      2  C1  UNL d   1      -0.215  -0.173   1.091  0.00  0.00    -0.074 A 
ATOM      3  C2  UNL d   1       0.658   0.336   0.124  0.00  0.00    -0.005 A 
ATOM      4  C3  UNL d   1       1.816  -0.364  -0.216  0.00  0.00     0.006 A 
ATOM      5  C4  UNL d   1       2.112  -1.577   0.407  0.00  0.00    -0.005 A 
ATOM      6  C5  UNL d   1       1.252  -2.101   1.377  0.00  0.00    -0.074 A 
ATOM      7  C6  UNL d   1       1.560  -3.398   2.063  0.00  0.00     0.077 C 
ATOM      8  C7  UNL d   1       0.094  -1.388   1.718  0.00  0.00    -0.001 A 
ENDROOT
TORSDOF 0
ENDMDL
