MODEL 1
REMARK minimizedAffinity -4.92396116
REMARK minimizedRMSD -1
REMARK  0 active torsions:
REMARK  status: ('A' for Active; 'I' for Inactive)
ROOT
ATOM      1  C   UNL d   1      -0.899   1.293  -0.633  0.00  0.00     0.077 C 
ATOM      2  C1  UNL d   1      -0.082   0.236   0.050  0.00  0.00    -0.074 A 
ATOM      3  C2  UNL d   1       1.200  -0.088  -0.405  0.00  0.00    -0.005 A 
ATOM      4  C3  UNL d   1       1.951  -1.066   0.246  0.00  0.00     0.006 A 
ATOM      5  C4  UNL d   1       1.429  -1.729   1.358  0.00  0.00    -0.005 A 
ATOM      6  C5  UNL d   1       0.149  -1.418   1.828  0.00  0.00    -0.074 A 
ATOM      7  C6  UNL d   1      -0.423  -2.114   3.027  0.00  0.00     0.077 C 
ATOM      8  C7  UNL d   1      -0.597  -0.429   1.172  0.00  0.00    -0.001 A 
ENDROOT
TORSDOF 0
ENDMDL
