MODEL 1
REMARK minimizedAffinity -3.33575058
REMARK minimizedRMSD -1
REMARK  0 active torsions:
REMARK  status: ('A' for Active; 'I' for Inactive)
ROOT
ATOM      1  C   UNL d   1      -1.202   1.751  -0.796  0.00  0.00     0.077 C 
ATOM      2  C1  UNL d   1      -0.251   0.686  -0.336  0.00  0.00    -0.074 A 
ATOM      3  C2  UNL d   1       1.086   0.692  -0.745  0.00  0.00    -0.005 A 
ATOM      4  C3  UNL d   1       1.962  -0.299  -0.302  0.00  0.00     0.006 A 
ATOM      5  C4  UNL d   1       1.509  -1.305   0.553  0.00  0.00    -0.005 A 
ATOM      6  C5  UNL d   1       0.175  -1.327   0.973  0.00  0.00    -0.074 A 
ATOM      7  C6  UNL d   1      -0.325  -2.396   1.899  0.00  0.00     0.077 C 
ATOM      8  C7  UNL d   1      -0.696  -0.324   0.529  0.00  0.00    -0.001 A 
ENDROOT
TORSDOF 0
ENDMDL
