MODEL 1
REMARK minimizedAffinity -5.2977829
REMARK minimizedRMSD -1
REMARK  0 active torsions:
REMARK  status: ('A' for Active; 'I' for Inactive)
ROOT
ATOM      1  C   UNL d   1       1.855   0.684  -1.067  0.00  0.00     0.077 C 
ATOM      2  C1  UNL d   1       1.068   0.044   0.037  0.00  0.00    -0.074 A 
ATOM      3  C2  UNL d   1      -0.190   0.535   0.401  0.00  0.00    -0.005 A 
ATOM      4  C3  UNL d   1      -0.915  -0.077   1.424  0.00  0.00     0.006 A 
ATOM      5  C4  UNL d   1      -0.390  -1.185   2.091  0.00  0.00    -0.005 A 
ATOM      6  C5  UNL d   1       0.866  -1.691   1.740  0.00  0.00    -0.074 A 
ATOM      7  C6  UNL d   1       1.440  -2.886   2.440  0.00  0.00     0.077 C 
ATOM      8  C7  UNL d   1       1.585  -1.074   0.707  0.00  0.00    -0.001 A 
ENDROOT
TORSDOF 0
ENDMDL
