MODEL 1
REMARK minimizedAffinity -5.32114124
REMARK minimizedRMSD -1
REMARK  0 active torsions:
REMARK  status: ('A' for Active; 'I' for Inactive)
ROOT
ATOM      1  C   UNL d   1       1.890  -2.621   0.918  0.00  0.00     0.077 C 
ATOM      2  C1  UNL d   1       0.695  -1.717   0.978  0.00  0.00    -0.074 A 
ATOM      3  C2  UNL d   1      -0.278  -1.878   1.970  0.00  0.00    -0.005 A 
ATOM      4  C3  UNL d   1      -1.380  -1.024   2.019  0.00  0.00     0.006 A 
ATOM      5  C4  UNL d   1      -1.520  -0.003   1.078  0.00  0.00    -0.005 A 
ATOM      6  C5  UNL d   1      -0.557   0.173   0.080  0.00  0.00    -0.074 A 
ATOM      7  C6  UNL d   1      -0.687   1.272  -0.933  0.00  0.00     0.077 C 
ATOM      8  C7  UNL d   1       0.551  -0.684   0.041  0.00  0.00    -0.001 A 
ENDROOT
TORSDOF 0
ENDMDL
