MODEL 1
REMARK minimizedAffinity -4.68877554
REMARK minimizedRMSD -1
REMARK  0 active torsions:
REMARK  status: ('A' for Active; 'I' for Inactive)
ROOT
ATOM      1  C   UNL d   1       1.741   0.746  -1.019  0.00  0.00     0.077 C 
ATOM      2  C1  UNL d   1       0.918  -0.001  -0.013  0.00  0.00    -0.074 A 
ATOM      3  C2  UNL d   1      -0.348   0.457   0.364  0.00  0.00    -0.005 A 
ATOM      4  C3  UNL d   1      -1.106  -0.254   1.294  0.00  0.00     0.006 A 
ATOM      5  C4  UNL d   1      -0.606  -1.429   1.856  0.00  0.00    -0.005 A 
ATOM      6  C5  UNL d   1       0.658  -1.904   1.491  0.00  0.00    -0.074 A 
ATOM      7  C6  UNL d   1       1.206  -3.171   2.078  0.00  0.00     0.077 C 
ATOM      8  C7  UNL d   1       1.410  -1.187   0.550  0.00  0.00    -0.001 A 
ENDROOT
TORSDOF 0
ENDMDL
