MODEL 1
REMARK minimizedAffinity -5.71280193
REMARK minimizedRMSD -1
REMARK  0 active torsions:
REMARK  status: ('A' for Active; 'I' for Inactive)
ROOT
ATOM      1  C   UNL d   1       0.641  -2.635   2.897  0.00  0.00     0.077 C 
ATOM      2  C1  UNL d   1       0.325  -1.482   1.991  0.00  0.00    -0.074 A 
ATOM      3  C2  UNL d   1      -0.845  -0.735   2.160  0.00  0.00    -0.005 A 
ATOM      4  C3  UNL d   1      -1.120   0.341   1.315  0.00  0.00     0.006 A 
ATOM      5  C4  UNL d   1      -0.230   0.679   0.295  0.00  0.00    -0.005 A 
ATOM      6  C5  UNL d   1       0.945  -0.057   0.112  0.00  0.00    -0.074 A 
ATOM      7  C6  UNL d   1       1.918   0.300  -0.973  0.00  0.00     0.077 C 
ATOM      8  C7  UNL d   1       1.218  -1.132   0.969  0.00  0.00    -0.001 A 
ENDROOT
TORSDOF 0
ENDMDL
