MODEL 1
REMARK minimizedAffinity -5.77784204
REMARK minimizedRMSD -1
REMARK  0 active torsions:
REMARK  status: ('A' for Active; 'I' for Inactive)
ROOT
ATOM      1  C   UNL d   1       0.771  -3.441   1.936  0.00  0.00     0.077 C 
ATOM      2  C1  UNL d   1       0.650  -2.059   1.366  0.00  0.00    -0.074 A 
ATOM      3  C2  UNL d   1      -0.336  -1.178   1.821  0.00  0.00    -0.005 A 
ATOM      4  C3  UNL d   1      -0.430   0.108   1.289  0.00  0.00     0.006 A 
ATOM      5  C4  UNL d   1       0.459   0.525   0.298  0.00  0.00    -0.005 A 
ATOM      6  C5  UNL d   1       1.452  -0.342  -0.170  0.00  0.00    -0.074 A 
ATOM      7  C6  UNL d   1       2.422   0.093  -1.228  0.00  0.00     0.077 C 
ATOM      8  C7  UNL d   1       1.545  -1.630   0.375  0.00  0.00    -0.001 A 
ENDROOT
TORSDOF 0
ENDMDL
