MODEL 1
REMARK minimizedAffinity -5.44656992
REMARK minimizedRMSD -1
REMARK  0 active torsions:
REMARK  status: ('A' for Active; 'I' for Inactive)
ROOT
ATOM      1  C   UNL d   1       1.395  -2.717   0.778  0.00  0.00     0.077 C 
ATOM      2  C1  UNL d   1       0.472  -1.552   0.975  0.00  0.00    -0.074 A 
ATOM      3  C2  UNL d   1      -0.291  -1.428   2.140  0.00  0.00    -0.005 A 
ATOM      4  C3  UNL d   1      -1.138  -0.333   2.313  0.00  0.00     0.006 A 
ATOM      5  C4  UNL d   1      -1.231   0.646   1.324  0.00  0.00    -0.005 A 
ATOM      6  C5  UNL d   1      -0.476   0.540   0.152  0.00  0.00    -0.074 A 
ATOM      7  C6  UNL d   1      -0.557   1.589  -0.917  0.00  0.00     0.077 C 
ATOM      8  C7  UNL d   1       0.379  -0.559  -0.011  0.00  0.00    -0.001 A 
ENDROOT
TORSDOF 0
ENDMDL
