MODEL 1
REMARK minimizedAffinity -2.77246547
REMARK minimizedRMSD -1
REMARK  0 active torsions:
REMARK  status: ('A' for Active; 'I' for Inactive)
ROOT
ATOM      1  C   UNL d   1       0.787   0.377  -1.457  0.00  0.00     0.078 C 
ATOM      2  C1  UNL d   1       1.457   1.449  -2.264  0.00  0.00    -0.077 A 
ATOM      3  C2  UNL d   1       1.253   1.546  -3.646  0.00  0.00    -0.001 A 
ATOM      4  C3  UNL d   1       1.890   2.543  -4.385  0.00  0.00     0.003 A 
ATOM      5  C4  UNL d   1       2.737   3.451  -3.752  0.00  0.00    -0.005 A 
ATOM      6  C5  UNL d   1       2.947   3.362  -2.377  0.00  0.00     0.003 A 
ATOM      7  C6  UNL d   1       2.311   2.365  -1.636  0.00  0.00    -0.001 A 
ENDROOT
TORSDOF 0
ENDMDL
