MODEL 1
REMARK minimizedAffinity 5.50154495
REMARK minimizedRMSD -1
REMARK  0 active torsions:
REMARK  status: ('A' for Active; 'I' for Inactive)
ROOT
ATOM      1  C   UNL d   1       5.973   1.116  -1.780  0.00  0.00     0.078 C 
ATOM      2  C1  UNL d   1       5.990   0.345  -3.067  0.00  0.00    -0.077 A 
ATOM      3  C2  UNL d   1       5.989   1.005  -4.302  0.00  0.00    -0.001 A 
ATOM      4  C3  UNL d   1       5.995   0.275  -5.492  0.00  0.00     0.003 A 
ATOM      5  C4  UNL d   1       6.000  -1.118  -5.458  0.00  0.00    -0.005 A 
ATOM      6  C5  UNL d   1       5.998  -1.783  -4.234  0.00  0.00     0.003 A 
ATOM      7  C6  UNL d   1       5.992  -1.055  -3.043  0.00  0.00    -0.001 A 
ENDROOT
TORSDOF 0
ENDMDL
