MODEL 1
REMARK minimizedAffinity -1.08939946
REMARK minimizedRMSD -1
REMARK  0 active torsions:
REMARK  status: ('A' for Active; 'I' for Inactive)
ROOT
ATOM      1  C   UNL d   1       5.989  -2.955  -5.926  0.00  0.00     0.078 C 
ATOM      2  C1  UNL d   1       6.000  -1.642  -5.201  0.00  0.00    -0.077 A 
ATOM      3  C2  UNL d   1       5.998  -1.590  -3.802  0.00  0.00    -0.001 A 
ATOM      4  C3  UNL d   1       5.998  -0.361  -3.141  0.00  0.00     0.003 A 
ATOM      5  C4  UNL d   1       5.999   0.826  -3.871  0.00  0.00    -0.005 A 
ATOM      6  C5  UNL d   1       5.998   0.785  -5.264  0.00  0.00     0.003 A 
ATOM      7  C6  UNL d   1       5.998  -0.444  -5.926  0.00  0.00    -0.001 A 
ENDROOT
TORSDOF 0
ENDMDL
