MODEL 1
REMARK minimizedAffinity -0.468908399
REMARK minimizedRMSD -1
REMARK  0 active torsions:
REMARK  status: ('A' for Active; 'I' for Inactive)
ROOT
ATOM      1  C   UNL d   1       5.977   0.894  -2.222  0.00  0.00     0.078 C 
ATOM      2  C1  UNL d   1       5.989   0.184  -3.543  0.00  0.00    -0.077 A 
ATOM      3  C2  UNL d   1       5.980   0.899  -4.747  0.00  0.00    -0.001 A 
ATOM      4  C3  UNL d   1       5.982   0.225  -5.969  0.00  0.00     0.003 A 
ATOM      5  C4  UNL d   1       5.993  -1.168  -5.999  0.00  0.00    -0.005 A 
ATOM      6  C5  UNL d   1       6.000  -1.889  -4.807  0.00  0.00     0.003 A 
ATOM      7  C6  UNL d   1       5.997  -1.216  -3.584  0.00  0.00    -0.001 A 
ENDROOT
TORSDOF 0
ENDMDL
