MODEL 1
REMARK minimizedAffinity -3.01483345
REMARK minimizedRMSD -1
REMARK  0 active torsions:
REMARK  status: ('A' for Active; 'I' for Inactive)
ROOT
ATOM      1  C   UNL d   1       5.963   1.139  -2.273  0.00  0.00     0.078 C 
ATOM      2  C1  UNL d   1       5.948   0.396  -3.576  0.00  0.00    -0.077 A 
ATOM      3  C2  UNL d   1       5.867   1.081  -4.794  0.00  0.00    -0.001 A 
ATOM      4  C3  UNL d   1       5.844   0.377  -5.999  0.00  0.00     0.003 A 
ATOM      5  C4  UNL d   1       5.898  -1.016  -5.997  0.00  0.00    -0.005 A 
ATOM      6  C5  UNL d   1       5.976  -1.706  -4.789  0.00  0.00     0.003 A 
ATOM      7  C6  UNL d   1       6.000  -1.003  -3.583  0.00  0.00    -0.001 A 
ENDROOT
TORSDOF 0
ENDMDL
