MODEL 1
REMARK minimizedAffinity 3.57908082
REMARK minimizedRMSD -1
REMARK  0 active torsions:
REMARK  status: ('A' for Active; 'I' for Inactive)
ROOT
ATOM      1  C   UNL d   1       1.501  -5.999   1.552  0.00  0.00     0.078 C 
ATOM      2  C1  UNL d   1       1.030  -4.648   1.103  0.00  0.00    -0.077 A 
ATOM      3  C2  UNL d   1       1.942  -3.644   0.758  0.00  0.00    -0.001 A 
ATOM      4  C3  UNL d   1       1.490  -2.388   0.351  0.00  0.00     0.003 A 
ATOM      5  C4  UNL d   1       0.123  -2.124   0.287  0.00  0.00    -0.005 A 
ATOM      6  C5  UNL d   1      -0.793  -3.116   0.632  0.00  0.00     0.003 A 
ATOM      7  C6  UNL d   1      -0.342  -4.373   1.038  0.00  0.00    -0.001 A 
ENDROOT
TORSDOF 0
ENDMDL
