MODEL 1
REMARK minimizedAffinity 4.48663092
REMARK minimizedRMSD -1
REMARK  0 active torsions:
REMARK  status: ('A' for Active; 'I' for Inactive)
ROOT
ATOM      1  C   UNL d   1       5.375   1.093  -5.972  0.00  0.00     0.078 C 
ATOM      2  C1  UNL d   1       4.146   1.896  -5.665  0.00  0.00    -0.077 A 
ATOM      3  C2  UNL d   1       4.070   3.254  -5.997  0.00  0.00    -0.001 A 
ATOM      4  C3  UNL d   1       2.924   3.991  -5.696  0.00  0.00     0.003 A 
ATOM      5  C4  UNL d   1       1.845   3.379  -5.061  0.00  0.00    -0.005 A 
ATOM      6  C5  UNL d   1       1.913   2.029  -4.725  0.00  0.00     0.003 A 
ATOM      7  C6  UNL d   1       3.058   1.290  -5.025  0.00  0.00    -0.001 A 
ENDROOT
TORSDOF 0
ENDMDL
