MODEL 1
REMARK minimizedAffinity 1.76990938
REMARK minimizedRMSD -1
REMARK  0 active torsions:
REMARK  status: ('A' for Active; 'I' for Inactive)
ROOT
ATOM      1  C   UNL d   1       0.721  -1.567   0.513  0.00  0.00     0.078 C 
ATOM      2  C1  UNL d   1       0.758  -0.740  -0.738  0.00  0.00    -0.077 A 
ATOM      3  C2  UNL d   1       0.292   0.580  -0.744  0.00  0.00    -0.001 A 
ATOM      4  C3  UNL d   1       0.324   1.334  -1.918  0.00  0.00     0.003 A 
ATOM      5  C4  UNL d   1       0.820   0.777  -3.095  0.00  0.00    -0.005 A 
ATOM      6  C5  UNL d   1       1.284  -0.537  -3.099  0.00  0.00     0.003 A 
ATOM      7  C6  UNL d   1       1.253  -1.293  -1.926  0.00  0.00    -0.001 A 
ENDROOT
TORSDOF 0
ENDMDL
