MODEL 1
REMARK minimizedAffinity -3.88855004
REMARK minimizedRMSD -1
REMARK  0 active torsions:
REMARK  status: ('A' for Active; 'I' for Inactive)
ROOT
ATOM      1  C   UNL d   1       1.075   2.395  -3.008  0.00  0.00     0.078 C 
ATOM      2  C1  UNL d   1       1.118   1.075  -2.299  0.00  0.00    -0.077 A 
ATOM      3  C2  UNL d   1       0.860   0.985  -0.925  0.00  0.00    -0.001 A 
ATOM      4  C3  UNL d   1       0.913  -0.249  -0.276  0.00  0.00     0.003 A 
ATOM      5  C4  UNL d   1       1.225  -1.403  -0.991  0.00  0.00    -0.005 A 
ATOM      6  C5  UNL d   1       1.486  -1.324  -2.358  0.00  0.00     0.003 A 
ATOM      7  C6  UNL d   1       1.433  -0.091  -3.009  0.00  0.00    -0.001 A 
ENDROOT
TORSDOF 0
ENDMDL
