MODEL 1
REMARK minimizedAffinity 4.3631773
REMARK minimizedRMSD -1
REMARK  0 active torsions:
REMARK  status: ('A' for Active; 'I' for Inactive)
ROOT
ATOM      1  C   UNL d   1      -3.404   0.541   5.386  0.00  0.00     0.078 C 
ATOM      2  C1  UNL d   1      -4.170  -0.615   4.816  0.00  0.00    -0.077 A 
ATOM      3  C2  UNL d   1      -3.783  -1.936   5.076  0.00  0.00    -0.001 A 
ATOM      4  C3  UNL d   1      -4.500  -3.002   4.530  0.00  0.00     0.003 A 
ATOM      5  C4  UNL d   1      -5.608  -2.759   3.721  0.00  0.00    -0.005 A 
ATOM      6  C5  UNL d   1      -5.999  -1.448   3.455  0.00  0.00     0.003 A 
ATOM      7  C6  UNL d   1      -5.284  -0.381   4.000  0.00  0.00    -0.001 A 
ENDROOT
TORSDOF 0
ENDMDL
