MODEL 1
REMARK minimizedAffinity 0.169828296
REMARK minimizedRMSD -1
REMARK  0 active torsions:
REMARK  status: ('A' for Active; 'I' for Inactive)
ROOT
ATOM      1  C   UNL d   1       1.244  -1.787  -3.355  0.00  0.00     0.078 C 
ATOM      2  C1  UNL d   1       1.142  -0.682  -2.347  0.00  0.00    -0.077 A 
ATOM      3  C2  UNL d   1       1.204  -0.950  -0.974  0.00  0.00    -0.001 A 
ATOM      4  C3  UNL d   1       1.098   0.088  -0.046  0.00  0.00     0.003 A 
ATOM      5  C4  UNL d   1       0.927   1.401  -0.482  0.00  0.00    -0.005 A 
ATOM      6  C5  UNL d   1       0.862   1.677  -1.846  0.00  0.00     0.003 A 
ATOM      7  C6  UNL d   1       0.969   0.641  -2.775  0.00  0.00    -0.001 A 
ENDROOT
TORSDOF 0
ENDMDL
