MODEL 1
REMARK minimizedAffinity 0.732612312
REMARK minimizedRMSD -1
REMARK  0 active torsions:
REMARK  status: ('A' for Active; 'I' for Inactive)
ROOT
ATOM      1  C   UNL d   1       1.272  -2.060  -3.592  0.00  0.00     0.078 C 
ATOM      2  C1  UNL d   1       1.120  -0.835  -2.741  0.00  0.00    -0.077 A 
ATOM      3  C2  UNL d   1       0.877  -0.938  -1.365  0.00  0.00    -0.001 A 
ATOM      4  C3  UNL d   1       0.727   0.211  -0.587  0.00  0.00     0.003 A 
ATOM      5  C4  UNL d   1       0.817   1.471  -1.176  0.00  0.00    -0.005 A 
ATOM      6  C5  UNL d   1       1.055   1.583  -2.544  0.00  0.00     0.003 A 
ATOM      7  C6  UNL d   1       1.205   0.436  -3.324  0.00  0.00    -0.001 A 
ENDROOT
TORSDOF 0
ENDMDL
