MODEL 1
REMARK minimizedAffinity 1.3955512
REMARK minimizedRMSD -1
REMARK  0 active torsions:
REMARK  status: ('A' for Active; 'I' for Inactive)
ROOT
ATOM      1  C   UNL d   1       1.697  -2.361  -3.035  0.00  0.00     0.078 C 
ATOM      2  C1  UNL d   1       1.322  -1.047  -2.418  0.00  0.00    -0.077 A 
ATOM      3  C2  UNL d   1       0.960  -0.961  -1.068  0.00  0.00    -0.001 A 
ATOM      4  C3  UNL d   1       0.604   0.267  -0.509  0.00  0.00     0.003 A 
ATOM      5  C4  UNL d   1       0.605   1.419  -1.293  0.00  0.00    -0.005 A 
ATOM      6  C5  UNL d   1       0.962   1.344  -2.637  0.00  0.00     0.003 A 
ATOM      7  C6  UNL d   1       1.319   0.116  -3.198  0.00  0.00    -0.001 A 
ENDROOT
TORSDOF 0
ENDMDL
