MODEL 1
REMARK minimizedAffinity -3.32916093
REMARK minimizedRMSD -1
REMARK  0 active torsions:
REMARK  status: ('A' for Active; 'I' for Inactive)
ROOT
ATOM      1  C   UNL d   1       1.187   0.713  -1.103  0.00  0.00     0.078 C 
ATOM      2  C1  UNL d   1       1.283  -0.074  -2.375  0.00  0.00    -0.077 A 
ATOM      3  C2  UNL d   1       1.352   0.569  -3.618  0.00  0.00    -0.001 A 
ATOM      4  C3  UNL d   1       1.431  -0.177  -4.795  0.00  0.00     0.003 A 
ATOM      5  C4  UNL d   1       1.442  -1.570  -4.742  0.00  0.00    -0.005 A 
ATOM      6  C5  UNL d   1       1.372  -2.218  -3.510  0.00  0.00     0.003 A 
ATOM      7  C6  UNL d   1       1.292  -1.474  -2.332  0.00  0.00    -0.001 A 
ENDROOT
TORSDOF 0
ENDMDL
