MODEL 1
REMARK minimizedAffinity 0.333219975
REMARK minimizedRMSD -1
REMARK  0 active torsions:
REMARK  status: ('A' for Active; 'I' for Inactive)
ROOT
ATOM      1  C   UNL d   1       0.587  -0.734   0.122  0.00  0.00     0.078 C 
ATOM      2  C1  UNL d   1       0.955  -0.630  -1.327  0.00  0.00    -0.077 A 
ATOM      3  C2  UNL d   1       1.141  -1.777  -2.108  0.00  0.00    -0.001 A 
ATOM      4  C3  UNL d   1       1.494  -1.666  -3.454  0.00  0.00     0.003 A 
ATOM      5  C4  UNL d   1       1.665  -0.409  -4.031  0.00  0.00    -0.005 A 
ATOM      6  C5  UNL d   1       1.484   0.739  -3.261  0.00  0.00     0.003 A 
ATOM      7  C6  UNL d   1       1.132   0.629  -1.915  0.00  0.00    -0.001 A 
ENDROOT
TORSDOF 0
ENDMDL
