MODEL 1
REMARK minimizedAffinity 6.20023346
REMARK minimizedRMSD -1
REMARK  0 active torsions:
REMARK  status: ('A' for Active; 'I' for Inactive)
ROOT
ATOM      1  C   UNL d   1      -5.146   2.962   2.697  0.00  0.00     0.078 C 
ATOM      2  C1  UNL d   1      -5.051   4.012   3.763  0.00  0.00    -0.077 A 
ATOM      3  C2  UNL d   1      -5.939   4.024   4.846  0.00  0.00    -0.001 A 
ATOM      4  C3  UNL d   1      -5.844   5.014   5.825  0.00  0.00     0.003 A 
ATOM      5  C4  UNL d   1      -4.864   6.000   5.732  0.00  0.00    -0.005 A 
ATOM      6  C5  UNL d   1      -3.978   5.998   4.657  0.00  0.00     0.003 A 
ATOM      7  C6  UNL d   1      -4.071   5.009   3.676  0.00  0.00    -0.001 A 
ENDROOT
TORSDOF 0
ENDMDL
