MODEL 1
REMARK minimizedAffinity -4.8131485
REMARK minimizedRMSD -1
REMARK  1 active torsions:
REMARK  status: ('A' for Active; 'I' for Inactive)
REMARK    1  A    between atoms: C3_4  and  O_7 
ROOT
ATOM      1  C   UNL d   1       1.068  -1.757  -2.002  0.00  0.00    -0.033 A 
ATOM      2  C1  UNL d   1       0.501  -3.027  -2.128  0.00  0.00     0.039 A 
ATOM      3  C2  UNL d   1      -0.505  -3.435  -1.250  0.00  0.00    -0.080 A 
ATOM      4  C3  UNL d   1      -0.934  -2.565  -0.251  0.00  0.00     0.150 A 
ATOM      5  C4  UNL d   1      -0.376  -1.298  -0.122  0.00  0.00    -0.007 A 
ATOM      6  C5  UNL d   1       0.628  -0.892  -0.999  0.00  0.00     0.039 A 
ENDROOT
BRANCH   4   7
ATOM      7  O   UNL d   1      -1.909  -2.921   0.633  0.00  0.00    -0.526 OA
ATOM      8  H5  UNL d   1      -2.181  -3.834   0.441  0.00  0.00     0.418 HD
ENDBRANCH   4   7
TORSDOF 1
ENDMDL
