MODEL 1
REMARK minimizedAffinity -3.573385
REMARK minimizedRMSD -1
REMARK  1 active torsions:
REMARK  status: ('A' for Active; 'I' for Inactive)
REMARK    1  A    between atoms: C3_4  and  O_7 
ROOT
ATOM      1  C   UNL d   1      -0.384  -0.425   1.357  0.00  0.00    -0.033 A 
ATOM      2  C1  UNL d   1       0.859  -0.144   0.787  0.00  0.00     0.039 A 
ATOM      3  C2  UNL d   1       1.205  -0.700  -0.447  0.00  0.00    -0.080 A 
ATOM      4  C3  UNL d   1       0.299  -1.532  -1.099  0.00  0.00     0.150 A 
ATOM      5  C4  UNL d   1      -0.942  -1.813  -0.538  0.00  0.00    -0.007 A 
ATOM      6  C5  UNL d   1      -1.285  -1.258   0.694  0.00  0.00     0.039 A 
ENDROOT
BRANCH   4   7
ATOM      7  O   UNL d   1       0.594  -2.102  -2.302  0.00  0.00    -0.526 OA
ATOM      8  H5  UNL d   1       1.496  -1.842  -2.553  0.00  0.00     0.418 HD
ENDBRANCH   4   7
TORSDOF 1
ENDMDL
