MODEL 1
REMARK minimizedAffinity -2.8408637
REMARK minimizedRMSD -1
REMARK  1 active torsions:
REMARK  status: ('A' for Active; 'I' for Inactive)
REMARK    1  A    between atoms: C3_4  and  O_7 
ROOT
ATOM      1  C   UNL d   1      -0.675  -0.385   1.123  0.00  0.00    -0.033 A 
ATOM      2  C1  UNL d   1      -1.064   0.869   1.600  0.00  0.00     0.039 A 
ATOM      3  C2  UNL d   1      -0.769   2.019   0.866  0.00  0.00    -0.080 A 
ATOM      4  C3  UNL d   1      -0.088   1.903  -0.343  0.00  0.00     0.150 A 
ATOM      5  C4  UNL d   1       0.299   0.657  -0.826  0.00  0.00    -0.007 A 
ATOM      6  C5  UNL d   1       0.005  -0.491  -0.090  0.00  0.00     0.039 A 
ENDROOT
BRANCH   4   7
ATOM      7  O   UNL d   1       0.225   2.997  -1.093  0.00  0.00    -0.526 OA
ATOM      8  H5  UNL d   1      -0.079   3.791  -0.621  0.00  0.00     0.418 HD
ENDBRANCH   4   7
TORSDOF 1
ENDMDL
