MODEL 1
REMARK minimizedAffinity -1.25698376
REMARK minimizedRMSD -1
REMARK  1 active torsions:
REMARK  status: ('A' for Active; 'I' for Inactive)
REMARK    1  A    between atoms: C3_4  and  O_7 
ROOT
ATOM      1  C   UNL d   1      -0.764  -0.210   0.389  0.00  0.00    -0.033 A 
ATOM      2  C1  UNL d   1      -1.431   0.998   0.600  0.00  0.00     0.039 A 
ATOM      3  C2  UNL d   1      -1.215   1.722   1.774  0.00  0.00    -0.080 A 
ATOM      4  C3  UNL d   1      -0.330   1.228   2.728  0.00  0.00     0.150 A 
ATOM      5  C4  UNL d   1       0.341   0.027   2.523  0.00  0.00    -0.007 A 
ATOM      6  C5  UNL d   1       0.124  -0.695   1.351  0.00  0.00     0.039 A 
ENDROOT
BRANCH   4   7
ATOM      7  O   UNL d   1      -0.090   1.896   3.892  0.00  0.00    -0.526 OA
ATOM      8  H5  UNL d   1      -0.645   2.694   3.909  0.00  0.00     0.418 HD
ENDBRANCH   4   7
TORSDOF 1
ENDMDL
