MODEL 1
REMARK minimizedAffinity -2.91205406
REMARK minimizedRMSD -1
REMARK  1 active torsions:
REMARK  status: ('A' for Active; 'I' for Inactive)
REMARK    1  A    between atoms: C3_4  and  O_7 
ROOT
ATOM      1  C   UNL d   1       1.400  -2.595  -1.531  0.00  0.00    -0.033 A 
ATOM      2  C1  UNL d   1       0.395  -3.459  -1.092  0.00  0.00     0.039 A 
ATOM      3  C2  UNL d   1      -0.596  -2.996  -0.225  0.00  0.00    -0.080 A 
ATOM      4  C3  UNL d   1      -0.571  -1.668   0.195  0.00  0.00     0.150 A 
ATOM      5  C4  UNL d   1       0.425  -0.801  -0.242  0.00  0.00    -0.007 A 
ATOM      6  C5  UNL d   1       1.414  -1.265  -1.107  0.00  0.00     0.039 A 
ENDROOT
BRANCH   4   7
ATOM      7  O   UNL d   1      -1.515  -1.172   1.045  0.00  0.00    -0.526 OA
ATOM      8  H5  UNL d   1      -2.122  -1.892   1.285  0.00  0.00     0.418 HD
ENDBRANCH   4   7
TORSDOF 1
ENDMDL
