MODEL 1
REMARK minimizedAffinity -5.40843153
REMARK minimizedRMSD -1
REMARK  1 active torsions:
REMARK  status: ('A' for Active; 'I' for Inactive)
REMARK    1  A    between atoms: C3_4  and  O_7 
ROOT
ATOM      1  C   UNL d   1       0.703   1.313  -0.645  0.00  0.00    -0.033 A 
ATOM      2  C1  UNL d   1       0.083   2.560  -0.551  0.00  0.00     0.039 A 
ATOM      3  C2  UNL d   1      -1.076   2.710   0.212  0.00  0.00    -0.080 A 
ATOM      4  C3  UNL d   1      -1.604   1.606   0.877  0.00  0.00     0.150 A 
ATOM      5  C4  UNL d   1      -0.989   0.361   0.791  0.00  0.00    -0.007 A 
ATOM      6  C5  UNL d   1       0.168   0.214   0.027  0.00  0.00     0.039 A 
ENDROOT
BRANCH   4   7
ATOM      7  O   UNL d   1      -2.736   1.702   1.630  0.00  0.00    -0.526 OA
ATOM      8  H5  UNL d   1      -3.067   2.614   1.574  0.00  0.00     0.418 HD
ENDBRANCH   4   7
TORSDOF 1
ENDMDL
