MODEL 1
REMARK minimizedAffinity -2.12385368
REMARK minimizedRMSD -1
REMARK  1 active torsions:
REMARK  status: ('A' for Active; 'I' for Inactive)
REMARK    1  A    between atoms: C3_4  and  O_7 
ROOT
ATOM      1  C   UNL d   1      -1.526   0.276   1.935  0.00  0.00    -0.033 A 
ATOM      2  C1  UNL d   1      -1.865  -0.217   0.674  0.00  0.00     0.039 A 
ATOM      3  C2  UNL d   1      -0.867  -0.658  -0.197  0.00  0.00    -0.080 A 
ATOM      4  C3  UNL d   1       0.465  -0.601   0.206  0.00  0.00     0.150 A 
ATOM      5  C4  UNL d   1       0.810  -0.114   1.462  0.00  0.00    -0.007 A 
ATOM      6  C5  UNL d   1      -0.189   0.327   2.330  0.00  0.00     0.039 A 
ENDROOT
BRANCH   4   7
ATOM      7  O   UNL d   1       1.475  -1.015  -0.611  0.00  0.00    -0.526 OA
ATOM      8  H5  UNL d   1       1.089  -1.299  -1.457  0.00  0.00     0.418 HD
ENDBRANCH   4   7
TORSDOF 1
ENDMDL
