MODEL 1
REMARK minimizedAffinity -2.95097899
REMARK minimizedRMSD -1
REMARK  1 active torsions:
REMARK  status: ('A' for Active; 'I' for Inactive)
REMARK    1  A    between atoms: C3_4  and  O_7 
ROOT
ATOM      1  C   UNL d   1      -1.836   0.344   2.028  0.00  0.00    -0.033 A 
ATOM      2  C1  UNL d   1      -1.108   1.417   1.510  0.00  0.00     0.039 A 
ATOM      3  C2  UNL d   1      -0.149   1.200   0.520  0.00  0.00    -0.080 A 
ATOM      4  C3  UNL d   1       0.073  -0.094   0.055  0.00  0.00     0.150 A 
ATOM      5  C4  UNL d   1      -0.651  -1.167   0.563  0.00  0.00    -0.007 A 
ATOM      6  C5  UNL d   1      -1.609  -0.948   1.553  0.00  0.00     0.039 A 
ENDROOT
BRANCH   4   7
ATOM      7  O   UNL d   1       1.002  -0.356  -0.907  0.00  0.00    -0.526 OA
ATOM      8  H5  UNL d   1       1.444   0.477  -1.143  0.00  0.00     0.418 HD
ENDBRANCH   4   7
TORSDOF 1
ENDMDL
