MODEL 1
REMARK minimizedAffinity -2.89585805
REMARK minimizedRMSD -1
REMARK  1 active torsions:
REMARK  status: ('A' for Active; 'I' for Inactive)
REMARK    1  A    between atoms: C3_4  and  O_7 
ROOT
ATOM      1  C   UNL d   1      -0.023  -0.431   1.234  0.00  0.00    -0.033 A 
ATOM      2  C1  UNL d   1      -0.795   0.630   1.711  0.00  0.00     0.039 A 
ATOM      3  C2  UNL d   1      -0.681   1.895   1.129  0.00  0.00    -0.080 A 
ATOM      4  C3  UNL d   1       0.206   2.084   0.073  0.00  0.00     0.150 A 
ATOM      5  C4  UNL d   1       0.975   1.030  -0.409  0.00  0.00    -0.007 A 
ATOM      6  C5  UNL d   1       0.861  -0.232   0.173  0.00  0.00     0.039 A 
ENDROOT
BRANCH   4   7
ATOM      7  O   UNL d   1       0.355   3.301  -0.523  0.00  0.00    -0.526 OA
ATOM      8  H5  UNL d   1      -0.218   3.939  -0.067  0.00  0.00     0.418 HD
ENDBRANCH   4   7
TORSDOF 1
ENDMDL
