MODEL 1
REMARK minimizedAffinity -3.49478865
REMARK minimizedRMSD -1
REMARK  1 active torsions:
REMARK  status: ('A' for Active; 'I' for Inactive)
REMARK    1  A    between atoms: C3_4  and  O_7 
ROOT
ATOM      1  C   UNL d   1      -1.221   0.092   2.335  0.00  0.00    -0.033 A 
ATOM      2  C1  UNL d   1      -0.780  -1.233   2.334  0.00  0.00     0.039 A 
ATOM      3  C2  UNL d   1      -0.001  -1.711   1.279  0.00  0.00    -0.080 A 
ATOM      4  C3  UNL d   1       0.330  -0.855   0.232  0.00  0.00     0.150 A 
ATOM      5  C4  UNL d   1      -0.102   0.467   0.228  0.00  0.00    -0.007 A 
ATOM      6  C5  UNL d   1      -0.880   0.942   1.283  0.00  0.00     0.039 A 
ENDROOT
BRANCH   4   7
ATOM      7  O   UNL d   1       1.084  -1.277  -0.822  0.00  0.00    -0.526 OA
ATOM      8  H5  UNL d   1       1.287  -2.219  -0.698  0.00  0.00     0.418 HD
ENDBRANCH   4   7
TORSDOF 1
ENDMDL
