MODEL 1
REMARK minimizedAffinity -3.81577873
REMARK minimizedRMSD -1
REMARK  1 active torsions:
REMARK  status: ('A' for Active; 'I' for Inactive)
REMARK    1  A    between atoms: C3_4  and  O_7 
ROOT
ATOM      1  C   UNL d   1       1.265  -0.890   0.200  0.00  0.00    -0.033 A 
ATOM      2  C1  UNL d   1       0.865  -0.937   1.537  0.00  0.00     0.039 A 
ATOM      3  C2  UNL d   1      -0.106  -0.052   2.009  0.00  0.00    -0.080 A 
ATOM      4  C3  UNL d   1      -0.670   0.873   1.135  0.00  0.00     0.150 A 
ATOM      5  C4  UNL d   1      -0.280   0.923  -0.200  0.00  0.00    -0.007 A 
ATOM      6  C5  UNL d   1       0.691   0.039  -0.669  0.00  0.00     0.039 A 
ENDROOT
BRANCH   4   7
ATOM      7  O   UNL d   1      -1.618   1.760   1.550  0.00  0.00    -0.526 OA
ATOM      8  H5  UNL d   1      -1.767   1.628   2.501  0.00  0.00     0.418 HD
ENDBRANCH   4   7
TORSDOF 1
ENDMDL
