MODEL 1
REMARK minimizedAffinity -4.11963558
REMARK minimizedRMSD -1
REMARK  1 active torsions:
REMARK  status: ('A' for Active; 'I' for Inactive)
REMARK    1  A    between atoms: C3_4  and  O_7 
ROOT
ATOM      1  C   UNL d   1      -0.084  -0.112   0.096  0.00  0.00    -0.033 A 
ATOM      2  C1  UNL d   1      -0.717  -1.251   0.596  0.00  0.00     0.039 A 
ATOM      3  C2  UNL d   1      -0.421  -2.507   0.064  0.00  0.00    -0.080 A 
ATOM      4  C3  UNL d   1       0.510  -2.611  -0.966  0.00  0.00     0.150 A 
ATOM      5  C4  UNL d   1       1.148  -1.481  -1.467  0.00  0.00    -0.007 A 
ATOM      6  C5  UNL d   1       0.850  -0.227  -0.934  0.00  0.00     0.039 A 
ENDROOT
BRANCH   4   7
ATOM      7  O   UNL d   1       0.828  -3.815  -1.521  0.00  0.00    -0.526 OA
ATOM      8  H5  UNL d   1       0.288  -4.502  -1.095  0.00  0.00     0.418 HD
ENDBRANCH   4   7
TORSDOF 1
ENDMDL
