MODEL 1
REMARK minimizedAffinity -3.87803602
REMARK minimizedRMSD -1
REMARK  1 active torsions:
REMARK  status: ('A' for Active; 'I' for Inactive)
REMARK    1  A    between atoms: C3_4  and  O_7 
ROOT
ATOM      1  C   UNL d   1      -0.658  -0.067   1.466  0.00  0.00    -0.033 A 
ATOM      2  C1  UNL d   1      -1.227   1.049   2.083  0.00  0.00     0.039 A 
ATOM      3  C2  UNL d   1      -1.001   2.326   1.565  0.00  0.00    -0.080 A 
ATOM      4  C3  UNL d   1      -0.208   2.473   0.431  0.00  0.00     0.150 A 
ATOM      5  C4  UNL d   1       0.359   1.365  -0.191  0.00  0.00    -0.007 A 
ATOM      6  C5  UNL d   1       0.133   0.091   0.328  0.00  0.00     0.039 A 
ENDROOT
BRANCH   4   7
ATOM      7  O   UNL d   1       0.045   3.699  -0.108  0.00  0.00    -0.526 OA
ATOM      8  H5  UNL d   1      -0.387   4.373   0.443  0.00  0.00     0.418 HD
ENDBRANCH   4   7
TORSDOF 1
ENDMDL
