MODEL 1
REMARK minimizedAffinity -1.39288068
REMARK minimizedRMSD -1
REMARK  1 active torsions:
REMARK  status: ('A' for Active; 'I' for Inactive)
REMARK    1  A    between atoms: C3_4  and  O_7 
ROOT
ATOM      1  C   UNL d   1      -1.220  -0.065   1.227  0.00  0.00    -0.033 A 
ATOM      2  C1  UNL d   1      -0.327   0.019   0.157  0.00  0.00     0.039 A 
ATOM      3  C2  UNL d   1       0.030   1.266  -0.360  0.00  0.00    -0.080 A 
ATOM      4  C3  UNL d   1      -0.512   2.419   0.201  0.00  0.00     0.150 A 
ATOM      5  C4  UNL d   1      -1.400   2.342   1.270  0.00  0.00    -0.007 A 
ATOM      6  C5  UNL d   1      -1.756   1.097   1.784  0.00  0.00     0.039 A 
ENDROOT
BRANCH   4   7
ATOM      7  O   UNL d   1      -0.197   3.658  -0.272  0.00  0.00    -0.526 OA
ATOM      8  H5  UNL d   1       0.404   3.554  -1.029  0.00  0.00     0.418 HD
ENDBRANCH   4   7
TORSDOF 1
ENDMDL
