MODEL 1
REMARK minimizedAffinity -4.84324741
REMARK minimizedRMSD -1
REMARK  1 active torsions:
REMARK  status: ('A' for Active; 'I' for Inactive)
REMARK    1  A    between atoms: C3_4  and  O_7 
ROOT
ATOM      1  C   UNL d   1      -0.833   2.721   1.118  0.00  0.00    -0.033 A 
ATOM      2  C1  UNL d   1      -0.085   2.718  -0.061  0.00  0.00     0.039 A 
ATOM      3  C2  UNL d   1       0.481   1.530  -0.527  0.00  0.00    -0.080 A 
ATOM      4  C3  UNL d   1       0.291   0.354   0.193  0.00  0.00     0.150 A 
ATOM      5  C4  UNL d   1      -0.456   0.349   1.366  0.00  0.00    -0.007 A 
ATOM      6  C5  UNL d   1      -1.020   1.536   1.831  0.00  0.00     0.039 A 
ENDROOT
BRANCH   4   7
ATOM      7  O   UNL d   1       0.829  -0.829  -0.220  0.00  0.00    -0.526 OA
ATOM      8  H5  UNL d   1       1.343  -0.668  -1.029  0.00  0.00     0.418 HD
ENDBRANCH   4   7
TORSDOF 1
ENDMDL
