MODEL 1
REMARK minimizedAffinity -2.57689786
REMARK minimizedRMSD -1
REMARK  1 active torsions:
REMARK  status: ('A' for Active; 'I' for Inactive)
REMARK    1  A    between atoms: C3_4  and  O_7 
ROOT
ATOM      1  C   UNL d   1       0.571  -0.294   0.257  0.00  0.00    -0.033 A 
ATOM      2  C1  UNL d   1      -0.730  -0.528  -0.192  0.00  0.00     0.039 A 
ATOM      3  C2  UNL d   1      -0.949  -1.315  -1.324  0.00  0.00    -0.080 A 
ATOM      4  C3  UNL d   1       0.139  -1.862  -1.997  0.00  0.00     0.150 A 
ATOM      5  C4  UNL d   1       1.438  -1.636  -1.554  0.00  0.00    -0.007 A 
ATOM      6  C5  UNL d   1       1.655  -0.849  -0.424  0.00  0.00     0.039 A 
ENDROOT
BRANCH   4   7
ATOM      7  O   UNL d   1      -0.024  -2.633  -3.110  0.00  0.00    -0.526 OA
ATOM      8  H5  UNL d   1      -0.973  -2.679  -3.315  0.00  0.00     0.418 HD
ENDBRANCH   4   7
TORSDOF 1
ENDMDL
