MODEL 1
REMARK minimizedAffinity -4.43664932
REMARK minimizedRMSD -1
REMARK  1 active torsions:
REMARK  status: ('A' for Active; 'I' for Inactive)
REMARK    1  A    between atoms: C3_4  and  O_7 
ROOT
ATOM      1  C   UNL d   1      -1.393   3.290   0.569  0.00  0.00    -0.033 A 
ATOM      2  C1  UNL d   1      -0.345   3.857  -0.157  0.00  0.00     0.039 A 
ATOM      3  C2  UNL d   1       0.814   4.278   0.498  0.00  0.00    -0.080 A 
ATOM      4  C3  UNL d   1       0.912   4.125   1.878  0.00  0.00     0.150 A 
ATOM      5  C4  UNL d   1      -0.127   3.557   2.608  0.00  0.00    -0.007 A 
ATOM      6  C5  UNL d   1      -1.284   3.139   1.952  0.00  0.00     0.039 A 
ENDROOT
BRANCH   4   7
ATOM      7  O   UNL d   1       2.021   4.525   2.563  0.00  0.00    -0.526 OA
ATOM      8  H5  UNL d   1       2.644   4.924   1.933  0.00  0.00     0.418 HD
ENDBRANCH   4   7
TORSDOF 1
ENDMDL
