MODEL 1
REMARK minimizedAffinity -4.84853554
REMARK minimizedRMSD -1
REMARK  1 active torsions:
REMARK  status: ('A' for Active; 'I' for Inactive)
REMARK    1  A    between atoms: C3_4  and  O_7 
ROOT
ATOM      1  C   UNL d   1      -1.206   2.953   0.910  0.00  0.00    -0.033 A 
ATOM      2  C1  UNL d   1      -0.407   3.056  -0.230  0.00  0.00     0.039 A 
ATOM      3  C2  UNL d   1       0.300   1.944  -0.692  0.00  0.00    -0.080 A 
ATOM      4  C3  UNL d   1       0.197   0.736  -0.007  0.00  0.00     0.150 A 
ATOM      5  C4  UNL d   1      -0.601   0.625   1.126  0.00  0.00    -0.007 A 
ATOM      6  C5  UNL d   1      -1.305   1.737   1.587  0.00  0.00     0.039 A 
ENDROOT
BRANCH   4   7
ATOM      7  O   UNL d   1       0.871  -0.375  -0.418  0.00  0.00    -0.526 OA
ATOM      8  H5  UNL d   1       1.404  -0.142  -1.196  0.00  0.00     0.418 HD
ENDBRANCH   4   7
TORSDOF 1
ENDMDL
