MODEL 1
REMARK minimizedAffinity 19.3231239
REMARK minimizedRMSD -1
REMARK  1 active torsions:
REMARK  status: ('A' for Active; 'I' for Inactive)
REMARK    1  A    between atoms: C1_2  and  C2_3 
ROOT
ATOM      1  C2  UNL d   1       3.669   0.056   0.005  0.00  0.00    -0.073 A 
ATOM      2  C3  UNL d   1       4.248  -1.218  -0.024  0.00  0.00    -0.002 A 
ATOM      3  C4  UNL d   1       4.844  -1.695  -1.192  0.00  0.00     0.004 A 
ATOM      4  C5  UNL d   1       4.873  -0.902  -2.340  0.00  0.00    -0.004 A 
ATOM      5  C6  UNL d   1       4.310   0.378  -2.327  0.00  0.00    -0.075 A 
ATOM      6  C7  UNL d   1       4.331   1.243  -3.553  0.00  0.00     0.076 C 
ATOM      7  C8  UNL d   1       3.712   0.849  -1.151  0.00  0.00     0.001 A 
ENDROOT
BRANCH   1   8
ATOM      8  C1  UNL d   1       3.031   0.578   1.266  0.00  0.00     0.053 C 
ATOM      9  C   UNL d   1       1.653  -0.021   1.498  0.00  0.00     0.018 C 
ENDBRANCH   1   8
TORSDOF 1
ENDMDL
