MODEL 1
REMARK minimizedAffinity 9.53097534
REMARK minimizedRMSD -1
REMARK  1 active torsions:
REMARK  status: ('A' for Active; 'I' for Inactive)
REMARK    1  A    between atoms: C1_2  and  C2_3 
ROOT
ATOM      1  C2  UNL d   1      -2.490   4.897  -3.071  0.00  0.00    -0.073 A 
ATOM      2  C3  UNL d   1      -2.259   3.557  -3.403  0.00  0.00    -0.002 A 
ATOM      3  C4  UNL d   1      -2.954   2.539  -2.749  0.00  0.00     0.004 A 
ATOM      4  C5  UNL d   1      -3.891   2.849  -1.763  0.00  0.00    -0.004 A 
ATOM      5  C6  UNL d   1      -4.145   4.183  -1.427  0.00  0.00    -0.075 A 
ATOM      6  C7  UNL d   1      -5.149   4.533  -0.367  0.00  0.00     0.076 C 
ATOM      7  C8  UNL d   1      -3.441   5.200  -2.086  0.00  0.00     0.001 A 
ENDROOT
BRANCH   1   8
ATOM      8  C1  UNL d   1      -1.747   6.000  -3.779  0.00  0.00     0.053 C 
ATOM      9  C   UNL d   1      -2.012   5.996  -5.276  0.00  0.00     0.018 C 
ENDBRANCH   1   8
TORSDOF 1
ENDMDL
