MODEL 1
REMARK minimizedAffinity 9.71455002
REMARK minimizedRMSD -1
REMARK  1 active torsions:
REMARK  status: ('A' for Active; 'I' for Inactive)
REMARK    1  A    between atoms: C1_2  and  C2_3 
ROOT
ATOM      1  C2  UNL d   1      -2.408   3.547  -2.462  0.00  0.00    -0.073 A 
ATOM      2  C3  UNL d   1      -2.000   4.807  -2.916  0.00  0.00    -0.002 A 
ATOM      3  C4  UNL d   1      -2.683   5.955  -2.514  0.00  0.00     0.004 A 
ATOM      4  C5  UNL d   1      -3.773   5.858  -1.649  0.00  0.00    -0.004 A 
ATOM      5  C6  UNL d   1      -4.187   4.609  -1.175  0.00  0.00    -0.075 A 
ATOM      6  C7  UNL d   1      -5.360   4.487  -0.246  0.00  0.00     0.076 C 
ATOM      7  C8  UNL d   1      -3.499   3.460  -1.586  0.00  0.00     0.001 A 
ENDROOT
BRANCH   1   8
ATOM      8  C1  UNL d   1      -1.670   2.304  -2.889  0.00  0.00     0.053 C 
ATOM      9  C   UNL d   1      -0.331   2.165  -2.182  0.00  0.00     0.018 C 
ENDBRANCH   1   8
TORSDOF 1
ENDMDL
