MODEL 1
REMARK minimizedAffinity 8.71366882
REMARK minimizedRMSD -1
REMARK  1 active torsions:
REMARK  status: ('A' for Active; 'I' for Inactive)
REMARK    1  A    between atoms: C1_2  and  C2_3 
ROOT
ATOM      1  C2  UNL d   1      -2.974   3.780  -3.201  0.00  0.00    -0.073 A 
ATOM      2  C3  UNL d   1      -3.495   2.714  -3.943  0.00  0.00    -0.002 A 
ATOM      3  C4  UNL d   1      -3.409   2.717  -5.336  0.00  0.00     0.004 A 
ATOM      4  C5  UNL d   1      -2.796   3.779  -6.000  0.00  0.00    -0.004 A 
ATOM      5  C6  UNL d   1      -2.259   4.848  -5.275  0.00  0.00    -0.075 A 
ATOM      6  C7  UNL d   1      -1.599   6.000  -5.974  0.00  0.00     0.076 C 
ATOM      7  C8  UNL d   1      -2.352   4.840  -3.877  0.00  0.00     0.001 A 
ENDROOT
BRANCH   1   8
ATOM      8  C1  UNL d   1      -3.059   3.779  -1.696  0.00  0.00     0.053 C 
ATOM      9  C   UNL d   1      -4.482   3.992  -1.206  0.00  0.00     0.018 C 
ENDBRANCH   1   8
TORSDOF 1
ENDMDL
