MODEL 1
REMARK minimizedAffinity 8.61667919
REMARK minimizedRMSD -1
REMARK  1 active torsions:
REMARK  status: ('A' for Active; 'I' for Inactive)
REMARK    1  A    between atoms: C1_2  and  C2_3 
ROOT
ATOM      1  C2  UNL d   1       0.966  -1.642   2.168  0.00  0.00    -0.073 A 
ATOM      2  C3  UNL d   1       0.930  -0.698   3.200  0.00  0.00    -0.002 A 
ATOM      3  C4  UNL d   1      -0.158  -0.648   4.073  0.00  0.00     0.004 A 
ATOM      4  C5  UNL d   1      -1.216  -1.545   3.927  0.00  0.00    -0.004 A 
ATOM      5  C6  UNL d   1      -1.194  -2.503   2.908  0.00  0.00    -0.075 A 
ATOM      6  C7  UNL d   1      -2.326  -3.473   2.737  0.00  0.00     0.076 C 
ATOM      7  C8  UNL d   1      -0.099  -2.545   2.035  0.00  0.00     0.001 A 
ENDROOT
BRANCH   1   8
ATOM      8  C1  UNL d   1       2.141  -1.704   1.227  0.00  0.00     0.053 C 
ATOM      9  C   UNL d   1       3.048  -0.491   1.367  0.00  0.00     0.018 C 
ENDBRANCH   1   8
TORSDOF 1
ENDMDL
