MODEL 1
REMARK minimizedAffinity 10.4404478
REMARK minimizedRMSD -1
REMARK  1 active torsions:
REMARK  status: ('A' for Active; 'I' for Inactive)
REMARK    1  A    between atoms: C1_2  and  C2_3 
ROOT
ATOM      1  C2  UNL d   1       2.405  -0.253   1.051  0.00  0.00    -0.073 A 
ATOM      2  C3  UNL d   1       2.776  -1.526   0.605  0.00  0.00    -0.002 A 
ATOM      3  C4  UNL d   1       2.122  -2.660   1.088  0.00  0.00     0.004 A 
ATOM      4  C5  UNL d   1       1.088  -2.533   2.014  0.00  0.00    -0.004 A 
ATOM      5  C6  UNL d   1       0.694  -1.268   2.463  0.00  0.00    -0.075 A 
ATOM      6  C7  UNL d   1      -0.415  -1.115   3.462  0.00  0.00     0.076 C 
ATOM      7  C8  UNL d   1       1.358  -0.134   1.976  0.00  0.00     0.001 A 
ENDROOT
BRANCH   1   8
ATOM      8  C1  UNL d   1       3.104   0.976   0.528  0.00  0.00     0.053 C 
ATOM      9  C   UNL d   1       2.149   2.146   0.356  0.00  0.00     0.018 C 
ENDBRANCH   1   8
TORSDOF 1
ENDMDL
