MODEL 1
REMARK minimizedAffinity 4.27673626
REMARK minimizedRMSD -1
REMARK  1 active torsions:
REMARK  status: ('A' for Active; 'I' for Inactive)
REMARK    1  A    between atoms: C1_2  and  C2_3 
ROOT
ATOM      1  C2  UNL d   1      -1.851  -2.577   2.868  0.00  0.00    -0.073 A 
ATOM      2  C3  UNL d   1      -1.999  -1.703   3.952  0.00  0.00    -0.002 A 
ATOM      3  C4  UNL d   1      -0.968  -0.830   4.300  0.00  0.00     0.004 A 
ATOM      4  C5  UNL d   1       0.219  -0.817   3.566  0.00  0.00    -0.004 A 
ATOM      5  C6  UNL d   1       0.382  -1.674   2.473  0.00  0.00    -0.075 A 
ATOM      6  C7  UNL d   1       1.652  -1.674   1.675  0.00  0.00     0.076 C 
ATOM      7  C8  UNL d   1      -0.658  -2.550   2.131  0.00  0.00     0.001 A 
ENDROOT
BRANCH   1   8
ATOM      8  C1  UNL d   1      -2.964  -3.516   2.485  0.00  0.00     0.053 C 
ATOM      9  C   UNL d   1      -3.191  -3.547   0.981  0.00  0.00     0.018 C 
ENDBRANCH   1   8
TORSDOF 1
ENDMDL
