MODEL 1
REMARK minimizedAffinity 12.2698288
REMARK minimizedRMSD -1
REMARK  1 active torsions:
REMARK  status: ('A' for Active; 'I' for Inactive)
REMARK    1  A    between atoms: C1_2  and  C2_3 
ROOT
ATOM      1  C2  UNL d   1       0.928  -1.739   2.219  0.00  0.00    -0.073 A 
ATOM      2  C3  UNL d   1       1.030  -0.723   3.176  0.00  0.00    -0.002 A 
ATOM      3  C4  UNL d   1       0.011  -0.530   4.110  0.00  0.00     0.004 A 
ATOM      4  C5  UNL d   1      -1.115  -1.353   4.102  0.00  0.00    -0.004 A 
ATOM      5  C6  UNL d   1      -1.229  -2.382   3.161  0.00  0.00    -0.075 A 
ATOM      6  C7  UNL d   1      -2.435  -3.275   3.137  0.00  0.00     0.076 C 
ATOM      7  C8  UNL d   1      -0.203  -2.568   2.224  0.00  0.00     0.001 A 
ENDROOT
BRANCH   1   8
ATOM      8  C1  UNL d   1       2.028  -1.956   1.213  0.00  0.00     0.053 C 
ATOM      9  C   UNL d   1       3.067  -0.847   1.257  0.00  0.00     0.018 C 
ENDBRANCH   1   8
TORSDOF 1
ENDMDL
