MODEL 1
REMARK minimizedAffinity 15.4748497
REMARK minimizedRMSD -1
REMARK  1 active torsions:
REMARK  status: ('A' for Active; 'I' for Inactive)
REMARK    1  A    between atoms: C1_2  and  C2_3 
ROOT
ATOM      1  C2  UNL d   1      -2.190   4.782  -3.200  0.00  0.00    -0.073 A 
ATOM      2  C3  UNL d   1      -1.766   3.498  -3.563  0.00  0.00    -0.002 A 
ATOM      3  C4  UNL d   1      -2.330   2.373  -2.961  0.00  0.00     0.004 A 
ATOM      4  C5  UNL d   1      -3.326   2.518  -1.996  0.00  0.00    -0.004 A 
ATOM      5  C6  UNL d   1      -3.771   3.792  -1.628  0.00  0.00    -0.075 A 
ATOM      6  C7  UNL d   1      -4.841   3.965  -0.589  0.00  0.00     0.076 C 
ATOM      7  C8  UNL d   1      -3.198   4.917  -2.235  0.00  0.00     0.001 A 
ENDROOT
BRANCH   1   8
ATOM      8  C1  UNL d   1      -1.589   6.000  -3.852  0.00  0.00     0.053 C 
ATOM      9  C   UNL d   1      -1.780   5.992  -5.360  0.00  0.00     0.018 C 
ENDBRANCH   1   8
TORSDOF 1
ENDMDL
