MODEL 1
REMARK minimizedAffinity -0.0164400004
REMARK minimizedRMSD -1
REMARK  0 active torsions:
REMARK  status: ('A' for Active; 'I' for Inactive)
ROOT
ATOM      1  N1  IND d   1       0.823  -0.896  -0.281  0.00  0.00    -0.196 N 
ATOM      2  C2  IND d   1       1.866  -0.767   0.593  0.00  0.00     0.054 A 
ATOM      3  C3  IND d   1       1.478  -0.080   1.690  0.00  0.00    -0.031 A 
ATOM      4  C4  IND d   1      -0.847   0.839   2.308  0.00  0.00     0.051 A 
ATOM      5  C5  IND d   1      -2.109   0.998   1.809  0.00  0.00    -0.031 A 
ATOM      6  C6  IND d   1      -2.467   0.522   0.565  0.00  0.00     0.015 A 
ATOM      7  C7  IND d   1      -1.574  -0.144  -0.227  0.00  0.00    -0.016 A 
ATOM      8  C8  IND d   1      -0.289  -0.301   0.273  0.00  0.00    -0.047 A 
ATOM      9  C9  IND d   1       0.091   0.217   1.518  0.00  0.00    -0.096 A 
ATOM     10  HN1 IND d   1       0.856  -1.283  -1.048  0.00  0.00     0.298 HD
ENDROOT
TORSDOF 0
ENDMDL
