MODEL 1
REMARK minimizedAffinity -3.94986081
REMARK minimizedRMSD -1
REMARK  0 active torsions:
REMARK  status: ('A' for Active; 'I' for Inactive)
ROOT
ATOM      1  N1  IND d   1      -1.007  -2.968  -1.268  0.00  0.00    -0.196 N 
ATOM      2  C2  IND d   1      -2.342  -3.202  -1.086  0.00  0.00     0.054 A 
ATOM      3  C3  IND d   1      -2.893  -2.222  -0.336  0.00  0.00    -0.031 A 
ATOM      4  C4  IND d   1      -1.815  -0.085   0.612  0.00  0.00     0.051 A 
ATOM      5  C5  IND d   1      -0.611   0.549   0.739  0.00  0.00    -0.031 A 
ATOM      6  C6  IND d   1       0.545   0.034   0.190  0.00  0.00     0.015 A 
ATOM      7  C7  IND d   1       0.539  -1.134  -0.519  0.00  0.00    -0.016 A 
ATOM      8  C8  IND d   1      -0.681  -1.784  -0.644  0.00  0.00    -0.047 A 
ATOM      9  C9  IND d   1      -1.850  -1.288  -0.053  0.00  0.00    -0.096 A 
ATOM     10  HN1 IND d   1      -0.463  -3.475  -1.699  0.00  0.00     0.298 HD
ENDROOT
TORSDOF 0
ENDMDL
