MODEL 1
REMARK minimizedAffinity -0.0502453707
REMARK minimizedRMSD -1
REMARK  0 active torsions:
REMARK  status: ('A' for Active; 'I' for Inactive)
ROOT
ATOM      1  N1  IND d   1       0.256  -0.800  -1.214  0.00  0.00    -0.196 N 
ATOM      2  C2  IND d   1       0.209   0.292  -0.393  0.00  0.00     0.054 A 
ATOM      3  C3  IND d   1      -0.957   0.317   0.290  0.00  0.00    -0.031 A 
ATOM      4  C4  IND d   1      -2.889  -1.385   0.292  0.00  0.00     0.051 A 
ATOM      5  C5  IND d   1      -3.319  -2.527  -0.324  0.00  0.00    -0.031 A 
ATOM      6  C6  IND d   1      -2.563  -3.166  -1.285  0.00  0.00     0.015 A 
ATOM      7  C7  IND d   1      -1.338  -2.691  -1.660  0.00  0.00    -0.016 A 
ATOM      8  C8  IND d   1      -0.901  -1.528  -1.042  0.00  0.00    -0.047 A 
ATOM      9  C9  IND d   1      -1.683  -0.852  -0.097  0.00  0.00    -0.096 A 
ATOM     10  HN1 IND d   1       0.900  -0.999  -1.749  0.00  0.00     0.298 HD
ENDROOT
TORSDOF 0
ENDMDL
