MODEL 1
REMARK minimizedAffinity -1.45932329
REMARK minimizedRMSD -1
REMARK  0 active torsions:
REMARK  status: ('A' for Active; 'I' for Inactive)
ROOT
ATOM      1  N1  IND d   1      -0.018   0.001  -6.000  0.00  0.00    -0.196 N 
ATOM      2  C2  IND d   1      -0.755  -1.120  -5.737  0.00  0.00     0.054 A 
ATOM      3  C3  IND d   1      -0.604  -1.490  -4.445  0.00  0.00    -0.031 A 
ATOM      4  C4  IND d   1       0.721  -0.343  -2.560  0.00  0.00     0.051 A 
ATOM      5  C5  IND d   1       1.584   0.690  -2.324  0.00  0.00    -0.031 A 
ATOM      6  C6  IND d   1       1.963   1.566  -3.321  0.00  0.00     0.015 A 
ATOM      7  C7  IND d   1       1.481   1.447  -4.594  0.00  0.00    -0.016 A 
ATOM      8  C8  IND d   1       0.610   0.395  -4.839  0.00  0.00    -0.047 A 
ATOM      9  C9  IND d   1       0.256  -0.522  -3.841  0.00  0.00    -0.096 A 
ATOM     10  HN1 IND d   1       0.042   0.394  -6.762  0.00  0.00     0.298 HD
ENDROOT
TORSDOF 0
ENDMDL
