MODEL 1
REMARK minimizedAffinity -2.65509987
REMARK minimizedRMSD -1
REMARK  0 active torsions:
REMARK  status: ('A' for Active; 'I' for Inactive)
ROOT
ATOM      1  N1  IND d   1      -2.616  -0.340   2.292  0.00  0.00    -0.196 N 
ATOM      2  C2  IND d   1      -3.045  -1.110   1.247  0.00  0.00     0.054 A 
ATOM      3  C3  IND d   1      -2.187  -1.011   0.207  0.00  0.00    -0.031 A 
ATOM      4  C4  IND d   1       0.037   0.274   0.039  0.00  0.00     0.051 A 
ATOM      5  C5  IND d   1       0.829   1.151   0.725  0.00  0.00    -0.031 A 
ATOM      6  C6  IND d   1       0.508   1.582   1.996  0.00  0.00     0.015 A 
ATOM      7  C7  IND d   1      -0.616   1.142   2.635  0.00  0.00    -0.016 A 
ATOM      8  C8  IND d   1      -1.426   0.257   1.938  0.00  0.00    -0.047 A 
ATOM      9  C9  IND d   1      -1.128  -0.151   0.632  0.00  0.00    -0.096 A 
ATOM     10  HN1 IND d   1      -3.022  -0.245   3.045  0.00  0.00     0.298 HD
ENDROOT
TORSDOF 0
ENDMDL
