MODEL 1
REMARK minimizedAffinity 0.216226861
REMARK minimizedRMSD -1
REMARK  0 active torsions:
REMARK  status: ('A' for Active; 'I' for Inactive)
ROOT
ATOM      1  N1  IND d   1       1.844  -1.558   0.525  0.00  0.00    -0.196 N 
ATOM      2  C2  IND d   1       2.675  -0.934   1.413  0.00  0.00     0.054 A 
ATOM      3  C3  IND d   1       2.110   0.208   1.864  0.00  0.00    -0.031 A 
ATOM      4  C4  IND d   1      -0.213   1.195   1.357  0.00  0.00     0.051 A 
ATOM      5  C5  IND d   1      -1.318   1.003   0.576  0.00  0.00    -0.031 A 
ATOM      6  C6  IND d   1      -1.429  -0.076  -0.277  0.00  0.00     0.015 A 
ATOM      7  C7  IND d   1      -0.439  -1.013  -0.373  0.00  0.00    -0.016 A 
ATOM      8  C8  IND d   1       0.687  -0.818   0.413  0.00  0.00    -0.047 A 
ATOM      9  C9  IND d   1       0.824   0.298   1.249  0.00  0.00    -0.096 A 
ATOM     10  HN1 IND d   1       2.014  -2.289   0.106  0.00  0.00     0.298 HD
ENDROOT
TORSDOF 0
ENDMDL
