MODEL 1
REMARK minimizedAffinity 4.85332155
REMARK minimizedRMSD -1
REMARK  0 active torsions:
REMARK  status: ('A' for Active; 'I' for Inactive)
ROOT
ATOM      1  N1  IND d   1       0.455   0.082  -1.572  0.00  0.00    -0.196 N 
ATOM      2  C2  IND d   1      -0.379   1.111  -1.913  0.00  0.00     0.054 A 
ATOM      3  C3  IND d   1      -0.609   1.904  -0.843  0.00  0.00    -0.031 A 
ATOM      4  C4  IND d   1       0.360   1.760   1.538  0.00  0.00     0.051 A 
ATOM      5  C5  IND d   1       1.137   0.971   2.339  0.00  0.00    -0.031 A 
ATOM      6  C6  IND d   1       1.742  -0.176   1.866  0.00  0.00     0.015 A 
ATOM      7  C7  IND d   1       1.600  -0.573   0.567  0.00  0.00    -0.016 A 
ATOM      8  C8  IND d   1       0.805   0.222  -0.247  0.00  0.00    -0.047 A 
ATOM      9  C9  IND d   1       0.154   1.364   0.237  0.00  0.00    -0.096 A 
ATOM     10  HN1 IND d   1       0.716  -0.547  -2.097  0.00  0.00     0.298 HD
ENDROOT
TORSDOF 0
ENDMDL
