MODEL 1
REMARK minimizedAffinity -2.7108922
REMARK minimizedRMSD -1
REMARK  0 active torsions:
REMARK  status: ('A' for Active; 'I' for Inactive)
ROOT
ATOM      1  N1  IND d   1      -1.296  -1.035  -0.324  0.00  0.00    -0.196 N 
ATOM      2  C2  IND d   1      -0.485  -0.875  -1.412  0.00  0.00     0.054 A 
ATOM      3  C3  IND d   1       0.506   0.002  -1.136  0.00  0.00    -0.031 A 
ATOM      4  C4  IND d   1       1.047   1.218   1.068  0.00  0.00     0.051 A 
ATOM      5  C5  IND d   1       0.569   1.419   2.333  0.00  0.00    -0.031 A 
ATOM      6  C6  IND d   1      -0.576   0.797   2.787  0.00  0.00     0.015 A 
ATOM      7  C7  IND d   1      -1.283  -0.061   1.993  0.00  0.00    -0.016 A 
ATOM      8  C8  IND d   1      -0.805  -0.262   0.706  0.00  0.00    -0.047 A 
ATOM      9  C9  IND d   1       0.333   0.399   0.225  0.00  0.00    -0.096 A 
ATOM     10  HN1 IND d   1      -1.995  -1.534  -0.288  0.00  0.00     0.298 HD
ENDROOT
TORSDOF 0
ENDMDL
