MODEL 1
REMARK minimizedAffinity 3.63292909
REMARK minimizedRMSD -1
REMARK  0 active torsions:
REMARK  status: ('A' for Active; 'I' for Inactive)
ROOT
ATOM      1  N1  IND d   1      -1.858   0.184   0.811  0.00  0.00    -0.196 N 
ATOM      2  C2  IND d   1      -2.275   0.465   2.082  0.00  0.00     0.054 A 
ATOM      3  C3  IND d   1      -1.227   0.437   2.937  0.00  0.00    -0.031 A 
ATOM      4  C4  IND d   1       1.271   0.052   2.450  0.00  0.00     0.051 A 
ATOM      5  C5  IND d   1       2.134  -0.280   1.444  0.00  0.00    -0.031 A 
ATOM      6  C6  IND d   1       1.701  -0.477   0.148  0.00  0.00     0.015 A 
ATOM      7  C7  IND d   1       0.386  -0.336  -0.193  0.00  0.00    -0.016 A 
ATOM      8  C8  IND d   1      -0.494  -0.005   0.828  0.00  0.00    -0.047 A 
ATOM      9  C9  IND d   1      -0.067   0.154   2.153  0.00  0.00    -0.096 A 
ATOM     10  HN1 IND d   1      -2.364   0.133   0.117  0.00  0.00     0.298 HD
ENDROOT
TORSDOF 0
ENDMDL
