MODEL 1
REMARK minimizedAffinity 15.1106157
REMARK minimizedRMSD -1
REMARK  1 active torsions:
REMARK  status: ('A' for Active; 'I' for Inactive)
REMARK    1  A    between atoms: C1_2  and  C2_3 
ROOT
ATOM      1  C2  UNL d   1      -3.819   2.186   3.482  0.00  0.00    -0.076 A 
ATOM      2  C3  UNL d   1      -2.890   3.206   3.211  0.00  0.00     0.004 A 
ATOM      3  C4  UNL d   1      -1.675   2.923   2.589  0.00  0.00    -0.003 A 
ATOM      4  C5  UNL d   1      -1.370   1.616   2.227  0.00  0.00     0.000 A 
ATOM      5  C6  UNL d   1      -2.288   0.594   2.471  0.00  0.00     0.000 A 
ATOM      6  C7  UNL d   1      -3.524   0.865   3.083  0.00  0.00    -0.073 A 
ATOM      7  C8  UNL d   1      -4.473  -0.276   3.328  0.00  0.00     0.078 C 
ENDROOT
BRANCH   1   8
ATOM      8  C1  UNL d   1      -5.109   2.549   4.183  0.00  0.00     0.053 C 
ATOM      9  C   UNL d   1      -5.385   4.044   4.158  0.00  0.00     0.018 C 
ENDBRANCH   1   8
TORSDOF 1
ENDMDL
