MODEL 1
REMARK minimizedAffinity -3.07882142
REMARK minimizedRMSD -1
REMARK  1 active torsions:
REMARK  status: ('A' for Active; 'I' for Inactive)
REMARK    1  A    between atoms: C1_2  and  C2_3 
ROOT
ATOM      1  C2  UNL d   1       4.076  -4.359  -1.865  0.00  0.00    -0.076 A 
ATOM      2  C3  UNL d   1       5.410  -4.113  -1.496  0.00  0.00     0.004 A 
ATOM      3  C4  UNL d   1       5.806  -4.166  -0.161  0.00  0.00    -0.003 A 
ATOM      4  C5  UNL d   1       4.875  -4.467   0.827  0.00  0.00     0.000 A 
ATOM      5  C6  UNL d   1       3.551  -4.731   0.478  0.00  0.00     0.000 A 
ATOM      6  C7  UNL d   1       3.139  -4.698  -0.865  0.00  0.00    -0.073 A 
ATOM      7  C8  UNL d   1       1.697  -4.986  -1.185  0.00  0.00     0.078 C 
ENDROOT
BRANCH   1   8
ATOM      8  C1  UNL d   1       3.698  -4.261  -3.326  0.00  0.00     0.053 C 
ATOM      9  C   UNL d   1       2.753  -3.104  -3.607  0.00  0.00     0.018 C 
ENDBRANCH   1   8
TORSDOF 1
ENDMDL
