MODEL 1
REMARK minimizedAffinity 9.47437382
REMARK minimizedRMSD -1
REMARK  1 active torsions:
REMARK  status: ('A' for Active; 'I' for Inactive)
REMARK    1  A    between atoms: C1_2  and  C2_3 
ROOT
ATOM      1  C2  UNL d   1       2.565   1.041  -1.649  0.00  0.00    -0.076 A 
ATOM      2  C3  UNL d   1       2.248  -0.252  -2.101  0.00  0.00     0.004 A 
ATOM      3  C4  UNL d   1       1.518  -0.442  -3.273  0.00  0.00    -0.003 A 
ATOM      4  C5  UNL d   1       1.095   0.657  -4.013  0.00  0.00     0.000 A 
ATOM      5  C6  UNL d   1       1.416   1.945  -3.588  0.00  0.00     0.000 A 
ATOM      6  C7  UNL d   1       2.165   2.155  -2.417  0.00  0.00    -0.073 A 
ATOM      7  C8  UNL d   1       2.477   3.566  -2.003  0.00  0.00     0.078 C 
ENDROOT
BRANCH   1   8
ATOM      8  C1  UNL d   1       3.335   1.187  -0.356  0.00  0.00     0.053 C 
ATOM      9  C   UNL d   1       4.136  -0.059  -0.011  0.00  0.00     0.018 C 
ENDBRANCH   1   8
TORSDOF 1
ENDMDL
