MODEL 1
REMARK minimizedAffinity 1.00225961
REMARK minimizedRMSD -1
REMARK  1 active torsions:
REMARK  status: ('A' for Active; 'I' for Inactive)
REMARK    1  A    between atoms: C1_2  and  C2_3 
ROOT
ATOM      1  C2  UNL d   1       1.256   3.743  -1.245  0.00  0.00    -0.076 A 
ATOM      2  C3  UNL d   1       2.251   3.242  -2.102  0.00  0.00     0.004 A 
ATOM      3  C4  UNL d   1       2.611   1.895  -2.074  0.00  0.00    -0.003 A 
ATOM      4  C5  UNL d   1       1.981   1.029  -1.188  0.00  0.00     0.000 A 
ATOM      5  C6  UNL d   1       0.979   1.505  -0.343  0.00  0.00     0.000 A 
ATOM      6  C7  UNL d   1       0.593   2.856  -0.370  0.00  0.00    -0.073 A 
ATOM      7  C8  UNL d   1      -0.489   3.318   0.567  0.00  0.00     0.078 C 
ENDROOT
BRANCH   1   8
ATOM      8  C1  UNL d   1       0.927   5.218  -1.302  0.00  0.00     0.053 C 
ATOM      9  C   UNL d   1       1.550   5.999  -0.156  0.00  0.00     0.018 C 
ENDBRANCH   1   8
TORSDOF 1
ENDMDL
