MODEL 1
REMARK minimizedAffinity 0.297610015
REMARK minimizedRMSD -1
REMARK  1 active torsions:
REMARK  status: ('A' for Active; 'I' for Inactive)
REMARK    1  A    between atoms: C1_2  and  C2_3 
ROOT
ATOM      1  C2  UNL d   1      -3.537   4.358  -5.840  0.00  0.00    -0.076 A 
ATOM      2  C3  UNL d   1      -2.590   3.319  -5.804  0.00  0.00     0.004 A 
ATOM      3  C4  UNL d   1      -2.989   1.984  -5.828  0.00  0.00    -0.003 A 
ATOM      4  C5  UNL d   1      -4.341   1.665  -5.888  0.00  0.00     0.000 A 
ATOM      5  C6  UNL d   1      -5.293   2.682  -5.942  0.00  0.00     0.000 A 
ATOM      6  C7  UNL d   1      -4.908   4.034  -5.936  0.00  0.00    -0.073 A 
ATOM      7  C8  UNL d   1      -5.977   5.090  -5.990  0.00  0.00     0.078 C 
ENDROOT
BRANCH   1   8
ATOM      8  C1  UNL d   1      -3.047   5.787  -5.784  0.00  0.00     0.053 C 
ATOM      9  C   UNL d   1      -1.993   6.000  -4.708  0.00  0.00     0.018 C 
ENDBRANCH   1   8
TORSDOF 1
ENDMDL
