MODEL 1
REMARK minimizedAffinity 20.9279575
REMARK minimizedRMSD -1
REMARK  1 active torsions:
REMARK  status: ('A' for Active; 'I' for Inactive)
REMARK    1  A    between atoms: C1_2  and  C2_3 
ROOT
ATOM      1  C2  UNL d   1       2.541  -0.274  -0.290  0.00  0.00    -0.076 A 
ATOM      2  C3  UNL d   1       1.613   0.490  -1.019  0.00  0.00     0.004 A 
ATOM      3  C4  UNL d   1       0.894  -0.070  -2.073  0.00  0.00    -0.003 A 
ATOM      4  C5  UNL d   1       1.090  -1.404  -2.415  0.00  0.00     0.000 A 
ATOM      5  C6  UNL d   1       1.993  -2.181  -1.691  0.00  0.00     0.000 A 
ATOM      6  C7  UNL d   1       2.715  -1.636  -0.615  0.00  0.00    -0.073 A 
ATOM      7  C8  UNL d   1       3.681  -2.519   0.127  0.00  0.00     0.078 C 
ENDROOT
BRANCH   1   8
ATOM      8  C1  UNL d   1       3.312   0.395   0.826  0.00  0.00     0.053 C 
ATOM      9  C   UNL d   1       2.451   1.348   1.640  0.00  0.00     0.018 C 
ENDBRANCH   1   8
TORSDOF 1
ENDMDL
