MODEL 1
REMARK minimizedAffinity 9.16724586
REMARK minimizedRMSD -1
REMARK  1 active torsions:
REMARK  status: ('A' for Active; 'I' for Inactive)
REMARK    1  A    between atoms: C1_2  and  C2_3 
ROOT
ATOM      1  C2  UNL d   1      -4.181  -4.398   2.331  0.00  0.00    -0.076 A 
ATOM      2  C3  UNL d   1      -5.543  -4.058   2.247  0.00  0.00     0.004 A 
ATOM      3  C4  UNL d   1      -5.999  -2.812   2.673  0.00  0.00    -0.003 A 
ATOM      4  C5  UNL d   1      -5.100  -1.885   3.190  0.00  0.00     0.000 A 
ATOM      5  C6  UNL d   1      -3.744  -2.199   3.265  0.00  0.00     0.000 A 
ATOM      6  C7  UNL d   1      -3.265  -3.445   2.824  0.00  0.00    -0.073 A 
ATOM      7  C8  UNL d   1      -1.793  -3.732   2.934  0.00  0.00     0.078 C 
ENDROOT
BRANCH   1   8
ATOM      8  C1  UNL d   1      -3.749  -5.775   1.879  0.00  0.00     0.053 C 
ATOM      9  C   UNL d   1      -3.016  -5.747   0.547  0.00  0.00     0.018 C 
ENDBRANCH   1   8
TORSDOF 1
ENDMDL
