MODEL 1
REMARK minimizedAffinity 6.69839811
REMARK minimizedRMSD -1
REMARK  1 active torsions:
REMARK  status: ('A' for Active; 'I' for Inactive)
REMARK    1  A    between atoms: C1_2  and  C2_3 
ROOT
ATOM      1  C2  UNL d   1      -2.091  -4.105  -3.346  0.00  0.00    -0.076 A 
ATOM      2  C3  UNL d   1      -3.178  -4.700  -4.010  0.00  0.00     0.004 A 
ATOM      3  C4  UNL d   1      -3.496  -4.352  -5.321  0.00  0.00    -0.003 A 
ATOM      4  C5  UNL d   1      -2.732  -3.403  -5.991  0.00  0.00     0.000 A 
ATOM      5  C6  UNL d   1      -1.639  -2.815  -5.354  0.00  0.00     0.000 A 
ATOM      6  C7  UNL d   1      -1.295  -3.167  -4.038  0.00  0.00    -0.073 A 
ATOM      7  C8  UNL d   1      -0.110  -2.498  -3.398  0.00  0.00     0.078 C 
ENDROOT
BRANCH   1   8
ATOM      8  C1  UNL d   1      -1.811  -4.503  -1.915  0.00  0.00     0.053 C 
ATOM      9  C   UNL d   1      -1.273  -5.921  -1.799  0.00  0.00     0.018 C 
ENDBRANCH   1   8
TORSDOF 1
ENDMDL
