MODEL 1
REMARK minimizedAffinity 8.61061954
REMARK minimizedRMSD -1
REMARK  1 active torsions:
REMARK  status: ('A' for Active; 'I' for Inactive)
REMARK    1  A    between atoms: C1_2  and  C2_3 
ROOT
ATOM      1  C2  UNL d   1       1.825   0.539  -2.178  0.00  0.00    -0.076 A 
ATOM      2  C3  UNL d   1       1.009   1.401  -2.932  0.00  0.00     0.004 A 
ATOM      3  C4  UNL d   1       0.946   2.763  -2.644  0.00  0.00    -0.003 A 
ATOM      4  C5  UNL d   1       1.697   3.286  -1.598  0.00  0.00     0.000 A 
ATOM      5  C6  UNL d   1       2.526   2.449  -0.850  0.00  0.00     0.000 A 
ATOM      6  C7  UNL d   1       2.614   1.076  -1.138  0.00  0.00    -0.073 A 
ATOM      7  C8  UNL d   1       3.518   0.219  -0.296  0.00  0.00     0.078 C 
ENDROOT
BRANCH   1   8
ATOM      8  C1  UNL d   1       1.833  -0.934  -2.519  0.00  0.00     0.053 C 
ATOM      9  C   UNL d   1       1.648  -1.188  -4.007  0.00  0.00     0.018 C 
ENDBRANCH   1   8
TORSDOF 1
ENDMDL
