MODEL 1
REMARK minimizedAffinity 11.9993238
REMARK minimizedRMSD -1
REMARK  1 active torsions:
REMARK  status: ('A' for Active; 'I' for Inactive)
REMARK    1  A    between atoms: C1_2  and  C2_3 
ROOT
ATOM      1  C2  UNL d   1      -2.074  -4.370  -4.542  0.00  0.00    -0.076 A 
ATOM      2  C3  UNL d   1      -1.927  -5.235  -3.443  0.00  0.00     0.004 A 
ATOM      3  C4  UNL d   1      -1.593  -4.743  -2.183  0.00  0.00    -0.003 A 
ATOM      4  C5  UNL d   1      -1.400  -3.378  -2.000  0.00  0.00     0.000 A 
ATOM      5  C6  UNL d   1      -1.559  -2.503  -3.074  0.00  0.00     0.000 A 
ATOM      6  C7  UNL d   1      -1.912  -2.981  -4.348  0.00  0.00    -0.073 A 
ATOM      7  C8  UNL d   1      -2.064  -1.994  -5.473  0.00  0.00     0.078 C 
ENDROOT
BRANCH   1   8
ATOM      8  C1  UNL d   1      -2.412  -4.963  -5.891  0.00  0.00     0.053 C 
ATOM      9  C   UNL d   1      -3.870  -5.380  -5.996  0.00  0.00     0.018 C 
ENDBRANCH   1   8
TORSDOF 1
ENDMDL
