MODEL 1
REMARK minimizedAffinity 11.8902836
REMARK minimizedRMSD -1
REMARK  1 active torsions:
REMARK  status: ('A' for Active; 'I' for Inactive)
REMARK    1  A    between atoms: C1_2  and  C2_3 
ROOT
ATOM      1  C2  UNL d   1      -0.799  -2.478   3.480  0.00  0.00    -0.076 A 
ATOM      2  C3  UNL d   1      -1.981  -2.462   4.240  0.00  0.00     0.004 A 
ATOM      3  C4  UNL d   1      -3.117  -3.149   3.816  0.00  0.00    -0.003 A 
ATOM      4  C5  UNL d   1      -3.089  -3.865   2.624  0.00  0.00     0.000 A 
ATOM      5  C6  UNL d   1      -1.920  -3.906   1.866  0.00  0.00     0.000 A 
ATOM      6  C7  UNL d   1      -0.761  -3.232   2.287  0.00  0.00    -0.073 A 
ATOM      7  C8  UNL d   1       0.471  -3.306   1.427  0.00  0.00     0.078 C 
ENDROOT
BRANCH   1   8
ATOM      8  C1  UNL d   1       0.393  -1.691   3.976  0.00  0.00     0.053 C 
ATOM      9  C   UNL d   1      -0.012  -0.465   4.779  0.00  0.00     0.018 C 
ENDBRANCH   1   8
TORSDOF 1
ENDMDL
