MODEL 1
REMARK minimizedAffinity 7.09658241
REMARK minimizedRMSD -1
REMARK  1 active torsions:
REMARK  status: ('A' for Active; 'I' for Inactive)
REMARK    1  A    between atoms: C1_2  and  C2_3 
ROOT
ATOM      1  C2  UNL d   1       1.497   3.791   0.145  0.00  0.00    -0.076 A 
ATOM      2  C3  UNL d   1       1.495   2.385   0.122  0.00  0.00     0.004 A 
ATOM      3  C4  UNL d   1       1.639   1.687  -1.076  0.00  0.00    -0.003 A 
ATOM      4  C5  UNL d   1       1.789   2.383  -2.270  0.00  0.00     0.000 A 
ATOM      5  C6  UNL d   1       1.811   3.778  -2.264  0.00  0.00     0.000 A 
ATOM      6  C7  UNL d   1       1.682   4.497  -1.063  0.00  0.00    -0.073 A 
ATOM      7  C8  UNL d   1       1.707   6.000  -1.115  0.00  0.00     0.078 C 
ENDROOT
BRANCH   1   8
ATOM      8  C1  UNL d   1       1.309   4.493   1.471  0.00  0.00     0.053 C 
ATOM      9  C   UNL d   1       2.103   3.843   2.593  0.00  0.00     0.018 C 
ENDBRANCH   1   8
TORSDOF 1
ENDMDL
