MODEL 1
REMARK minimizedAffinity 4.30710697
REMARK minimizedRMSD -1
REMARK  1 active torsions:
REMARK  status: ('A' for Active; 'I' for Inactive)
REMARK    1  A    between atoms: C1_2  and  C2_3 
ROOT
ATOM      1  C2  UNL d   1      -0.174  -3.015   1.002  0.00  0.00    -0.076 A 
ATOM      2  C3  UNL d   1      -0.336  -2.734   2.370  0.00  0.00     0.004 A 
ATOM      3  C4  UNL d   1      -1.558  -2.943   3.006  0.00  0.00    -0.003 A 
ATOM      4  C5  UNL d   1      -2.639  -3.438   2.284  0.00  0.00     0.000 A 
ATOM      5  C6  UNL d   1      -2.492  -3.739   0.931  0.00  0.00     0.000 A 
ATOM      6  C7  UNL d   1      -1.262  -3.549   0.278  0.00  0.00    -0.073 A 
ATOM      7  C8  UNL d   1      -1.161  -3.885  -1.185  0.00  0.00     0.078 C 
ENDROOT
BRANCH   1   8
ATOM      8  C1  UNL d   1       1.167  -2.742   0.360  0.00  0.00     0.053 C 
ATOM      9  C   UNL d   1       2.084  -3.955   0.389  0.00  0.00     0.018 C 
ENDBRANCH   1   8
TORSDOF 1
ENDMDL
