MODEL 1
REMARK minimizedAffinity 6.96453905
REMARK minimizedRMSD -1
REMARK  0 active torsions:
REMARK  status: ('A' for Active; 'I' for Inactive)
ROOT
ATOM      1  N1  IND d   1       0.430  -0.863  -0.421  0.00  0.00    -0.196 N 
ATOM      2  C2  IND d   1      -0.362   0.002  -1.123  0.00  0.00     0.054 A 
ATOM      3  C3  IND d   1      -1.183   0.675  -0.285  0.00  0.00    -0.031 A 
ATOM      4  C4  IND d   1      -1.323   0.589   2.284  0.00  0.00     0.051 A 
ATOM      5  C5  IND d   1      -0.825  -0.077   3.368  0.00  0.00    -0.031 A 
ATOM      6  C6  IND d   1       0.139  -1.057   3.243  0.00  0.00     0.015 A 
ATOM      7  C7  IND d   1       0.650  -1.401   2.024  0.00  0.00    -0.016 A 
ATOM      8  C8  IND d   1       0.141  -0.732   0.920  0.00  0.00    -0.047 A 
ATOM      9  C9  IND d   1      -0.867   0.234   1.036  0.00  0.00    -0.096 A 
ATOM     10  HN1 IND d   1       1.011  -1.399  -0.760  0.00  0.00     0.298 HD
ENDROOT
TORSDOF 0
ENDMDL
