MODEL 1
REMARK minimizedAffinity 0.255455345
REMARK minimizedRMSD -1
REMARK  0 active torsions:
REMARK  status: ('A' for Active; 'I' for Inactive)
ROOT
ATOM      1  N1  IND d   1       1.810  -1.140  -2.123  0.00  0.00    -0.196 N 
ATOM      2  C2  IND d   1       2.912  -1.377  -1.350  0.00  0.00     0.054 A 
ATOM      3  C3  IND d   1       2.661  -1.055  -0.061  0.00  0.00    -0.031 A 
ATOM      4  C4  IND d   1       0.480  -0.218   1.021  0.00  0.00     0.051 A 
ATOM      5  C5  IND d   1      -0.789   0.185   0.713  0.00  0.00    -0.031 A 
ATOM      6  C6  IND d   1      -1.268   0.164  -0.581  0.00  0.00     0.015 A 
ATOM      7  C7  IND d   1      -0.495  -0.274  -1.619  0.00  0.00    -0.016 A 
ATOM      8  C8  IND d   1       0.797  -0.677  -1.312  0.00  0.00    -0.047 A 
ATOM      9  C9  IND d   1       1.302  -0.618  -0.006  0.00  0.00    -0.096 A 
ATOM     10  HN1 IND d   1       1.757  -1.260  -2.973  0.00  0.00     0.298 HD
ENDROOT
TORSDOF 0
ENDMDL
