MODEL 1
REMARK minimizedAffinity -4.5572958
REMARK minimizedRMSD -1
REMARK  0 active torsions:
REMARK  status: ('A' for Active; 'I' for Inactive)
ROOT
ATOM      1  N1  IND d   1       1.287  -1.125  -0.948  0.00  0.00    -0.196 N 
ATOM      2  C2  IND d   1       0.375  -0.269  -1.500  0.00  0.00     0.054 A 
ATOM      3  C3  IND d   1      -0.397   0.282  -0.536  0.00  0.00    -0.031 A 
ATOM      4  C4  IND d   1      -0.271  -0.000   2.020  0.00  0.00     0.051 A 
ATOM      5  C5  IND d   1       0.375  -0.707   2.995  0.00  0.00    -0.031 A 
ATOM      6  C6  IND d   1       1.380  -1.605   2.700  0.00  0.00     0.015 A 
ATOM      7  C7  IND d   1       1.786  -1.823   1.414  0.00  0.00    -0.016 A 
ATOM      8  C8  IND d   1       1.128  -1.112   0.420  0.00  0.00    -0.047 A 
ATOM      9  C9  IND d   1       0.078  -0.231   0.710  0.00  0.00    -0.096 A 
ATOM     10  HN1 IND d   1       1.863  -1.593  -1.382  0.00  0.00     0.298 HD
ENDROOT
TORSDOF 0
ENDMDL
