MODEL 1
REMARK minimizedAffinity -3.26005387
REMARK minimizedRMSD -1
REMARK  0 active torsions:
REMARK  status: ('A' for Active; 'I' for Inactive)
ROOT
ATOM      1  N1  IND d   1       1.919  -1.462  -1.364  0.00  0.00    -0.196 N 
ATOM      2  C2  IND d   1       2.501  -1.562  -0.131  0.00  0.00     0.054 A 
ATOM      3  C3  IND d   1       1.903  -0.721   0.742  0.00  0.00    -0.031 A 
ATOM      4  C4  IND d   1      -0.115   0.838   0.389  0.00  0.00     0.051 A 
ATOM      5  C5  IND d   1      -0.963   1.301  -0.578  0.00  0.00    -0.031 A 
ATOM      6  C6  IND d   1      -0.893   0.855  -1.883  0.00  0.00     0.015 A 
ATOM      7  C7  IND d   1       0.023  -0.083  -2.267  0.00  0.00    -0.016 A 
ATOM      8  C8  IND d   1       0.890  -0.549  -1.289  0.00  0.00    -0.047 A 
ATOM      9  C9  IND d   1       0.852  -0.070   0.026  0.00  0.00    -0.096 A 
ATOM     10  HN1 IND d   1       2.156  -1.896  -2.067  0.00  0.00     0.298 HD
ENDROOT
TORSDOF 0
ENDMDL
