MODEL 1
REMARK minimizedAffinity -4.7557807
REMARK minimizedRMSD -1
REMARK  0 active torsions:
REMARK  status: ('A' for Active; 'I' for Inactive)
ROOT
ATOM      1  N1  IND d   1       0.492  -0.414  -1.031  0.00  0.00    -0.196 N 
ATOM      2  C2  IND d   1      -0.764   0.039  -0.740  0.00  0.00     0.054 A 
ATOM      3  C3  IND d   1      -1.036  -0.138   0.573  0.00  0.00    -0.031 A 
ATOM      4  C4  IND d   1       0.472  -1.056   2.446  0.00  0.00     0.051 A 
ATOM      5  C5  IND d   1       1.694  -1.630   2.661  0.00  0.00    -0.031 A 
ATOM      6  C6  IND d   1       2.597  -1.829   1.637  0.00  0.00     0.015 A 
ATOM      7  C7  IND d   1       2.315  -1.450   0.355  0.00  0.00    -0.016 A 
ATOM      8  C8  IND d   1       1.072  -0.874   0.131  0.00  0.00    -0.047 A 
ATOM      9  C9  IND d   1       0.135  -0.708   1.159  0.00  0.00    -0.096 A 
ATOM     10  HN1 IND d   1       0.859  -0.412  -1.808  0.00  0.00     0.298 HD
ENDROOT
TORSDOF 0
ENDMDL
