MODEL 1
REMARK minimizedAffinity -2.77217531
REMARK minimizedRMSD -1
REMARK  0 active torsions:
REMARK  status: ('A' for Active; 'I' for Inactive)
ROOT
ATOM      1  N1  IND d   1       1.313   0.483  -0.528  0.00  0.00    -0.196 N 
ATOM      2  C2  IND d   1       0.238   0.807  -1.308  0.00  0.00     0.054 A 
ATOM      3  C3  IND d   1      -0.915   0.504  -0.670  0.00  0.00    -0.031 A 
ATOM      4  C4  IND d   1      -1.274  -0.436   1.699  0.00  0.00     0.051 A 
ATOM      5  C5  IND d   1      -0.593  -0.924   2.780  0.00  0.00    -0.031 A 
ATOM      6  C6  IND d   1       0.786  -0.966   2.814  0.00  0.00     0.015 A 
ATOM      7  C7  IND d   1       1.539  -0.509   1.770  0.00  0.00    -0.016 A 
ATOM      8  C8  IND d   1       0.851  -0.020   0.669  0.00  0.00    -0.047 A 
ATOM      9  C9  IND d   1      -0.549  -0.014   0.610  0.00  0.00    -0.096 A 
ATOM     10  HN1 IND d   1       2.139   0.578  -0.747  0.00  0.00     0.298 HD
ENDROOT
TORSDOF 0
ENDMDL
