MODEL 1
REMARK minimizedAffinity 0.941290617
REMARK minimizedRMSD -1
REMARK  0 active torsions:
REMARK  status: ('A' for Active; 'I' for Inactive)
ROOT
ATOM      1  N1  IND d   1      -1.649  -0.099  -0.063  0.00  0.00    -0.196 N 
ATOM      2  C2  IND d   1      -1.201   0.617  -1.138  0.00  0.00     0.054 A 
ATOM      3  C3  IND d   1       0.138   0.793  -1.061  0.00  0.00    -0.031 A 
ATOM      4  C4  IND d   1       1.806  -0.095   0.687  0.00  0.00     0.051 A 
ATOM      5  C5  IND d   1       1.865  -0.769   1.875  0.00  0.00    -0.031 A 
ATOM      6  C6  IND d   1       0.734  -1.266   2.488  0.00  0.00     0.015 A 
ATOM      7  C7  IND d   1      -0.504  -1.117   1.928  0.00  0.00    -0.016 A 
ATOM      8  C8  IND d   1      -0.569  -0.428   0.726  0.00  0.00    -0.047 A 
ATOM      9  C9  IND d   1       0.571   0.116   0.120  0.00  0.00    -0.096 A 
ATOM     10  HN1 IND d   1      -2.468  -0.309   0.093  0.00  0.00     0.298 HD
ENDROOT
TORSDOF 0
ENDMDL
