MODEL 1
REMARK minimizedAffinity -4.27405977
REMARK minimizedRMSD -1
REMARK  1 active torsions:
REMARK  status: ('A' for Active; 'I' for Inactive)
REMARK    1  A    between atoms: C3_4  and  O_7 
ROOT
ATOM      1  C   UNL d   1      -0.478   0.010   3.654  0.00  0.00    -0.033 A 
ATOM      2  C1  UNL d   1       0.536   0.718   3.005  0.00  0.00     0.039 A 
ATOM      3  C2  UNL d   1       0.697   0.601   1.623  0.00  0.00    -0.080 A 
ATOM      4  C3  UNL d   1      -0.161  -0.225   0.902  0.00  0.00     0.150 A 
ATOM      5  C4  UNL d   1      -1.175  -0.930   1.541  0.00  0.00    -0.007 A 
ATOM      6  C5  UNL d   1      -1.334  -0.813   2.921  0.00  0.00     0.039 A 
ENDROOT
BRANCH   4   7
ATOM      7  O   UNL d   1      -0.040  -0.374  -0.447  0.00  0.00    -0.526 OA
ATOM      8  H5  UNL d   1       0.722   0.150  -0.748  0.00  0.00     0.418 HD
ENDBRANCH   4   7
TORSDOF 1
ENDMDL
