MODEL 1
REMARK minimizedAffinity -0.701039672
REMARK minimizedRMSD -1
REMARK  1 active torsions:
REMARK  status: ('A' for Active; 'I' for Inactive)
REMARK    1  A    between atoms: C3_4  and  O_7 
ROOT
ATOM      1  C   UNL d   1      -0.436  -0.586  -0.032  0.00  0.00    -0.033 A 
ATOM      2  C1  UNL d   1      -0.076   0.461   0.819  0.00  0.00     0.039 A 
ATOM      3  C2  UNL d   1      -0.371   0.389   2.182  0.00  0.00    -0.080 A 
ATOM      4  C3  UNL d   1      -1.024  -0.735   2.681  0.00  0.00     0.150 A 
ATOM      5  C4  UNL d   1      -1.382  -1.783   1.840  0.00  0.00    -0.007 A 
ATOM      6  C5  UNL d   1      -1.087  -1.709   0.479  0.00  0.00     0.039 A 
ENDROOT
BRANCH   4   7
ATOM      7  O   UNL d   1      -1.338  -0.848   4.002  0.00  0.00    -0.526 OA
ATOM      8  H5  UNL d   1      -1.056  -0.037   4.456  0.00  0.00     0.418 HD
ENDBRANCH   4   7
TORSDOF 1
ENDMDL
