MODEL 1
REMARK minimizedAffinity -4.61670637
REMARK minimizedRMSD -1
REMARK  1 active torsions:
REMARK  status: ('A' for Active; 'I' for Inactive)
REMARK    1  A    between atoms: C3_4  and  O_7 
ROOT
ATOM      1  C   UNL d   1       0.456   0.085  -0.183  0.00  0.00    -0.033 A 
ATOM      2  C1  UNL d   1       1.298   0.306   0.908  0.00  0.00     0.039 A 
ATOM      3  C2  UNL d   1       0.859   0.016   2.202  0.00  0.00    -0.080 A 
ATOM      4  C3  UNL d   1      -0.422  -0.495   2.390  0.00  0.00     0.150 A 
ATOM      5  C4  UNL d   1      -1.265  -0.722   1.307  0.00  0.00    -0.007 A 
ATOM      6  C5  UNL d   1      -0.825  -0.431   0.016  0.00  0.00     0.039 A 
ENDROOT
BRANCH   4   7
ATOM      7  O   UNL d   1      -0.896  -0.789   3.634  0.00  0.00    -0.526 OA
ATOM      8  H5  UNL d   1      -0.215  -0.554   4.286  0.00  0.00     0.418 HD
ENDBRANCH   4   7
TORSDOF 1
ENDMDL
