MODEL 1
REMARK minimizedAffinity -3.3512435
REMARK minimizedRMSD -1
REMARK  1 active torsions:
REMARK  status: ('A' for Active; 'I' for Inactive)
REMARK    1  A    between atoms: C3_4  and  O_7 
ROOT
ATOM      1  C   UNL d   1      -1.740  -0.413   0.932  0.00  0.00    -0.033 A 
ATOM      2  C1  UNL d   1      -0.379  -0.717   0.997  0.00  0.00     0.039 A 
ATOM      3  C2  UNL d   1       0.444  -0.484  -0.107  0.00  0.00    -0.080 A 
ATOM      4  C3  UNL d   1      -0.106   0.054  -1.267  0.00  0.00     0.150 A 
ATOM      5  C4  UNL d   1      -1.460   0.363  -1.338  0.00  0.00    -0.007 A 
ATOM      6  C5  UNL d   1      -2.280   0.129  -0.235  0.00  0.00     0.039 A 
ENDROOT
BRANCH   4   7
ATOM      7  O   UNL d   1       0.657   0.294  -2.371  0.00  0.00    -0.526 OA
ATOM      8  H5  UNL d   1       1.566   0.005  -2.186  0.00  0.00     0.418 HD
ENDBRANCH   4   7
TORSDOF 1
ENDMDL
