MODEL 1
REMARK minimizedAffinity -5.11447763
REMARK minimizedRMSD -1
REMARK  1 active torsions:
REMARK  status: ('A' for Active; 'I' for Inactive)
REMARK    1  A    between atoms: C3_4  and  O_7 
ROOT
ATOM      1  C   UNL d   1      -0.211  -0.485   2.929  0.00  0.00    -0.033 A 
ATOM      2  C1  UNL d   1       0.842   0.326   2.500  0.00  0.00     0.039 A 
ATOM      3  C2  UNL d   1       0.922   0.719   1.162  0.00  0.00    -0.080 A 
ATOM      4  C3  UNL d   1      -0.055   0.296   0.266  0.00  0.00     0.150 A 
ATOM      5  C4  UNL d   1      -1.108  -0.509   0.687  0.00  0.00    -0.007 A 
ATOM      6  C5  UNL d   1      -1.187  -0.901   2.022  0.00  0.00     0.039 A 
ENDROOT
BRANCH   4   7
ATOM      7  O   UNL d   1      -0.016   0.650  -1.050  0.00  0.00    -0.526 OA
ATOM      8  H5  UNL d   1       0.783   1.183  -1.202  0.00  0.00     0.418 HD
ENDBRANCH   4   7
TORSDOF 1
ENDMDL
