MODEL 1
REMARK minimizedAffinity -4.53217506
REMARK minimizedRMSD -1
REMARK  1 active torsions:
REMARK  status: ('A' for Active; 'I' for Inactive)
REMARK    1  A    between atoms: C3_4  and  O_7 
ROOT
ATOM      1  C   UNL d   1      -0.086  -0.712   3.031  0.00  0.00    -0.033 A 
ATOM      2  C1  UNL d   1       1.173  -0.258   2.631  0.00  0.00     0.039 A 
ATOM      3  C2  UNL d   1       1.397   0.099   1.300  0.00  0.00    -0.080 A 
ATOM      4  C3  UNL d   1       0.357  -0.001   0.381  0.00  0.00     0.150 A 
ATOM      5  C4  UNL d   1      -0.901  -0.448   0.773  0.00  0.00    -0.007 A 
ATOM      6  C5  UNL d   1      -1.123  -0.806   2.103  0.00  0.00     0.039 A 
ENDROOT
BRANCH   4   7
ATOM      7  O   UNL d   1       0.529   0.332  -0.930  0.00  0.00    -0.526 OA
ATOM      8  H5  UNL d   1       1.455   0.596  -1.061  0.00  0.00     0.418 HD
ENDBRANCH   4   7
TORSDOF 1
ENDMDL
