MODEL 1
REMARK minimizedAffinity -4.85623884
REMARK minimizedRMSD -1
REMARK  1 active torsions:
REMARK  status: ('A' for Active; 'I' for Inactive)
REMARK    1  A    between atoms: C3_4  and  O_7 
ROOT
ATOM      1  C   UNL d   1       0.339   0.518   0.103  0.00  0.00    -0.033 A 
ATOM      2  C1  UNL d   1      -0.996   0.152   0.281  0.00  0.00     0.039 A 
ATOM      3  C2  UNL d   1      -1.421  -0.375   1.502  0.00  0.00    -0.080 A 
ATOM      4  C3  UNL d   1      -0.502  -0.530   2.536  0.00  0.00     0.150 A 
ATOM      5  C4  UNL d   1       0.829  -0.163   2.367  0.00  0.00    -0.007 A 
ATOM      6  C5  UNL d   1       1.252   0.362   1.147  0.00  0.00     0.039 A 
ENDROOT
BRANCH   4   7
ATOM      7  O   UNL d   1      -0.869  -1.044   3.744  0.00  0.00    -0.526 OA
ATOM      8  H5  UNL d   1      -1.811  -1.279   3.706  0.00  0.00     0.418 HD
ENDBRANCH   4   7
TORSDOF 1
ENDMDL
