MODEL 1
REMARK minimizedAffinity -4.43803787
REMARK minimizedRMSD -1
REMARK  1 active torsions:
REMARK  status: ('A' for Active; 'I' for Inactive)
REMARK    1  A    between atoms: C3_4  and  O_7 
ROOT
ATOM      1  C   UNL d   1      -0.078   0.979  -0.582  0.00  0.00    -0.033 A 
ATOM      2  C1  UNL d   1       1.125   0.678   0.059  0.00  0.00     0.039 A 
ATOM      3  C2  UNL d   1       1.117   0.132   1.344  0.00  0.00    -0.080 A 
ATOM      4  C3  UNL d   1      -0.100  -0.109   1.976  0.00  0.00     0.150 A 
ATOM      5  C4  UNL d   1      -1.303   0.185   1.342  0.00  0.00    -0.007 A 
ATOM      6  C5  UNL d   1      -1.292   0.731   0.059  0.00  0.00     0.039 A 
ENDROOT
BRANCH   4   7
ATOM      7  O   UNL d   1      -0.159  -0.636   3.231  0.00  0.00    -0.526 OA
ATOM      8  H5  UNL d   1       0.749  -0.761   3.555  0.00  0.00     0.418 HD
ENDBRANCH   4   7
TORSDOF 1
ENDMDL
