MODEL 1
REMARK minimizedAffinity -4.30117321
REMARK minimizedRMSD -1
REMARK  1 active torsions:
REMARK  status: ('A' for Active; 'I' for Inactive)
REMARK    1  A    between atoms: C3_4  and  O_7 
ROOT
ATOM      1  C   UNL d   1       0.117   0.448  -0.209  0.00  0.00    -0.033 A 
ATOM      2  C1  UNL d   1       0.215   0.484  -1.601  0.00  0.00     0.039 A 
ATOM      3  C2  UNL d   1       0.227  -0.706  -2.332  0.00  0.00    -0.080 A 
ATOM      4  C3  UNL d   1       0.139  -1.922  -1.661  0.00  0.00     0.150 A 
ATOM      5  C4  UNL d   1       0.037  -1.964  -0.274  0.00  0.00    -0.007 A 
ATOM      6  C5  UNL d   1       0.027  -0.776   0.455  0.00  0.00     0.039 A 
ENDROOT
BRANCH   4   7
ATOM      7  O   UNL d   1       0.151  -3.109  -2.331  0.00  0.00    -0.526 OA
ATOM      8  H5  UNL d   1       0.255  -2.925  -3.280  0.00  0.00     0.418 HD
ENDBRANCH   4   7
TORSDOF 1
ENDMDL
