MODEL 1
REMARK minimizedAffinity -3.81112194
REMARK minimizedRMSD -1
REMARK  1 active torsions:
REMARK  status: ('A' for Active; 'I' for Inactive)
REMARK    1  A    between atoms: C3_4  and  O_7 
ROOT
ATOM      1  C   UNL d   1      -0.030   0.339   2.422  0.00  0.00    -0.033 A 
ATOM      2  C1  UNL d   1       1.277  -0.143   2.322  0.00  0.00     0.039 A 
ATOM      3  C2  UNL d   1       1.744  -0.652   1.109  0.00  0.00    -0.080 A 
ATOM      4  C3  UNL d   1       0.896  -0.673   0.005  0.00  0.00     0.150 A 
ATOM      5  C4  UNL d   1      -0.406  -0.192   0.097  0.00  0.00    -0.007 A 
ATOM      6  C5  UNL d   1      -0.871   0.316   1.309  0.00  0.00     0.039 A 
ENDROOT
BRANCH   4   7
ATOM      7  O   UNL d   1       1.306  -1.165  -1.199  0.00  0.00    -0.526 OA
ATOM      8  H5  UNL d   1       2.217  -1.488  -1.105  0.00  0.00     0.418 HD
ENDBRANCH   4   7
TORSDOF 1
ENDMDL
