MODEL 1
REMARK minimizedAffinity -4.50248957
REMARK minimizedRMSD -1
REMARK  1 active torsions:
REMARK  status: ('A' for Active; 'I' for Inactive)
REMARK    1  A    between atoms: C3_4  and  O_7 
ROOT
ATOM      1  C   UNL d   1       1.140   1.378   2.780  0.00  0.00    -0.033 A 
ATOM      2  C1  UNL d   1       0.008   0.563   2.714  0.00  0.00     0.039 A 
ATOM      3  C2  UNL d   1      -0.446   0.096   1.479  0.00  0.00    -0.080 A 
ATOM      4  C3  UNL d   1       0.240   0.448   0.321  0.00  0.00     0.150 A 
ATOM      5  C4  UNL d   1       1.370   1.256   0.379  0.00  0.00    -0.007 A 
ATOM      6  C5  UNL d   1       1.822   1.724   1.613  0.00  0.00     0.039 A 
ENDROOT
BRANCH   4   7
ATOM      7  O   UNL d   1      -0.169   0.020  -0.908  0.00  0.00    -0.526 OA
ATOM      8  H5  UNL d   1      -0.978  -0.506  -0.797  0.00  0.00     0.418 HD
ENDBRANCH   4   7
TORSDOF 1
ENDMDL
