MODEL 1
REMARK minimizedAffinity -4.92153454
REMARK minimizedRMSD -1
REMARK  1 active torsions:
REMARK  status: ('A' for Active; 'I' for Inactive)
REMARK    1  A    between atoms: C3_4  and  O_7 
ROOT
ATOM      1  C   UNL d   1      -2.338   0.241   3.094  0.00  0.00    -0.033 A 
ATOM      2  C1  UNL d   1      -3.025   0.290   1.879  0.00  0.00     0.039 A 
ATOM      3  C2  UNL d   1      -2.388  -0.099   0.699  0.00  0.00    -0.080 A 
ATOM      4  C3  UNL d   1      -1.067  -0.536   0.747  0.00  0.00     0.150 A 
ATOM      5  C4  UNL d   1      -0.378  -0.592   1.955  0.00  0.00    -0.007 A 
ATOM      6  C5  UNL d   1      -1.015  -0.202   3.132  0.00  0.00     0.039 A 
ENDROOT
BRANCH   4   7
ATOM      7  O   UNL d   1      -0.402  -0.921  -0.379  0.00  0.00    -0.526 OA
ATOM      8  H5  UNL d   1      -0.993  -0.803  -1.141  0.00  0.00     0.418 HD
ENDBRANCH   4   7
TORSDOF 1
ENDMDL
