MODEL 1
REMARK minimizedAffinity -3.63908696
REMARK minimizedRMSD -1
REMARK  1 active torsions:
REMARK  status: ('A' for Active; 'I' for Inactive)
REMARK    1  A    between atoms: C3_4  and  O_7 
ROOT
ATOM      1  C   UNL d   1       1.156  -0.857  -2.743  0.00  0.00    -0.033 A 
ATOM      2  C1  UNL d   1      -0.182  -1.255  -2.699  0.00  0.00     0.039 A 
ATOM      3  C2  UNL d   1      -0.514  -2.549  -2.293  0.00  0.00    -0.080 A 
ATOM      4  C3  UNL d   1       0.498  -3.434  -1.934  0.00  0.00     0.150 A 
ATOM      5  C4  UNL d   1       1.833  -3.043  -1.972  0.00  0.00    -0.007 A 
ATOM      6  C5  UNL d   1       2.163  -1.751  -2.378  0.00  0.00     0.039 A 
ENDROOT
BRANCH   4   7
ATOM      7  O   UNL d   1       0.223  -4.708  -1.536  0.00  0.00    -0.526 OA
ATOM      8  H5  UNL d   1      -0.738  -4.845  -1.586  0.00  0.00     0.418 HD
ENDBRANCH   4   7
TORSDOF 1
ENDMDL
