MODEL 1
REMARK minimizedAffinity -4.72640419
REMARK minimizedRMSD -1
REMARK  1 active torsions:
REMARK  status: ('A' for Active; 'I' for Inactive)
REMARK    1  A    between atoms: C1_2  and  C2_3 
ROOT
ATOM      1  C2  UNL d   1       0.415   0.061  -0.970  0.00  0.00    -0.073 A 
ATOM      2  C3  UNL d   1      -0.692  -0.728  -1.306  0.00  0.00    -0.002 A 
ATOM      3  C4  UNL d   1      -1.789  -0.805  -0.447  0.00  0.00     0.004 A 
ATOM      4  C5  UNL d   1      -1.794  -0.090   0.751  0.00  0.00    -0.004 A 
ATOM      5  C6  UNL d   1      -0.703   0.713   1.098  0.00  0.00    -0.075 A 
ATOM      6  C7  UNL d   1      -0.692   1.486   2.384  0.00  0.00     0.076 C 
ATOM      7  C8  UNL d   1       0.397   0.783   0.232  0.00  0.00     0.001 A 
ENDROOT
BRANCH   1   8
ATOM      8  C1  UNL d   1       1.599   0.152  -1.898  0.00  0.00     0.053 C 
ATOM      9  C   UNL d   1       1.176   0.313  -3.349  0.00  0.00     0.018 C 
ENDBRANCH   1   8
TORSDOF 1
ENDMDL
