MODEL 1
REMARK minimizedAffinity -3.20422244
REMARK minimizedRMSD -1
REMARK  1 active torsions:
REMARK  status: ('A' for Active; 'I' for Inactive)
REMARK    1  A    between atoms: C1_2  and  C2_3 
ROOT
ATOM      1  C2  UNL d   1       0.888  -0.307  -1.084  0.00  0.00    -0.073 A 
ATOM      2  C3  UNL d   1       1.976  -1.070  -0.643  0.00  0.00    -0.002 A 
ATOM      3  C4  UNL d   1       2.454  -0.929   0.660  0.00  0.00     0.004 A 
ATOM      4  C5  UNL d   1       1.846  -0.031   1.537  0.00  0.00    -0.004 A 
ATOM      5  C6  UNL d   1       0.751   0.732   1.119  0.00  0.00    -0.075 A 
ATOM      6  C7  UNL d   1       0.088   1.704   2.050  0.00  0.00     0.076 C 
ATOM      7  C8  UNL d   1       0.278   0.586  -0.192  0.00  0.00     0.001 A 
ENDROOT
BRANCH   1   8
ATOM      8  C1  UNL d   1       0.364  -0.461  -2.488  0.00  0.00     0.053 C 
ATOM      9  C   UNL d   1       1.339   0.077  -3.523  0.00  0.00     0.018 C 
ENDBRANCH   1   8
TORSDOF 1
ENDMDL
