MODEL 1
REMARK minimizedAffinity -2.31057715
REMARK minimizedRMSD -1
REMARK  1 active torsions:
REMARK  status: ('A' for Active; 'I' for Inactive)
REMARK    1  A    between atoms: C1_2  and  C2_3 
ROOT
ATOM      1  C2  UNL d   1       0.426   1.043  -1.238  0.00  0.00    -0.073 A 
ATOM      2  C3  UNL d   1       1.185  -0.109  -1.004  0.00  0.00    -0.002 A 
ATOM      3  C4  UNL d   1       1.488  -0.501   0.300  0.00  0.00     0.004 A 
ATOM      4  C5  UNL d   1       1.029   0.249   1.383  0.00  0.00    -0.004 A 
ATOM      5  C6  UNL d   1       0.258   1.397   1.170  0.00  0.00    -0.075 A 
ATOM      6  C7  UNL d   1      -0.242   2.216   2.324  0.00  0.00     0.076 C 
ATOM      7  C8  UNL d   1      -0.039   1.786  -0.143  0.00  0.00     0.001 A 
ENDROOT
BRANCH   1   8
ATOM      8  C1  UNL d   1       0.091   1.467  -2.645  0.00  0.00     0.053 C 
ATOM      9  C   UNL d   1       1.294   1.371  -3.570  0.00  0.00     0.018 C 
ENDBRANCH   1   8
TORSDOF 1
ENDMDL
