MODEL 1
REMARK minimizedAffinity 9.25053596
REMARK minimizedRMSD -1
REMARK  0 active torsions:
REMARK  status: ('A' for Active; 'I' for Inactive)
ROOT
ATOM      1  C   UNL d   1       5.941  -4.466  -0.005  0.00  0.00     0.023 A 
ATOM      2  C1  UNL d   1       5.635  -3.391  -0.840  0.00  0.00     0.003 A 
ATOM      3  C2  UNL d   1       5.032  -3.617  -2.079  0.00  0.00     0.048 A 
ATOM      4  C3  UNL d   1       4.737  -4.921  -2.477  0.00  0.00     0.023 A 
ATOM      5  C4  UNL d   1       5.041  -6.000  -1.645  0.00  0.00     0.048 A 
ATOM      6  C5  UNL d   1       5.645  -5.769  -0.407  0.00  0.00     0.003 A 
ATOM      7  I   UNL d   1       3.840  -5.260  -4.321  0.00  0.00    -0.146 I 
ENDROOT
TORSDOF 0
ENDMDL
