MODEL 1
REMARK minimizedAffinity 1.01156569
REMARK minimizedRMSD -1
REMARK  0 active torsions:
REMARK  status: ('A' for Active; 'I' for Inactive)
ROOT
ATOM      1  C   UNL d   1      -0.001  -1.514  -1.210  0.00  0.00     0.023 A 
ATOM      2  C1  UNL d   1      -1.239  -0.959  -0.883  0.00  0.00     0.003 A 
ATOM      3  C2  UNL d   1      -1.362   0.420  -0.704  0.00  0.00     0.048 A 
ATOM      4  C3  UNL d   1      -0.243   1.239  -0.855  0.00  0.00     0.023 A 
ATOM      5  C4  UNL d   1       0.997   0.689  -1.183  0.00  0.00     0.048 A 
ATOM      6  C5  UNL d   1       1.115  -0.691  -1.360  0.00  0.00     0.003 A 
ATOM      7  I   UNL d   1      -0.424   3.292  -0.590  0.00  0.00    -0.146 I 
ENDROOT
TORSDOF 0
ENDMDL
