MODEL 1
REMARK minimizedAffinity 6.13456869
REMARK minimizedRMSD -1
REMARK  0 active torsions:
REMARK  status: ('A' for Active; 'I' for Inactive)
ROOT
ATOM      1  C   UNL d   1       0.019   1.278  -0.948  0.00  0.00     0.023 A 
ATOM      2  C1  UNL d   1      -1.135   0.533  -0.707  0.00  0.00     0.003 A 
ATOM      3  C2  UNL d   1      -1.163  -0.831  -1.006  0.00  0.00     0.048 A 
ATOM      4  C3  UNL d   1      -0.032  -1.444  -1.545  0.00  0.00     0.023 A 
ATOM      5  C4  UNL d   1       1.126  -0.702  -1.787  0.00  0.00     0.048 A 
ATOM      6  C5  UNL d   1       1.148   0.661  -1.487  0.00  0.00     0.003 A 
ATOM      7  I   UNL d   1      -0.070  -3.473  -1.991  0.00  0.00    -0.146 I 
ENDROOT
TORSDOF 0
ENDMDL
