MODEL 1
REMARK minimizedAffinity 3.58216524
REMARK minimizedRMSD -1
REMARK  0 active torsions:
REMARK  status: ('A' for Active; 'I' for Inactive)
ROOT
ATOM      1  C   UNL d   1      -4.168   4.875  -4.511  0.00  0.00     0.023 A 
ATOM      2  C1  UNL d   1      -5.472   4.418  -4.702  0.00  0.00     0.003 A 
ATOM      3  C2  UNL d   1      -5.999   3.435  -3.862  0.00  0.00     0.048 A 
ATOM      4  C3  UNL d   1      -5.217   2.914  -2.832  0.00  0.00     0.023 A 
ATOM      5  C4  UNL d   1      -3.912   3.369  -2.636  0.00  0.00     0.048 A 
ATOM      6  C5  UNL d   1      -3.389   4.351  -3.479  0.00  0.00     0.003 A 
ATOM      7  I   UNL d   1      -6.000   1.451  -1.580  0.00  0.00    -0.146 I 
ENDROOT
TORSDOF 0
ENDMDL
