MODEL 1
REMARK minimizedAffinity 8.22272491
REMARK minimizedRMSD -1
REMARK  0 active torsions:
REMARK  status: ('A' for Active; 'I' for Inactive)
ROOT
ATOM      1  C   UNL d   1       0.055   2.698   3.475  0.00  0.00     0.023 A 
ATOM      2  C1  UNL d   1      -1.113   2.756   2.715  0.00  0.00     0.003 A 
ATOM      3  C2  UNL d   1      -1.072   2.471   1.348  0.00  0.00     0.048 A 
ATOM      4  C3  UNL d   1       0.139   2.128   0.749  0.00  0.00     0.023 A 
ATOM      5  C4  UNL d   1       1.310   2.068   1.507  0.00  0.00     0.048 A 
ATOM      6  C5  UNL d   1       1.265   2.354   2.872  0.00  0.00     0.003 A 
ATOM      7  I   UNL d   1       0.202   1.703  -1.284  0.00  0.00    -0.146 I 
ENDROOT
TORSDOF 0
ENDMDL
