MODEL 1
REMARK minimizedAffinity 1.05239117
REMARK minimizedRMSD -1
REMARK  0 active torsions:
REMARK  status: ('A' for Active; 'I' for Inactive)
ROOT
ATOM      1  C   UNL d   1      -4.867   1.974  -1.799  0.00  0.00     0.023 A 
ATOM      2  C1  UNL d   1      -5.995   2.701  -2.179  0.00  0.00     0.003 A 
ATOM      3  C2  UNL d   1      -6.000   3.406  -3.384  0.00  0.00     0.048 A 
ATOM      4  C3  UNL d   1      -4.873   3.380  -4.205  0.00  0.00     0.023 A 
ATOM      5  C4  UNL d   1      -3.742   2.654  -3.829  0.00  0.00     0.048 A 
ATOM      6  C5  UNL d   1      -3.741   1.951  -2.623  0.00  0.00     0.003 A 
ATOM      7  I   UNL d   1      -4.877   4.429  -5.999  0.00  0.00    -0.146 I 
ENDROOT
TORSDOF 0
ENDMDL
