MODEL 1
REMARK minimizedAffinity -0.0463499501
REMARK minimizedRMSD -1
REMARK  0 active torsions:
REMARK  status: ('A' for Active; 'I' for Inactive)
ROOT
ATOM      1  C   UNL d   1      -0.559   3.798  -0.656  0.00  0.00     0.023 A 
ATOM      2  C1  UNL d   1      -0.763   4.291   0.633  0.00  0.00     0.003 A 
ATOM      3  C2  UNL d   1      -0.455   3.500   1.741  0.00  0.00     0.048 A 
ATOM      4  C3  UNL d   1       0.057   2.217   1.554  0.00  0.00     0.023 A 
ATOM      5  C4  UNL d   1       0.264   1.719   0.267  0.00  0.00     0.048 A 
ATOM      6  C5  UNL d   1      -0.046   2.513  -0.839  0.00  0.00     0.003 A 
ATOM      7  I   UNL d   1       0.516   1.037   3.203  0.00  0.00    -0.146 I 
ENDROOT
TORSDOF 0
ENDMDL
