MODEL 1
REMARK minimizedAffinity 0.359584898
REMARK minimizedRMSD -1
REMARK  0 active torsions:
REMARK  status: ('A' for Active; 'I' for Inactive)
ROOT
ATOM      1  C   UNL d   1      -0.562   5.993  -0.467  0.00  0.00     0.023 A 
ATOM      2  C1  UNL d   1       0.182   4.912  -0.942  0.00  0.00     0.003 A 
ATOM      3  C2  UNL d   1       0.392   3.796  -0.130  0.00  0.00     0.048 A 
ATOM      4  C3  UNL d   1      -0.145   3.766   1.157  0.00  0.00     0.023 A 
ATOM      5  C4  UNL d   1      -0.891   4.844   1.636  0.00  0.00     0.048 A 
ATOM      6  C5  UNL d   1      -1.097   5.959   0.821  0.00  0.00     0.003 A 
ATOM      7  I   UNL d   1       0.166   2.106   2.367  0.00  0.00    -0.146 I 
ENDROOT
TORSDOF 0
ENDMDL
