MODEL 1
REMARK minimizedAffinity 13.9314432
REMARK minimizedRMSD -1
REMARK  0 active torsions:
REMARK  status: ('A' for Active; 'I' for Inactive)
ROOT
ATOM      1  N1  IND d   1      -0.804  -2.668   2.058  0.00  0.00    -0.196 N 
ATOM      2  C2  IND d   1      -2.004  -2.214   2.532  0.00  0.00     0.054 A 
ATOM      3  C3  IND d   1      -1.808  -1.293   3.502  0.00  0.00    -0.031 A 
ATOM      4  C4  IND d   1       0.394  -0.304   4.398  0.00  0.00     0.051 A 
ATOM      5  C5  IND d   1       1.751  -0.432   4.300  0.00  0.00    -0.031 A 
ATOM      6  C6  IND d   1       2.338  -1.328   3.429  0.00  0.00     0.015 A 
ATOM      7  C7  IND d   1       1.585  -2.125   2.613  0.00  0.00    -0.016 A 
ATOM      8  C8  IND d   1       0.207  -2.003   2.716  0.00  0.00    -0.047 A 
ATOM      9  C9  IND d   1      -0.395  -1.126   3.628  0.00  0.00    -0.096 A 
ATOM     10  HN1 IND d   1      -0.700  -3.268   1.452  0.00  0.00     0.298 HD
ENDROOT
TORSDOF 0
ENDMDL
