MODEL 1
REMARK minimizedAffinity 10.3905039
REMARK minimizedRMSD -1
REMARK  0 active torsions:
REMARK  status: ('A' for Active; 'I' for Inactive)
ROOT
ATOM      1  N1  IND d   1       1.860   1.494  -5.632  0.00  0.00    -0.196 N 
ATOM      2  C2  IND d   1       2.983   0.756  -5.881  0.00  0.00     0.054 A 
ATOM      3  C3  IND d   1       2.670  -0.554  -5.994  0.00  0.00    -0.031 A 
ATOM      4  C4  IND d   1       0.365  -1.698  -5.908  0.00  0.00     0.051 A 
ATOM      5  C5  IND d   1      -0.956  -1.442  -5.666  0.00  0.00    -0.031 A 
ATOM      6  C6  IND d   1      -1.415  -0.169  -5.398  0.00  0.00     0.015 A 
ATOM      7  C7  IND d   1      -0.568   0.903  -5.373  0.00  0.00    -0.016 A 
ATOM      8  C8  IND d   1       0.774   0.646  -5.611  0.00  0.00    -0.047 A 
ATOM      9  C9  IND d   1       1.253  -0.650  -5.841  0.00  0.00    -0.096 A 
ATOM     10  HN1 IND d   1       1.836   2.345  -5.509  0.00  0.00     0.298 HD
ENDROOT
TORSDOF 0
ENDMDL
