MODEL 1
REMARK minimizedAffinity 7.07876396
REMARK minimizedRMSD -1
REMARK  0 active torsions:
REMARK  status: ('A' for Active; 'I' for Inactive)
ROOT
ATOM      1  N1  IND d   1       0.105  -0.711  -5.869  0.00  0.00    -0.196 N 
ATOM      2  C2  IND d   1      -0.711  -1.256  -4.918  0.00  0.00     0.054 A 
ATOM      3  C3  IND d   1       0.015  -1.667  -3.854  0.00  0.00    -0.031 A 
ATOM      4  C4  IND d   1       2.543  -1.450  -3.418  0.00  0.00     0.051 A 
ATOM      5  C5  IND d   1       3.709  -1.054  -4.012  0.00  0.00    -0.031 A 
ATOM      6  C6  IND d   1       3.733  -0.510  -5.280  0.00  0.00     0.015 A 
ATOM      7  C7  IND d   1       2.586  -0.331  -6.000  0.00  0.00    -0.016 A 
ATOM      8  C8  IND d   1       1.401  -0.738  -5.403  0.00  0.00    -0.047 A 
ATOM      9  C9  IND d   1       1.375  -1.330  -4.133  0.00  0.00    -0.096 A 
ATOM     10  HN1 IND d   1      -0.148  -0.403  -6.631  0.00  0.00     0.298 HD
ENDROOT
TORSDOF 0
ENDMDL
