MODEL 1
REMARK minimizedAffinity 0.684392154
REMARK minimizedRMSD -1
REMARK  0 active torsions:
REMARK  status: ('A' for Active; 'I' for Inactive)
ROOT
ATOM      1  N1  IND d   1       1.856  -0.001  -6.000  0.00  0.00    -0.196 N 
ATOM      2  C2  IND d   1       3.121  -0.288  -5.569  0.00  0.00     0.054 A 
ATOM      3  C3  IND d   1       3.079  -1.134  -4.515  0.00  0.00    -0.031 A 
ATOM      4  C4  IND d   1       1.048  -2.253  -3.397  0.00  0.00     0.051 A 
ATOM      5  C5  IND d   1      -0.319  -2.272  -3.418  0.00  0.00    -0.031 A 
ATOM      6  C6  IND d   1      -1.045  -1.521  -4.320  0.00  0.00     0.015 A 
ATOM      7  C7  IND d   1      -0.428  -0.729  -5.247  0.00  0.00    -0.016 A 
ATOM      8  C8  IND d   1       0.959  -0.703  -5.225  0.00  0.00    -0.047 A 
ATOM      9  C9  IND d   1       1.700  -1.430  -4.284  0.00  0.00    -0.096 A 
ATOM     10  HN1 IND d   1       1.654   0.528  -6.647  0.00  0.00     0.298 HD
ENDROOT
TORSDOF 0
ENDMDL
