MODEL 1
REMARK minimizedAffinity 9.06528473
REMARK minimizedRMSD -1
REMARK  0 active torsions:
REMARK  status: ('A' for Active; 'I' for Inactive)
ROOT
ATOM      1  C   UNL d   1      -1.242   0.713   1.033  0.00  0.00     0.124 A 
ATOM      2  C1  UNL d   1       0.145   0.741   0.981  0.00  0.00     0.062 A 
ATOM      3  C2  UNL d   1       0.854   1.678   1.726  0.00  0.00     0.162 A 
ATOM      4  C3  UNL d   1       0.179   2.595   2.531  0.00  0.00    -0.034 A 
ATOM      5  C4  UNL d   1      -1.216   2.561   2.578  0.00  0.00     0.162 A 
ATOM      6  C5  UNL d   1      -1.921   1.622   1.832  0.00  0.00     0.062 A 
ATOM      7  F   UNL d   1      -3.261   1.596   1.884  0.00  0.00    -0.097 F 
ATOM      8  F1  UNL d   1      -1.898   3.428   3.342  0.00  0.00    -0.096 F 
ATOM      9  I   UNL d   1       1.236   3.998   3.647  0.00  0.00    -0.060 I 
ATOM     10  F2  UNL d   1       2.194   1.683   1.656  0.00  0.00    -0.096 F 
ATOM     11  F3  UNL d   1       0.803  -0.136   0.209  0.00  0.00    -0.097 F 
ATOM     12  F4  UNL d   1      -1.922  -0.190   0.315  0.00  0.00    -0.092 F 
ENDROOT
TORSDOF 0
ENDMDL
