MODEL 1
REMARK minimizedAffinity 15.9395332
REMARK minimizedRMSD -1
REMARK  0 active torsions:
REMARK  status: ('A' for Active; 'I' for Inactive)
ROOT
ATOM      1  C   UNL d   1      -1.809   0.984   1.686  0.00  0.00     0.124 A 
ATOM      2  C1  UNL d   1      -0.973   0.330   0.792  0.00  0.00     0.062 A 
ATOM      3  C2  UNL d   1       0.404   0.525   0.851  0.00  0.00     0.162 A 
ATOM      4  C3  UNL d   1       0.954   1.377   1.808  0.00  0.00    -0.034 A 
ATOM      5  C4  UNL d   1       0.106   2.033   2.703  0.00  0.00     0.162 A 
ATOM      6  C5  UNL d   1      -1.269   1.835   2.640  0.00  0.00     0.062 A 
ATOM      7  F   UNL d   1      -2.076   2.467   3.505  0.00  0.00    -0.097 F 
ATOM      8  F1  UNL d   1       0.602   2.859   3.636  0.00  0.00    -0.096 F 
ATOM      9  I   UNL d   1       3.012   1.671   1.900  0.00  0.00    -0.060 I 
ATOM     10  F2  UNL d   1       1.189  -0.120  -0.026  0.00  0.00    -0.096 F 
ATOM     11  F3  UNL d   1      -1.492  -0.491  -0.132  0.00  0.00    -0.097 F 
ATOM     12  F4  UNL d   1      -3.134   0.796   1.626  0.00  0.00    -0.092 F 
ENDROOT
TORSDOF 0
ENDMDL
