MODEL 1
REMARK minimizedAffinity 14.6005411
REMARK minimizedRMSD -1
REMARK  0 active torsions:
REMARK  status: ('A' for Active; 'I' for Inactive)
ROOT
ATOM      1  C   UNL d   1      -1.738   1.223   2.006  0.00  0.00     0.124 A 
ATOM      2  C1  UNL d   1      -1.190   2.262   2.744  0.00  0.00     0.062 A 
ATOM      3  C2  UNL d   1       0.159   2.579   2.612  0.00  0.00     0.162 A 
ATOM      4  C3  UNL d   1       0.969   1.856   1.736  0.00  0.00    -0.034 A 
ATOM      5  C4  UNL d   1       0.411   0.812   0.998  0.00  0.00     0.162 A 
ATOM      6  C5  UNL d   1      -0.938   0.499   1.134  0.00  0.00     0.062 A 
ATOM      7  F   UNL d   1      -1.466  -0.506   0.419  0.00  0.00    -0.097 F 
ATOM      8  F1  UNL d   1       1.162   0.096   0.147  0.00  0.00    -0.096 F 
ATOM      9  I   UNL d   1       2.987   2.327   1.536  0.00  0.00    -0.060 I 
ATOM     10  F2  UNL d   1       0.662   3.589   3.338  0.00  0.00    -0.096 F 
ATOM     11  F3  UNL d   1      -1.961   2.963   3.588  0.00  0.00    -0.097 F 
ATOM     12  F4  UNL d   1      -3.036   0.919   2.136  0.00  0.00    -0.092 F 
ENDROOT
TORSDOF 0
ENDMDL
