MODEL 1
REMARK minimizedAffinity 10.0634117
REMARK minimizedRMSD -1
REMARK  0 active torsions:
REMARK  status: ('A' for Active; 'I' for Inactive)
ROOT
ATOM      1  C   UNL d   1      -1.357   1.787   1.972  0.00  0.00     0.124 A 
ATOM      2  C1  UNL d   1      -2.056   1.027   1.044  0.00  0.00     0.062 A 
ATOM      3  C2  UNL d   1      -1.370   0.221   0.140  0.00  0.00     0.162 A 
ATOM      4  C3  UNL d   1       0.024   0.170   0.160  0.00  0.00    -0.034 A 
ATOM      5  C4  UNL d   1       0.720   0.938   1.095  0.00  0.00     0.162 A 
ATOM      6  C5  UNL d   1       0.030   1.742   1.997  0.00  0.00     0.062 A 
ATOM      7  F   UNL d   1       0.707   2.475   2.892  0.00  0.00    -0.097 F 
ATOM      8  F1  UNL d   1       2.060   0.913   1.142  0.00  0.00    -0.096 F 
ATOM      9  I   UNL d   1       1.053  -1.033  -1.191  0.00  0.00    -0.060 I 
ATOM     10  F2  UNL d   1      -2.071  -0.502  -0.745  0.00  0.00    -0.096 F 
ATOM     11  F3  UNL d   1      -3.396   1.069   1.018  0.00  0.00    -0.097 F 
ATOM     12  F4  UNL d   1      -2.020   2.562   2.840  0.00  0.00    -0.092 F 
ENDROOT
TORSDOF 0
ENDMDL
