MODEL 1
REMARK minimizedAffinity 8.4648838
REMARK minimizedRMSD -1
REMARK  0 active torsions:
REMARK  status: ('A' for Active; 'I' for Inactive)
ROOT
ATOM      1  C   UNL d   1      -0.190   1.259   0.821  0.00  0.00     0.124 A 
ATOM      2  C1  UNL d   1      -0.669   1.004  -0.457  0.00  0.00     0.062 A 
ATOM      3  C2  UNL d   1      -1.583  -0.023  -0.670  0.00  0.00     0.162 A 
ATOM      4  C3  UNL d   1      -2.025  -0.805   0.398  0.00  0.00    -0.034 A 
ATOM      5  C4  UNL d   1      -1.537  -0.544   1.680  0.00  0.00     0.162 A 
ATOM      6  C5  UNL d   1      -0.624   0.485   1.887  0.00  0.00     0.062 A 
ATOM      7  F   UNL d   1      -0.161   0.729   3.122  0.00  0.00    -0.097 F 
ATOM      8  F1  UNL d   1      -1.941  -1.276   2.729  0.00  0.00    -0.096 F 
ATOM      9  I   UNL d   1      -3.391  -2.343   0.084  0.00  0.00    -0.060 I 
ATOM     10  F2  UNL d   1      -2.030  -0.247  -1.915  0.00  0.00    -0.096 F 
ATOM     11  F3  UNL d   1      -0.251   1.750  -1.489  0.00  0.00    -0.097 F 
ATOM     12  F4  UNL d   1       0.690   2.248   1.022  0.00  0.00    -0.092 F 
ENDROOT
TORSDOF 0
ENDMDL
