MODEL 1
REMARK minimizedAffinity 6.07212973
REMARK minimizedRMSD -1
REMARK  0 active torsions:
REMARK  status: ('A' for Active; 'I' for Inactive)
ROOT
ATOM      1  C   UNL d   1       0.337  -5.997   2.616  0.00  0.00     0.124 A 
ATOM      2  C1  UNL d   1      -0.378  -5.997   3.805  0.00  0.00     0.062 A 
ATOM      3  C2  UNL d   1      -1.770  -5.997   3.785  0.00  0.00     0.162 A 
ATOM      4  C3  UNL d   1      -2.456  -5.998   2.571  0.00  0.00    -0.034 A 
ATOM      5  C4  UNL d   1      -1.730  -5.998   1.379  0.00  0.00     0.162 A 
ATOM      6  C5  UNL d   1      -0.339  -5.998   1.404  0.00  0.00     0.062 A 
ATOM      7  F   UNL d   1       0.350  -5.998   0.254  0.00  0.00    -0.097 F 
ATOM      8  F1  UNL d   1      -2.358  -5.999   0.194  0.00  0.00    -0.096 F 
ATOM      9  I   UNL d   1      -4.537  -5.998   2.537  0.00  0.00    -0.060 I 
ATOM     10  F2  UNL d   1      -2.435  -5.996   4.950  0.00  0.00    -0.096 F 
ATOM     11  F3  UNL d   1       0.273  -5.995   4.978  0.00  0.00    -0.097 F 
ATOM     12  F4  UNL d   1       1.676  -5.996   2.638  0.00  0.00    -0.092 F 
ENDROOT
TORSDOF 0
ENDMDL
