MODEL 1
REMARK minimizedAffinity 14.3879185
REMARK minimizedRMSD -1
REMARK  0 active torsions:
REMARK  status: ('A' for Active; 'I' for Inactive)
ROOT
ATOM      1  C   UNL d   1      -0.327  -0.044   1.507  0.00  0.00     0.124 A 
ATOM      2  C1  UNL d   1      -1.156  -1.126   1.772  0.00  0.00     0.062 A 
ATOM      3  C2  UNL d   1      -2.030  -1.593   0.795  0.00  0.00     0.162 A 
ATOM      4  C3  UNL d   1      -2.080  -0.980  -0.457  0.00  0.00    -0.034 A 
ATOM      5  C4  UNL d   1      -1.245   0.108  -0.716  0.00  0.00     0.162 A 
ATOM      6  C5  UNL d   1      -0.372   0.571   0.264  0.00  0.00     0.062 A 
ATOM      7  F   UNL d   1       0.427   1.617   0.006  0.00  0.00    -0.097 F 
ATOM      8  F1  UNL d   1      -1.267   0.721  -1.909  0.00  0.00    -0.096 F 
ATOM      9  I   UNL d   1      -3.386  -1.677  -1.920  0.00  0.00    -0.060 I 
ATOM     10  F2  UNL d   1      -2.820  -2.640   1.079  0.00  0.00    -0.096 F 
ATOM     11  F3  UNL d   1      -1.115  -1.722   2.972  0.00  0.00    -0.097 F 
ATOM     12  F4  UNL d   1       0.512   0.404   2.449  0.00  0.00    -0.092 F 
ENDROOT
TORSDOF 0
ENDMDL
