MODEL 1
REMARK minimizedAffinity 15.906642
REMARK minimizedRMSD -1
REMARK  0 active torsions:
REMARK  status: ('A' for Active; 'I' for Inactive)
ROOT
ATOM      1  C   UNL d   1      -0.777  -0.475   2.645  0.00  0.00     0.124 A 
ATOM      2  C1  UNL d   1      -0.087   0.096   1.585  0.00  0.00     0.062 A 
ATOM      3  C2  UNL d   1      -0.550  -0.061   0.282  0.00  0.00     0.162 A 
ATOM      4  C3  UNL d   1      -1.711  -0.792   0.032  0.00  0.00    -0.034 A 
ATOM      5  C4  UNL d   1      -2.400  -1.365   1.103  0.00  0.00     0.162 A 
ATOM      6  C5  UNL d   1      -1.932  -1.205   2.404  0.00  0.00     0.062 A 
ATOM      7  F   UNL d   1      -2.600  -1.757   3.427  0.00  0.00    -0.097 F 
ATOM      8  F1  UNL d   1      -3.519  -2.074   0.898  0.00  0.00    -0.096 F 
ATOM      9  I   UNL d   1      -2.408  -1.030  -1.915  0.00  0.00    -0.060 I 
ATOM     10  F2  UNL d   1       0.137   0.502  -0.723  0.00  0.00    -0.096 F 
ATOM     11  F3  UNL d   1       1.030   0.801   1.816  0.00  0.00    -0.097 F 
ATOM     12  F4  UNL d   1      -0.328  -0.323   3.898  0.00  0.00    -0.092 F 
ENDROOT
TORSDOF 0
ENDMDL
