MODEL 1
REMARK minimizedAffinity 21.9508724
REMARK minimizedRMSD -1
REMARK  0 active torsions:
REMARK  status: ('A' for Active; 'I' for Inactive)
ROOT
ATOM      1  C   UNL d   1      -2.809  -2.517  -3.640  0.00  0.00     0.124 A 
ATOM      2  C1  UNL d   1      -1.853  -3.040  -4.500  0.00  0.00     0.062 A 
ATOM      3  C2  UNL d   1      -0.553  -2.542  -4.489  0.00  0.00     0.162 A 
ATOM      4  C3  UNL d   1      -0.201  -1.514  -3.614  0.00  0.00    -0.034 A 
ATOM      5  C4  UNL d   1      -1.168  -0.992  -2.753  0.00  0.00     0.162 A 
ATOM      6  C5  UNL d   1      -2.465  -1.493  -2.768  0.00  0.00     0.062 A 
ATOM      7  F   UNL d   1      -3.387  -0.986  -1.936  0.00  0.00    -0.097 F 
ATOM      8  F1  UNL d   1      -0.863  -0.004  -1.899  0.00  0.00    -0.096 F 
ATOM      9  I   UNL d   1       1.741  -0.766  -3.594  0.00  0.00    -0.060 I 
ATOM     10  F2  UNL d   1       0.350  -3.067  -5.330  0.00  0.00    -0.096 F 
ATOM     11  F3  UNL d   1      -2.182  -4.028  -5.344  0.00  0.00    -0.097 F 
ATOM     12  F4  UNL d   1      -4.058  -2.997  -3.653  0.00  0.00    -0.092 F 
ENDROOT
TORSDOF 0
ENDMDL
