MODEL 1
REMARK minimizedAffinity 14.6231651
REMARK minimizedRMSD -1
REMARK  0 active torsions:
REMARK  status: ('A' for Active; 'I' for Inactive)
ROOT
ATOM      1  C   UNL d   1       3.479   1.306   2.351  0.00  0.00     0.124 A 
ATOM      2  C1  UNL d   1       2.484   2.247   2.578  0.00  0.00     0.062 A 
ATOM      3  C2  UNL d   1       1.147   1.913   2.387  0.00  0.00     0.162 A 
ATOM      4  C3  UNL d   1       0.795   0.630   1.967  0.00  0.00    -0.034 A 
ATOM      5  C4  UNL d   1       1.801  -0.312   1.740  0.00  0.00     0.162 A 
ATOM      6  C5  UNL d   1       3.136   0.028   1.932  0.00  0.00     0.062 A 
ATOM      7  F   UNL d   1       4.095  -0.883   1.713  0.00  0.00    -0.097 F 
ATOM      8  F1  UNL d   1       1.498  -1.554   1.336  0.00  0.00    -0.096 F 
ATOM      9  I   UNL d   1      -1.204   0.126   1.681  0.00  0.00    -0.060 I 
ATOM     10  F2  UNL d   1       0.207   2.843   2.614  0.00  0.00    -0.096 F 
ATOM     11  F3  UNL d   1       2.813   3.483   2.981  0.00  0.00    -0.097 F 
ATOM     12  F4  UNL d   1       4.765   1.630   2.534  0.00  0.00    -0.092 F 
ENDROOT
TORSDOF 0
ENDMDL
