MODEL 1
REMARK minimizedAffinity 24.0315876
REMARK minimizedRMSD -1
REMARK  0 active torsions:
REMARK  status: ('A' for Active; 'I' for Inactive)
ROOT
ATOM      1  C   UNL d   1      -0.858  -0.153   0.161  0.00  0.00     0.124 A 
ATOM      2  C1  UNL d   1      -1.562  -1.231   0.680  0.00  0.00     0.062 A 
ATOM      3  C2  UNL d   1      -2.639  -1.767  -0.021  0.00  0.00     0.162 A 
ATOM      4  C3  UNL d   1      -3.018  -1.226  -1.250  0.00  0.00    -0.034 A 
ATOM      5  C4  UNL d   1      -2.305  -0.142  -1.765  0.00  0.00     0.162 A 
ATOM      6  C5  UNL d   1      -1.230   0.390  -1.060  0.00  0.00     0.062 A 
ATOM      7  F   UNL d   1      -0.551   1.432  -1.563  0.00  0.00    -0.097 F 
ATOM      8  F1  UNL d   1      -2.643   0.403  -2.943  0.00  0.00    -0.096 F 
ATOM      9  I   UNL d   1      -4.627  -2.024  -2.301  0.00  0.00    -0.060 I 
ATOM     10  F2  UNL d   1      -3.301  -2.808   0.504  0.00  0.00    -0.096 F 
ATOM     11  F3  UNL d   1      -1.206  -1.758   1.860  0.00  0.00    -0.097 F 
ATOM     12  F4  UNL d   1       0.176   0.361   0.838  0.00  0.00    -0.092 F 
ENDROOT
TORSDOF 0
ENDMDL
