MODEL 1
REMARK minimizedAffinity 16.735157
REMARK minimizedRMSD -1
REMARK  0 active torsions:
REMARK  status: ('A' for Active; 'I' for Inactive)
ROOT
ATOM      1  C   UNL d   1      -3.280  -1.968  -3.878  0.00  0.00     0.124 A 
ATOM      2  C1  UNL d   1      -2.341  -2.473  -4.768  0.00  0.00     0.062 A 
ATOM      3  C2  UNL d   1      -0.982  -2.325  -4.509  0.00  0.00     0.162 A 
ATOM      4  C3  UNL d   1      -0.551  -1.670  -3.355  0.00  0.00    -0.034 A 
ATOM      5  C4  UNL d   1      -1.501  -1.164  -2.466  0.00  0.00     0.162 A 
ATOM      6  C5  UNL d   1      -2.859  -1.314  -2.728  0.00  0.00     0.062 A 
ATOM      7  F   UNL d   1      -3.764  -0.826  -1.868  0.00  0.00    -0.097 F 
ATOM      8  F1  UNL d   1      -1.122  -0.529  -1.347  0.00  0.00    -0.096 F 
ATOM      9  I   UNL d   1       1.481  -1.448  -2.966  0.00  0.00    -0.060 I 
ATOM     10  F2  UNL d   1      -0.097  -2.823  -5.387  0.00  0.00    -0.096 F 
ATOM     11  F3  UNL d   1      -2.745  -3.104  -5.879  0.00  0.00    -0.097 F 
ATOM     12  F4  UNL d   1      -4.587  -2.110  -4.129  0.00  0.00    -0.092 F 
ENDROOT
TORSDOF 0
ENDMDL
