MODEL 1
REMARK minimizedAffinity 18.7941818
REMARK minimizedRMSD -1
REMARK  0 active torsions:
REMARK  status: ('A' for Active; 'I' for Inactive)
ROOT
ATOM      1  C   UNL d   1      -3.095  -2.787  -3.069  0.00  0.00     0.124 A 
ATOM      2  C1  UNL d   1      -2.825  -1.543  -2.515  0.00  0.00     0.062 A 
ATOM      3  C2  UNL d   1      -1.522  -1.053  -2.496  0.00  0.00     0.162 A 
ATOM      4  C3  UNL d   1      -0.479  -1.807  -3.034  0.00  0.00    -0.034 A 
ATOM      5  C4  UNL d   1      -0.758  -3.058  -3.588  0.00  0.00     0.162 A 
ATOM      6  C5  UNL d   1      -2.062  -3.543  -3.605  0.00  0.00     0.062 A 
ATOM      7  F   UNL d   1      -2.321  -4.745  -4.140  0.00  0.00    -0.097 F 
ATOM      8  F1  UNL d   1       0.221  -3.809  -4.114  0.00  0.00    -0.096 F 
ATOM      9  I   UNL d   1       1.470  -1.078  -3.008  0.00  0.00    -0.060 I 
ATOM     10  F2  UNL d   1      -1.290   0.152  -1.955  0.00  0.00    -0.096 F 
ATOM     11  F3  UNL d   1      -3.821  -0.811  -1.996  0.00  0.00    -0.097 F 
ATOM     12  F4  UNL d   1      -4.349  -3.256  -3.085  0.00  0.00    -0.092 F 
ENDROOT
TORSDOF 0
ENDMDL
