MODEL 1
REMARK minimizedAffinity 13.4099035
REMARK minimizedRMSD -1
REMARK  0 active torsions:
REMARK  status: ('A' for Active; 'I' for Inactive)
ROOT
ATOM      1  C   UNL d   1      -2.538  -2.780  -4.500  0.00  0.00     0.124 A 
ATOM      2  C1  UNL d   1      -1.153  -2.681  -4.498  0.00  0.00     0.062 A 
ATOM      3  C2  UNL d   1      -0.499  -2.036  -3.452  0.00  0.00     0.162 A 
ATOM      4  C3  UNL d   1      -1.228  -1.486  -2.398  0.00  0.00    -0.034 A 
ATOM      5  C4  UNL d   1      -2.621  -1.589  -2.407  0.00  0.00     0.162 A 
ATOM      6  C5  UNL d   1      -3.270  -2.235  -3.455  0.00  0.00     0.062 A 
ATOM      7  F   UNL d   1      -4.607  -2.330  -3.454  0.00  0.00    -0.097 F 
ATOM      8  F1  UNL d   1      -3.353  -1.072  -1.410  0.00  0.00    -0.096 F 
ATOM      9  I   UNL d   1      -0.254  -0.521  -0.833  0.00  0.00    -0.060 I 
ATOM     10  F2  UNL d   1       0.840  -1.955  -3.477  0.00  0.00    -0.096 F 
ATOM     11  F3  UNL d   1      -0.444  -3.206  -5.507  0.00  0.00    -0.097 F 
ATOM     12  F4  UNL d   1      -3.165  -3.400  -5.507  0.00  0.00    -0.092 F 
ENDROOT
TORSDOF 0
ENDMDL
