MODEL 1
REMARK minimizedAffinity 18.8620415
REMARK minimizedRMSD -1
REMARK  0 active torsions:
REMARK  status: ('A' for Active; 'I' for Inactive)
ROOT
ATOM      1  C   UNL d   1      -0.462   0.888   1.297  0.00  0.00     0.124 A 
ATOM      2  C1  UNL d   1      -0.484   1.188  -0.058  0.00  0.00     0.062 A 
ATOM      3  C2  UNL d   1      -1.115   0.332  -0.955  0.00  0.00     0.162 A 
ATOM      4  C3  UNL d   1      -1.732  -0.834  -0.500  0.00  0.00    -0.034 A 
ATOM      5  C4  UNL d   1      -1.705  -1.129   0.865  0.00  0.00     0.162 A 
ATOM      6  C5  UNL d   1      -1.073  -0.270   1.757  0.00  0.00     0.062 A 
ATOM      7  F   UNL d   1      -1.053  -0.561   3.066  0.00  0.00    -0.097 F 
ATOM      8  F1  UNL d   1      -2.288  -2.241   1.336  0.00  0.00    -0.096 F 
ATOM      9  I   UNL d   1      -2.677  -2.118  -1.837  0.00  0.00    -0.060 I 
ATOM     10  F2  UNL d   1      -1.121   0.647  -2.259  0.00  0.00    -0.096 F 
ATOM     11  F3  UNL d   1       0.106   2.306  -0.505  0.00  0.00    -0.097 F 
ATOM     12  F4  UNL d   1       0.147   1.714   2.157  0.00  0.00    -0.092 F 
ENDROOT
TORSDOF 0
ENDMDL
