MODEL 1
REMARK minimizedAffinity 4.23354769
REMARK minimizedRMSD -1
REMARK  0 active torsions:
REMARK  status: ('A' for Active; 'I' for Inactive)
ROOT
ATOM      1  C   UNL d   1       1.368  -5.993   2.406  0.00  0.00     0.124 A 
ATOM      2  C1  UNL d   1       0.551  -5.993   3.528  0.00  0.00     0.062 A 
ATOM      3  C2  UNL d   1      -0.834  -5.994   3.385  0.00  0.00     0.162 A 
ATOM      4  C3  UNL d   1      -1.410  -5.997   2.115  0.00  0.00    -0.034 A 
ATOM      5  C4  UNL d   1      -0.582  -5.996   0.992  0.00  0.00     0.162 A 
ATOM      6  C5  UNL d   1       0.801  -5.995   1.140  0.00  0.00     0.062 A 
ATOM      7  F   UNL d   1       1.589  -5.995   0.055  0.00  0.00    -0.097 F 
ATOM      8  F1  UNL d   1      -1.103  -5.999  -0.244  0.00  0.00    -0.096 F 
ATOM      9  I   UNL d   1      -3.480  -5.999   1.898  0.00  0.00    -0.060 I 
ATOM     10  F2  UNL d   1      -1.599  -5.994   4.487  0.00  0.00    -0.096 F 
ATOM     11  F3  UNL d   1       1.096  -5.990   4.753  0.00  0.00    -0.097 F 
ATOM     12  F4  UNL d   1       2.700  -5.991   2.546  0.00  0.00    -0.092 F 
ENDROOT
TORSDOF 0
ENDMDL
