MODEL 1
REMARK minimizedAffinity 17.3841782
REMARK minimizedRMSD -1
REMARK  0 active torsions:
REMARK  status: ('A' for Active; 'I' for Inactive)
ROOT
ATOM      1  C   UNL d   1       1.382   0.632   1.663  0.00  0.00     0.124 A 
ATOM      2  C1  UNL d   1       2.433  -0.129   1.171  0.00  0.00     0.062 A 
ATOM      3  C2  UNL d   1       2.505  -0.428  -0.187  0.00  0.00     0.162 A 
ATOM      4  C3  UNL d   1       1.522   0.034  -1.062  0.00  0.00    -0.034 A 
ATOM      5  C4  UNL d   1       0.467   0.798  -0.559  0.00  0.00     0.162 A 
ATOM      6  C5  UNL d   1       0.400   1.094   0.799  0.00  0.00     0.062 A 
ATOM      7  F   UNL d   1      -0.616   1.830   1.273  0.00  0.00    -0.097 F 
ATOM      8  F1  UNL d   1      -0.495   1.258  -1.373  0.00  0.00    -0.096 F 
ATOM      9  I   UNL d   1       1.625  -0.412  -3.092  0.00  0.00    -0.060 I 
ATOM     10  F2  UNL d   1       3.532  -1.166  -0.635  0.00  0.00    -0.096 F 
ATOM     11  F3  UNL d   1       3.383  -0.577   2.005  0.00  0.00    -0.097 F 
ATOM     12  F4  UNL d   1       1.316   0.918   2.970  0.00  0.00    -0.092 F 
ENDROOT
TORSDOF 0
ENDMDL
