MODEL 1
REMARK minimizedAffinity -4.99546051
REMARK minimizedRMSD -1
REMARK  1 active torsions:
REMARK  status: ('A' for Active; 'I' for Inactive)
REMARK    1  A    between atoms: N_2  and  C1_3 
ROOT
ATOM      1  C1  UNL d   1      -0.131   0.220  -0.038  0.00  0.00     0.143 A 
ATOM      2  C2  UNL d   1      -1.390  -0.188   0.414  0.00  0.00    -0.057 A 
ATOM      3  C3  UNL d   1      -1.934   0.317   1.601  0.00  0.00     0.033 A 
ATOM      4  C4  UNL d   1      -1.213   1.221   2.375  0.00  0.00    -0.042 A 
ATOM      5  C5  UNL d   1       0.051   1.622   1.957  0.00  0.00     0.033 A 
ATOM      6  C6  UNL d   1       0.586   1.119   0.767  0.00  0.00    -0.057 A 
ENDROOT
BRANCH   1   7
ATOM      7  N   UNL d   1       0.506  -0.319  -1.158  0.00  0.00    -0.732 N 
ATOM      8  C   UNL d   1       1.065  -1.654  -1.117  0.00  0.00     0.284 C 
ATOM      9  H3  UNL d   1       0.021  -0.098  -2.025  0.00  0.00     0.395 HD
ENDBRANCH   1   7
TORSDOF 1
ENDMDL
