MODEL 1
REMARK minimizedAffinity -3.47692299
REMARK minimizedRMSD -1
REMARK  1 active torsions:
REMARK  status: ('A' for Active; 'I' for Inactive)
REMARK    1  A    between atoms: N_2  and  C1_3 
ROOT
ATOM      1  C1  UNL d   1       0.549  -0.068  -0.465  0.00  0.00     0.143 A 
ATOM      2  C2  UNL d   1      -0.818   0.209  -0.360  0.00  0.00    -0.057 A 
ATOM      3  C3  UNL d   1      -1.356   0.782   0.798  0.00  0.00     0.033 A 
ATOM      4  C4  UNL d   1      -0.538   1.063   1.887  0.00  0.00    -0.042 A 
ATOM      5  C5  UNL d   1       0.820   0.774   1.815  0.00  0.00     0.033 A 
ATOM      6  C6  UNL d   1       1.352   0.207   0.653  0.00  0.00    -0.057 A 
ENDROOT
BRANCH   1   7
ATOM      7  N   UNL d   1       1.128  -0.728  -1.552  0.00  0.00    -0.732 N 
ATOM      8  C   UNL d   1       1.487  -0.001  -2.750  0.00  0.00     0.284 C 
ATOM      9  H3  UNL d   1       1.815  -1.421  -1.264  0.00  0.00     0.395 HD
ENDBRANCH   1   7
TORSDOF 1
ENDMDL
