MODEL 1
REMARK minimizedAffinity -5.07358742
REMARK minimizedRMSD -1
REMARK  1 active torsions:
REMARK  status: ('A' for Active; 'I' for Inactive)
REMARK    1  A    between atoms: N_2  and  C1_3 
ROOT
ATOM      1  C1  UNL d   1       0.152   0.128   0.064  0.00  0.00     0.143 A 
ATOM      2  C2  UNL d   1      -1.225   0.356   0.161  0.00  0.00    -0.057 A 
ATOM      3  C3  UNL d   1      -1.777   1.010   1.269  0.00  0.00     0.033 A 
ATOM      4  C4  UNL d   1      -0.962   1.422   2.318  0.00  0.00    -0.042 A 
ATOM      5  C5  UNL d   1       0.407   1.183   2.255  0.00  0.00     0.033 A 
ATOM      6  C6  UNL d   1       0.953   0.536   1.143  0.00  0.00    -0.057 A 
ENDROOT
BRANCH   1   7
ATOM      7  N   UNL d   1       0.749  -0.604  -0.965  0.00  0.00    -0.732 N 
ATOM      8  C   UNL d   1       1.120   0.040  -2.207  0.00  0.00     0.284 C 
ATOM      9  H3  UNL d   1       1.436  -1.270  -0.620  0.00  0.00     0.395 HD
ENDBRANCH   1   7
TORSDOF 1
ENDMDL
