MODEL 1
REMARK minimizedAffinity -1.32011974
REMARK minimizedRMSD -1
REMARK  1 active torsions:
REMARK  status: ('A' for Active; 'I' for Inactive)
REMARK    1  A    between atoms: N_2  and  C1_3 
ROOT
ATOM      1  C1  UNL d   1       0.742   0.913  -2.127  0.00  0.00     0.143 A 
ATOM      2  C2  UNL d   1      -0.078   0.623  -3.223  0.00  0.00    -0.057 A 
ATOM      3  C3  UNL d   1       0.401   0.726  -4.535  0.00  0.00     0.033 A 
ATOM      4  C4  UNL d   1       1.703   1.152  -4.775  0.00  0.00    -0.042 A 
ATOM      5  C5  UNL d   1       2.528   1.469  -3.702  0.00  0.00     0.033 A 
ATOM      6  C6  UNL d   1       2.046   1.357  -2.394  0.00  0.00    -0.057 A 
ENDROOT
BRANCH   1   7
ATOM      7  N   UNL d   1       0.295   0.924  -0.803  0.00  0.00    -0.732 N 
ATOM      8  C   UNL d   1       0.422  -0.255   0.027  0.00  0.00     0.284 C 
ATOM      9  H3  UNL d   1       0.517   1.794  -0.326  0.00  0.00     0.395 HD
ENDBRANCH   1   7
TORSDOF 1
ENDMDL
