MODEL 1
REMARK minimizedAffinity -0.0895541385
REMARK minimizedRMSD -1
REMARK  1 active torsions:
REMARK  status: ('A' for Active; 'I' for Inactive)
REMARK    1  A    between atoms: N_2  and  C1_3 
ROOT
ATOM      1  C1  UNL d   1       0.553   0.149  -0.178  0.00  0.00     0.143 A 
ATOM      2  C2  UNL d   1       0.245   1.411   0.343  0.00  0.00    -0.057 A 
ATOM      3  C3  UNL d   1       0.914   1.916   1.464  0.00  0.00     0.033 A 
ATOM      4  C4  UNL d   1       1.885   1.154   2.104  0.00  0.00    -0.042 A 
ATOM      5  C5  UNL d   1       2.190  -0.113   1.619  0.00  0.00     0.033 A 
ATOM      6  C6  UNL d   1       1.524  -0.609   0.495  0.00  0.00    -0.057 A 
ENDROOT
BRANCH   1   7
ATOM      7  N   UNL d   1      -0.145  -0.449  -1.230  0.00  0.00    -0.732 N 
ATOM      8  C   UNL d   1      -1.502  -0.916  -1.043  0.00  0.00     0.284 C 
ATOM      9  H3  UNL d   1       0.015   0.020  -2.119  0.00  0.00     0.395 HD
ENDBRANCH   1   7
TORSDOF 1
ENDMDL
