MODEL 1
REMARK minimizedAffinity -2.773808
REMARK minimizedRMSD -1
REMARK  1 active torsions:
REMARK  status: ('A' for Active; 'I' for Inactive)
REMARK    1  A    between atoms: N_2  and  C1_3 
ROOT
ATOM      1  C1  UNL d   1      -0.092  -0.089  -0.583  0.00  0.00     0.143 A 
ATOM      2  C2  UNL d   1      -1.491  -0.072  -0.573  0.00  0.00    -0.057 A 
ATOM      3  C3  UNL d   1      -2.203   0.452   0.512  0.00  0.00     0.033 A 
ATOM      4  C4  UNL d   1      -1.527   0.945   1.623  0.00  0.00    -0.042 A 
ATOM      5  C5  UNL d   1      -0.137   0.915   1.646  0.00  0.00     0.033 A 
ATOM      6  C6  UNL d   1       0.569   0.396   0.556  0.00  0.00    -0.057 A 
ENDROOT
BRANCH   1   7
ATOM      7  N   UNL d   1       0.671  -0.686  -1.589  0.00  0.00    -0.732 N 
ATOM      8  C   UNL d   1       1.026   0.052  -2.782  0.00  0.00     0.284 C 
ATOM      9  H3  UNL d   1       1.424  -1.261  -1.216  0.00  0.00     0.395 HD
ENDBRANCH   1   7
TORSDOF 1
ENDMDL
