MODEL 1
REMARK minimizedAffinity -4.68198729
REMARK minimizedRMSD -1
REMARK  1 active torsions:
REMARK  status: ('A' for Active; 'I' for Inactive)
REMARK    1  A    between atoms: N_2  and  C1_3 
ROOT
ATOM      1  C1  UNL d   1       0.018   0.107   0.159  0.00  0.00     0.143 A 
ATOM      2  C2  UNL d   1       0.765   0.770   1.139  0.00  0.00    -0.057 A 
ATOM      3  C3  UNL d   1       0.148   1.349   2.255  0.00  0.00     0.033 A 
ATOM      4  C4  UNL d   1      -1.235   1.301   2.395  0.00  0.00    -0.042 A 
ATOM      5  C5  UNL d   1      -2.000   0.669   1.421  0.00  0.00     0.033 A 
ATOM      6  C6  UNL d   1      -1.377   0.087   0.313  0.00  0.00    -0.057 A 
ENDROOT
BRANCH   1   7
ATOM      7  N   UNL d   1       0.563  -0.403  -1.021  0.00  0.00    -0.732 N 
ATOM      8  C   UNL d   1       1.242   0.468  -1.956  0.00  0.00     0.284 C 
ATOM      9  H3  UNL d   1       1.021  -1.301  -0.882  0.00  0.00     0.395 HD
ENDBRANCH   1   7
TORSDOF 1
ENDMDL
