MODEL 1
REMARK minimizedAffinity 7.33823824
REMARK minimizedRMSD -1
REMARK  3 active torsions:
REMARK  status: ('A' for Active; 'I' for Inactive)
REMARK    1  A    between atoms: C3'_2  and  C2'_3 
REMARK    2  A    between atoms: C2'_3  and  C1'_4 
REMARK    3  A    between atoms: C1'_4  and  C1_5 
ROOT
ATOM      1  C1  N4B d   1       2.680   4.857  -5.754  0.00  0.00    -0.075 A 
ATOM      2  C2  N4B d   1       1.988   3.679  -5.397  0.00  0.00     0.002 A 
ATOM      3  C3  N4B d   1       0.619   3.693  -5.289  0.00  0.00     0.002 A 
ATOM      4  C4  N4B d   1      -0.075   4.872  -5.513  0.00  0.00    -0.004 A 
ATOM      5  C5  N4B d   1       0.599   6.000  -5.883  0.00  0.00     0.002 A 
ATOM      6  C6  N4B d   1       1.974   6.000  -5.999  0.00  0.00     0.002 A 
ENDROOT
BRANCH   1   7
ATOM      7  C1' N4B d   1       4.183   4.913  -5.801  0.00  0.00     0.057 C 
BRANCH   7   8
ATOM      8  C2' N4B d   1       4.746   4.322  -4.512  0.00  0.00     0.009 C 
BRANCH   8   9
ATOM      9  C3' N4B d   1       4.910   2.815  -4.602  0.00  0.00     0.004 C 
ATOM     10  C4' N4B d   1       5.767   2.257  -3.505  0.00  0.00     0.003 C 
ENDBRANCH   8   9
ENDBRANCH   7   8
ENDBRANCH   1   7
TORSDOF 3
ENDMDL
