MODEL 1
REMARK minimizedAffinity -0.551004231
REMARK minimizedRMSD -1
REMARK  3 active torsions:
REMARK  status: ('A' for Active; 'I' for Inactive)
REMARK    1  A    between atoms: C3'_2  and  C2'_3 
REMARK    2  A    between atoms: C2'_3  and  C1'_4 
REMARK    3  A    between atoms: C1'_4  and  C1_5 
ROOT
ATOM      1  C1  N4B d   1      -0.274   5.968  -3.294  0.00  0.00    -0.075 A 
ATOM      2  C2  N4B d   1      -1.336   5.983  -4.224  0.00  0.00     0.002 A 
ATOM      3  C3  N4B d   1      -2.636   6.000  -3.782  0.00  0.00     0.002 A 
ATOM      4  C4  N4B d   1      -2.897   5.984  -2.420  0.00  0.00    -0.004 A 
ATOM      5  C5  N4B d   1      -1.866   5.996  -1.528  0.00  0.00     0.002 A 
ATOM      6  C6  N4B d   1      -0.554   5.983  -1.958  0.00  0.00     0.002 A 
ENDROOT
BRANCH   1   7
ATOM      7  C1' N4B d   1       1.162   5.863  -3.729  0.00  0.00     0.057 C 
BRANCH   7   8
ATOM      8  C2' N4B d   1       1.236   6.000  -5.247  0.00  0.00     0.009 C 
BRANCH   8   9
ATOM      9  C3' N4B d   1       2.295   5.092  -5.848  0.00  0.00     0.004 C 
ATOM     10  C4' N4B d   1       3.691   5.574  -5.585  0.00  0.00     0.003 C 
ENDBRANCH   8   9
ENDBRANCH   7   8
ENDBRANCH   1   7
TORSDOF 3
ENDMDL
