MODEL 1
REMARK minimizedAffinity 1.25041056
REMARK minimizedRMSD -1
REMARK  3 active torsions:
REMARK  status: ('A' for Active; 'I' for Inactive)
REMARK    1  A    between atoms: C3'_2  and  C2'_3 
REMARK    2  A    between atoms: C2'_3  and  C1'_4 
REMARK    3  A    between atoms: C1'_4  and  C1_5 
ROOT
ATOM      1  C1  N4B d   1      -0.275   5.784  -4.404  0.00  0.00    -0.075 A 
ATOM      2  C2  N4B d   1       0.139   5.930  -3.062  0.00  0.00     0.002 A 
ATOM      3  C3  N4B d   1      -0.796   5.995  -2.058  0.00  0.00     0.002 A 
ATOM      4  C4  N4B d   1      -2.146   5.935  -2.373  0.00  0.00    -0.004 A 
ATOM      5  C5  N4B d   1      -2.537   5.768  -3.669  0.00  0.00     0.002 A 
ATOM      6  C6  N4B d   1      -1.608   5.697  -4.688  0.00  0.00     0.002 A 
ENDROOT
BRANCH   1   7
ATOM      7  C1' N4B d   1       0.707   5.795  -5.543  0.00  0.00     0.057 C 
BRANCH   7   8
ATOM      8  C2' N4B d   1       1.432   4.454  -5.592  0.00  0.00     0.009 C 
BRANCH   8   9
ATOM      9  C3' N4B d   1       2.939   4.619  -5.497  0.00  0.00     0.004 C 
ATOM     10  C4' N4B d   1       3.408   5.959  -5.980  0.00  0.00     0.003 C 
ENDBRANCH   8   9
ENDBRANCH   7   8
ENDBRANCH   1   7
TORSDOF 3
ENDMDL
