MODEL 1
REMARK minimizedAffinity 4.32159281
REMARK minimizedRMSD -1
REMARK  3 active torsions:
REMARK  status: ('A' for Active; 'I' for Inactive)
REMARK    1  A    between atoms: C3'_2  and  C2'_3 
REMARK    2  A    between atoms: C2'_3  and  C1'_4 
REMARK    3  A    between atoms: C1'_4  and  C1_5 
ROOT
ATOM      1  C1  N4B d   1       0.717   0.559   1.073  0.00  0.00    -0.075 A 
ATOM      2  C2  N4B d   1       0.817  -0.496   0.140  0.00  0.00     0.002 A 
ATOM      3  C3  N4B d   1       1.358  -0.266  -1.101  0.00  0.00     0.002 A 
ATOM      4  C4  N4B d   1       1.786   1.009  -1.437  0.00  0.00    -0.004 A 
ATOM      5  C5  N4B d   1       1.709   2.018  -0.522  0.00  0.00     0.002 A 
ATOM      6  C6  N4B d   1       1.172   1.800   0.731  0.00  0.00     0.002 A 
ENDROOT
BRANCH   1   7
ATOM      7  C1' N4B d   1       0.055   0.376   2.411  0.00  0.00     0.057 C 
BRANCH   7   8
ATOM      8  C2' N4B d   1       0.801   1.201   3.456  0.00  0.00     0.009 C 
BRANCH   8   9
ATOM      9  C3' N4B d   1       1.089   0.399   4.713  0.00  0.00     0.004 C 
ATOM     10  C4' N4B d   1       0.667   1.110   5.965  0.00  0.00     0.003 C 
ENDBRANCH   8   9
ENDBRANCH   7   8
ENDBRANCH   1   7
TORSDOF 3
ENDMDL
