MODEL 1
REMARK minimizedAffinity -2.09497023
REMARK minimizedRMSD -1
REMARK  3 active torsions:
REMARK  status: ('A' for Active; 'I' for Inactive)
REMARK    1  A    between atoms: C3'_2  and  C2'_3 
REMARK    2  A    between atoms: C2'_3  and  C1'_4 
REMARK    3  A    between atoms: C1'_4  and  C1_5 
ROOT
ATOM      1  C1  N4B d   1      -0.904   5.936  -3.453  0.00  0.00    -0.075 A 
ATOM      2  C2  N4B d   1      -0.384   5.910  -2.140  0.00  0.00     0.002 A 
ATOM      3  C3  N4B d   1      -1.236   5.932  -1.063  0.00  0.00     0.002 A 
ATOM      4  C4  N4B d   1      -2.605   6.000  -1.274  0.00  0.00    -0.004 A 
ATOM      5  C5  N4B d   1      -3.100   6.000  -2.545  0.00  0.00     0.002 A 
ATOM      6  C6  N4B d   1      -2.256   5.973  -3.636  0.00  0.00     0.002 A 
ENDROOT
BRANCH   1   7
ATOM      7  C1' N4B d   1      -0.009   6.000  -4.660  0.00  0.00     0.057 C 
BRANCH   7   8
ATOM      8  C2' N4B d   1       1.094   4.955  -4.521  0.00  0.00     0.009 C 
BRANCH   8   9
ATOM      9  C3' N4B d   1       1.916   4.824  -5.792  0.00  0.00     0.004 C 
ATOM     10  C4' N4B d   1       3.092   5.754  -5.822  0.00  0.00     0.003 C 
ENDBRANCH   8   9
ENDBRANCH   7   8
ENDBRANCH   1   7
TORSDOF 3
ENDMDL
