MODEL 1
REMARK minimizedAffinity 4.6425004
REMARK minimizedRMSD -1
REMARK  3 active torsions:
REMARK  status: ('A' for Active; 'I' for Inactive)
REMARK    1  A    between atoms: C3'_2  and  C2'_3 
REMARK    2  A    between atoms: C2'_3  and  C1'_4 
REMARK    3  A    between atoms: C1'_4  and  C1_5 
ROOT
ATOM      1  C1  N4B d   1      -2.684  -1.665  -3.261  0.00  0.00    -0.075 A 
ATOM      2  C2  N4B d   1      -3.727  -2.243  -4.017  0.00  0.00     0.002 A 
ATOM      3  C3  N4B d   1      -4.807  -2.804  -3.379  0.00  0.00     0.002 A 
ATOM      4  C4  N4B d   1      -4.855  -2.816  -1.994  0.00  0.00    -0.004 A 
ATOM      5  C5  N4B d   1      -3.855  -2.233  -1.272  0.00  0.00     0.002 A 
ATOM      6  C6  N4B d   1      -2.766  -1.661  -1.899  0.00  0.00     0.002 A 
ENDROOT
BRANCH   1   7
ATOM      7  C1' N4B d   1      -1.443  -1.116  -3.911  0.00  0.00     0.057 C 
BRANCH   7   8
ATOM      8  C2' N4B d   1      -0.655  -2.263  -4.535  0.00  0.00     0.009 C 
BRANCH   8   9
ATOM      9  C3' N4B d   1       0.768  -1.855  -4.878  0.00  0.00     0.004 C 
ATOM     10  C4' N4B d   1       1.686  -1.901  -3.694  0.00  0.00     0.003 C 
ENDBRANCH   8   9
ENDBRANCH   7   8
ENDBRANCH   1   7
TORSDOF 3
ENDMDL
