MODEL 1
REMARK minimizedAffinity -0.331875414
REMARK minimizedRMSD -1
REMARK  3 active torsions:
REMARK  status: ('A' for Active; 'I' for Inactive)
REMARK    1  A    between atoms: C3'_2  and  C2'_3 
REMARK    2  A    between atoms: C2'_3  and  C1'_4 
REMARK    3  A    between atoms: C1'_4  and  C1_5 
ROOT
ATOM      1  C1  N4B d   1       0.749   5.809  -5.099  0.00  0.00    -0.075 A 
ATOM      2  C2  N4B d   1       0.866   5.854  -3.693  0.00  0.00     0.002 A 
ATOM      3  C3  N4B d   1      -0.261   5.924  -2.912  0.00  0.00     0.002 A 
ATOM      4  C4  N4B d   1      -1.510   5.970  -3.513  0.00  0.00    -0.004 A 
ATOM      5  C5  N4B d   1      -1.616   5.900  -4.871  0.00  0.00     0.002 A 
ATOM      6  C6  N4B d   1      -0.491   5.825  -5.668  0.00  0.00     0.002 A 
ENDROOT
BRANCH   1   7
ATOM      7  C1' N4B d   1       1.956   5.818  -5.997  0.00  0.00     0.057 C 
BRANCH   7   8
ATOM      8  C2' N4B d   1       3.196   5.485  -5.173  0.00  0.00     0.009 C 
BRANCH   8   9
ATOM      9  C3' N4B d   1       4.468   5.999  -5.826  0.00  0.00     0.004 C 
ATOM     10  C4' N4B d   1       5.609   5.033  -5.717  0.00  0.00     0.003 C 
ENDBRANCH   8   9
ENDBRANCH   7   8
ENDBRANCH   1   7
TORSDOF 3
ENDMDL
