MODEL 1
REMARK minimizedAffinity 4.59233522
REMARK minimizedRMSD -1
REMARK  3 active torsions:
REMARK  status: ('A' for Active; 'I' for Inactive)
REMARK    1  A    between atoms: C3'_2  and  C2'_3 
REMARK    2  A    between atoms: C2'_3  and  C1'_4 
REMARK    3  A    between atoms: C1'_4  and  C1_5 
ROOT
ATOM      1  C1  N4B d   1      -1.345   5.998  -3.262  0.00  0.00    -0.075 A 
ATOM      2  C2  N4B d   1      -2.672   5.998  -3.748  0.00  0.00     0.002 A 
ATOM      3  C3  N4B d   1      -3.725   5.984  -2.867  0.00  0.00     0.002 A 
ATOM      4  C4  N4B d   1      -3.479   5.951  -1.503  0.00  0.00    -0.004 A 
ATOM      5  C5  N4B d   1      -2.195   5.977  -1.041  0.00  0.00     0.002 A 
ATOM      6  C6  N4B d   1      -1.126   5.995  -1.915  0.00  0.00     0.002 A 
ENDROOT
BRANCH   1   7
ATOM      7  C1' N4B d   1      -0.161   5.926  -4.186  0.00  0.00     0.057 C 
BRANCH   7   8
ATOM      8  C2' N4B d   1       0.137   4.464  -4.506  0.00  0.00     0.009 C 
BRANCH   8   9
ATOM      9  C3' N4B d   1       1.389   4.312  -5.352  0.00  0.00     0.004 C 
ATOM     10  C4' N4B d   1       2.117   5.607  -5.551  0.00  0.00     0.003 C 
ENDBRANCH   8   9
ENDBRANCH   7   8
ENDBRANCH   1   7
TORSDOF 3
ENDMDL
