MODEL 1
REMARK minimizedAffinity 0.583262205
REMARK minimizedRMSD -1
REMARK  3 active torsions:
REMARK  status: ('A' for Active; 'I' for Inactive)
REMARK    1  A    between atoms: C3'_2  and  C2'_3 
REMARK    2  A    between atoms: C2'_3  and  C1'_4 
REMARK    3  A    between atoms: C1'_4  and  C1_5 
ROOT
ATOM      1  C1  N4B d   1      -0.256   5.990  -4.141  0.00  0.00    -0.075 A 
ATOM      2  C2  N4B d   1      -1.655   5.994  -4.332  0.00  0.00     0.002 A 
ATOM      3  C3  N4B d   1      -2.497   5.992  -3.247  0.00  0.00     0.002 A 
ATOM      4  C4  N4B d   1      -1.964   5.967  -1.966  0.00  0.00    -0.004 A 
ATOM      5  C5  N4B d   1      -0.611   5.989  -1.790  0.00  0.00     0.002 A 
ATOM      6  C6  N4B d   1       0.246   5.995  -2.872  0.00  0.00     0.002 A 
ENDROOT
BRANCH   1   7
ATOM      7  C1' N4B d   1       0.703   5.905  -5.297  0.00  0.00     0.057 C 
BRANCH   7   8
ATOM      8  C2' N4B d   1       2.070   5.464  -4.782  0.00  0.00     0.009 C 
BRANCH   8   9
ATOM      9  C3' N4B d   1       3.190   5.872  -5.724  0.00  0.00     0.004 C 
ATOM     10  C4' N4B d   1       4.537   5.853  -5.066  0.00  0.00     0.003 C 
ENDBRANCH   8   9
ENDBRANCH   7   8
ENDBRANCH   1   7
TORSDOF 3
ENDMDL
