MODEL 1
REMARK minimizedAffinity 0.948360443
REMARK minimizedRMSD -1
REMARK  3 active torsions:
REMARK  status: ('A' for Active; 'I' for Inactive)
REMARK    1  A    between atoms: C3'_2  and  C2'_3 
REMARK    2  A    between atoms: C2'_3  and  C1'_4 
REMARK    3  A    between atoms: C1'_4  and  C1_5 
ROOT
ATOM      1  C1  N4B d   1       0.929   0.173   0.165  0.00  0.00    -0.075 A 
ATOM      2  C2  N4B d   1       1.458   0.544  -1.091  0.00  0.00     0.002 A 
ATOM      3  C3  N4B d   1       2.071   1.763  -1.245  0.00  0.00     0.002 A 
ATOM      4  C4  N4B d   1       2.151   2.631  -0.167  0.00  0.00    -0.004 A 
ATOM      5  C5  N4B d   1       1.661   2.255   1.050  0.00  0.00     0.002 A 
ATOM      6  C6  N4B d   1       1.045   1.031   1.220  0.00  0.00     0.002 A 
ENDROOT
BRANCH   1   7
ATOM      7  C1' N4B d   1       0.174  -1.113   0.360  0.00  0.00     0.057 C 
BRANCH   7   8
ATOM      8  C2' N4B d   1      -1.061  -0.844   1.216  0.00  0.00     0.009 C 
BRANCH   8   9
ATOM      9  C3' N4B d   1      -1.849  -2.113   1.491  0.00  0.00     0.004 C 
ATOM     10  C4' N4B d   1      -2.296  -2.220   2.919  0.00  0.00     0.003 C 
ENDBRANCH   8   9
ENDBRANCH   7   8
ENDBRANCH   1   7
TORSDOF 3
ENDMDL
