MODEL 1
REMARK minimizedAffinity -5.24316835
REMARK minimizedRMSD -1
REMARK  0 active torsions:
REMARK  status: ('A' for Active; 'I' for Inactive)
ROOT
ATOM      1  C1  BNZ d   1       0.047  -0.409   2.259  0.00  0.00     0.000 A 
ATOM      2  C2  BNZ d   1      -0.523  -0.322   1.016  0.00  0.00     0.000 A 
ATOM      3  C3  BNZ d   1      -1.859  -0.071   0.875  0.00  0.00     0.000 A 
ATOM      4  C4  BNZ d   1      -2.630   0.054   1.974  0.00  0.00     0.000 A 
ATOM      5  C5  BNZ d   1      -2.073  -0.040   3.233  0.00  0.00     0.000 A 
ATOM      6  C6  BNZ d   1      -0.721  -0.255   3.372  0.00  0.00     0.000 A 
ENDROOT
TORSDOF 0
ENDMDL
