MODEL 1
REMARK minimizedAffinity -4.99960613
REMARK minimizedRMSD -1
REMARK  0 active torsions:
REMARK  status: ('A' for Active; 'I' for Inactive)
ROOT
ATOM      1  C1  BNZ d   1      -1.281  -0.083   2.817  0.00  0.00     0.000 A 
ATOM      2  C2  BNZ d   1       0.068  -0.077   2.581  0.00  0.00     0.000 A 
ATOM      3  C3  BNZ d   1       0.555   0.033   1.309  0.00  0.00     0.000 A 
ATOM      4  C4  BNZ d   1      -0.305   0.096   0.272  0.00  0.00     0.000 A 
ATOM      5  C5  BNZ d   1      -1.668   0.082   0.493  0.00  0.00     0.000 A 
ATOM      6  C6  BNZ d   1      -2.155   0.011   1.778  0.00  0.00     0.000 A 
ENDROOT
TORSDOF 0
ENDMDL
