MODEL 1
REMARK minimizedAffinity -2.80215526
REMARK minimizedRMSD -1
REMARK  0 active torsions:
REMARK  status: ('A' for Active; 'I' for Inactive)
ROOT
ATOM      1  C1  BNZ d   1       1.630   0.369   1.001  0.00  0.00     0.000 A 
ATOM      2  C2  BNZ d   1       1.113   0.168   2.253  0.00  0.00     0.000 A 
ATOM      3  C3  BNZ d   1      -0.140  -0.353   2.417  0.00  0.00     0.000 A 
ATOM      4  C4  BNZ d   1      -0.889  -0.633   1.331  0.00  0.00     0.000 A 
ATOM      5  C5  BNZ d   1      -0.386  -0.427   0.062  0.00  0.00     0.000 A 
ATOM      6  C6  BNZ d   1       0.891   0.061  -0.100  0.00  0.00     0.000 A 
ENDROOT
TORSDOF 0
ENDMDL
