MODEL 1
REMARK minimizedAffinity -4.4301939
REMARK minimizedRMSD -1
REMARK  0 active torsions:
REMARK  status: ('A' for Active; 'I' for Inactive)
ROOT
ATOM      1  C1  BNZ d   1      -0.824  -0.371   2.388  0.00  0.00     0.000 A 
ATOM      2  C2  BNZ d   1      -1.411  -0.246   1.157  0.00  0.00     0.000 A 
ATOM      3  C3  BNZ d   1      -0.664   0.062   0.054  0.00  0.00     0.000 A 
ATOM      4  C4  BNZ d   1       0.659   0.284   0.190  0.00  0.00     0.000 A 
ATOM      5  C5  BNZ d   1       1.263   0.171   1.427  0.00  0.00     0.000 A 
ATOM      6  C6  BNZ d   1       0.515  -0.178   2.528  0.00  0.00     0.000 A 
ENDROOT
TORSDOF 0
ENDMDL
