MODEL 1
REMARK minimizedAffinity -3.54450917
REMARK minimizedRMSD -1
REMARK  0 active torsions:
REMARK  status: ('A' for Active; 'I' for Inactive)
ROOT
ATOM      1  C1  BNZ d   1      -0.950  -0.026   0.623  0.00  0.00     0.000 A 
ATOM      2  C2  BNZ d   1      -2.240   0.041   1.077  0.00  0.00     0.000 A 
ATOM      3  C3  BNZ d   1      -2.514  -0.005   2.416  0.00  0.00     0.000 A 
ATOM      4  C4  BNZ d   1      -1.503  -0.159   3.294  0.00  0.00     0.000 A 
ATOM      5  C5  BNZ d   1      -0.197  -0.238   2.851  0.00  0.00     0.000 A 
ATOM      6  C6  BNZ d   1       0.078  -0.151   1.505  0.00  0.00     0.000 A 
ENDROOT
TORSDOF 0
ENDMDL
