MODEL 1
REMARK minimizedAffinity -4.99666023
REMARK minimizedRMSD -1
REMARK  0 active torsions:
REMARK  status: ('A' for Active; 'I' for Inactive)
ROOT
ATOM      1  C1  BNZ d   1      -2.895  -0.209   2.209  0.00  0.00     0.000 A 
ATOM      2  C2  BNZ d   1      -2.032  -0.526   3.224  0.00  0.00     0.000 A 
ATOM      3  C3  BNZ d   1      -0.690  -0.640   2.991  0.00  0.00     0.000 A 
ATOM      4  C4  BNZ d   1      -0.218  -0.477   1.738  0.00  0.00     0.000 A 
ATOM      5  C5  BNZ d   1      -1.077  -0.166   0.703  0.00  0.00     0.000 A 
ATOM      6  C6  BNZ d   1      -2.422  -0.014   0.948  0.00  0.00     0.000 A 
ENDROOT
TORSDOF 0
ENDMDL
