MODEL 1
REMARK minimizedAffinity -1.32165408
REMARK minimizedRMSD -1
REMARK  0 active torsions:
REMARK  status: ('A' for Active; 'I' for Inactive)
ROOT
ATOM      1  C1  BNZ d   1       2.598  -1.138  -2.962  0.00  0.00     0.000 A 
ATOM      2  C2  BNZ d   1       1.876  -2.193  -3.453  0.00  0.00     0.000 A 
ATOM      3  C3  BNZ d   1       0.515  -2.121  -3.559  0.00  0.00     0.000 A 
ATOM      4  C4  BNZ d   1      -0.125  -1.012  -3.136  0.00  0.00     0.000 A 
ATOM      5  C5  BNZ d   1       0.588   0.057  -2.630  0.00  0.00     0.000 A 
ATOM      6  C6  BNZ d   1       1.961  -0.004  -2.561  0.00  0.00     0.000 A 
ENDROOT
TORSDOF 0
ENDMDL
