MODEL 1
REMARK minimizedAffinity -4.99608707
REMARK minimizedRMSD -1
REMARK  0 active torsions:
REMARK  status: ('A' for Active; 'I' for Inactive)
ROOT
ATOM      1  C1  BNZ d   1      -1.541  -0.697   1.485  0.00  0.00     0.000 A 
ATOM      2  C2  BNZ d   1      -0.801  -0.667   0.333  0.00  0.00     0.000 A 
ATOM      3  C3  BNZ d   1       0.521  -0.321   0.359  0.00  0.00     0.000 A 
ATOM      4  C4  BNZ d   1       1.091   0.034   1.529  0.00  0.00     0.000 A 
ATOM      5  C5  BNZ d   1       0.356   0.018   2.698  0.00  0.00     0.000 A 
ATOM      6  C6  BNZ d   1      -0.965  -0.369   2.674  0.00  0.00     0.000 A 
ENDROOT
TORSDOF 0
ENDMDL
