MODEL 1
REMARK minimizedAffinity -3.19801188
REMARK minimizedRMSD -1
REMARK  0 active torsions:
REMARK  status: ('A' for Active; 'I' for Inactive)
ROOT
ATOM      1  C1  BNZ d   1       0.730  -1.452  -2.657  0.00  0.00     0.000 A 
ATOM      2  C2  BNZ d   1       1.107  -1.053  -1.403  0.00  0.00     0.000 A 
ATOM      3  C3  BNZ d   1       0.537   0.042  -0.815  0.00  0.00     0.000 A 
ATOM      4  C4  BNZ d   1      -0.379   0.759  -1.498  0.00  0.00     0.000 A 
ATOM      5  C5  BNZ d   1      -0.762   0.375  -2.767  0.00  0.00     0.000 A 
ATOM      6  C6  BNZ d   1      -0.215  -0.750  -3.340  0.00  0.00     0.000 A 
ENDROOT
TORSDOF 0
ENDMDL
