MODEL 1
REMARK minimizedAffinity -5.35671616
REMARK minimizedRMSD -1
REMARK  0 active torsions:
REMARK  status: ('A' for Active; 'I' for Inactive)
ROOT
ATOM      1  C1  BNZ d   1      -2.294  -0.085   0.834  0.00  0.00     0.000 A 
ATOM      2  C2  BNZ d   1      -2.602   0.044   2.162  0.00  0.00     0.000 A 
ATOM      3  C3  BNZ d   1      -1.653  -0.165   3.124  0.00  0.00     0.000 A 
ATOM      4  C4  BNZ d   1      -0.410  -0.541   2.758  0.00  0.00     0.000 A 
ATOM      5  C5  BNZ d   1      -0.087  -0.684   1.424  0.00  0.00     0.000 A 
ATOM      6  C6  BNZ d   1      -1.034  -0.435   0.457  0.00  0.00     0.000 A 
ENDROOT
TORSDOF 0
ENDMDL
