MODEL 1
REMARK minimizedAffinity -3.02121758
REMARK minimizedRMSD -1
REMARK  0 active torsions:
REMARK  status: ('A' for Active; 'I' for Inactive)
ROOT
ATOM      1  C1  BNZ d   1      -1.165  -0.114   2.834  0.00  0.00     0.000 A 
ATOM      2  C2  BNZ d   1      -0.454  -0.273   1.675  0.00  0.00     0.000 A 
ATOM      3  C3  BNZ d   1      -1.050  -0.089   0.458  0.00  0.00     0.000 A 
ATOM      4  C4  BNZ d   1      -2.363   0.213   0.402  0.00  0.00     0.000 A 
ATOM      5  C5  BNZ d   1      -3.095   0.367   1.562  0.00  0.00     0.000 A 
ATOM      6  C6  BNZ d   1      -2.483   0.219   2.786  0.00  0.00     0.000 A 
ENDROOT
TORSDOF 0
ENDMDL
