MODEL 1
REMARK minimizedAffinity -5.46764565
REMARK minimizedRMSD -1
REMARK  0 active torsions:
REMARK  status: ('A' for Active; 'I' for Inactive)
ROOT
ATOM      1  C1  BNZ d   1      -0.887  -0.110   0.391  0.00  0.00     0.000 A 
ATOM      2  C2  BNZ d   1      -2.206   0.026   0.734  0.00  0.00     0.000 A 
ATOM      3  C3  BNZ d   1      -2.595  -0.004   2.043  0.00  0.00     0.000 A 
ATOM      4  C4  BNZ d   1      -1.672  -0.208   3.005  0.00  0.00     0.000 A 
ATOM      5  C5  BNZ d   1      -0.340  -0.357   2.675  0.00  0.00     0.000 A 
ATOM      6  C6  BNZ d   1       0.054  -0.288   1.358  0.00  0.00     0.000 A 
ENDROOT
TORSDOF 0
ENDMDL
