MODEL 1
REMARK minimizedAffinity -5.45420647
REMARK minimizedRMSD -1
REMARK  3 active torsions:
REMARK  status: ('A' for Active; 'I' for Inactive)
REMARK    1  A    between atoms: C3'_2  and  C2'_3 
REMARK    2  A    between atoms: C2'_3  and  C1'_4 
REMARK    3  A    between atoms: C1'_4  and  C1_5 
ROOT
ATOM      1  C1  N4B d   1      -1.269   0.274   0.432  0.00  0.00    -0.075 A 
ATOM      2  C2  N4B d   1      -0.699  -1.014   0.327  0.00  0.00     0.002 A 
ATOM      3  C3  N4B d   1      -1.239  -2.062   1.030  0.00  0.00     0.002 A 
ATOM      4  C4  N4B d   1      -2.332  -1.845   1.856  0.00  0.00    -0.004 A 
ATOM      5  C5  N4B d   1      -2.892  -0.603   1.932  0.00  0.00     0.002 A 
ATOM      6  C6  N4B d   1      -2.363   0.460   1.227  0.00  0.00     0.002 A 
ENDROOT
BRANCH   1   7
ATOM      7  C1' N4B d   1      -0.662   1.469  -0.251  0.00  0.00     0.057 C 
BRANCH   7   8
ATOM      8  C2' N4B d   1       0.823   1.211  -0.486  0.00  0.00     0.009 C 
BRANCH   8   9
ATOM      9  C3' N4B d   1       1.337   1.929  -1.722  0.00  0.00     0.004 C 
ATOM     10  C4' N4B d   1       0.248   2.244  -2.704  0.00  0.00     0.003 C 
ENDBRANCH   8   9
ENDBRANCH   7   8
ENDBRANCH   1   7
TORSDOF 3
ENDMDL
