MODEL 1
REMARK minimizedAffinity -5.82964516
REMARK minimizedRMSD -1
REMARK  3 active torsions:
REMARK  status: ('A' for Active; 'I' for Inactive)
REMARK    1  A    between atoms: C3'_2  and  C2'_3 
REMARK    2  A    between atoms: C2'_3  and  C1'_4 
REMARK    3  A    between atoms: C1'_4  and  C1_5 
ROOT
ATOM      1  C1  N4B d   1      -0.648  -0.937   1.202  0.00  0.00    -0.075 A 
ATOM      2  C2  N4B d   1      -1.611  -0.132   1.849  0.00  0.00     0.002 A 
ATOM      3  C3  N4B d   1      -2.828  -0.665   2.200  0.00  0.00     0.002 A 
ATOM      4  C4  N4B d   1      -3.110  -1.988   1.898  0.00  0.00    -0.004 A 
ATOM      5  C5  N4B d   1      -2.165  -2.766   1.295  0.00  0.00     0.002 A 
ATOM      6  C6  N4B d   1      -0.937  -2.246   0.941  0.00  0.00     0.002 A 
ENDROOT
BRANCH   1   7
ATOM      7  C1' N4B d   1       0.663  -0.377   0.722  0.00  0.00     0.057 C 
BRANCH   7   8
ATOM      8  C2' N4B d   1       0.398   0.878  -0.105  0.00  0.00     0.009 C 
BRANCH   8   9
ATOM      9  C3' N4B d   1      -0.053   0.543  -1.516  0.00  0.00     0.004 C 
ATOM     10  C4' N4B d   1       0.390   1.562  -2.524  0.00  0.00     0.003 C 
ENDBRANCH   8   9
ENDBRANCH   7   8
ENDBRANCH   1   7
TORSDOF 3
ENDMDL
