MODEL 1
REMARK minimizedAffinity -2.90479946
REMARK minimizedRMSD -1
REMARK  3 active torsions:
REMARK  status: ('A' for Active; 'I' for Inactive)
REMARK    1  A    between atoms: C3'_2  and  C2'_3 
REMARK    2  A    between atoms: C2'_3  and  C1'_4 
REMARK    3  A    between atoms: C1'_4  and  C1_5 
ROOT
ATOM      1  C1  N4B d   1      -1.271  -0.154   0.908  0.00  0.00    -0.075 A 
ATOM      2  C2  N4B d   1      -0.501   0.847   0.276  0.00  0.00     0.002 A 
ATOM      3  C3  N4B d   1       0.755   0.552  -0.194  0.00  0.00     0.002 A 
ATOM      4  C4  N4B d   1       1.268  -0.726  -0.027  0.00  0.00    -0.004 A 
ATOM      5  C5  N4B d   1       0.508  -1.693   0.562  0.00  0.00     0.002 A 
ATOM      6  C6  N4B d   1      -0.758  -1.412   1.036  0.00  0.00     0.002 A 
ENDROOT
BRANCH   1   7
ATOM      7  C1' N4B d   1      -2.615   0.142   1.515  0.00  0.00     0.057 C 
BRANCH   7   8
ATOM      8  C2' N4B d   1      -2.788  -0.690   2.781  0.00  0.00     0.009 C 
BRANCH   8   9
ATOM      9  C3' N4B d   1      -3.326   0.137   3.936  0.00  0.00     0.004 C 
ATOM     10  C4' N4B d   1      -2.550  -0.062   5.204  0.00  0.00     0.003 C 
ENDBRANCH   8   9
ENDBRANCH   7   8
ENDBRANCH   1   7
TORSDOF 3
ENDMDL
