MODEL 1
REMARK minimizedAffinity -5.70438671
REMARK minimizedRMSD -1
REMARK  3 active torsions:
REMARK  status: ('A' for Active; 'I' for Inactive)
REMARK    1  A    between atoms: C3'_2  and  C2'_3 
REMARK    2  A    between atoms: C2'_3  and  C1'_4 
REMARK    3  A    between atoms: C1'_4  and  C1_5 
ROOT
ATOM      1  C1  N4B d   1      -0.600  -0.332   0.664  0.00  0.00    -0.075 A 
ATOM      2  C2  N4B d   1      -0.101  -1.645   0.812  0.00  0.00     0.002 A 
ATOM      3  C3  N4B d   1      -0.836  -2.587   1.488  0.00  0.00     0.002 A 
ATOM      4  C4  N4B d   1      -2.059  -2.236   2.041  0.00  0.00    -0.004 A 
ATOM      5  C5  N4B d   1      -2.545  -0.973   1.872  0.00  0.00     0.002 A 
ATOM      6  C6  N4B d   1      -1.819  -0.017   1.191  0.00  0.00     0.002 A 
ENDROOT
BRANCH   1   7
ATOM      7  C1' N4B d   1       0.206   0.754   0.007  0.00  0.00     0.057 C 
BRANCH   7   8
ATOM      8  C2' N4B d   1       0.058   0.641  -1.507  0.00  0.00     0.009 C 
BRANCH   8   9
ATOM      9  C3' N4B d   1       0.974   1.606  -2.241  0.00  0.00     0.004 C 
ATOM     10  C4' N4B d   1       0.222   2.668  -2.986  0.00  0.00     0.003 C 
ENDBRANCH   8   9
ENDBRANCH   7   8
ENDBRANCH   1   7
TORSDOF 3
ENDMDL
