MODEL 1
REMARK minimizedAffinity -5.21523952
REMARK minimizedRMSD -1
REMARK  3 active torsions:
REMARK  status: ('A' for Active; 'I' for Inactive)
REMARK    1  A    between atoms: C3'_2  and  C2'_3 
REMARK    2  A    between atoms: C2'_3  and  C1'_4 
REMARK    3  A    between atoms: C1'_4  and  C1_5 
ROOT
ATOM      1  C1  N4B d   1      -0.512   0.515   0.373  0.00  0.00    -0.075 A 
ATOM      2  C2  N4B d   1       0.574  -0.365   0.173  0.00  0.00     0.002 A 
ATOM      3  C3  N4B d   1       0.558  -1.616   0.740  0.00  0.00     0.002 A 
ATOM      4  C4  N4B d   1      -0.520  -2.000   1.523  0.00  0.00    -0.004 A 
ATOM      5  C5  N4B d   1      -1.577  -1.153   1.691  0.00  0.00     0.002 A 
ATOM      6  C6  N4B d   1      -1.576   0.105   1.124  0.00  0.00     0.002 A 
ENDROOT
BRANCH   1   7
ATOM      7  C1' N4B d   1      -0.501   1.924  -0.155  0.00  0.00     0.057 C 
BRANCH   7   8
ATOM      8  C2' N4B d   1       0.479   2.013  -1.321  0.00  0.00     0.009 C 
BRANCH   8   9
ATOM      9  C3' N4B d   1      -0.175   2.577  -2.571  0.00  0.00     0.004 C 
ATOM     10  C4' N4B d   1       0.723   2.523  -3.771  0.00  0.00     0.003 C 
ENDBRANCH   8   9
ENDBRANCH   7   8
ENDBRANCH   1   7
TORSDOF 3
ENDMDL
