MODEL 1
REMARK minimizedAffinity -4.96618843
REMARK minimizedRMSD -1
REMARK  3 active torsions:
REMARK  status: ('A' for Active; 'I' for Inactive)
REMARK    1  A    between atoms: C3'_2  and  C2'_3 
REMARK    2  A    between atoms: C2'_3  and  C1'_4 
REMARK    3  A    between atoms: C1'_4  and  C1_5 
ROOT
ATOM      1  C1  N4B d   1      -0.158   0.025   0.458  0.00  0.00    -0.075 A 
ATOM      2  C2  N4B d   1       0.185  -1.345   0.424  0.00  0.00     0.002 A 
ATOM      3  C3  N4B d   1      -0.747  -2.295   0.761  0.00  0.00     0.002 A 
ATOM      4  C4  N4B d   1      -2.018  -1.900   1.152  0.00  0.00    -0.004 A 
ATOM      5  C5  N4B d   1      -2.349  -0.577   1.158  0.00  0.00     0.002 A 
ATOM      6  C6  N4B d   1      -1.423   0.389   0.817  0.00  0.00     0.002 A 
ENDROOT
BRANCH   1   7
ATOM      7  C1' N4B d   1       0.853   1.104   0.180  0.00  0.00     0.057 C 
BRANCH   7   8
ATOM      8  C2' N4B d   1       1.173   1.118  -1.311  0.00  0.00     0.009 C 
BRANCH   8   9
ATOM      9  C3' N4B d   1       2.376   1.991  -1.626  0.00  0.00     0.004 C 
ATOM     10  C4' N4B d   1       2.506   2.295  -3.089  0.00  0.00     0.003 C 
ENDBRANCH   8   9
ENDBRANCH   7   8
ENDBRANCH   1   7
TORSDOF 3
ENDMDL
