MODEL 1
REMARK minimizedAffinity -3.07186317
REMARK minimizedRMSD -1
REMARK  3 active torsions:
REMARK  status: ('A' for Active; 'I' for Inactive)
REMARK    1  A    between atoms: C3'_2  and  C2'_3 
REMARK    2  A    between atoms: C2'_3  and  C1'_4 
REMARK    3  A    between atoms: C1'_4  and  C1_5 
ROOT
ATOM      1  C1  N4B d   1      -0.099  -0.042   0.312  0.00  0.00    -0.075 A 
ATOM      2  C2  N4B d   1       0.756  -1.154   0.479  0.00  0.00     0.002 A 
ATOM      3  C3  N4B d   1       0.224  -2.409   0.649  0.00  0.00     0.002 A 
ATOM      4  C4  N4B d   1      -1.153  -2.572   0.675  0.00  0.00    -0.004 A 
ATOM      5  C5  N4B d   1      -1.971  -1.497   0.488  0.00  0.00     0.002 A 
ATOM      6  C6  N4B d   1      -1.450  -0.231   0.312  0.00  0.00     0.002 A 
ENDROOT
BRANCH   1   7
ATOM      7  C1' N4B d   1       0.435   1.361   0.209  0.00  0.00     0.057 C 
BRANCH   7   8
ATOM      8  C2' N4B d   1       0.442   1.787  -1.256  0.00  0.00     0.009 C 
BRANCH   8   9
ATOM      9  C3' N4B d   1       1.850   1.844  -1.824  0.00  0.00     0.004 C 
ATOM     10  C4' N4B d   1       1.880   2.277  -3.260  0.00  0.00     0.003 C 
ENDBRANCH   8   9
ENDBRANCH   7   8
ENDBRANCH   1   7
TORSDOF 3
ENDMDL
