MODEL 1
REMARK minimizedAffinity 0.0593054891
REMARK minimizedRMSD -1
REMARK  3 active torsions:
REMARK  status: ('A' for Active; 'I' for Inactive)
REMARK    1  A    between atoms: C3'_2  and  C2'_3 
REMARK    2  A    between atoms: C2'_3  and  C1'_4 
REMARK    3  A    between atoms: C1'_4  and  C1_5 
ROOT
ATOM      1  C1  N4B d   1       0.627  -0.103   0.364  0.00  0.00    -0.075 A 
ATOM      2  C2  N4B d   1       0.026  -0.139  -0.914  0.00  0.00     0.002 A 
ATOM      3  C3  N4B d   1      -1.022   0.701  -1.203  0.00  0.00     0.002 A 
ATOM      4  C4  N4B d   1      -1.496   1.567  -0.229  0.00  0.00    -0.004 A 
ATOM      5  C5  N4B d   1      -0.894   1.612   0.994  0.00  0.00     0.002 A 
ATOM      6  C6  N4B d   1       0.162   0.778   1.297  0.00  0.00     0.002 A 
ENDROOT
BRANCH   1   7
ATOM      7  C1' N4B d   1       1.719  -1.061   0.755  0.00  0.00     0.057 C 
BRANCH   7   8
ATOM      8  C2' N4B d   1       1.094  -2.393   1.162  0.00  0.00     0.009 C 
BRANCH   8   9
ATOM      9  C3' N4B d   1      -0.421  -2.313   1.229  0.00  0.00     0.004 C 
ATOM     10  C4' N4B d   1      -0.930  -2.100   2.624  0.00  0.00     0.003 C 
ENDBRANCH   8   9
ENDBRANCH   7   8
ENDBRANCH   1   7
TORSDOF 3
ENDMDL
