MODEL 1
REMARK minimizedAffinity -6.56451845
REMARK minimizedRMSD -1
REMARK  3 active torsions:
REMARK  status: ('A' for Active; 'I' for Inactive)
REMARK    1  A    between atoms: C3'_2  and  C2'_3 
REMARK    2  A    between atoms: C2'_3  and  C1'_4 
REMARK    3  A    between atoms: C1'_4  and  C1_5 
ROOT
ATOM      1  C1  N4B d   1      -0.743  -0.599   0.617  0.00  0.00    -0.075 A 
ATOM      2  C2  N4B d   1      -0.989  -1.962   0.889  0.00  0.00     0.002 A 
ATOM      3  C3  N4B d   1      -2.043  -2.323   1.693  0.00  0.00     0.002 A 
ATOM      4  C4  N4B d   1      -2.848  -1.340   2.249  0.00  0.00    -0.004 A 
ATOM      5  C5  N4B d   1      -2.618  -0.027   1.961  0.00  0.00     0.002 A 
ATOM      6  C6  N4B d   1      -1.566   0.350   1.152  0.00  0.00     0.002 A 
ENDROOT
BRANCH   1   7
ATOM      7  C1' N4B d   1       0.448  -0.152  -0.186  0.00  0.00     0.057 C 
BRANCH   7   8
ATOM      8  C2' N4B d   1       0.205   1.266  -0.696  0.00  0.00     0.009 C 
BRANCH   8   9
ATOM      9  C3' N4B d   1       1.313   1.734  -1.624  0.00  0.00     0.004 C 
ATOM     10  C4' N4B d   1       0.798   2.201  -2.953  0.00  0.00     0.003 C 
ENDBRANCH   8   9
ENDBRANCH   7   8
ENDBRANCH   1   7
TORSDOF 3
ENDMDL
