MODEL 1
REMARK minimizedAffinity -3.11381292
REMARK minimizedRMSD -1
REMARK  2 active torsions:
REMARK  status: ('A' for Active; 'I' for Inactive)
REMARK    1  A    between atoms: C2'_3  and  C1'_4 
REMARK    2  A    between atoms: C1'_4  and  C1_5 
ROOT
ATOM      1  C1  I4B d   1       0.538  -0.626   0.158  0.00  0.00    -0.075 A 
ATOM      2  C2  I4B d   1       1.885  -0.399   0.293  0.00  0.00     0.003 A 
ATOM      3  C3  I4B d   1       2.421   0.886   0.038  0.00  0.00     0.002 A 
ATOM      4  C4  I4B d   1       1.587   1.896  -0.395  0.00  0.00    -0.004 A 
ATOM      5  C5  I4B d   1       0.218   1.671  -0.510  0.00  0.00     0.002 A 
ATOM      6  C6  I4B d   1      -0.312   0.406  -0.219  0.00  0.00     0.003 A 
ENDROOT
BRANCH   1   7
ATOM      7  C1' I4B d   1       0.011  -2.004   0.404  0.00  0.00     0.060 C 
BRANCH   7   8
ATOM      8  C2' I4B d   1      -0.635  -2.492  -0.877  0.00  0.00    -0.013 C 
ATOM      9  C4' I4B d   1       0.398  -2.763  -1.939  0.00  0.00     0.013 C 
ATOM     10  C3' I4B d   1      -1.421  -3.728  -0.558  0.00  0.00     0.013 C 
ENDBRANCH   7   8
ENDBRANCH   1   7
TORSDOF 2
ENDMDL
