MODEL 1
REMARK minimizedAffinity -2.83012199
REMARK minimizedRMSD -1
REMARK  2 active torsions:
REMARK  status: ('A' for Active; 'I' for Inactive)
REMARK    1  A    between atoms: C2'_3  and  C1'_4 
REMARK    2  A    between atoms: C1'_4  and  C1_5 
ROOT
ATOM      1  C1  I4B d   1      -0.116   0.010   0.114  0.00  0.00    -0.075 A 
ATOM      2  C2  I4B d   1      -1.167   0.622   0.750  0.00  0.00     0.003 A 
ATOM      3  C3  I4B d   1      -1.290   2.032   0.727  0.00  0.00     0.002 A 
ATOM      4  C4  I4B d   1      -0.319   2.789   0.105  0.00  0.00    -0.004 A 
ATOM      5  C5  I4B d   1       0.733   2.166  -0.559  0.00  0.00     0.002 A 
ATOM      6  C6  I4B d   1       0.829   0.766  -0.565  0.00  0.00     0.003 A 
ENDROOT
BRANCH   1   7
ATOM      7  C1' I4B d   1       0.000  -1.480   0.186  0.00  0.00     0.060 C 
BRANCH   7   8
ATOM      8  C2' I4B d   1      -0.536  -2.053  -1.110  0.00  0.00    -0.013 C 
ATOM      9  C4' I4B d   1       0.581  -2.543  -1.993  0.00  0.00     0.013 C 
ATOM     10  C3' I4B d   1      -1.482  -3.165  -0.767  0.00  0.00     0.013 C 
ENDBRANCH   7   8
ENDBRANCH   1   7
TORSDOF 2
ENDMDL
