MODEL 1
REMARK minimizedAffinity 6.40731382
REMARK minimizedRMSD -1
REMARK  2 active torsions:
REMARK  status: ('A' for Active; 'I' for Inactive)
REMARK    1  A    between atoms: C2'_3  and  C1'_4 
REMARK    2  A    between atoms: C1'_4  and  C1_5 
ROOT
ATOM      1  C1  I4B d   1      -0.943   1.542   1.788  0.00  0.00    -0.075 A 
ATOM      2  C2  I4B d   1       0.386   1.572   1.446  0.00  0.00     0.003 A 
ATOM      3  C3  I4B d   1       0.829   2.389   0.377  0.00  0.00     0.002 A 
ATOM      4  C4  I4B d   1      -0.092   3.114  -0.350  0.00  0.00    -0.004 A 
ATOM      5  C5  I4B d   1      -1.436   3.100   0.013  0.00  0.00     0.002 A 
ATOM      6  C6  I4B d   1      -1.863   2.319   1.096  0.00  0.00     0.003 A 
ENDROOT
BRANCH   1   7
ATOM      7  C1' I4B d   1      -1.380   0.644   2.902  0.00  0.00     0.060 C 
BRANCH   7   8
ATOM      8  C2' I4B d   1      -1.802  -0.679   2.296  0.00  0.00    -0.013 C 
ATOM      9  C4' I4B d   1      -0.748  -1.735   2.504  0.00  0.00     0.013 C 
ATOM     10  C3' I4B d   1      -3.103  -1.082   2.923  0.00  0.00     0.013 C 
ENDBRANCH   7   8
ENDBRANCH   1   7
TORSDOF 2
ENDMDL
