MODEL 1
REMARK minimizedAffinity -1.19395781
REMARK minimizedRMSD -1
REMARK  2 active torsions:
REMARK  status: ('A' for Active; 'I' for Inactive)
REMARK    1  A    between atoms: C2'_3  and  C1'_4 
REMARK    2  A    between atoms: C1'_4  and  C1_5 
ROOT
ATOM      1  C1  I4B d   1       0.500  -0.437  -0.214  0.00  0.00    -0.075 A 
ATOM      2  C2  I4B d   1      -0.606  -1.043   0.329  0.00  0.00     0.003 A 
ATOM      3  C3  I4B d   1      -1.007  -2.325  -0.118  0.00  0.00     0.002 A 
ATOM      4  C4  I4B d   1      -0.309  -2.938  -1.138  0.00  0.00    -0.004 A 
ATOM      5  C5  I4B d   1       0.825  -2.332  -1.672  0.00  0.00     0.002 A 
ATOM      6  C6  I4B d   1       1.239  -1.079  -1.198  0.00  0.00     0.003 A 
ENDROOT
BRANCH   1   7
ATOM      7  C1' I4B d   1       0.877   0.932   0.259  0.00  0.00     0.060 C 
BRANCH   7   8
ATOM      8  C2' I4B d   1      -0.265   1.871  -0.073  0.00  0.00    -0.013 C 
ATOM      9  C4' I4B d   1       0.069   3.290   0.307  0.00  0.00     0.013 C 
ATOM     10  C3' I4B d   1      -0.548   1.755  -1.541  0.00  0.00     0.013 C 
ENDBRANCH   7   8
ENDBRANCH   1   7
TORSDOF 2
ENDMDL
