MODEL 1
REMARK minimizedAffinity -6.47234774
REMARK minimizedRMSD -1
REMARK  2 active torsions:
REMARK  status: ('A' for Active; 'I' for Inactive)
REMARK    1  A    between atoms: C2'_3  and  C1'_4 
REMARK    2  A    between atoms: C1'_4  and  C1_5 
ROOT
ATOM      1  C1  I4B d   1      -0.098  -0.377  -0.052  0.00  0.00    -0.075 A 
ATOM      2  C2  I4B d   1      -0.271  -1.399   0.849  0.00  0.00     0.003 A 
ATOM      3  C3  I4B d   1      -0.953  -2.579   0.466  0.00  0.00     0.002 A 
ATOM      4  C4  I4B d   1      -1.486  -2.674  -0.803  0.00  0.00    -0.004 A 
ATOM      5  C5  I4B d   1      -1.290  -1.647  -1.722  0.00  0.00     0.002 A 
ATOM      6  C6  I4B d   1      -0.581  -0.497  -1.348  0.00  0.00     0.003 A 
ENDROOT
BRANCH   1   7
ATOM      7  C1' I4B d   1       0.599   0.868   0.397  0.00  0.00     0.060 C 
BRANCH   7   8
ATOM      8  C2' I4B d   1      -0.353   2.031   0.202  0.00  0.00    -0.013 C 
ATOM      9  C4' I4B d   1      -1.391   2.074   1.293  0.00  0.00     0.013 C 
ATOM     10  C3' I4B d   1       0.457   3.293   0.175  0.00  0.00     0.013 C 
ENDBRANCH   7   8
ENDBRANCH   1   7
TORSDOF 2
ENDMDL
