MODEL 1
REMARK minimizedAffinity -3.10412979
REMARK minimizedRMSD -1
REMARK  0 active torsions:
REMARK  status: ('A' for Active; 'I' for Inactive)
ROOT
ATOM      1  C   UNL d   1       0.476   0.275  -0.666  0.00  0.00     0.172 C 
ATOM      2  N   UNL d   1      -0.902   0.338  -1.093  0.00  0.00    -0.070 N 
ATOM      3  C1  UNL d   1      -1.355   0.112  -2.365  0.00  0.00    -0.004 A 
ATOM      4  C2  UNL d   1      -2.725   0.269  -2.360  0.00  0.00    -0.047 A 
ATOM      5  C3  UNL d   1      -3.108   0.601  -1.038  0.00  0.00    -0.047 A 
ATOM      6  C4  UNL d   1      -1.960   0.637  -0.275  0.00  0.00    -0.004 A 
ENDROOT
TORSDOF 0
ENDMDL
