MODEL 1
REMARK minimizedAffinity 1.37397754
REMARK minimizedRMSD -1
REMARK  0 active torsions:
REMARK  status: ('A' for Active; 'I' for Inactive)
ROOT
ATOM      1  C   UNL d   1      -1.178  -1.555  -2.196  0.00  0.00     0.172 C 
ATOM      2  N   UNL d   1      -0.776  -0.791  -1.038  0.00  0.00    -0.070 N 
ATOM      3  C1  UNL d   1      -0.087  -1.279   0.040  0.00  0.00    -0.004 A 
ATOM      4  C2  UNL d   1       0.102  -0.239   0.925  0.00  0.00    -0.047 A 
ATOM      5  C3  UNL d   1      -0.495   0.912   0.360  0.00  0.00    -0.047 A 
ATOM      6  C4  UNL d   1      -1.031   0.542  -0.856  0.00  0.00    -0.004 A 
ENDROOT
TORSDOF 0
ENDMDL
