MODEL 1
REMARK minimizedAffinity -4.15289736
REMARK minimizedRMSD -1
REMARK  0 active torsions:
REMARK  status: ('A' for Active; 'I' for Inactive)
ROOT
ATOM      1  C   UNL d   1       0.467   0.029   0.010  0.00  0.00     0.172 C 
ATOM      2  N   UNL d   1       1.295  -0.753   0.898  0.00  0.00    -0.070 N 
ATOM      3  C1  UNL d   1       0.918  -1.908   1.530  0.00  0.00    -0.004 A 
ATOM      4  C2  UNL d   1       1.987  -2.345   2.283  0.00  0.00    -0.047 A 
ATOM      5  C3  UNL d   1       3.042  -1.420   2.098  0.00  0.00    -0.047 A 
ATOM      6  C4  UNL d   1       2.586  -0.445   1.236  0.00  0.00    -0.004 A 
ENDROOT
TORSDOF 0
ENDMDL
