MODEL 1
REMARK minimizedAffinity -3.36062193
REMARK minimizedRMSD -1
REMARK  0 active torsions:
REMARK  status: ('A' for Active; 'I' for Inactive)
ROOT
ATOM      1  C   UNL d   1       0.228   1.614  -0.055  0.00  0.00     0.172 C 
ATOM      2  N   UNL d   1       1.145   0.612   0.435  0.00  0.00    -0.070 N 
ATOM      3  C1  UNL d   1       2.395   0.853   0.940  0.00  0.00    -0.004 A 
ATOM      4  C2  UNL d   1       2.947  -0.359   1.296  0.00  0.00    -0.047 A 
ATOM      5  C3  UNL d   1       1.997  -1.363   0.994  0.00  0.00    -0.047 A 
ATOM      6  C4  UNL d   1       0.891  -0.734   0.462  0.00  0.00    -0.004 A 
ENDROOT
TORSDOF 0
ENDMDL
