MODEL 1
REMARK minimizedAffinity -3.96765852
REMARK minimizedRMSD -1
REMARK  0 active torsions:
REMARK  status: ('A' for Active; 'I' for Inactive)
ROOT
ATOM      1  C   UNL d   1       1.262  -2.645   1.902  0.00  0.00     0.172 C 
ATOM      2  N   UNL d   1       1.680  -1.422   1.257  0.00  0.00    -0.070 N 
ATOM      3  C1  UNL d   1       2.958  -0.932   1.228  0.00  0.00    -0.004 A 
ATOM      4  C2  UNL d   1       2.941   0.249   0.517  0.00  0.00    -0.047 A 
ATOM      5  C3  UNL d   1       1.606   0.477   0.106  0.00  0.00    -0.047 A 
ATOM      6  C4  UNL d   1       0.847  -0.573   0.578  0.00  0.00    -0.004 A 
ENDROOT
TORSDOF 0
ENDMDL
