MODEL 1
REMARK minimizedAffinity -3.97888374
REMARK minimizedRMSD -1
REMARK  0 active torsions:
REMARK  status: ('A' for Active; 'I' for Inactive)
ROOT
ATOM      1  C   UNL d   1      -0.166   0.421   0.039  0.00  0.00     0.172 C 
ATOM      2  N   UNL d   1       0.963  -0.289   0.593  0.00  0.00    -0.070 N 
ATOM      3  C1  UNL d   1       2.244   0.187   0.675  0.00  0.00    -0.004 A 
ATOM      4  C2  UNL d   1       3.020  -0.788   1.263  0.00  0.00    -0.047 A 
ATOM      5  C3  UNL d   1       2.176  -1.889   1.542  0.00  0.00    -0.047 A 
ATOM      6  C4  UNL d   1       0.908  -1.554   1.117  0.00  0.00    -0.004 A 
ENDROOT
TORSDOF 0
ENDMDL
