MODEL 1
REMARK minimizedAffinity -1.9027741
REMARK minimizedRMSD -1
REMARK  0 active torsions:
REMARK  status: ('A' for Active; 'I' for Inactive)
ROOT
ATOM      1  C   UNL d   1       0.489  -2.046   1.938  0.00  0.00     0.172 C 
ATOM      2  N   UNL d   1       0.793  -0.764   1.348  0.00  0.00    -0.070 N 
ATOM      3  C1  UNL d   1      -0.006  -0.078   0.474  0.00  0.00    -0.004 A 
ATOM      4  C2  UNL d   1       0.637   1.096   0.146  0.00  0.00    -0.047 A 
ATOM      5  C3  UNL d   1       1.866   1.116   0.847  0.00  0.00    -0.047 A 
ATOM      6  C4  UNL d   1       1.937  -0.048   1.583  0.00  0.00    -0.004 A 
ENDROOT
TORSDOF 0
ENDMDL
