MODEL 1
REMARK minimizedAffinity -1.49232268
REMARK minimizedRMSD -1
REMARK  0 active torsions:
REMARK  status: ('A' for Active; 'I' for Inactive)
ROOT
ATOM      1  C   UNL d   1       0.399   0.638   0.871  0.00  0.00     0.172 C 
ATOM      2  N   UNL d   1       1.237   0.410   2.025  0.00  0.00    -0.070 N 
ATOM      3  C1  UNL d   1       2.378   1.102   2.332  0.00  0.00    -0.004 A 
ATOM      4  C2  UNL d   1       2.882   0.585   3.507  0.00  0.00    -0.047 A 
ATOM      5  C3  UNL d   1       2.014  -0.454   3.919  0.00  0.00    -0.047 A 
ATOM      6  C4  UNL d   1       1.004  -0.541   2.984  0.00  0.00    -0.004 A 
ENDROOT
TORSDOF 0
ENDMDL
