MODEL 1
REMARK minimizedAffinity -0.0813195407
REMARK minimizedRMSD -1
REMARK  0 active torsions:
REMARK  status: ('A' for Active; 'I' for Inactive)
ROOT
ATOM      1  C   UNL d   1       2.688   0.879   2.094  0.00  0.00     0.172 C 
ATOM      2  N   UNL d   1       1.610   1.417   1.297  0.00  0.00    -0.070 N 
ATOM      3  C1  UNL d   1       1.309   2.745   1.154  0.00  0.00    -0.004 A 
ATOM      4  C2  UNL d   1       0.219   2.843   0.317  0.00  0.00    -0.047 A 
ATOM      5  C3  UNL d   1      -0.149   1.527  -0.054  0.00  0.00    -0.047 A 
ATOM      6  C4  UNL d   1       0.729   0.665   0.567  0.00  0.00    -0.004 A 
ENDROOT
TORSDOF 0
ENDMDL
