MODEL 1
REMARK minimizedAffinity -3.16081119
REMARK minimizedRMSD -1
REMARK  0 active torsions:
REMARK  status: ('A' for Active; 'I' for Inactive)
ROOT
ATOM      1  C   UNL d   1      -0.442  -0.824  -0.028  0.00  0.00     0.172 C 
ATOM      2  N   UNL d   1       0.800  -0.467   0.617  0.00  0.00    -0.070 N 
ATOM      3  C1  UNL d   1       1.786  -1.342   0.988  0.00  0.00    -0.004 A 
ATOM      4  C2  UNL d   1       2.801  -0.612   1.569  0.00  0.00    -0.047 A 
ATOM      5  C3  UNL d   1       2.410   0.748   1.546  0.00  0.00    -0.047 A 
ATOM      6  C4  UNL d   1       1.168   0.809   0.951  0.00  0.00    -0.004 A 
ENDROOT
TORSDOF 0
ENDMDL
