MODEL 1
REMARK minimizedAffinity -2.93252921
REMARK minimizedRMSD -1
REMARK  0 active torsions:
REMARK  status: ('A' for Active; 'I' for Inactive)
ROOT
ATOM      1  C   UNL d   1      -4.046   2.154  -3.122  0.00  0.00     0.172 C 
ATOM      2  N   UNL d   1      -3.437   0.872  -2.858  0.00  0.00    -0.070 N 
ATOM      3  C1  UNL d   1      -3.675  -0.283  -3.554  0.00  0.00    -0.004 A 
ATOM      4  C2  UNL d   1      -2.903  -1.279  -2.995  0.00  0.00    -0.047 A 
ATOM      5  C3  UNL d   1      -2.177  -0.703  -1.926  0.00  0.00    -0.047 A 
ATOM      6  C4  UNL d   1      -2.526   0.630  -1.864  0.00  0.00    -0.004 A 
ENDROOT
TORSDOF 0
ENDMDL
