MODEL 1
REMARK minimizedAffinity -3.89172506
REMARK minimizedRMSD -1
REMARK  0 active torsions:
REMARK  status: ('A' for Active; 'I' for Inactive)
ROOT
ATOM      1  C   UNL d   1      -1.227   0.006   0.090  0.00  0.00     0.172 C 
ATOM      2  N   UNL d   1       0.174   0.151   0.408  0.00  0.00    -0.070 N 
ATOM      3  C1  UNL d   1       0.829   1.338   0.607  0.00  0.00    -0.004 A 
ATOM      4  C2  UNL d   1       2.147   1.050   0.887  0.00  0.00    -0.047 A 
ATOM      5  C3  UNL d   1       2.290  -0.357   0.854  0.00  0.00    -0.047 A 
ATOM      6  C4  UNL d   1       1.053  -0.889   0.555  0.00  0.00    -0.004 A 
ENDROOT
TORSDOF 0
ENDMDL
