MODEL 1
REMARK minimizedAffinity 1.52434337
REMARK minimizedRMSD -1
REMARK  1 active torsions:
REMARK  status: ('A' for Active; 'I' for Inactive)
REMARK    1  A    between atoms: C3_4  and  O_7 
ROOT
ATOM      1  C   UNL d   1       1.021   2.396  -2.508  0.00  0.00    -0.033 A 
ATOM      2  C1  UNL d   1       1.292   1.465  -1.503  0.00  0.00     0.039 A 
ATOM      3  C2  UNL d   1       1.248   1.851  -0.162  0.00  0.00    -0.080 A 
ATOM      4  C3  UNL d   1       0.931   3.168   0.160  0.00  0.00     0.150 A 
ATOM      5  C4  UNL d   1       0.657   4.099  -0.836  0.00  0.00    -0.007 A 
ATOM      6  C5  UNL d   1       0.702   3.712  -2.175  0.00  0.00     0.039 A 
ENDROOT
BRANCH   4   7
ATOM      7  O   UNL d   1       0.881   3.592   1.455  0.00  0.00    -0.526 OA
ATOM      8  H5  UNL d   1       1.121   2.848   2.032  0.00  0.00     0.418 HD
ENDBRANCH   4   7
TORSDOF 1
ENDMDL
