MODEL 1
REMARK minimizedAffinity -1.44061959
REMARK minimizedRMSD -1
REMARK  1 active torsions:
REMARK  status: ('A' for Active; 'I' for Inactive)
REMARK    1  A    between atoms: C3_4  and  O_7 
ROOT
ATOM      1  C   UNL d   1       1.110  -0.026  -0.640  0.00  0.00    -0.033 A 
ATOM      2  C1  UNL d   1       1.695   0.363  -1.846  0.00  0.00     0.039 A 
ATOM      3  C2  UNL d   1       1.618   1.693  -2.264  0.00  0.00    -0.080 A 
ATOM      4  C3  UNL d   1       0.954   2.622  -1.467  0.00  0.00     0.150 A 
ATOM      5  C4  UNL d   1       0.372   2.242  -0.263  0.00  0.00    -0.007 A 
ATOM      6  C5  UNL d   1       0.449   0.913   0.153  0.00  0.00     0.039 A 
ENDROOT
BRANCH   4   7
ATOM      7  O   UNL d   1       0.849   3.931  -1.836  0.00  0.00    -0.526 OA
ATOM      8  H5  UNL d   1       1.273   4.041  -2.703  0.00  0.00     0.418 HD
ENDBRANCH   4   7
TORSDOF 1
ENDMDL
