MODEL 1
REMARK minimizedAffinity 2.68131566
REMARK minimizedRMSD -1
REMARK  1 active torsions:
REMARK  status: ('A' for Active; 'I' for Inactive)
REMARK    1  A    between atoms: C3_4  and  O_7 
ROOT
ATOM      1  C   UNL d   1      -2.935   2.190   1.547  0.00  0.00    -0.033 A 
ATOM      2  C1  UNL d   1      -4.017   1.533   2.136  0.00  0.00     0.039 A 
ATOM      3  C2  UNL d   1      -4.100   1.427   3.525  0.00  0.00    -0.080 A 
ATOM      4  C3  UNL d   1      -3.097   1.984   4.314  0.00  0.00     0.150 A 
ATOM      5  C4  UNL d   1      -2.018   2.643   3.734  0.00  0.00    -0.007 A 
ATOM      6  C5  UNL d   1      -1.936   2.746   2.346  0.00  0.00     0.039 A 
ENDROOT
BRANCH   4   7
ATOM      7  O   UNL d   1      -3.132   1.902   5.674  0.00  0.00    -0.526 OA
ATOM      8  H5  UNL d   1      -3.919   1.394   5.932  0.00  0.00     0.418 HD
ENDBRANCH   4   7
TORSDOF 1
ENDMDL
