MODEL 1
REMARK minimizedAffinity -0.976304591
REMARK minimizedRMSD -1
REMARK  1 active torsions:
REMARK  status: ('A' for Active; 'I' for Inactive)
REMARK    1  A    between atoms: C3_4  and  O_7 
ROOT
ATOM      1  C   UNL d   1       1.140   0.786  -1.885  0.00  0.00    -0.033 A 
ATOM      2  C1  UNL d   1       0.713   2.114  -1.827  0.00  0.00     0.039 A 
ATOM      3  C2  UNL d   1       0.728   2.802  -0.612  0.00  0.00    -0.080 A 
ATOM      4  C3  UNL d   1       1.174   2.152   0.535  0.00  0.00     0.150 A 
ATOM      5  C4  UNL d   1       1.605   0.830   0.484  0.00  0.00    -0.007 A 
ATOM      6  C5  UNL d   1       1.588   0.144  -0.730  0.00  0.00     0.039 A 
ENDROOT
BRANCH   4   7
ATOM      7  O   UNL d   1       1.203   2.780   1.745  0.00  0.00    -0.526 OA
ATOM      8  H5  UNL d   1       0.850   3.679   1.633  0.00  0.00     0.418 HD
ENDBRANCH   4   7
TORSDOF 1
ENDMDL
