MODEL 1
REMARK minimizedAffinity -2.90725732
REMARK minimizedRMSD -1
REMARK  1 active torsions:
REMARK  status: ('A' for Active; 'I' for Inactive)
REMARK    1  A    between atoms: C3_4  and  O_7 
ROOT
ATOM      1  C   UNL d   1       0.902   3.376  -0.451  0.00  0.00    -0.033 A 
ATOM      2  C1  UNL d   1       0.846   2.752   0.797  0.00  0.00     0.039 A 
ATOM      3  C2  UNL d   1       0.881   1.360   0.885  0.00  0.00    -0.080 A 
ATOM      4  C3  UNL d   1       0.973   0.603  -0.279  0.00  0.00     0.150 A 
ATOM      5  C4  UNL d   1       1.033   1.217  -1.526  0.00  0.00    -0.007 A 
ATOM      6  C5  UNL d   1       0.997   2.608  -1.613  0.00  0.00     0.039 A 
ENDROOT
BRANCH   4   7
ATOM      7  O   UNL d   1       1.006  -0.760  -0.243  0.00  0.00    -0.526 OA
ATOM      8  H5  UNL d   1       0.928  -1.045   0.683  0.00  0.00     0.418 HD
ENDBRANCH   4   7
TORSDOF 1
ENDMDL
