MODEL 1
REMARK minimizedAffinity -2.22327209
REMARK minimizedRMSD -1
REMARK  1 active torsions:
REMARK  status: ('A' for Active; 'I' for Inactive)
REMARK    1  A    between atoms: C3_4  and  O_7 
ROOT
ATOM      1  C   UNL d   1       1.049   0.421  -2.013  0.00  0.00    -0.033 A 
ATOM      2  C1  UNL d   1       0.848   1.777  -2.279  0.00  0.00     0.039 A 
ATOM      3  C2  UNL d   1       0.718   2.685  -1.226  0.00  0.00    -0.080 A 
ATOM      4  C3  UNL d   1       0.793   2.225   0.086  0.00  0.00     0.150 A 
ATOM      5  C4  UNL d   1       0.998   0.877   0.358  0.00  0.00    -0.007 A 
ATOM      6  C5  UNL d   1       1.126  -0.029  -0.694  0.00  0.00     0.039 A 
ENDROOT
BRANCH   4   7
ATOM      7  O   UNL d   1       0.668   3.073   1.146  0.00  0.00    -0.526 OA
ATOM      8  H5  UNL d   1       0.502   3.968   0.806  0.00  0.00     0.418 HD
ENDBRANCH   4   7
TORSDOF 1
ENDMDL
