MODEL 1
REMARK minimizedAffinity 2.51112843
REMARK minimizedRMSD -1
REMARK  1 active torsions:
REMARK  status: ('A' for Active; 'I' for Inactive)
REMARK    1  A    between atoms: C3_4  and  O_7 
ROOT
ATOM      1  C   UNL d   1       0.781   3.618  -0.454  0.00  0.00    -0.033 A 
ATOM      2  C1  UNL d   1       1.207   2.900   0.665  0.00  0.00     0.039 A 
ATOM      3  C2  UNL d   1       1.561   1.555   0.541  0.00  0.00    -0.080 A 
ATOM      4  C3  UNL d   1       1.486   0.941  -0.706  0.00  0.00     0.150 A 
ATOM      5  C4  UNL d   1       1.066   1.651  -1.826  0.00  0.00    -0.007 A 
ATOM      6  C5  UNL d   1       0.712   2.994  -1.700  0.00  0.00     0.039 A 
ENDROOT
BRANCH   4   7
ATOM      7  O   UNL d   1       1.817  -0.370  -0.876  0.00  0.00    -0.526 OA
ATOM      8  H5  UNL d   1       2.061  -0.740  -0.011  0.00  0.00     0.418 HD
ENDBRANCH   4   7
TORSDOF 1
ENDMDL
