MODEL 1
REMARK minimizedAffinity -0.728920877
REMARK minimizedRMSD -1
REMARK  1 active torsions:
REMARK  status: ('A' for Active; 'I' for Inactive)
REMARK    1  A    between atoms: C3_4  and  O_7 
ROOT
ATOM      1  C   UNL d   1       0.600  -0.349   0.225  0.00  0.00    -0.033 A 
ATOM      2  C1  UNL d   1       0.879   0.857   0.870  0.00  0.00     0.039 A 
ATOM      3  C2  UNL d   1       1.140   2.007   0.122  0.00  0.00    -0.080 A 
ATOM      4  C3  UNL d   1       1.119   1.937  -1.268  0.00  0.00     0.150 A 
ATOM      5  C4  UNL d   1       0.839   0.739  -1.917  0.00  0.00    -0.007 A 
ATOM      6  C5  UNL d   1       0.579  -0.408  -1.169  0.00  0.00     0.039 A 
ENDROOT
BRANCH   4   7
ATOM      7  O   UNL d   1       1.373   3.031  -2.040  0.00  0.00    -0.526 OA
ATOM      8  H5  UNL d   1       1.578   3.780  -1.456  0.00  0.00     0.418 HD
ENDBRANCH   4   7
TORSDOF 1
ENDMDL
