MODEL 1
REMARK minimizedAffinity 3.77177763
REMARK minimizedRMSD -1
REMARK  1 active torsions:
REMARK  status: ('A' for Active; 'I' for Inactive)
REMARK    1  A    between atoms: C3_4  and  O_7 
ROOT
ATOM      1  C   UNL d   1       1.305   0.068  -1.867  0.00  0.00    -0.033 A 
ATOM      2  C1  UNL d   1       0.564   0.944  -2.662  0.00  0.00     0.039 A 
ATOM      3  C2  UNL d   1       0.608   2.318  -2.419  0.00  0.00    -0.080 A 
ATOM      4  C3  UNL d   1       1.397   2.803  -1.379  0.00  0.00     0.150 A 
ATOM      5  C4  UNL d   1       2.141   1.936  -0.585  0.00  0.00    -0.007 A 
ATOM      6  C5  UNL d   1       2.094   0.564  -0.829  0.00  0.00     0.039 A 
ENDROOT
BRANCH   4   7
ATOM      7  O   UNL d   1       1.468   4.135  -1.100  0.00  0.00    -0.526 OA
ATOM      8  H5  UNL d   1       0.880   4.610  -1.711  0.00  0.00     0.418 HD
ENDBRANCH   4   7
TORSDOF 1
ENDMDL
