MODEL 1
REMARK minimizedAffinity 2.80717945
REMARK minimizedRMSD -1
REMARK  1 active torsions:
REMARK  status: ('A' for Active; 'I' for Inactive)
REMARK    1  A    between atoms: C3_4  and  O_7 
ROOT
ATOM      1  C   UNL d   1       1.715  -0.538  -1.819  0.00  0.00    -0.033 A 
ATOM      2  C1  UNL d   1       1.461   0.526  -2.687  0.00  0.00     0.039 A 
ATOM      3  C2  UNL d   1       1.053   1.761  -2.179  0.00  0.00    -0.080 A 
ATOM      4  C3  UNL d   1       0.903   1.919  -0.804  0.00  0.00     0.150 A 
ATOM      5  C4  UNL d   1       1.158   0.865   0.067  0.00  0.00    -0.007 A 
ATOM      6  C5  UNL d   1       1.565  -0.368  -0.442  0.00  0.00     0.039 A 
ENDROOT
BRANCH   4   7
ATOM      7  O   UNL d   1       0.503   3.104  -0.262  0.00  0.00    -0.526 OA
ATOM      8  H5  UNL d   1       0.336   3.732  -0.985  0.00  0.00     0.418 HD
ENDBRANCH   4   7
TORSDOF 1
ENDMDL
