MODEL 1
REMARK minimizedAffinity 3.77632236
REMARK minimizedRMSD -1
REMARK  1 active torsions:
REMARK  status: ('A' for Active; 'I' for Inactive)
REMARK    1  A    between atoms: C3_4  and  O_7 
ROOT
ATOM      1  C   UNL d   1       0.666   0.290  -1.617  0.00  0.00    -0.033 A 
ATOM      2  C1  UNL d   1       1.438   0.731  -0.541  0.00  0.00     0.039 A 
ATOM      3  C2  UNL d   1       1.600   2.098  -0.309  0.00  0.00    -0.080 A 
ATOM      4  C3  UNL d   1       0.985   3.013  -1.160  0.00  0.00     0.150 A 
ATOM      5  C4  UNL d   1       0.211   2.580  -2.232  0.00  0.00    -0.007 A 
ATOM      6  C5  UNL d   1       0.051   1.215  -2.462  0.00  0.00     0.039 A 
ENDROOT
BRANCH   4   7
ATOM      7  O   UNL d   1       1.118   4.357  -0.977  0.00  0.00    -0.526 OA
ATOM      8  H5  UNL d   1       1.703   4.508  -0.216  0.00  0.00     0.418 HD
ENDBRANCH   4   7
TORSDOF 1
ENDMDL
