MODEL 1
REMARK minimizedAffinity 7.35122204
REMARK minimizedRMSD -1
REMARK  1 active torsions:
REMARK  status: ('A' for Active; 'I' for Inactive)
REMARK    1  A    between atoms: C3_4  and  O_7 
ROOT
ATOM      1  C   UNL d   1       1.362   1.900  -1.656  0.00  0.00    -0.033 A 
ATOM      2  C1  UNL d   1       1.183   3.204  -2.120  0.00  0.00     0.039 A 
ATOM      3  C2  UNL d   1      -0.104   3.701  -2.336  0.00  0.00    -0.080 A 
ATOM      4  C3  UNL d   1      -1.202   2.884  -2.083  0.00  0.00     0.150 A 
ATOM      5  C4  UNL d   1      -1.032   1.585  -1.617  0.00  0.00    -0.007 A 
ATOM      6  C5  UNL d   1       0.254   1.090  -1.403  0.00  0.00     0.039 A 
ENDROOT
BRANCH   4   7
ATOM      7  O   UNL d   1      -2.477   3.323  -2.283  0.00  0.00    -0.526 OA
ATOM      8  H5  UNL d   1      -2.440   4.228  -2.634  0.00  0.00     0.418 HD
ENDBRANCH   4   7
TORSDOF 1
ENDMDL
