MODEL 1
REMARK minimizedAffinity 1.44841862
REMARK minimizedRMSD -1
REMARK  1 active torsions:
REMARK  status: ('A' for Active; 'I' for Inactive)
REMARK    1  A    between atoms: C3_4  and  O_7 
ROOT
ATOM      1  C   UNL d   1       0.825   1.558  -0.756  0.00  0.00    -0.033 A 
ATOM      2  C1  UNL d   1       0.845   2.196  -1.998  0.00  0.00     0.039 A 
ATOM      3  C2  UNL d   1       1.094   3.568  -2.076  0.00  0.00    -0.080 A 
ATOM      4  C3  UNL d   1       1.323   4.288  -0.907  0.00  0.00     0.150 A 
ATOM      5  C4  UNL d   1       1.309   3.658   0.333  0.00  0.00    -0.007 A 
ATOM      6  C5  UNL d   1       1.059   2.289   0.409  0.00  0.00     0.039 A 
ENDROOT
BRANCH   4   7
ATOM      7  O   UNL d   1       1.567   5.630  -0.933  0.00  0.00    -0.526 OA
ATOM      8  H5  UNL d   1       1.517   5.934  -1.855  0.00  0.00     0.418 HD
ENDBRANCH   4   7
TORSDOF 1
ENDMDL
