MODEL 1
REMARK minimizedAffinity 8.39879608
REMARK minimizedRMSD -1
REMARK  1 active torsions:
REMARK  status: ('A' for Active; 'I' for Inactive)
REMARK    1  A    between atoms: C3_4  and  O_7 
ROOT
ATOM      1  C   UNL d   1       0.518   0.848  -2.454  0.00  0.00    -0.033 A 
ATOM      2  C1  UNL d   1      -0.285   1.873  -2.955  0.00  0.00     0.039 A 
ATOM      3  C2  UNL d   1      -0.111   3.183  -2.505  0.00  0.00    -0.080 A 
ATOM      4  C3  UNL d   1       0.869   3.454  -1.554  0.00  0.00     0.150 A 
ATOM      5  C4  UNL d   1       1.676   2.438  -1.053  0.00  0.00    -0.007 A 
ATOM      6  C5  UNL d   1       1.500   1.130  -1.503  0.00  0.00     0.039 A 
ENDROOT
BRANCH   4   7
ATOM      7  O   UNL d   1       1.074   4.716  -1.080  0.00  0.00    -0.526 OA
ATOM      8  H5  UNL d   1       0.425   5.309  -1.495  0.00  0.00     0.418 HD
ENDBRANCH   4   7
TORSDOF 1
ENDMDL
