MODEL 1
REMARK minimizedAffinity -2.22166276
REMARK minimizedRMSD -1
REMARK  0 active torsions:
REMARK  status: ('A' for Active; 'I' for Inactive)
ROOT
ATOM      1  C   UNL d   1      -0.141   0.115   2.486  0.00  0.00     0.020 A 
ATOM      2  C1  UNL d   1       0.215   1.387   2.040  0.00  0.00     0.020 A 
ATOM      3  C2  UNL d   1       0.431   1.614   0.679  0.00  0.00     0.034 A 
ATOM      4  C3  UNL d   1       0.290   0.568  -0.240  0.00  0.00     0.017 A 
ATOM      5  C4  UNL d   1      -0.068  -0.708   0.209  0.00  0.00     0.017 A 
ATOM      6  C5  UNL d   1      -0.283  -0.930   1.573  0.00  0.00     0.034 A 
ATOM      7 Cl   UNL d   1      -0.261  -2.048  -0.865  0.00  0.00    -0.070 Cl
ATOM      8 Cl1  UNL d   1       0.571   0.921  -1.908  0.00  0.00    -0.070 Cl
ENDROOT
TORSDOF 0
ENDMDL
