MODEL 1
REMARK minimizedAffinity -1.67599487
REMARK minimizedRMSD -1
REMARK  0 active torsions:
REMARK  status: ('A' for Active; 'I' for Inactive)
ROOT
ATOM      1  C   UNL d   1       0.796  -1.116  -0.795  0.00  0.00     0.020 A 
ATOM      2  C1  UNL d   1       0.770  -1.191   0.597  0.00  0.00     0.020 A 
ATOM      3  C2  UNL d   1       0.302  -0.109   1.346  0.00  0.00     0.034 A 
ATOM      4  C3  UNL d   1      -0.142   1.052   0.703  0.00  0.00     0.017 A 
ATOM      5  C4  UNL d   1      -0.116   1.126  -0.694  0.00  0.00     0.017 A 
ATOM      6  C5  UNL d   1       0.353   0.040  -1.439  0.00  0.00     0.034 A 
ATOM      7 Cl   UNL d   1      -0.649   2.525  -1.558  0.00  0.00    -0.070 Cl
ATOM      8 Cl1  UNL d   1      -0.708   2.351   1.692  0.00  0.00    -0.070 Cl
ENDROOT
TORSDOF 0
ENDMDL
