MODEL 1
REMARK minimizedAffinity -4.00767183
REMARK minimizedRMSD -1
REMARK  0 active torsions:
REMARK  status: ('A' for Active; 'I' for Inactive)
ROOT
ATOM      1  C   UNL d   1      -0.932   1.777   1.829  0.00  0.00     0.020 A 
ATOM      2  C1  UNL d   1      -0.381   0.497   1.849  0.00  0.00     0.020 A 
ATOM      3  C2  UNL d   1       0.186  -0.038   0.690  0.00  0.00     0.034 A 
ATOM      4  C3  UNL d   1       0.203   0.709  -0.494  0.00  0.00     0.017 A 
ATOM      5  C4  UNL d   1      -0.350   1.994  -0.513  0.00  0.00     0.017 A 
ATOM      6  C5  UNL d   1      -0.917   2.524   0.650  0.00  0.00     0.034 A 
ATOM      7 Cl   UNL d   1      -0.366   2.975  -1.936  0.00  0.00    -0.070 Cl
ATOM      8 Cl1  UNL d   1       0.921  -0.015  -1.890  0.00  0.00    -0.070 Cl
ENDROOT
TORSDOF 0
ENDMDL
