MODEL 1
REMARK minimizedAffinity -5.65624142
REMARK minimizedRMSD -1
REMARK  0 active torsions:
REMARK  status: ('A' for Active; 'I' for Inactive)
ROOT
ATOM      1  C   UNL d   1      -0.997   3.619   0.793  0.00  0.00     0.020 A 
ATOM      2  C1  UNL d   1      -1.001   3.633  -0.601  0.00  0.00     0.020 A 
ATOM      3  C2  UNL d   1      -0.522   2.531  -1.313  0.00  0.00     0.034 A 
ATOM      4  C3  UNL d   1      -0.037   1.409  -0.630  0.00  0.00     0.017 A 
ATOM      5  C4  UNL d   1      -0.034   1.396   0.770  0.00  0.00     0.017 A 
ATOM      6  C5  UNL d   1      -0.514   2.502   1.477  0.00  0.00     0.034 A 
ATOM      7 Cl   UNL d   1       0.548   0.048   1.682  0.00  0.00    -0.070 Cl
ATOM      8 Cl1  UNL d   1       0.539   0.081  -1.573  0.00  0.00    -0.070 Cl
ENDROOT
TORSDOF 0
ENDMDL
