MODEL 1
REMARK minimizedAffinity -4.40969992
REMARK minimizedRMSD -1
REMARK  0 active torsions:
REMARK  status: ('A' for Active; 'I' for Inactive)
ROOT
ATOM      1  C   UNL d   1      -1.053   3.051   0.030  0.00  0.00     0.020 A 
ATOM      2  C1  UNL d   1      -0.481   3.293   1.279  0.00  0.00     0.020 A 
ATOM      3  C2  UNL d   1       0.024   2.231   2.032  0.00  0.00     0.034 A 
ATOM      4  C3  UNL d   1      -0.043   0.923   1.539  0.00  0.00     0.017 A 
ATOM      5  C4  UNL d   1      -0.618   0.682   0.285  0.00  0.00     0.017 A 
ATOM      6  C5  UNL d   1      -1.121   1.749  -0.465  0.00  0.00     0.034 A 
ATOM      7 Cl   UNL d   1      -0.736  -0.905  -0.390  0.00  0.00    -0.070 Cl
ATOM      8 Cl1  UNL d   1       0.601  -0.342   2.524  0.00  0.00    -0.070 Cl
ENDROOT
TORSDOF 0
ENDMDL
