MODEL 1
REMARK minimizedAffinity -5.46147299
REMARK minimizedRMSD -1
REMARK  0 active torsions:
REMARK  status: ('A' for Active; 'I' for Inactive)
ROOT
ATOM      1  C   UNL d   1      -1.197   2.707  -0.425  0.00  0.00     0.020 A 
ATOM      2  C1  UNL d   1      -1.256   2.898   0.955  0.00  0.00     0.020 A 
ATOM      3  C2  UNL d   1      -0.653   1.977   1.814  0.00  0.00     0.034 A 
ATOM      4  C3  UNL d   1       0.011   0.860   1.294  0.00  0.00     0.017 A 
ATOM      5  C4  UNL d   1       0.069   0.669  -0.092  0.00  0.00     0.017 A 
ATOM      6  C5  UNL d   1      -0.536   1.594  -0.947  0.00  0.00     0.034 A 
ATOM      7 Cl   UNL d   1       0.870  -0.686  -0.808  0.00  0.00    -0.070 Cl
ATOM      8 Cl1  UNL d   1       0.734  -0.239   2.414  0.00  0.00    -0.070 Cl
ENDROOT
TORSDOF 0
ENDMDL
