MODEL 1
REMARK minimizedAffinity -4.64849949
REMARK minimizedRMSD -1
REMARK  1 active torsions:
REMARK  status: ('A' for Active; 'I' for Inactive)
REMARK    1  A    between atoms: C1_2  and  C2_3 
ROOT
ATOM      1  C2  UNL d   1      -0.124   0.024   0.708  0.00  0.00    -0.077 A 
ATOM      2  C3  UNL d   1       0.754   0.710   1.558  0.00  0.00     0.002 A 
ATOM      3  C4  UNL d   1       1.299   1.937   1.171  0.00  0.00     0.002 A 
ATOM      4  C5  UNL d   1       0.967   2.489  -0.065  0.00  0.00    -0.004 A 
ATOM      5  C6  UNL d   1       0.096   1.813  -0.918  0.00  0.00     0.002 A 
ATOM      6  C7  UNL d   1      -0.448   0.587  -0.534  0.00  0.00     0.002 A 
ENDROOT
BRANCH   1   7
ATOM      7  C1  UNL d   1      -0.750  -1.275   1.144  0.00  0.00     0.055 C 
ATOM      8  C   UNL d   1      -1.500  -1.114   2.459  0.00  0.00     0.019 C 
ENDBRANCH   1   7
TORSDOF 1
ENDMDL
