MODEL 1
REMARK minimizedAffinity -5.45225143
REMARK minimizedRMSD -1
REMARK  1 active torsions:
REMARK  status: ('A' for Active; 'I' for Inactive)
REMARK    1  A    between atoms: C1_2  and  C2_3 
ROOT
ATOM      1  C2  UNL d   1       0.738   0.914   0.294  0.00  0.00    -0.077 A 
ATOM      2  C3  UNL d   1      -0.404   0.117   0.457  0.00  0.00     0.002 A 
ATOM      3  C4  UNL d   1      -0.432  -1.186  -0.044  0.00  0.00     0.002 A 
ATOM      4  C5  UNL d   1       0.678  -1.704  -0.706  0.00  0.00    -0.004 A 
ATOM      5  C6  UNL d   1       1.817  -0.919  -0.875  0.00  0.00     0.002 A 
ATOM      6  C7  UNL d   1       1.848   0.384  -0.377  0.00  0.00     0.002 A 
ENDROOT
BRANCH   1   7
ATOM      7  C1  UNL d   1       0.789   2.303   0.876  0.00  0.00     0.055 C 
ATOM      8  C   UNL d   1       0.991   2.263   2.384  0.00  0.00     0.019 C 
ENDBRANCH   1   7
TORSDOF 1
ENDMDL
