MODEL 1
REMARK minimizedAffinity -0.821286142
REMARK minimizedRMSD -1
REMARK  1 active torsions:
REMARK  status: ('A' for Active; 'I' for Inactive)
REMARK    1  A    between atoms: C1_2  and  C2_3 
ROOT
ATOM      1  C2  UNL d   1       2.931   2.903  -3.204  0.00  0.00    -0.077 A 
ATOM      2  C3  UNL d   1       4.101   2.452  -3.831  0.00  0.00     0.002 A 
ATOM      3  C4  UNL d   1       4.223   2.508  -5.221  0.00  0.00     0.002 A 
ATOM      4  C5  UNL d   1       3.182   3.017  -5.994  0.00  0.00    -0.004 A 
ATOM      5  C6  UNL d   1       2.014   3.466  -5.379  0.00  0.00     0.002 A 
ATOM      6  C7  UNL d   1       1.889   3.410  -3.991  0.00  0.00     0.002 A 
ENDROOT
BRANCH   1   7
ATOM      7  C1  UNL d   1       2.817   2.889  -1.702  0.00  0.00     0.055 C 
ATOM      8  C   UNL d   1       1.543   2.190  -1.250  0.00  0.00     0.019 C 
ENDBRANCH   1   7
TORSDOF 1
ENDMDL
