MODEL 1
REMARK minimizedAffinity -2.79995918
REMARK minimizedRMSD -1
REMARK  1 active torsions:
REMARK  status: ('A' for Active; 'I' for Inactive)
REMARK    1  A    between atoms: C1_2  and  C2_3 
ROOT
ATOM      1  C2  UNL d   1      -0.436   0.157   0.096  0.00  0.00    -0.077 A 
ATOM      2  C3  UNL d   1      -0.448   0.305   1.490  0.00  0.00     0.002 A 
ATOM      3  C4  UNL d   1       0.159   1.411   2.088  0.00  0.00     0.002 A 
ATOM      4  C5  UNL d   1       0.777   2.380   1.300  0.00  0.00    -0.004 A 
ATOM      5  C6  UNL d   1       0.795   2.241  -0.087  0.00  0.00     0.002 A 
ATOM      6  C7  UNL d   1       0.191   1.135  -0.686  0.00  0.00     0.002 A 
ENDROOT
BRANCH   1   7
ATOM      7  C1  UNL d   1      -1.132  -1.010  -0.554  0.00  0.00     0.055 C 
ATOM      8  C   UNL d   1      -1.841  -0.590  -1.833  0.00  0.00     0.019 C 
ENDBRANCH   1   7
TORSDOF 1
ENDMDL
