MODEL 1
REMARK minimizedAffinity -6.03157663
REMARK minimizedRMSD -1
REMARK  1 active torsions:
REMARK  status: ('A' for Active; 'I' for Inactive)
REMARK    1  A    between atoms: C1_2  and  C2_3 
ROOT
ATOM      1  C2  UNL d   1       0.261  -0.061  -0.135  0.00  0.00    -0.077 A 
ATOM      2  C3  UNL d   1       1.428   0.628  -0.495  0.00  0.00     0.002 A 
ATOM      3  C4  UNL d   1       1.825   1.763   0.215  0.00  0.00     0.002 A 
ATOM      4  C5  UNL d   1       1.063   2.216   1.290  0.00  0.00    -0.004 A 
ATOM      5  C6  UNL d   1      -0.101   1.539   1.653  0.00  0.00     0.002 A 
ATOM      6  C7  UNL d   1      -0.499   0.405   0.945  0.00  0.00     0.002 A 
ENDROOT
BRANCH   1   7
ATOM      7  C1  UNL d   1      -0.142  -1.314  -0.868  0.00  0.00     0.055 C 
ATOM      8  C   UNL d   1      -1.188  -1.020  -1.933  0.00  0.00     0.019 C 
ENDBRANCH   1   7
TORSDOF 1
ENDMDL
