MODEL 1
REMARK minimizedAffinity -3.84151006
REMARK minimizedRMSD -1
REMARK  1 active torsions:
REMARK  status: ('A' for Active; 'I' for Inactive)
REMARK    1  A    between atoms: C1_2  and  C2_3 
ROOT
ATOM      1  C2  UNL d   1       1.270   0.775   0.464  0.00  0.00    -0.077 A 
ATOM      2  C3  UNL d   1       0.996   1.491   1.638  0.00  0.00     0.002 A 
ATOM      3  C4  UNL d   1      -0.208   1.300   2.317  0.00  0.00     0.002 A 
ATOM      4  C5  UNL d   1      -1.147   0.392   1.833  0.00  0.00    -0.004 A 
ATOM      5  C6  UNL d   1      -0.886  -0.323   0.665  0.00  0.00     0.002 A 
ATOM      6  C7  UNL d   1       0.317  -0.133  -0.016  0.00  0.00     0.002 A 
ENDROOT
BRANCH   1   7
ATOM      7  C1  UNL d   1       2.589   0.943  -0.243  0.00  0.00     0.055 C 
ATOM      8  C   UNL d   1       3.252  -0.401  -0.505  0.00  0.00     0.019 C 
ENDBRANCH   1   7
TORSDOF 1
ENDMDL
