MODEL 1
REMARK minimizedAffinity -2.71771312
REMARK minimizedRMSD -1
REMARK  1 active torsions:
REMARK  status: ('A' for Active; 'I' for Inactive)
REMARK    1  A    between atoms: C1_2  and  C2_3 
ROOT
ATOM      1  C2  UNL d   1      -4.266  -2.126  -1.943  0.00  0.00    -0.077 A 
ATOM      2  C3  UNL d   1      -4.275  -1.706  -3.281  0.00  0.00     0.002 A 
ATOM      3  C4  UNL d   1      -3.079  -1.585  -3.991  0.00  0.00     0.002 A 
ATOM      4  C5  UNL d   1      -1.866  -1.885  -3.373  0.00  0.00    -0.004 A 
ATOM      5  C6  UNL d   1      -1.847  -2.301  -2.042  0.00  0.00     0.002 A 
ATOM      6  C7  UNL d   1      -3.042  -2.421  -1.331  0.00  0.00     0.002 A 
ENDROOT
BRANCH   1   7
ATOM      7  C1  UNL d   1      -5.559  -2.304  -1.191  0.00  0.00     0.055 C 
ATOM      8  C   UNL d   1      -5.624  -3.667  -0.517  0.00  0.00     0.019 C 
ENDBRANCH   1   7
TORSDOF 1
ENDMDL
