MODEL 1
REMARK minimizedAffinity -3.52658272
REMARK minimizedRMSD -1
REMARK  1 active torsions:
REMARK  status: ('A' for Active; 'I' for Inactive)
REMARK    1  A    between atoms: C1_2  and  C2_3 
ROOT
ATOM      1  C2  UNL d   1       0.080  -0.425  -0.067  0.00  0.00    -0.077 A 
ATOM      2  C3  UNL d   1       1.235   0.339  -0.283  0.00  0.00     0.002 A 
ATOM      3  C4  UNL d   1       1.536   1.417   0.551  0.00  0.00     0.002 A 
ATOM      4  C5  UNL d   1       0.688   1.738   1.610  0.00  0.00    -0.004 A 
ATOM      5  C6  UNL d   1      -0.464   0.986   1.832  0.00  0.00     0.002 A 
ATOM      6  C7  UNL d   1      -0.767  -0.092   0.998  0.00  0.00     0.002 A 
ENDROOT
BRANCH   1   7
ATOM      7  C1  UNL d   1      -0.220  -1.619  -0.936  0.00  0.00     0.055 C 
ATOM      8  C   UNL d   1      -1.719  -1.828  -1.090  0.00  0.00     0.019 C 
ENDBRANCH   1   7
TORSDOF 1
ENDMDL
