MODEL 1
REMARK minimizedAffinity -4.91893387
REMARK minimizedRMSD -1
REMARK  1 active torsions:
REMARK  status: ('A' for Active; 'I' for Inactive)
REMARK    1  A    between atoms: C1_2  and  C2_3 
ROOT
ATOM      1  C2  UNL d   1      -3.951  -2.051  -1.644  0.00  0.00    -0.077 A 
ATOM      2  C3  UNL d   1      -3.899  -1.560  -2.956  0.00  0.00     0.002 A 
ATOM      3  C4  UNL d   1      -2.679  -1.180  -3.520  0.00  0.00     0.002 A 
ATOM      4  C5  UNL d   1      -1.504  -1.291  -2.781  0.00  0.00    -0.004 A 
ATOM      5  C6  UNL d   1      -1.546  -1.776  -1.474  0.00  0.00     0.002 A 
ATOM      6  C7  UNL d   1      -2.764  -2.155  -0.909  0.00  0.00     0.002 A 
ENDROOT
BRANCH   1   7
ATOM      7  C1  UNL d   1      -5.259  -2.507  -1.051  0.00  0.00     0.055 C 
ATOM      8  C   UNL d   1      -5.044  -3.594  -0.008  0.00  0.00     0.019 C 
ENDBRANCH   1   7
TORSDOF 1
ENDMDL
