MODEL 1
REMARK minimizedAffinity -4.79741812
REMARK minimizedRMSD -1
REMARK  1 active torsions:
REMARK  status: ('A' for Active; 'I' for Inactive)
REMARK    1  A    between atoms: C1_2  and  C2_3 
ROOT
ATOM      1  C2  UNL d   1       1.109   0.191   0.129  0.00  0.00    -0.077 A 
ATOM      2  C3  UNL d   1       2.387  -0.205  -0.291  0.00  0.00     0.002 A 
ATOM      3  C4  UNL d   1       3.520   0.476   0.156  0.00  0.00     0.002 A 
ATOM      4  C5  UNL d   1       3.388   1.555   1.029  0.00  0.00    -0.004 A 
ATOM      5  C6  UNL d   1       2.121   1.957   1.451  0.00  0.00     0.002 A 
ATOM      6  C7  UNL d   1       0.987   1.278   1.004  0.00  0.00     0.002 A 
ENDROOT
BRANCH   1   7
ATOM      7  C1  UNL d   1      -0.111  -0.574  -0.313  0.00  0.00     0.055 C 
ATOM      8  C   UNL d   1      -0.059  -2.020   0.158  0.00  0.00     0.019 C 
ENDBRANCH   1   7
TORSDOF 1
ENDMDL
