MODEL 1
REMARK minimizedAffinity -5.18167639
REMARK minimizedRMSD -1
REMARK  1 active torsions:
REMARK  status: ('A' for Active; 'I' for Inactive)
REMARK    1  A    between atoms: C1_2  and  C2_3 
ROOT
ATOM      1  C2  UNL d   1       1.369   0.412   0.337  0.00  0.00    -0.077 A 
ATOM      2  C3  UNL d   1       1.857   1.656   0.762  0.00  0.00     0.002 A 
ATOM      3  C4  UNL d   1       1.246   2.330   1.822  0.00  0.00     0.002 A 
ATOM      4  C5  UNL d   1       0.147   1.766   2.467  0.00  0.00    -0.004 A 
ATOM      5  C6  UNL d   1      -0.347   0.531   2.050  0.00  0.00     0.002 A 
ATOM      6  C7  UNL d   1       0.262  -0.144   0.991  0.00  0.00     0.002 A 
ENDROOT
BRANCH   1   7
ATOM      7  C1  UNL d   1       2.057  -0.339  -0.773  0.00  0.00     0.055 C 
ATOM      8  C   UNL d   1       3.569  -0.180  -0.695  0.00  0.00     0.019 C 
ENDBRANCH   1   7
TORSDOF 1
ENDMDL
