MODEL 1
REMARK minimizedAffinity -5.06645346
REMARK minimizedRMSD -1
REMARK  1 active torsions:
REMARK  status: ('A' for Active; 'I' for Inactive)
REMARK    1  A    between atoms: C1_2  and  C2_3 
ROOT
ATOM      1  C2  UNL d   1       0.156   0.185   0.289  0.00  0.00    -0.077 A 
ATOM      2  C3  UNL d   1       1.254   0.838  -0.289  0.00  0.00     0.002 A 
ATOM      3  C4  UNL d   1       1.750   2.017   0.272  0.00  0.00     0.002 A 
ATOM      4  C5  UNL d   1       1.157   2.550   1.414  0.00  0.00    -0.004 A 
ATOM      5  C6  UNL d   1       0.063   1.909   1.995  0.00  0.00     0.002 A 
ATOM      6  C7  UNL d   1      -0.434   0.732   1.435  0.00  0.00     0.002 A 
ENDROOT
BRANCH   1   7
ATOM      7  C1  UNL d   1      -0.349  -1.113  -0.285  0.00  0.00     0.055 C 
ATOM      8  C   UNL d   1      -0.964  -0.907  -1.661  0.00  0.00     0.019 C 
ENDBRANCH   1   7
TORSDOF 1
ENDMDL
