MODEL 1
REMARK minimizedAffinity 1.0256685
REMARK minimizedRMSD -1
REMARK  1 active torsions:
REMARK  status: ('A' for Active; 'I' for Inactive)
REMARK    1  A    between atoms: C1_2  and  C2_3 
ROOT
ATOM      1  C2  UNL d   1       1.808  -3.091   0.251  0.00  0.00    -0.081 A 
ATOM      2  C3  UNL d   1       2.405  -1.834   0.409  0.00  0.00     0.006 A 
ATOM      3  C4  UNL d   1       1.691  -0.777   0.978  0.00  0.00     0.002 A 
ATOM      4  C5  UNL d   1       0.371  -0.960   1.405  0.00  0.00    -0.080 A 
ATOM      5  C6  UNL d   1      -0.397   0.158   2.044  0.00  0.00     0.076 C 
ATOM      6  C7  UNL d   1      -0.231  -2.211   1.231  0.00  0.00     0.002 A 
ATOM      7  C8  UNL d   1       0.483  -3.268   0.662  0.00  0.00     0.006 A 
ENDROOT
BRANCH   1   8
ATOM      8  C1  UNL d   1       2.597  -4.250  -0.302  0.00  0.00     0.054 C 
ATOM      9  C   UNL d   1       4.038  -4.222   0.187  0.00  0.00     0.018 C 
ENDBRANCH   1   8
TORSDOF 1
ENDMDL
