MODEL 1
REMARK minimizedAffinity 5.37445068
REMARK minimizedRMSD -1
REMARK  1 active torsions:
REMARK  status: ('A' for Active; 'I' for Inactive)
REMARK    1  A    between atoms: C1_2  and  C2_3 
ROOT
ATOM      1  C2  UNL d   1       2.347  -2.401   1.029  0.00  0.00    -0.081 A 
ATOM      2  C3  UNL d   1       1.127  -2.663   1.664  0.00  0.00     0.006 A 
ATOM      3  C4  UNL d   1       0.180  -1.649   1.825  0.00  0.00     0.002 A 
ATOM      4  C5  UNL d   1       0.433  -0.359   1.346  0.00  0.00    -0.080 A 
ATOM      5  C6  UNL d   1      -0.587   0.732   1.485  0.00  0.00     0.076 C 
ATOM      6  C7  UNL d   1       1.659  -0.093   0.727  0.00  0.00     0.002 A 
ATOM      7  C8  UNL d   1       2.607  -1.106   0.567  0.00  0.00     0.006 A 
ENDROOT
BRANCH   1   8
ATOM      8  C1  UNL d   1       3.343  -3.508   0.796  0.00  0.00     0.054 C 
ATOM      9  C   UNL d   1       2.869  -4.817   1.410  0.00  0.00     0.018 C 
ENDBRANCH   1   8
TORSDOF 1
ENDMDL
