MODEL 1
REMARK minimizedAffinity 2.60892367
REMARK minimizedRMSD -1
REMARK  1 active torsions:
REMARK  status: ('A' for Active; 'I' for Inactive)
REMARK    1  A    between atoms: C1_2  and  C2_3 
ROOT
ATOM      1  C2  UNL d   1       2.796  -4.438   0.739  0.00  0.00    -0.081 A 
ATOM      2  C3  UNL d   1       3.126  -3.191   0.194  0.00  0.00     0.006 A 
ATOM      3  C4  UNL d   1       2.278  -2.095   0.370  0.00  0.00     0.002 A 
ATOM      4  C5  UNL d   1       1.090  -2.226   1.098  0.00  0.00    -0.080 A 
ATOM      5  C6  UNL d   1       0.186  -1.050   1.319  0.00  0.00     0.076 C 
ATOM      6  C7  UNL d   1       0.752  -3.476   1.627  0.00  0.00     0.002 A 
ATOM      7  C8  UNL d   1       1.599  -4.572   1.452  0.00  0.00     0.006 A 
ENDROOT
BRANCH   1   8
ATOM      8  C1  UNL d   1       3.740  -5.606   0.607  0.00  0.00     0.054 C 
ATOM      9  C   UNL d   1       5.192  -5.154   0.674  0.00  0.00     0.018 C 
ENDBRANCH   1   8
TORSDOF 1
ENDMDL
