MODEL 1
REMARK minimizedAffinity 7.7582221
REMARK minimizedRMSD -1
REMARK  1 active torsions:
REMARK  status: ('A' for Active; 'I' for Inactive)
REMARK    1  A    between atoms: C1_2  and  C2_3 
ROOT
ATOM      1  C2  UNL d   1      -4.150   3.330   4.910  0.00  0.00    -0.081 A 
ATOM      2  C3  UNL d   1      -3.089   3.263   4.000  0.00  0.00     0.006 A 
ATOM      3  C4  UNL d   1      -3.109   2.336   2.955  0.00  0.00     0.002 A 
ATOM      4  C5  UNL d   1      -4.193   1.466   2.799  0.00  0.00    -0.080 A 
ATOM      5  C6  UNL d   1      -4.242   0.487   1.664  0.00  0.00     0.076 C 
ATOM      6  C7  UNL d   1      -5.246   1.521   3.719  0.00  0.00     0.002 A 
ATOM      7  C8  UNL d   1      -5.226   2.448   4.764  0.00  0.00     0.006 A 
ENDROOT
BRANCH   1   8
ATOM      8  C1  UNL d   1      -4.162   4.373   5.999  0.00  0.00     0.054 C 
ATOM      9  C   UNL d   1      -3.082   5.421   5.773  0.00  0.00     0.018 C 
ENDBRANCH   1   8
TORSDOF 1
ENDMDL
