MODEL 1
REMARK minimizedAffinity 6.16255283
REMARK minimizedRMSD -1
REMARK  1 active torsions:
REMARK  status: ('A' for Active; 'I' for Inactive)
REMARK    1  A    between atoms: C1_2  and  C2_3 
ROOT
ATOM      1  C2  UNL d   1       1.149  -1.842   1.082  0.00  0.00    -0.081 A 
ATOM      2  C3  UNL d   1       1.186  -3.138   1.612  0.00  0.00     0.006 A 
ATOM      3  C4  UNL d   1       2.066  -4.091   1.091  0.00  0.00     0.002 A 
ATOM      4  C5  UNL d   1       2.928  -3.761   0.040  0.00  0.00    -0.080 A 
ATOM      5  C6  UNL d   1       3.898  -4.766  -0.508  0.00  0.00     0.076 C 
ATOM      6  C7  UNL d   1       2.878  -2.472  -0.501  0.00  0.00     0.002 A 
ATOM      7  C8  UNL d   1       1.999  -1.520   0.019  0.00  0.00     0.006 A 
ENDROOT
BRANCH   1   8
ATOM      8  C1  UNL d   1       0.248  -0.795   1.684  0.00  0.00     0.054 C 
ATOM      9  C   UNL d   1      -1.061  -1.402   2.168  0.00  0.00     0.018 C 
ENDBRANCH   1   8
TORSDOF 1
ENDMDL
