MODEL 1
REMARK minimizedAffinity 11.7450247
REMARK minimizedRMSD -1
REMARK  1 active torsions:
REMARK  status: ('A' for Active; 'I' for Inactive)
REMARK    1  A    between atoms: C1_2  and  C2_3 
ROOT
ATOM      1  C2  UNL d   1       0.639  -3.651   1.154  0.00  0.00    -0.073 A 
ATOM      2  C3  UNL d   1      -0.622  -3.714   0.549  0.00  0.00    -0.002 A 
ATOM      3  C4  UNL d   1      -1.650  -2.872   0.975  0.00  0.00     0.004 A 
ATOM      4  C5  UNL d   1      -1.427  -1.956   2.004  0.00  0.00    -0.004 A 
ATOM      5  C6  UNL d   1      -0.171  -1.871   2.612  0.00  0.00    -0.075 A 
ATOM      6  C7  UNL d   1       0.085  -0.892   3.721  0.00  0.00     0.076 C 
ATOM      7  C8  UNL d   1       0.856  -2.721   2.180  0.00  0.00     0.001 A 
ENDROOT
BRANCH   1   8
ATOM      8  C1  UNL d   1       1.754  -4.554   0.693  0.00  0.00     0.053 C 
ATOM      9  C   UNL d   1       2.861  -3.781  -0.006  0.00  0.00     0.018 C 
ENDBRANCH   1   8
TORSDOF 1
ENDMDL
