MODEL 1
REMARK minimizedAffinity -4.79334593
REMARK minimizedRMSD -1
REMARK  1 active torsions:
REMARK  status: ('A' for Active; 'I' for Inactive)
REMARK    1  A    between atoms: C1_2  and  C2_3 
ROOT
ATOM      1  C2  UNL d   1       2.474  -3.892  -0.132  0.00  0.00    -0.073 A 
ATOM      2  C3  UNL d   1       2.858  -3.104  -1.223  0.00  0.00    -0.002 A 
ATOM      3  C4  UNL d   1       4.127  -3.248  -1.784  0.00  0.00     0.004 A 
ATOM      4  C5  UNL d   1       5.021  -4.185  -1.266  0.00  0.00    -0.004 A 
ATOM      5  C6  UNL d   1       4.652  -4.989  -0.184  0.00  0.00    -0.075 A 
ATOM      6  C7  UNL d   1       5.603  -6.000   0.386  0.00  0.00     0.076 C 
ATOM      7  C8  UNL d   1       3.376  -4.837   0.376  0.00  0.00     0.001 A 
ENDROOT
BRANCH   1   8
ATOM      8  C1  UNL d   1       1.102  -3.744   0.474  0.00  0.00     0.053 C 
ATOM      9  C   UNL d   1       0.761  -2.291   0.766  0.00  0.00     0.018 C 
ENDBRANCH   1   8
TORSDOF 1
ENDMDL
