MODEL 1
REMARK minimizedAffinity -3.70058537
REMARK minimizedRMSD -1
REMARK  1 active torsions:
REMARK  status: ('A' for Active; 'I' for Inactive)
REMARK    1  A    between atoms: C1_2  and  C2_3 
ROOT
ATOM      1  C2  UNL d   1       3.315  -3.448  -0.966  0.00  0.00    -0.073 A 
ATOM      2  C3  UNL d   1       4.009  -2.721  -1.939  0.00  0.00    -0.002 A 
ATOM      3  C4  UNL d   1       5.343  -3.016  -2.222  0.00  0.00     0.004 A 
ATOM      4  C5  UNL d   1       5.994  -4.045  -1.541  0.00  0.00    -0.004 A 
ATOM      5  C6  UNL d   1       5.313  -4.791  -0.574  0.00  0.00    -0.075 A 
ATOM      6  C7  UNL d   1       6.000  -5.900   0.169  0.00  0.00     0.076 C 
ATOM      7  C8  UNL d   1       3.974  -4.487  -0.294  0.00  0.00     0.001 A 
ENDROOT
BRANCH   1   8
ATOM      8  C1  UNL d   1       1.872  -3.137  -0.662  0.00  0.00     0.053 C 
ATOM      9  C   UNL d   1       1.514  -3.447   0.783  0.00  0.00     0.018 C 
ENDBRANCH   1   8
TORSDOF 1
ENDMDL
