MODEL 1
REMARK minimizedAffinity -2.64183116
REMARK minimizedRMSD -1
REMARK  1 active torsions:
REMARK  status: ('A' for Active; 'I' for Inactive)
REMARK    1  A    between atoms: C1_2  and  C2_3 
ROOT
ATOM      1  C2  UNL d   1       3.756  -4.289  -1.403  0.00  0.00    -0.073 A 
ATOM      2  C3  UNL d   1       3.890  -2.943  -1.760  0.00  0.00    -0.002 A 
ATOM      3  C4  UNL d   1       2.997  -1.991  -1.266  0.00  0.00     0.004 A 
ATOM      4  C5  UNL d   1       1.967  -2.373  -0.407  0.00  0.00    -0.004 A 
ATOM      5  C6  UNL d   1       1.824  -3.712  -0.029  0.00  0.00    -0.075 A 
ATOM      6  C7  UNL d   1       0.720  -4.140   0.893  0.00  0.00     0.076 C 
ATOM      7  C8  UNL d   1       2.723  -4.663  -0.531  0.00  0.00     0.001 A 
ENDROOT
BRANCH   1   8
ATOM      8  C1  UNL d   1       4.721  -5.320  -1.928  0.00  0.00     0.053 C 
ATOM      9  C   UNL d   1       6.000  -5.374  -1.108  0.00  0.00     0.018 C 
ENDBRANCH   1   8
TORSDOF 1
ENDMDL
