MODEL 1
REMARK minimizedAffinity -3.75041389
REMARK minimizedRMSD -1
REMARK  1 active torsions:
REMARK  status: ('A' for Active; 'I' for Inactive)
REMARK    1  A    between atoms: C1_2  and  C2_3 
ROOT
ATOM      1  C2  UNL d   1       2.942  -3.244  -0.429  0.00  0.00    -0.073 A 
ATOM      2  C3  UNL d   1       3.460  -2.755  -1.634  0.00  0.00    -0.002 A 
ATOM      3  C4  UNL d   1       4.627  -3.300  -2.172  0.00  0.00     0.004 A 
ATOM      4  C5  UNL d   1       5.282  -4.343  -1.517  0.00  0.00    -0.004 A 
ATOM      5  C6  UNL d   1       4.773  -4.853  -0.318  0.00  0.00    -0.075 A 
ATOM      6  C7  UNL d   1       5.467  -5.972   0.401  0.00  0.00     0.076 C 
ATOM      7  C8  UNL d   1       3.603  -4.298   0.218  0.00  0.00     0.001 A 
ENDROOT
BRANCH   1   8
ATOM      8  C1  UNL d   1       1.679  -2.662   0.153  0.00  0.00     0.053 C 
ATOM      9  C   UNL d   1       1.120  -3.523   1.275  0.00  0.00     0.018 C 
ENDBRANCH   1   8
TORSDOF 1
ENDMDL
