MODEL 1
REMARK minimizedAffinity 9.67724609
REMARK minimizedRMSD -1
REMARK  1 active torsions:
REMARK  status: ('A' for Active; 'I' for Inactive)
REMARK    1  A    between atoms: C1_2  and  C2_3 
ROOT
ATOM      1  C2  UNL d   1      -3.044  -1.869   1.544  0.00  0.00    -0.073 A 
ATOM      2  C3  UNL d   1      -2.501  -0.640   1.936  0.00  0.00    -0.002 A 
ATOM      3  C4  UNL d   1      -1.118  -0.461   1.977  0.00  0.00     0.004 A 
ATOM      4  C5  UNL d   1      -0.264  -1.504   1.619  0.00  0.00    -0.004 A 
ATOM      5  C6  UNL d   1      -0.787  -2.736   1.213  0.00  0.00    -0.075 A 
ATOM      6  C7  UNL d   1       0.117  -3.869   0.827  0.00  0.00     0.076 C 
ATOM      7  C8  UNL d   1      -2.178  -2.909   1.178  0.00  0.00     0.001 A 
ENDROOT
BRANCH   1   8
ATOM      8  C1  UNL d   1      -4.537  -2.064   1.492  0.00  0.00     0.053 C 
ATOM      9  C   UNL d   1      -4.938  -3.484   1.859  0.00  0.00     0.018 C 
ENDBRANCH   1   8
TORSDOF 1
ENDMDL
