MODEL 1
REMARK minimizedAffinity 10.9940596
REMARK minimizedRMSD -1
REMARK  1 active torsions:
REMARK  status: ('A' for Active; 'I' for Inactive)
REMARK    1  A    between atoms: C1_2  and  C2_3 
ROOT
ATOM      1  C2  UNL d   1      -3.457   2.205   0.594  0.00  0.00    -0.073 A 
ATOM      2  C3  UNL d   1      -2.285   2.662   1.208  0.00  0.00    -0.002 A 
ATOM      3  C4  UNL d   1      -1.747   3.903   0.865  0.00  0.00     0.004 A 
ATOM      4  C5  UNL d   1      -2.377   4.702  -0.088  0.00  0.00    -0.004 A 
ATOM      5  C6  UNL d   1      -3.555   4.268  -0.704  0.00  0.00    -0.075 A 
ATOM      6  C7  UNL d   1      -4.244   5.115  -1.734  0.00  0.00     0.076 C 
ATOM      7  C8  UNL d   1      -4.088   3.020  -0.356  0.00  0.00     0.001 A 
ENDROOT
BRANCH   1   8
ATOM      8  C1  UNL d   1      -4.045   0.869   0.966  0.00  0.00     0.053 C 
ATOM      9  C   UNL d   1      -3.003  -0.069   1.553  0.00  0.00     0.018 C 
ENDBRANCH   1   8
TORSDOF 1
ENDMDL
