MODEL 1
REMARK minimizedAffinity 8.37196255
REMARK minimizedRMSD -1
REMARK  1 active torsions:
REMARK  status: ('A' for Active; 'I' for Inactive)
REMARK    1  A    between atoms: C1_2  and  C2_3 
ROOT
ATOM      1  C2  UNL d   1       0.136   4.641  -3.837  0.00  0.00    -0.073 A 
ATOM      2  C3  UNL d   1       1.101   3.657  -4.083  0.00  0.00    -0.002 A 
ATOM      3  C4  UNL d   1       1.701   2.978  -3.022  0.00  0.00     0.004 A 
ATOM      4  C5  UNL d   1       1.338   3.269  -1.707  0.00  0.00    -0.004 A 
ATOM      5  C6  UNL d   1       0.367   4.241  -1.442  0.00  0.00    -0.075 A 
ATOM      6  C7  UNL d   1      -0.033   4.567  -0.033  0.00  0.00     0.076 C 
ATOM      7  C8  UNL d   1      -0.229   4.920  -2.513  0.00  0.00     0.001 A 
ENDROOT
BRANCH   1   8
ATOM      8  C1  UNL d   1      -0.519   5.373  -4.980  0.00  0.00     0.053 C 
ATOM      9  C   UNL d   1       0.502   5.942  -5.953  0.00  0.00     0.018 C 
ENDBRANCH   1   8
TORSDOF 1
ENDMDL
