MODEL 1
REMARK minimizedAffinity 6.42787313
REMARK minimizedRMSD -1
REMARK  1 active torsions:
REMARK  status: ('A' for Active; 'I' for Inactive)
REMARK    1  A    between atoms: C1_2  and  C2_3 
ROOT
ATOM      1  C2  UNL d   1       2.201  -3.389   0.582  0.00  0.00    -0.073 A 
ATOM      2  C3  UNL d   1       2.997  -2.240   0.632  0.00  0.00    -0.002 A 
ATOM      3  C4  UNL d   1       4.355  -2.309   0.319  0.00  0.00     0.004 A 
ATOM      4  C5  UNL d   1       4.929  -3.525  -0.052  0.00  0.00    -0.004 A 
ATOM      5  C6  UNL d   1       4.147  -4.682  -0.119  0.00  0.00    -0.075 A 
ATOM      6  C7  UNL d   1       4.750  -5.999  -0.514  0.00  0.00     0.076 C 
ATOM      7  C8  UNL d   1       2.785  -4.605   0.199  0.00  0.00     0.001 A 
ENDROOT
BRANCH   1   8
ATOM      8  C1  UNL d   1       0.732  -3.318   0.912  0.00  0.00     0.053 C 
ATOM      9  C   UNL d   1      -0.137  -3.415  -0.331  0.00  0.00     0.018 C 
ENDBRANCH   1   8
TORSDOF 1
ENDMDL
