MODEL 1
REMARK minimizedAffinity -4.72050571
REMARK minimizedRMSD -1
REMARK  1 active torsions:
REMARK  status: ('A' for Active; 'I' for Inactive)
REMARK    1  A    between atoms: C1_2  and  C2_3 
ROOT
ATOM      1  C2  UNL d   1       0.324  -0.150  -0.204  0.00  0.00    -0.076 A 
ATOM      2  C3  UNL d   1       0.907  -1.421  -0.061  0.00  0.00     0.004 A 
ATOM      3  C4  UNL d   1       2.258  -1.560   0.250  0.00  0.00    -0.003 A 
ATOM      4  C5  UNL d   1       3.050  -0.430   0.422  0.00  0.00     0.000 A 
ATOM      5  C6  UNL d   1       2.485   0.839   0.301  0.00  0.00     0.000 A 
ATOM      6  C7  UNL d   1       1.120   0.997   0.005  0.00  0.00    -0.073 A 
ATOM      7  C8  UNL d   1       0.564   2.389  -0.120  0.00  0.00     0.078 C 
ENDROOT
BRANCH   1   8
ATOM      8  C1  UNL d   1      -1.141  -0.061  -0.568  0.00  0.00     0.053 C 
ATOM      9  C   UNL d   1      -1.383  -0.248  -2.057  0.00  0.00     0.018 C 
ENDBRANCH   1   8
TORSDOF 1
ENDMDL
