MODEL 1
REMARK minimizedAffinity 0.755015731
REMARK minimizedRMSD -1
REMARK  1 active torsions:
REMARK  status: ('A' for Active; 'I' for Inactive)
REMARK    1  A    between atoms: C1_2  and  C2_3 
ROOT
ATOM      1  C2  UNL d   1       1.300   0.173   0.833  0.00  0.00    -0.076 A 
ATOM      2  C3  UNL d   1       1.082  -1.206   0.991  0.00  0.00     0.004 A 
ATOM      3  C4  UNL d   1      -0.167  -1.769   0.734  0.00  0.00    -0.003 A 
ATOM      4  C5  UNL d   1      -1.218  -0.962   0.315  0.00  0.00     0.000 A 
ATOM      5  C6  UNL d   1      -1.015   0.406   0.136  0.00  0.00     0.000 A 
ATOM      6  C7  UNL d   1       0.242   0.987   0.375  0.00  0.00    -0.073 A 
ATOM      7  C8  UNL d   1       0.403   2.469   0.172  0.00  0.00     0.078 C 
ENDROOT
BRANCH   1   8
ATOM      8  C1  UNL d   1       2.669   0.731   1.152  0.00  0.00     0.053 C 
ATOM      9  C   UNL d   1       3.768  -0.312   1.024  0.00  0.00     0.018 C 
ENDBRANCH   1   8
TORSDOF 1
ENDMDL
