MODEL 1
REMARK minimizedAffinity -4.75379896
REMARK minimizedRMSD -1
REMARK  1 active torsions:
REMARK  status: ('A' for Active; 'I' for Inactive)
REMARK    1  A    between atoms: C1_2  and  C2_3 
ROOT
ATOM      1  C2  UNL d   1      -0.124   0.126   0.150  0.00  0.00    -0.076 A 
ATOM      2  C3  UNL d   1       0.349   1.384  -0.261  0.00  0.00     0.004 A 
ATOM      3  C4  UNL d   1       1.655   1.785   0.017  0.00  0.00    -0.003 A 
ATOM      4  C5  UNL d   1       2.509   0.934   0.710  0.00  0.00     0.000 A 
ATOM      5  C6  UNL d   1       2.062  -0.324   1.110  0.00  0.00     0.000 A 
ATOM      6  C7  UNL d   1       0.753  -0.751   0.824  0.00  0.00    -0.073 A 
ATOM      7  C8  UNL d   1       0.322  -2.116   1.284  0.00  0.00     0.078 C 
ENDROOT
BRANCH   1   8
ATOM      8  C1  UNL d   1      -1.558  -0.244  -0.155  0.00  0.00     0.053 C 
ATOM      9  C   UNL d   1      -2.000   0.224  -1.533  0.00  0.00     0.018 C 
ENDBRANCH   1   8
TORSDOF 1
ENDMDL
