MODEL 1
REMARK minimizedAffinity -3.34503388
REMARK minimizedRMSD -1
REMARK  1 active torsions:
REMARK  status: ('A' for Active; 'I' for Inactive)
REMARK    1  A    between atoms: C1_2  and  C2_3 
ROOT
ATOM      1  C2  UNL d   1       0.178  -0.135   0.084  0.00  0.00    -0.076 A 
ATOM      2  C3  UNL d   1       0.621  -1.413   0.467  0.00  0.00     0.004 A 
ATOM      3  C4  UNL d   1       1.957  -1.641   0.792  0.00  0.00    -0.003 A 
ATOM      4  C5  UNL d   1       2.872  -0.596   0.739  0.00  0.00     0.000 A 
ATOM      5  C6  UNL d   1       2.447   0.682   0.378  0.00  0.00     0.000 A 
ATOM      6  C7  UNL d   1       1.100   0.934   0.064  0.00  0.00    -0.073 A 
ATOM      7  C8  UNL d   1       0.698   2.330  -0.325  0.00  0.00     0.078 C 
ENDROOT
BRANCH   1   8
ATOM      8  C1  UNL d   1      -1.277   0.047  -0.283  0.00  0.00     0.053 C 
ATOM      9  C   UNL d   1      -1.567  -0.337  -1.726  0.00  0.00     0.018 C 
ENDBRANCH   1   8
TORSDOF 1
ENDMDL
