MODEL 1
REMARK minimizedAffinity -2.83166695
REMARK minimizedRMSD -1
REMARK  1 active torsions:
REMARK  status: ('A' for Active; 'I' for Inactive)
REMARK    1  A    between atoms: C1_2  and  C2_3 
ROOT
ATOM      1  C2  UNL d   1      -2.638  -0.626  -1.490  0.00  0.00    -0.076 A 
ATOM      2  C3  UNL d   1      -2.795   0.771  -1.525  0.00  0.00     0.004 A 
ATOM      3  C4  UNL d   1      -3.402   1.397  -2.612  0.00  0.00    -0.003 A 
ATOM      4  C5  UNL d   1      -3.863   0.637  -3.681  0.00  0.00     0.000 A 
ATOM      5  C6  UNL d   1      -3.732  -0.751  -3.655  0.00  0.00     0.000 A 
ATOM      6  C7  UNL d   1      -3.137  -1.400  -2.559  0.00  0.00    -0.073 A 
ATOM      7  C8  UNL d   1      -3.016  -2.899  -2.587  0.00  0.00     0.078 C 
ENDROOT
BRANCH   1   8
ATOM      8  C1  UNL d   1      -1.947  -1.247  -0.297  0.00  0.00     0.053 C 
ATOM      9  C   UNL d   1      -0.566  -0.660  -0.053  0.00  0.00     0.018 C 
ENDBRANCH   1   8
TORSDOF 1
ENDMDL
