MODEL 1
REMARK minimizedAffinity -5.15838861
REMARK minimizedRMSD -1
REMARK  1 active torsions:
REMARK  status: ('A' for Active; 'I' for Inactive)
REMARK    1  A    between atoms: C1_2  and  C2_3 
ROOT
ATOM      1  C2  UNL d   1       0.173  -0.187   0.388  0.00  0.00    -0.076 A 
ATOM      2  C3  UNL d   1       0.794  -1.445   0.470  0.00  0.00     0.004 A 
ATOM      3  C4  UNL d   1       2.165  -1.555   0.698  0.00  0.00    -0.003 A 
ATOM      4  C5  UNL d   1       2.937  -0.409   0.847  0.00  0.00     0.000 A 
ATOM      5  C6  UNL d   1       2.335   0.848   0.786  0.00  0.00     0.000 A 
ATOM      6  C7  UNL d   1       0.951   0.976   0.574  0.00  0.00    -0.073 A 
ATOM      7  C8  UNL d   1       0.355   2.355   0.511  0.00  0.00     0.078 C 
ENDROOT
BRANCH   1   8
ATOM      8  C1  UNL d   1      -1.312  -0.129   0.113  0.00  0.00     0.053 C 
ATOM      9  C   UNL d   1      -1.651  -0.462  -1.332  0.00  0.00     0.018 C 
ENDBRANCH   1   8
TORSDOF 1
ENDMDL
