MODEL 1
REMARK minimizedAffinity -4.26341534
REMARK minimizedRMSD -1
REMARK  1 active torsions:
REMARK  status: ('A' for Active; 'I' for Inactive)
REMARK    1  A    between atoms: C1_2  and  C2_3 
ROOT
ATOM      1  C2  UNL d   1      -0.405  -0.140  -0.603  0.00  0.00    -0.076 A 
ATOM      2  C3  UNL d   1       0.038   0.562  -1.736  0.00  0.00     0.004 A 
ATOM      3  C4  UNL d   1      -0.869   1.089  -2.654  0.00  0.00    -0.003 A 
ATOM      4  C5  UNL d   1      -2.235   0.922  -2.452  0.00  0.00     0.000 A 
ATOM      5  C6  UNL d   1      -2.692   0.243  -1.324  0.00  0.00     0.000 A 
ATOM      6  C7  UNL d   1      -1.791  -0.280  -0.380  0.00  0.00    -0.073 A 
ATOM      7  C8  UNL d   1      -2.340  -1.009   0.815  0.00  0.00     0.078 C 
ENDROOT
BRANCH   1   8
ATOM      8  C1  UNL d   1       0.626  -0.713   0.344  0.00  0.00     0.053 C 
ATOM      9  C   UNL d   1       1.750   0.267   0.643  0.00  0.00     0.018 C 
ENDBRANCH   1   8
TORSDOF 1
ENDMDL
