MODEL 1
REMARK minimizedAffinity 11.7977552
REMARK minimizedRMSD -1
REMARK  0 active torsions:
REMARK  status: ('A' for Active; 'I' for Inactive)
ROOT
ATOM      1  C   UNL d   1       3.148  -3.222   0.511  0.00  0.00    -0.002 A 
ATOM      2  C1  UNL d   1       2.962  -1.925   0.968  0.00  0.00     0.010 A 
ATOM      3  C2  UNL d   1       1.722  -1.518   1.464  0.00  0.00     0.041 A 
ATOM      4  C3  UNL d   1       0.662  -2.445   1.495  0.00  0.00    -0.075 A 
ATOM      5  S   UNL d   1      -0.943  -2.171   2.060  0.00  0.00     0.015 SA
ATOM      6  C4  UNL d   1      -1.420  -3.769   1.709  0.00  0.00     0.022 A 
ATOM      7  C5  UNL d   1      -0.392  -4.508   1.173  0.00  0.00     0.026 A 
ATOM      8  C6  UNL d   1       0.825  -3.757   1.041  0.00  0.00    -0.082 A 
ATOM      9  C7  UNL d   1       2.094  -4.140   0.543  0.00  0.00     0.045 A 
ENDROOT
TORSDOF 0
ENDMDL
