MODEL 1
REMARK minimizedAffinity 22.8205929
REMARK minimizedRMSD -1
REMARK  0 active torsions:
REMARK  status: ('A' for Active; 'I' for Inactive)
ROOT
ATOM      1  C   UNL d   1      -3.404  -0.751  -0.786  0.00  0.00    -0.002 A 
ATOM      2  C1  UNL d   1      -3.742   0.546  -1.143  0.00  0.00     0.010 A 
ATOM      3  C2  UNL d   1      -4.544   0.788  -2.261  0.00  0.00     0.041 A 
ATOM      4  C3  UNL d   1      -5.005  -0.306  -3.019  0.00  0.00    -0.075 A 
ATOM      5  S   UNL d   1      -6.000  -0.250  -4.426  0.00  0.00     0.015 SA
ATOM      6  C4  UNL d   1      -5.999  -1.947  -4.585  0.00  0.00     0.022 A 
ATOM      7  C5  UNL d   1      -5.263  -2.557  -3.597  0.00  0.00     0.026 A 
ATOM      8  C6  UNL d   1      -4.679  -1.621  -2.678  0.00  0.00    -0.082 A 
ATOM      9  C7  UNL d   1      -3.863  -1.834  -1.540  0.00  0.00     0.045 A 
ENDROOT
TORSDOF 0
ENDMDL
