MODEL 1
REMARK minimizedAffinity 8.66110611
REMARK minimizedRMSD -1
REMARK  0 active torsions:
REMARK  status: ('A' for Active; 'I' for Inactive)
ROOT
ATOM      1  C   UNL d   1       4.230  -4.223   0.972  0.00  0.00    -0.002 A 
ATOM      2  C1  UNL d   1       3.180  -4.880   0.347  0.00  0.00     0.010 A 
ATOM      3  C2  UNL d   1       1.898  -4.326   0.340  0.00  0.00     0.041 A 
ATOM      4  C3  UNL d   1       1.689  -3.087   0.977  0.00  0.00    -0.075 A 
ATOM      5  S   UNL d   1       0.205  -2.217   1.094  0.00  0.00     0.015 SA
ATOM      6  C4  UNL d   1       0.930  -0.951   1.976  0.00  0.00     0.022 A 
ATOM      7  C5  UNL d   1       2.271  -1.171   2.185  0.00  0.00     0.026 A 
ATOM      8  C6  UNL d   1       2.731  -2.405   1.612  0.00  0.00    -0.082 A 
ATOM      9  C7  UNL d   1       4.018  -2.994   1.602  0.00  0.00     0.045 A 
ENDROOT
TORSDOF 0
ENDMDL
