MODEL 1
REMARK minimizedAffinity 12.0453424
REMARK minimizedRMSD -1
REMARK  0 active torsions:
REMARK  status: ('A' for Active; 'I' for Inactive)
ROOT
ATOM      1  C   UNL d   1      -0.493  -1.197   2.295  0.00  0.00    -0.002 A 
ATOM      2  C1  UNL d   1       0.633  -0.864   3.034  0.00  0.00     0.010 A 
ATOM      3  C2  UNL d   1       1.911  -1.151   2.550  0.00  0.00     0.041 A 
ATOM      4  C3  UNL d   1       2.039  -1.785   1.298  0.00  0.00    -0.075 A 
ATOM      5  S   UNL d   1       3.503  -2.233   0.505  0.00  0.00     0.015 SA
ATOM      6  C4  UNL d   1       2.667  -2.877  -0.834  0.00  0.00     0.022 A 
ATOM      7  C5  UNL d   1       1.304  -2.762  -0.696  0.00  0.00     0.026 A 
ATOM      8  C6  UNL d   1       0.920  -2.129   0.535  0.00  0.00    -0.082 A 
ATOM      9  C7  UNL d   1      -0.362  -1.825   1.053  0.00  0.00     0.045 A 
ENDROOT
TORSDOF 0
ENDMDL
