MODEL 1
REMARK minimizedAffinity 10.9067545
REMARK minimizedRMSD -1
REMARK  0 active torsions:
REMARK  status: ('A' for Active; 'I' for Inactive)
ROOT
ATOM      1  C   UNL d   1       5.340  -2.324   3.524  0.00  0.00    -0.002 A 
ATOM      2  C1  UNL d   1       4.724  -1.789   4.647  0.00  0.00     0.010 A 
ATOM      3  C2  UNL d   1       3.400  -1.349   4.588  0.00  0.00     0.041 A 
ATOM      4  C3  UNL d   1       2.699  -1.458   3.371  0.00  0.00    -0.075 A 
ATOM      5  S   UNL d   1       1.069  -0.985   3.064  0.00  0.00     0.015 SA
ATOM      6  C4  UNL d   1       1.153  -1.483   1.436  0.00  0.00     0.022 A 
ATOM      7  C5  UNL d   1       2.386  -1.999   1.118  0.00  0.00     0.026 A 
ATOM      8  C6  UNL d   1       3.297  -1.994   2.228  0.00  0.00    -0.082 A 
ATOM      9  C7  UNL d   1       4.641  -2.431   2.319  0.00  0.00     0.045 A 
ENDROOT
TORSDOF 0
ENDMDL
