MODEL 1
REMARK minimizedAffinity 13.5270815
REMARK minimizedRMSD -1
REMARK  0 active torsions:
REMARK  status: ('A' for Active; 'I' for Inactive)
ROOT
ATOM      1  C   UNL d   1       2.372   1.513  -0.784  0.00  0.00     0.077 C 
ATOM      2  C1  UNL d   1       3.643   2.226  -1.137  0.00  0.00    -0.074 A 
ATOM      3  C2  UNL d   1       4.778   1.516  -1.542  0.00  0.00    -0.005 A 
ATOM      4  C3  UNL d   1       5.950   2.194  -1.876  0.00  0.00     0.006 A 
ATOM      5  C4  UNL d   1       5.999   3.587  -1.810  0.00  0.00    -0.005 A 
ATOM      6  C5  UNL d   1       4.874   4.314  -1.409  0.00  0.00    -0.074 A 
ATOM      7  C6  UNL d   1       4.907   5.812  -1.342  0.00  0.00     0.077 C 
ATOM      8  C7  UNL d   1       3.698   3.626  -1.081  0.00  0.00    -0.001 A 
ENDROOT
TORSDOF 0
ENDMDL
