MODEL 1
REMARK minimizedAffinity 3.95424104
REMARK minimizedRMSD -1
REMARK  0 active torsions:
REMARK  status: ('A' for Active; 'I' for Inactive)
ROOT
ATOM      1  C   UNL d   1      -1.481   3.762   1.805  0.00  0.00     0.077 C 
ATOM      2  C1  UNL d   1      -0.437   2.685   1.770  0.00  0.00    -0.074 A 
ATOM      3  C2  UNL d   1       0.445   2.573   0.691  0.00  0.00    -0.005 A 
ATOM      4  C3  UNL d   1       1.417   1.573   0.677  0.00  0.00     0.006 A 
ATOM      5  C4  UNL d   1       1.516   0.675   1.741  0.00  0.00    -0.005 A 
ATOM      6  C5  UNL d   1       0.644   0.772   2.830  0.00  0.00    -0.074 A 
ATOM      7  C6  UNL d   1       0.743  -0.178   3.986  0.00  0.00     0.077 C 
ATOM      8  C7  UNL d   1      -0.326   1.785   2.839  0.00  0.00    -0.001 A 
ENDROOT
TORSDOF 0
ENDMDL
