MODEL 1
REMARK minimizedAffinity -1.48233974
REMARK minimizedRMSD -1
REMARK  0 active torsions:
REMARK  status: ('A' for Active; 'I' for Inactive)
ROOT
ATOM      1  C   UNL d   1      -5.519   2.562  -1.798  0.00  0.00     0.077 C 
ATOM      2  C1  UNL d   1      -4.529   2.091  -2.821  0.00  0.00    -0.074 A 
ATOM      3  C2  UNL d   1      -4.724   2.345  -4.182  0.00  0.00    -0.005 A 
ATOM      4  C3  UNL d   1      -3.789   1.909  -5.121  0.00  0.00     0.006 A 
ATOM      5  C4  UNL d   1      -2.651   1.215  -4.708  0.00  0.00    -0.005 A 
ATOM      6  C5  UNL d   1      -2.438   0.952  -3.351  0.00  0.00    -0.074 A 
ATOM      7  C6  UNL d   1      -1.215   0.217  -2.890  0.00  0.00     0.077 C 
ATOM      8  C7  UNL d   1      -3.379   1.400  -2.414  0.00  0.00    -0.001 A 
ENDROOT
TORSDOF 0
ENDMDL
