MODEL 1
REMARK minimizedAffinity 9.26841164
REMARK minimizedRMSD -1
REMARK  0 active torsions:
REMARK  status: ('A' for Active; 'I' for Inactive)
ROOT
ATOM      1  C   UNL d   1       2.706  -1.804   0.003  0.00  0.00     0.077 C 
ATOM      2  C1  UNL d   1       1.771  -0.757  -0.526  0.00  0.00    -0.074 A 
ATOM      3  C2  UNL d   1       0.831  -1.067  -1.514  0.00  0.00    -0.005 A 
ATOM      4  C3  UNL d   1      -0.038  -0.085  -1.990  0.00  0.00     0.006 A 
ATOM      5  C4  UNL d   1       0.025   1.214  -1.485  0.00  0.00    -0.005 A 
ATOM      6  C5  UNL d   1       0.959   1.542  -0.496  0.00  0.00    -0.074 A 
ATOM      7  C6  UNL d   1       1.033   2.931   0.065  0.00  0.00     0.077 C 
ATOM      8  C7  UNL d   1       1.823   0.548  -0.018  0.00  0.00    -0.001 A 
ENDROOT
TORSDOF 0
ENDMDL
