MODEL 1
REMARK minimizedAffinity 9.27148056
REMARK minimizedRMSD -1
REMARK  0 active torsions:
REMARK  status: ('A' for Active; 'I' for Inactive)
ROOT
ATOM      1  C   UNL d   1       4.854   5.999   2.357  0.00  0.00     0.077 C 
ATOM      2  C1  UNL d   1       4.876   5.156   3.597  0.00  0.00    -0.074 A 
ATOM      3  C2  UNL d   1       5.102   5.731   4.852  0.00  0.00    -0.005 A 
ATOM      4  C3  UNL d   1       5.111   4.936   5.999  0.00  0.00     0.006 A 
ATOM      5  C4  UNL d   1       4.893   3.561   5.902  0.00  0.00    -0.005 A 
ATOM      6  C5  UNL d   1       4.665   2.969   4.656  0.00  0.00    -0.074 A 
ATOM      7  C6  UNL d   1       4.419   1.494   4.535  0.00  0.00     0.077 C 
ATOM      8  C7  UNL d   1       4.651   3.775   3.509  0.00  0.00    -0.001 A 
ENDROOT
TORSDOF 0
ENDMDL
