MODEL 1
REMARK minimizedAffinity 3.54217744
REMARK minimizedRMSD -1
REMARK  0 active torsions:
REMARK  status: ('A' for Active; 'I' for Inactive)
ROOT
ATOM      1  C   UNL d   1       1.093   2.285   0.143  0.00  0.00     0.077 C 
ATOM      2  C1  UNL d   1       1.814   1.012   0.472  0.00  0.00    -0.074 A 
ATOM      3  C2  UNL d   1       2.391   0.817   1.731  0.00  0.00    -0.005 A 
ATOM      4  C3  UNL d   1       3.051  -0.376   2.025  0.00  0.00     0.006 A 
ATOM      5  C4  UNL d   1       3.141  -1.385   1.065  0.00  0.00    -0.005 A 
ATOM      6  C5  UNL d   1       2.569  -1.208  -0.199  0.00  0.00    -0.074 A 
ATOM      7  C6  UNL d   1       2.648  -2.286  -1.239  0.00  0.00     0.077 C 
ATOM      8  C7  UNL d   1       1.902  -0.010  -0.485  0.00  0.00    -0.001 A 
ENDROOT
TORSDOF 0
ENDMDL
