MODEL 1
REMARK minimizedAffinity 5.92154837
REMARK minimizedRMSD -1
REMARK  0 active torsions:
REMARK  status: ('A' for Active; 'I' for Inactive)
ROOT
ATOM      1  C   UNL d   1       3.839  -1.518   2.314  0.00  0.00     0.077 C 
ATOM      2  C1  UNL d   1       3.018  -1.090   1.134  0.00  0.00    -0.074 A 
ATOM      3  C2  UNL d   1       2.863  -1.927   0.025  0.00  0.00    -0.005 A 
ATOM      4  C3  UNL d   1       2.089  -1.520  -1.061  0.00  0.00     0.006 A 
ATOM      5  C4  UNL d   1       1.464  -0.272  -1.050  0.00  0.00    -0.005 A 
ATOM      6  C5  UNL d   1       1.607   0.578   0.051  0.00  0.00    -0.074 A 
ATOM      7  C6  UNL d   1       0.933   1.918   0.084  0.00  0.00     0.077 C 
ATOM      8  C7  UNL d   1       2.381   0.159   1.142  0.00  0.00    -0.001 A 
ENDROOT
TORSDOF 0
ENDMDL
