MODEL 1
REMARK minimizedAffinity 3.72051001
REMARK minimizedRMSD -1
REMARK  0 active torsions:
REMARK  status: ('A' for Active; 'I' for Inactive)
ROOT
ATOM      1  C   UNL d   1      -5.934   4.038  -3.700  0.00  0.00     0.077 C 
ATOM      2  C1  UNL d   1      -5.435   2.946  -2.802  0.00  0.00    -0.074 A 
ATOM      3  C2  UNL d   1      -5.995   2.744  -1.536  0.00  0.00    -0.005 A 
ATOM      4  C3  UNL d   1      -5.526   1.718  -0.716  0.00  0.00     0.006 A 
ATOM      5  C4  UNL d   1      -4.494   0.885  -1.152  0.00  0.00    -0.005 A 
ATOM      6  C5  UNL d   1      -3.923   1.072  -2.414  0.00  0.00    -0.074 A 
ATOM      7  C6  UNL d   1      -2.820   0.180  -2.902  0.00  0.00     0.077 C 
ATOM      8  C7  UNL d   1      -4.404   2.101  -3.236  0.00  0.00    -0.001 A 
ENDROOT
TORSDOF 0
ENDMDL
