MODEL 1
REMARK minimizedAffinity 1.27561772
REMARK minimizedRMSD -1
REMARK  0 active torsions:
REMARK  status: ('A' for Active; 'I' for Inactive)
ROOT
ATOM      1  C   UNL d   1       2.290  -1.569  -0.053  0.00  0.00     0.077 C 
ATOM      2  C1  UNL d   1       2.127  -0.079   0.004  0.00  0.00    -0.074 A 
ATOM      3  C2  UNL d   1       0.861   0.509  -0.085  0.00  0.00    -0.005 A 
ATOM      4  C3  UNL d   1       0.723   1.895  -0.021  0.00  0.00     0.006 A 
ATOM      5  C4  UNL d   1       1.848   2.706   0.131  0.00  0.00    -0.005 A 
ATOM      6  C5  UNL d   1       3.122   2.136   0.222  0.00  0.00    -0.074 A 
ATOM      7  C6  UNL d   1       4.341   2.993   0.396  0.00  0.00     0.077 C 
ATOM      8  C7  UNL d   1       3.251   0.742   0.164  0.00  0.00    -0.001 A 
ENDROOT
TORSDOF 0
ENDMDL
