MODEL 1
REMARK minimizedAffinity -6.17721033
REMARK minimizedRMSD -1
REMARK  0 active torsions:
REMARK  status: ('A' for Active; 'I' for Inactive)
ROOT
ATOM      1  C1  DEN d   1       1.200   3.193  -2.431  0.00  0.00     0.130 A 
ATOM      2  C2  DEN d   1       1.879   4.386  -1.936  0.00  0.00    -0.031 A 
ATOM      3  C3  DEN d   1       2.286   4.134  -0.539  0.00  0.00     0.027 A 
ATOM      4  C4  DEN d   1       1.934   2.020   0.896  0.00  0.00     0.027 A 
ATOM      5  C5  DEN d   1       1.398   0.751   0.914  0.00  0.00    -0.003 A 
ATOM      6  C6  DEN d   1       0.734   0.224  -0.162  0.00  0.00     0.001 A 
ATOM      7  C7  DEN d   1       0.628   0.953  -1.318  0.00  0.00     0.017 A 
ATOM      8  C8  DEN d   1       1.159   2.236  -1.340  0.00  0.00    -0.094 A 
ATOM      9  C9  DEN d   1       1.838   2.746  -0.246  0.00  0.00    -0.072 A 
ENDROOT
TORSDOF 0
ENDMDL
