MODEL 1
REMARK minimizedAffinity -4.15522861
REMARK minimizedRMSD -1
REMARK  0 active torsions:
REMARK  status: ('A' for Active; 'I' for Inactive)
ROOT
ATOM      1  C1  DEN d   1       1.366   4.207  -1.467  0.00  0.00     0.130 A 
ATOM      2  C2  DEN d   1       1.172   5.028  -0.275  0.00  0.00    -0.031 A 
ATOM      3  C3  DEN d   1       0.998   4.123   0.879  0.00  0.00     0.027 A 
ATOM      4  C4  DEN d   1       1.016   1.544   0.935  0.00  0.00     0.027 A 
ATOM      5  C5  DEN d   1       1.134   0.405   0.170  0.00  0.00    -0.003 A 
ATOM      6  C6  DEN d   1       1.303   0.453  -1.189  0.00  0.00     0.001 A 
ATOM      7  C7  DEN d   1       1.403   1.666  -1.818  0.00  0.00     0.017 A 
ATOM      8  C8  DEN d   1       1.277   2.818  -1.054  0.00  0.00    -0.094 A 
ATOM      9  C9  DEN d   1       1.119   2.749   0.320  0.00  0.00    -0.072 A 
ENDROOT
TORSDOF 0
ENDMDL
