MODEL 1
REMARK minimizedAffinity -4.24496269
REMARK minimizedRMSD -1
REMARK  0 active torsions:
REMARK  status: ('A' for Active; 'I' for Inactive)
ROOT
ATOM      1  C1  DEN d   1       1.480   3.616  -1.906  0.00  0.00     0.130 A 
ATOM      2  C2  DEN d   1       1.575   4.454  -0.714  0.00  0.00    -0.031 A 
ATOM      3  C3  DEN d   1       1.565   3.570   0.469  0.00  0.00     0.027 A 
ATOM      4  C4  DEN d   1       1.417   0.997   0.570  0.00  0.00     0.027 A 
ATOM      5  C5  DEN d   1       1.308  -0.151  -0.183  0.00  0.00    -0.003 A 
ATOM      6  C6  DEN d   1       1.216  -0.123  -1.549  0.00  0.00     0.001 A 
ATOM      7  C7  DEN d   1       1.276   1.076  -2.209  0.00  0.00     0.017 A 
ATOM      8  C8  DEN d   1       1.378   2.239  -1.457  0.00  0.00    -0.094 A 
ATOM      9  C9  DEN d   1       1.482   2.189  -0.077  0.00  0.00    -0.072 A 
ENDROOT
TORSDOF 0
ENDMDL
