MODEL 1
REMARK minimizedAffinity -4.65510941
REMARK minimizedRMSD -1
REMARK  0 active torsions:
REMARK  status: ('A' for Active; 'I' for Inactive)
ROOT
ATOM      1  C1  DEN d   1       1.432  -1.754  -0.192  0.00  0.00     0.130 A 
ATOM      2  C2  DEN d   1       1.479  -2.358  -1.521  0.00  0.00    -0.031 A 
ATOM      3  C3  DEN d   1       1.319  -1.282  -2.519  0.00  0.00     0.027 A 
ATOM      4  C4  DEN d   1       1.009   1.250  -2.137  0.00  0.00     0.027 A 
ATOM      5  C5  DEN d   1       0.893   2.236  -1.182  0.00  0.00    -0.003 A 
ATOM      6  C6  DEN d   1       0.914   1.959   0.159  0.00  0.00     0.001 A 
ATOM      7  C7  DEN d   1       1.100   0.669   0.583  0.00  0.00     0.017 A 
ATOM      8  C8  DEN d   1       1.210  -0.331  -0.374  0.00  0.00    -0.094 A 
ATOM      9  C9  DEN d   1       1.198  -0.029  -1.725  0.00  0.00    -0.072 A 
ENDROOT
TORSDOF 0
ENDMDL
