MODEL 1
REMARK minimizedAffinity -4.85651112
REMARK minimizedRMSD -1
REMARK  0 active torsions:
REMARK  status: ('A' for Active; 'I' for Inactive)
ROOT
ATOM      1  C1  DEN d   1       1.257   0.766   0.916  0.00  0.00     0.130 A 
ATOM      2  C2  DEN d   1       1.167  -0.257  -0.122  0.00  0.00    -0.031 A 
ATOM      3  C3  DEN d   1       1.173   0.422  -1.434  0.00  0.00     0.027 A 
ATOM      4  C4  DEN d   1       1.318   2.944  -1.954  0.00  0.00     0.027 A 
ATOM      5  C5  DEN d   1       1.400   4.202  -1.399  0.00  0.00    -0.003 A 
ATOM      6  C6  DEN d   1       1.405   4.403  -0.044  0.00  0.00     0.001 A 
ATOM      7  C7  DEN d   1       1.373   3.327   0.802  0.00  0.00     0.017 A 
ATOM      8  C8  DEN d   1       1.283   2.056   0.250  0.00  0.00    -0.094 A 
ATOM      9  C9  DEN d   1       1.292   1.872  -1.122  0.00  0.00    -0.072 A 
ENDROOT
TORSDOF 0
ENDMDL
