MODEL 1
REMARK minimizedAffinity 6.49727297
REMARK minimizedRMSD -1
REMARK  0 active torsions:
REMARK  status: ('A' for Active; 'I' for Inactive)
ROOT
ATOM      1  C1  DEN d   1       1.499   3.335  -0.787  0.00  0.00     0.130 A 
ATOM      2  C2  DEN d   1       1.277   3.242  -2.227  0.00  0.00    -0.031 A 
ATOM      3  C3  DEN d   1       1.023   1.826  -2.560  0.00  0.00     0.027 A 
ATOM      4  C4  DEN d   1       0.947  -0.221  -0.992  0.00  0.00     0.027 A 
ATOM      5  C5  DEN d   1       1.086  -0.642   0.312  0.00  0.00    -0.003 A 
ATOM      6  C6  DEN d   1       1.403   0.221   1.328  0.00  0.00     0.001 A 
ATOM      7  C7  DEN d   1       1.547   1.557   1.063  0.00  0.00     0.017 A 
ATOM      8  C8  DEN d   1       1.416   1.988  -0.251  0.00  0.00    -0.094 A 
ATOM      9  C9  DEN d   1       1.084   1.102  -1.261  0.00  0.00    -0.072 A 
ENDROOT
TORSDOF 0
ENDMDL
