MODEL 1
REMARK minimizedAffinity -0.287641048
REMARK minimizedRMSD -1
REMARK  0 active torsions:
REMARK  status: ('A' for Active; 'I' for Inactive)
ROOT
ATOM      1  C1  DEN d   1       1.061   3.065  -2.373  0.00  0.00     0.130 A 
ATOM      2  C2  DEN d   1       0.827   1.755  -2.975  0.00  0.00    -0.031 A 
ATOM      3  C3  DEN d   1       0.590   0.787  -1.885  0.00  0.00     0.027 A 
ATOM      4  C4  DEN d   1       0.556   1.189   0.662  0.00  0.00     0.027 A 
ATOM      5  C5  DEN d   1       0.713   2.134   1.652  0.00  0.00    -0.003 A 
ATOM      6  C6  DEN d   1       1.027   3.438   1.373  0.00  0.00     0.001 A 
ATOM      7  C7  DEN d   1       1.151   3.843   0.070  0.00  0.00     0.017 A 
ATOM      8  C8  DEN d   1       1.002   2.894  -0.933  0.00  0.00    -0.094 A 
ATOM      9  C9  DEN d   1       0.672   1.583  -0.631  0.00  0.00    -0.072 A 
ENDROOT
TORSDOF 0
ENDMDL
