MODEL 1
REMARK minimizedAffinity -0.340261608
REMARK minimizedRMSD -1
REMARK  0 active torsions:
REMARK  status: ('A' for Active; 'I' for Inactive)
ROOT
ATOM      1  C1  DEN d   1       1.381   0.054   0.757  0.00  0.00     0.130 A 
ATOM      2  C2  DEN d   1       1.727  -0.872  -0.319  0.00  0.00    -0.031 A 
ATOM      3  C3  DEN d   1       1.811  -0.100  -1.575  0.00  0.00     0.027 A 
ATOM      4  C4  DEN d   1       1.446   2.425  -1.956  0.00  0.00     0.027 A 
ATOM      5  C5  DEN d   1       1.124   3.617  -1.346  0.00  0.00    -0.003 A 
ATOM      6  C6  DEN d   1       0.833   3.699  -0.010  0.00  0.00     0.001 A 
ATOM      7  C7  DEN d   1       0.904   2.575   0.770  0.00  0.00     0.017 A 
ATOM      8  C8  DEN d   1       1.221   1.368   0.161  0.00  0.00    -0.094 A 
ATOM      9  C9  DEN d   1       1.524   1.308  -1.189  0.00  0.00    -0.072 A 
ENDROOT
TORSDOF 0
ENDMDL
