MODEL 1
REMARK minimizedAffinity -1.23121047
REMARK minimizedRMSD -1
REMARK  0 active torsions:
REMARK  status: ('A' for Active; 'I' for Inactive)
ROOT
ATOM      1  C1  DEN d   1       1.071   0.548  -1.806  0.00  0.00     0.130 A 
ATOM      2  C2  DEN d   1       0.983  -0.381  -0.683  0.00  0.00    -0.031 A 
ATOM      3  C3  DEN d   1       1.042   0.405   0.566  0.00  0.00     0.027 A 
ATOM      4  C4  DEN d   1       1.256   2.958   0.867  0.00  0.00     0.027 A 
ATOM      5  C5  DEN d   1       1.376   4.160   0.206  0.00  0.00    -0.003 A 
ATOM      6  C6  DEN d   1       1.437   4.239  -1.160  0.00  0.00     0.001 A 
ATOM      7  C7  DEN d   1       1.332   3.098  -1.911  0.00  0.00     0.017 A 
ATOM      8  C8  DEN d   1       1.218   1.882  -1.252  0.00  0.00    -0.094 A 
ATOM      9  C9  DEN d   1       1.146   1.824   0.130  0.00  0.00    -0.072 A 
ENDROOT
TORSDOF 0
ENDMDL
