MODEL 1
REMARK minimizedAffinity 3.73591876
REMARK minimizedRMSD -1
REMARK  0 active torsions:
REMARK  status: ('A' for Active; 'I' for Inactive)
ROOT
ATOM      1  C1  DEN d   1       0.827   0.834  -2.103  0.00  0.00     0.130 A 
ATOM      2  C2  DEN d   1       1.661   1.638  -1.214  0.00  0.00    -0.031 A 
ATOM      3  C3  DEN d   1       2.246   0.738  -0.199  0.00  0.00     0.027 A 
ATOM      4  C4  DEN d   1       1.945  -1.809   0.078  0.00  0.00     0.027 A 
ATOM      5  C5  DEN d   1       1.322  -2.927  -0.429  0.00  0.00    -0.003 A 
ATOM      6  C6  DEN d   1       0.470  -2.866  -1.501  0.00  0.00     0.001 A 
ATOM      7  C7  DEN d   1       0.254  -1.667  -2.128  0.00  0.00     0.017 A 
ATOM      8  C8  DEN d   1       0.873  -0.534  -1.617  0.00  0.00    -0.094 A 
ATOM      9  C9  DEN d   1       1.740  -0.619  -0.541  0.00  0.00    -0.072 A 
ENDROOT
TORSDOF 0
ENDMDL
