MODEL 1
REMARK minimizedAffinity -3.71589351
REMARK minimizedRMSD -1
REMARK  0 active torsions:
REMARK  status: ('A' for Active; 'I' for Inactive)
ROOT
ATOM      1  C1  DEN d   1       1.155   0.527   0.650  0.00  0.00     0.130 A 
ATOM      2  C2  DEN d   1       1.099  -0.658  -0.202  0.00  0.00    -0.031 A 
ATOM      3  C3  DEN d   1       1.231  -0.218  -1.605  0.00  0.00     0.027 A 
ATOM      4  C4  DEN d   1       1.519   2.170  -2.537  0.00  0.00     0.027 A 
ATOM      5  C5  DEN d   1       1.611   3.503  -2.201  0.00  0.00    -0.003 A 
ATOM      6  C6  DEN d   1       1.524   3.936  -0.904  0.00  0.00     0.001 A 
ATOM      7  C7  DEN d   1       1.385   3.025   0.109  0.00  0.00     0.017 A 
ATOM      8  C8  DEN d   1       1.284   1.680  -0.223  0.00  0.00    -0.094 A 
ATOM      9  C9  DEN d   1       1.386   1.260  -1.539  0.00  0.00    -0.072 A 
ENDROOT
TORSDOF 0
ENDMDL
