MODEL 1
REMARK minimizedAffinity -2.02261829
REMARK minimizedRMSD -1
REMARK  0 active torsions:
REMARK  status: ('A' for Active; 'I' for Inactive)
ROOT
ATOM      1  C1  DEN d   1       1.808   3.925  -1.891  0.00  0.00     0.130 A 
ATOM      2  C2  DEN d   1       2.072   4.832  -0.777  0.00  0.00    -0.031 A 
ATOM      3  C3  DEN d   1       1.854   4.087   0.479  0.00  0.00     0.027 A 
ATOM      4  C4  DEN d   1       1.142   1.630   0.807  0.00  0.00     0.027 A 
ATOM      5  C5  DEN d   1       0.792   0.467   0.158  0.00  0.00    -0.003 A 
ATOM      6  C6  DEN d   1       0.724   0.385  -1.207  0.00  0.00     0.001 A 
ATOM      7  C7  DEN d   1       1.054   1.474  -1.970  0.00  0.00     0.017 A 
ATOM      8  C8  DEN d   1       1.401   2.652  -1.323  0.00  0.00    -0.094 A 
ATOM      9  C9  DEN d   1       1.475   2.712   0.058  0.00  0.00    -0.072 A 
ENDROOT
TORSDOF 0
ENDMDL
