MODEL 1
REMARK minimizedAffinity -0.243581951
REMARK minimizedRMSD -1
REMARK  0 active torsions:
REMARK  status: ('A' for Active; 'I' for Inactive)
ROOT
ATOM      1  C1  DEN d   1       1.504   4.100  -2.106  0.00  0.00     0.130 A 
ATOM      2  C2  DEN d   1       1.881   4.948  -0.978  0.00  0.00    -0.031 A 
ATOM      3  C3  DEN d   1       1.850   4.120   0.245  0.00  0.00     0.027 A 
ATOM      4  C4  DEN d   1       1.265   1.621   0.499  0.00  0.00     0.027 A 
ATOM      5  C5  DEN d   1       0.871   0.487  -0.175  0.00  0.00    -0.003 A 
ATOM      6  C6  DEN d   1       0.629   0.485  -1.523  0.00  0.00     0.001 A 
ATOM      7  C7  DEN d   1       0.823   1.630  -2.249  0.00  0.00     0.017 A 
ATOM      8  C8  DEN d   1       1.213   2.780  -1.575  0.00  0.00    -0.094 A 
ATOM      9  C9  DEN d   1       1.464   2.759  -0.214  0.00  0.00    -0.072 A 
ENDROOT
TORSDOF 0
ENDMDL
