MODEL 1
REMARK minimizedAffinity 1.70236492
REMARK minimizedRMSD -1
REMARK  0 active torsions:
REMARK  status: ('A' for Active; 'I' for Inactive)
ROOT
ATOM      1  C1  DEN d   1       1.222   2.190  -2.978  0.00  0.00     0.130 A 
ATOM      2  C2  DEN d   1       1.083   0.782  -2.613  0.00  0.00    -0.031 A 
ATOM      3  C3  DEN d   1       1.190   0.679  -1.143  0.00  0.00     0.027 A 
ATOM      4  C4  DEN d   1       1.550   2.552   0.593  0.00  0.00     0.027 A 
ATOM      5  C5  DEN d   1       1.737   3.906   0.761  0.00  0.00    -0.003 A 
ATOM      6  C6  DEN d   1       1.799   4.772  -0.299  0.00  0.00     0.001 A 
ATOM      7  C7  DEN d   1       1.628   4.298  -1.573  0.00  0.00     0.017 A 
ATOM      8  C8  DEN d   1       1.446   2.933  -1.751  0.00  0.00    -0.094 A 
ATOM      9  C9  DEN d   1       1.374   2.076  -0.666  0.00  0.00    -0.072 A 
ENDROOT
TORSDOF 0
ENDMDL
