MODEL 1
REMARK minimizedAffinity 0.206193373
REMARK minimizedRMSD -1
REMARK  0 active torsions:
REMARK  status: ('A' for Active; 'I' for Inactive)
ROOT
ATOM      1  C1  DEN d   1       2.180   3.090  -2.196  0.00  0.00     0.130 A 
ATOM      2  C2  DEN d   1       2.496   4.307  -1.454  0.00  0.00    -0.031 A 
ATOM      3  C3  DEN d   1       2.310   4.027  -0.016  0.00  0.00     0.027 A 
ATOM      4  C4  DEN d   1       1.570   1.837   1.128  0.00  0.00     0.027 A 
ATOM      5  C5  DEN d   1       1.180   0.534   0.912  0.00  0.00    -0.003 A 
ATOM      6  C6  DEN d   1       1.063   0.006  -0.346  0.00  0.00     0.001 A 
ATOM      7  C7  DEN d   1       1.384   0.772  -1.436  0.00  0.00     0.017 A 
ATOM      8  C8  DEN d   1       1.771   2.089  -1.227  0.00  0.00    -0.094 A 
ATOM      9  C9  DEN d   1       1.895   2.600   0.054  0.00  0.00    -0.072 A 
ENDROOT
TORSDOF 0
ENDMDL
