MODEL 1
REMARK minimizedAffinity -2.97952867
REMARK minimizedRMSD -1
REMARK  0 active torsions:
REMARK  status: ('A' for Active; 'I' for Inactive)
ROOT
ATOM      1  C1  DEN d   1       1.164   1.210   0.834  0.00  0.00     0.130 A 
ATOM      2  C2  DEN d   1       1.005  -0.012   0.049  0.00  0.00    -0.031 A 
ATOM      3  C3  DEN d   1       1.043   0.356  -1.380  0.00  0.00     0.027 A 
ATOM      4  C4  DEN d   1       1.334   2.686  -2.449  0.00  0.00     0.027 A 
ATOM      5  C5  DEN d   1       1.494   4.029  -2.188  0.00  0.00    -0.003 A 
ATOM      6  C6  DEN d   1       1.520   4.526  -0.912  0.00  0.00     0.001 A 
ATOM      7  C7  DEN d   1       1.430   3.669   0.153  0.00  0.00     0.017 A 
ATOM      8  C8  DEN d   1       1.262   2.314  -0.102  0.00  0.00    -0.094 A 
ATOM      9  C9  DEN d   1       1.250   1.830  -1.399  0.00  0.00    -0.072 A 
ENDROOT
TORSDOF 0
ENDMDL
