MODEL 1
REMARK minimizedAffinity -5.01600313
REMARK minimizedRMSD -1
REMARK  0 active torsions:
REMARK  status: ('A' for Active; 'I' for Inactive)
ROOT
ATOM      1  C1  DEN d   1       1.396   0.810  -2.035  0.00  0.00     0.130 A 
ATOM      2  C2  DEN d   1       1.371  -0.464  -1.321  0.00  0.00    -0.031 A 
ATOM      3  C3  DEN d   1       1.219  -0.177   0.120  0.00  0.00     0.027 A 
ATOM      4  C4  DEN d   1       1.015   2.103   1.307  0.00  0.00     0.027 A 
ATOM      5  C5  DEN d   1       0.995   3.468   1.121  0.00  0.00    -0.003 A 
ATOM      6  C6  DEN d   1       1.140   4.039  -0.115  0.00  0.00     0.001 A 
ATOM      7  C7  DEN d   1       1.267   3.240  -1.221  0.00  0.00     0.017 A 
ATOM      8  C8  DEN d   1       1.295   1.863  -1.041  0.00  0.00    -0.094 A 
ATOM      9  C9  DEN d   1       1.134   1.305   0.216  0.00  0.00    -0.072 A 
ENDROOT
TORSDOF 0
ENDMDL
