MODEL 1
REMARK minimizedAffinity -2.05287313
REMARK minimizedRMSD -1
REMARK  3 active torsions:
REMARK  status: ('A' for Active; 'I' for Inactive)
REMARK    1  A    between atoms: C3'_2  and  C2'_3 
REMARK    2  A    between atoms: C2'_3  and  C1'_4 
REMARK    3  A    between atoms: C1'_4  and  C1_5 
ROOT
ATOM      1  C1  N4B d   1      -1.415   5.918  -4.170  0.00  0.00    -0.075 A 
ATOM      2  C2  N4B d   1      -1.086   5.970  -2.797  0.00  0.00     0.002 A 
ATOM      3  C3  N4B d   1      -2.083   5.993  -1.853  0.00  0.00     0.002 A 
ATOM      4  C4  N4B d   1      -3.410   5.985  -2.256  0.00  0.00    -0.004 A 
ATOM      5  C5  N4B d   1      -3.719   5.909  -3.582  0.00  0.00     0.002 A 
ATOM      6  C6  N4B d   1      -2.728   5.881  -4.542  0.00  0.00     0.002 A 
ENDROOT
BRANCH   1   7
ATOM      7  C1' N4B d   1      -0.362   5.978  -5.242  0.00  0.00     0.057 C 
BRANCH   7   8
ATOM      8  C2' N4B d   1       1.017   5.998  -4.588  0.00  0.00     0.009 C 
BRANCH   8   9
ATOM      9  C3' N4B d   1       2.125   5.728  -5.591  0.00  0.00     0.004 C 
ATOM     10  C4' N4B d   1       3.177   4.801  -5.059  0.00  0.00     0.003 C 
ENDBRANCH   8   9
ENDBRANCH   7   8
ENDBRANCH   1   7
TORSDOF 3
ENDMDL
