MODEL 1
REMARK minimizedAffinity 4.86632395
REMARK minimizedRMSD -1
REMARK  3 active torsions:
REMARK  status: ('A' for Active; 'I' for Inactive)
REMARK    1  A    between atoms: C3'_2  and  C2'_3 
REMARK    2  A    between atoms: C2'_3  and  C1'_4 
REMARK    3  A    between atoms: C1'_4  and  C1_5 
ROOT
ATOM      1  C1  N4B d   1      -0.295   5.934  -3.400  0.00  0.00    -0.075 A 
ATOM      2  C2  N4B d   1       1.095   5.967  -3.642  0.00  0.00     0.002 A 
ATOM      3  C3  N4B d   1       1.567   5.999  -4.931  0.00  0.00     0.002 A 
ATOM      4  C4  N4B d   1       0.672   5.979  -5.990  0.00  0.00    -0.004 A 
ATOM      5  C5  N4B d   1      -0.671   5.973  -5.747  0.00  0.00     0.002 A 
ATOM      6  C6  N4B d   1      -1.159   5.945  -4.456  0.00  0.00     0.002 A 
ENDROOT
BRANCH   1   7
ATOM      7  C1' N4B d   1      -0.857   5.812  -2.009  0.00  0.00     0.057 C 
BRANCH   7   8
ATOM      8  C2' N4B d   1       0.247   5.351  -1.062  0.00  0.00     0.009 C 
BRANCH   8   9
ATOM      9  C3' N4B d   1       0.011   3.938  -0.559  0.00  0.00     0.004 C 
ATOM     10  C4' N4B d   1       1.197   3.373   0.165  0.00  0.00     0.003 C 
ENDBRANCH   8   9
ENDBRANCH   7   8
ENDBRANCH   1   7
TORSDOF 3
ENDMDL
