MODEL 1
REMARK minimizedAffinity 0.817870498
REMARK minimizedRMSD -1
REMARK  3 active torsions:
REMARK  status: ('A' for Active; 'I' for Inactive)
REMARK    1  A    between atoms: C3'_2  and  C2'_3 
REMARK    2  A    between atoms: C2'_3  and  C1'_4 
REMARK    3  A    between atoms: C1'_4  and  C1_5 
ROOT
ATOM      1  C1  N4B d   1      -0.711   5.600  -1.752  0.00  0.00    -0.075 A 
ATOM      2  C2  N4B d   1      -0.141   5.646  -3.043  0.00  0.00     0.002 A 
ATOM      3  C3  N4B d   1      -0.941   5.855  -4.140  0.00  0.00     0.002 A 
ATOM      4  C4  N4B d   1      -2.310   6.000  -3.973  0.00  0.00    -0.004 A 
ATOM      5  C5  N4B d   1      -2.850   5.980  -2.720  0.00  0.00     0.002 A 
ATOM      6  C6  N4B d   1      -2.057   5.775  -1.609  0.00  0.00     0.002 A 
ENDROOT
BRANCH   1   7
ATOM      7  C1' N4B d   1       0.111   5.290  -0.532  0.00  0.00     0.057 C 
BRANCH   7   8
ATOM      8  C2' N4B d   1       0.837   3.964  -0.741  0.00  0.00     0.009 C 
BRANCH   8   9
ATOM      9  C3' N4B d   1       1.527   3.488   0.526  0.00  0.00     0.004 C 
ATOM     10  C4' N4B d   1       1.623   1.994   0.608  0.00  0.00     0.003 C 
ENDBRANCH   8   9
ENDBRANCH   7   8
ENDBRANCH   1   7
TORSDOF 3
ENDMDL
