MODEL 1
REMARK minimizedAffinity -1.79467297
REMARK minimizedRMSD -1
REMARK  3 active torsions:
REMARK  status: ('A' for Active; 'I' for Inactive)
REMARK    1  A    between atoms: C3'_2  and  C2'_3 
REMARK    2  A    between atoms: C2'_3  and  C1'_4 
REMARK    3  A    between atoms: C1'_4  and  C1_5 
ROOT
ATOM      1  C1  N4B d   1      -1.252   5.921  -3.378  0.00  0.00    -0.075 A 
ATOM      2  C2  N4B d   1      -1.682   5.861  -2.034  0.00  0.00     0.002 A 
ATOM      3  C3  N4B d   1      -3.024   5.871  -1.742  0.00  0.00     0.002 A 
ATOM      4  C4  N4B d   1      -3.949   5.957  -2.772  0.00  0.00    -0.004 A 
ATOM      5  C5  N4B d   1      -3.526   5.988  -4.068  0.00  0.00     0.002 A 
ATOM      6  C6  N4B d   1      -2.180   5.976  -4.376  0.00  0.00     0.002 A 
ENDROOT
BRANCH   1   7
ATOM      7  C1' N4B d   1       0.206   6.000  -3.742  0.00  0.00     0.057 C 
BRANCH   7   8
ATOM      8  C2' N4B d   1       0.427   5.296  -5.077  0.00  0.00     0.009 C 
BRANCH   8   9
ATOM      9  C3' N4B d   1       1.480   5.996  -5.920  0.00  0.00     0.004 C 
ATOM     10  C4' N4B d   1       2.833   5.999  -5.274  0.00  0.00     0.003 C 
ENDBRANCH   8   9
ENDBRANCH   7   8
ENDBRANCH   1   7
TORSDOF 3
ENDMDL
