MODEL 1
REMARK minimizedAffinity -2.39158058
REMARK minimizedRMSD -1
REMARK  3 active torsions:
REMARK  status: ('A' for Active; 'I' for Inactive)
REMARK    1  A    between atoms: C3'_2  and  C2'_3 
REMARK    2  A    between atoms: C2'_3  and  C1'_4 
REMARK    3  A    between atoms: C1'_4  and  C1_5 
ROOT
ATOM      1  C1  N4B d   1      -0.623   5.961  -4.377  0.00  0.00    -0.075 A 
ATOM      2  C2  N4B d   1      -1.951   5.972  -4.857  0.00  0.00     0.002 A 
ATOM      3  C3  N4B d   1      -3.001   5.993  -3.972  0.00  0.00     0.002 A 
ATOM      4  C4  N4B d   1      -2.748   5.985  -2.608  0.00  0.00    -0.004 A 
ATOM      5  C5  N4B d   1      -1.462   6.000  -2.153  0.00  0.00     0.002 A 
ATOM      6  C6  N4B d   1      -0.397   5.983  -3.031  0.00  0.00     0.002 A 
ENDROOT
BRANCH   1   7
ATOM      7  C1' N4B d   1       0.556   5.852  -5.305  0.00  0.00     0.057 C 
BRANCH   7   8
ATOM      8  C2' N4B d   1       1.843   5.995  -4.499  0.00  0.00     0.009 C 
BRANCH   8   9
ATOM      9  C3' N4B d   1       3.066   5.590  -5.304  0.00  0.00     0.004 C 
ATOM     10  C4' N4B d   1       4.354   5.904  -4.602  0.00  0.00     0.003 C 
ENDBRANCH   8   9
ENDBRANCH   7   8
ENDBRANCH   1   7
TORSDOF 3
ENDMDL
