MODEL 1
REMARK minimizedAffinity -3.26540446
REMARK minimizedRMSD -1
REMARK  3 active torsions:
REMARK  status: ('A' for Active; 'I' for Inactive)
REMARK    1  A    between atoms: C3'_2  and  C2'_3 
REMARK    2  A    between atoms: C2'_3  and  C1'_4 
REMARK    3  A    between atoms: C1'_4  and  C1_5 
ROOT
ATOM      1  C1  N4B d   1      -1.111   5.932  -3.907  0.00  0.00    -0.075 A 
ATOM      2  C2  N4B d   1      -0.714   5.984  -2.552  0.00  0.00     0.002 A 
ATOM      3  C3  N4B d   1      -1.662   6.000  -1.559  0.00  0.00     0.002 A 
ATOM      4  C4  N4B d   1      -3.008   5.983  -1.895  0.00  0.00    -0.004 A 
ATOM      5  C5  N4B d   1      -3.382   5.907  -3.205  0.00  0.00     0.002 A 
ATOM      6  C6  N4B d   1      -2.440   5.886  -4.213  0.00  0.00     0.002 A 
ENDROOT
BRANCH   1   7
ATOM      7  C1' N4B d   1      -0.113   5.999  -5.030  0.00  0.00     0.057 C 
BRANCH   7   8
ATOM      8  C2' N4B d   1       1.255   5.566  -4.511  0.00  0.00     0.009 C 
BRANCH   8   9
ATOM      9  C3' N4B d   1       2.352   5.801  -5.535  0.00  0.00     0.004 C 
ATOM     10  C4' N4B d   1       3.702   5.986  -4.909  0.00  0.00     0.003 C 
ENDBRANCH   8   9
ENDBRANCH   7   8
ENDBRANCH   1   7
TORSDOF 3
ENDMDL
