MODEL 1
REMARK minimizedAffinity 3.33630919
REMARK minimizedRMSD -1
REMARK  3 active torsions:
REMARK  status: ('A' for Active; 'I' for Inactive)
REMARK    1  A    between atoms: C3'_2  and  C2'_3 
REMARK    2  A    between atoms: C2'_3  and  C1'_4 
REMARK    3  A    between atoms: C1'_4  and  C1_5 
ROOT
ATOM      1  C1  N4B d   1       3.182   4.697  -5.048  0.00  0.00    -0.075 A 
ATOM      2  C2  N4B d   1       3.917   5.862  -5.360  0.00  0.00     0.002 A 
ATOM      3  C3  N4B d   1       5.231   5.968  -4.976  0.00  0.00     0.002 A 
ATOM      4  C4  N4B d   1       5.824   4.934  -4.267  0.00  0.00    -0.004 A 
ATOM      5  C5  N4B d   1       5.115   3.802  -3.992  0.00  0.00     0.002 A 
ATOM      6  C6  N4B d   1       3.795   3.680  -4.375  0.00  0.00     0.002 A 
ENDROOT
BRANCH   1   7
ATOM      7  C1' N4B d   1       1.719   4.571  -5.372  0.00  0.00     0.057 C 
BRANCH   7   8
ATOM      8  C2' N4B d   1       1.180   5.935  -5.793  0.00  0.00     0.009 C 
BRANCH   8   9
ATOM      9  C3' N4B d   1      -0.332   5.928  -5.940  0.00  0.00     0.004 C 
ATOM     10  C4' N4B d   1      -1.044   5.999  -4.622  0.00  0.00     0.003 C 
ENDBRANCH   8   9
ENDBRANCH   7   8
ENDBRANCH   1   7
TORSDOF 3
ENDMDL
