MODEL 1
REMARK minimizedAffinity 0.381220639
REMARK minimizedRMSD -1
REMARK  3 active torsions:
REMARK  status: ('A' for Active; 'I' for Inactive)
REMARK    1  A    between atoms: C3'_2  and  C2'_3 
REMARK    2  A    between atoms: C2'_3  and  C1'_4 
REMARK    3  A    between atoms: C1'_4  and  C1_5 
ROOT
ATOM      1  C1  N4B d   1       3.599   5.334  -5.557  0.00  0.00    -0.075 A 
ATOM      2  C2  N4B d   1       3.595   4.150  -4.787  0.00  0.00     0.002 A 
ATOM      3  C3  N4B d   1       4.781   3.531  -4.474  0.00  0.00     0.002 A 
ATOM      4  C4  N4B d   1       5.975   4.064  -4.933  0.00  0.00    -0.004 A 
ATOM      5  C5  N4B d   1       5.972   5.222  -5.655  0.00  0.00     0.002 A 
ATOM      6  C6  N4B d   1       4.789   5.857  -5.974  0.00  0.00     0.002 A 
ENDROOT
BRANCH   1   7
ATOM      7  C1' N4B d   1       2.324   5.999  -5.998  0.00  0.00     0.057 C 
BRANCH   7   8
ATOM      8  C2' N4B d   1       1.170   5.484  -5.143  0.00  0.00     0.009 C 
BRANCH   8   9
ATOM      9  C3' N4B d   1      -0.168   5.625  -5.850  0.00  0.00     0.004 C 
ATOM     10  C4' N4B d   1      -1.281   6.000  -4.917  0.00  0.00     0.003 C 
ENDBRANCH   8   9
ENDBRANCH   7   8
ENDBRANCH   1   7
TORSDOF 3
ENDMDL
