MODEL 1
REMARK minimizedAffinity 4.68029022
REMARK minimizedRMSD -1
REMARK  3 active torsions:
REMARK  status: ('A' for Active; 'I' for Inactive)
REMARK    1  A    between atoms: C3'_2  and  C2'_3 
REMARK    2  A    between atoms: C2'_3  and  C1'_4 
REMARK    3  A    between atoms: C1'_4  and  C1_5 
ROOT
ATOM      1  C1  N4B d   1       4.033   3.696  -4.481  0.00  0.00    -0.075 A 
ATOM      2  C2  N4B d   1       2.931   4.174  -5.223  0.00  0.00     0.002 A 
ATOM      3  C3  N4B d   1       3.055   5.313  -5.980  0.00  0.00     0.002 A 
ATOM      4  C4  N4B d   1       4.261   5.998  -5.997  0.00  0.00    -0.004 A 
ATOM      5  C5  N4B d   1       5.328   5.515  -5.297  0.00  0.00     0.002 A 
ATOM      6  C6  N4B d   1       5.219   4.369  -4.535  0.00  0.00     0.002 A 
ENDROOT
BRANCH   1   7
ATOM      7  C1' N4B d   1       3.920   2.504  -3.570  0.00  0.00     0.057 C 
BRANCH   7   8
ATOM      8  C2' N4B d   1       2.644   2.626  -2.742  0.00  0.00     0.009 C 
BRANCH   8   9
ATOM      9  C3' N4B d   1       2.927   2.562  -1.251  0.00  0.00     0.004 C 
ATOM     10  C4' N4B d   1       1.744   2.958  -0.418  0.00  0.00     0.003 C 
ENDBRANCH   8   9
ENDBRANCH   7   8
ENDBRANCH   1   7
TORSDOF 3
ENDMDL
