MODEL 1
REMARK minimizedAffinity 5.39263535
REMARK minimizedRMSD -1
REMARK  0 active torsions:
REMARK  status: ('A' for Active; 'I' for Inactive)
ROOT
ATOM      1  N1  IND d   1       1.230  -4.817   1.469  0.00  0.00    -0.196 N 
ATOM      2  C2  IND d   1       2.411  -4.276   1.044  0.00  0.00     0.054 A 
ATOM      3  C3  IND d   1       2.488  -2.975   1.402  0.00  0.00    -0.031 A 
ATOM      4  C4  IND d   1       0.837  -1.556   2.776  0.00  0.00     0.051 A 
ATOM      5  C5  IND d   1      -0.401  -1.602   3.354  0.00  0.00    -0.031 A 
ATOM      6  C6  IND d   1      -1.172  -2.746   3.336  0.00  0.00     0.015 A 
ATOM      7  C7  IND d   1      -0.728  -3.895   2.746  0.00  0.00    -0.016 A 
ATOM      8  C8  IND d   1       0.525  -3.850   2.151  0.00  0.00    -0.047 A 
ATOM      9  C9  IND d   1       1.295  -2.680   2.130  0.00  0.00    -0.096 A 
ATOM     10  HN1 IND d   1       0.971  -5.626   1.334  0.00  0.00     0.298 HD
ENDROOT
TORSDOF 0
ENDMDL
