MODEL 1
REMARK minimizedAffinity 10.5507755
REMARK minimizedRMSD -1
REMARK  0 active torsions:
REMARK  status: ('A' for Active; 'I' for Inactive)
ROOT
ATOM      1  N1  IND d   1       5.653  -2.497   0.575  0.00  0.00    -0.196 N 
ATOM      2  C2  IND d   1       5.918  -1.256   0.066  0.00  0.00     0.054 A 
ATOM      3  C3  IND d   1       4.775  -0.546  -0.063  0.00  0.00    -0.031 A 
ATOM      4  C4  IND d   1       2.370  -1.187   0.595  0.00  0.00     0.051 A 
ATOM      5  C5  IND d   1       1.623  -2.231   1.066  0.00  0.00    -0.031 A 
ATOM      6  C6  IND d   1       2.194  -3.440   1.406  0.00  0.00     0.015 A 
ATOM      7  C7  IND d   1       3.540  -3.648   1.299  0.00  0.00    -0.016 A 
ATOM      8  C8  IND d   1       4.300  -2.592   0.815  0.00  0.00    -0.047 A 
ATOM      9  C9  IND d   1       3.721  -1.377   0.428  0.00  0.00    -0.096 A 
ATOM     10  HN1 IND d   1       6.234  -3.113   0.721  0.00  0.00     0.298 HD
ENDROOT
TORSDOF 0
ENDMDL
