MODEL 1
REMARK minimizedAffinity 0.890322268
REMARK minimizedRMSD -1
REMARK  0 active torsions:
REMARK  status: ('A' for Active; 'I' for Inactive)
ROOT
ATOM      1  N1  IND d   1       2.456  -1.708   0.677  0.00  0.00    -0.196 N 
ATOM      2  C2  IND d   1       2.467  -3.053   0.919  0.00  0.00     0.054 A 
ATOM      3  C3  IND d   1       1.499  -3.379   1.806  0.00  0.00    -0.031 A 
ATOM      4  C4  IND d   1      -0.281  -1.881   2.908  0.00  0.00     0.051 A 
ATOM      5  C5  IND d   1      -0.669  -0.576   3.024  0.00  0.00    -0.031 A 
ATOM      6  C6  IND d   1      -0.024   0.439   2.347  0.00  0.00     0.015 A 
ATOM      7  C7  IND d   1       1.031   0.184   1.517  0.00  0.00    -0.016 A 
ATOM      8  C8  IND d   1       1.432  -1.140   1.403  0.00  0.00    -0.047 A 
ATOM      9  C9  IND d   1       0.808  -2.169   2.120  0.00  0.00    -0.096 A 
ATOM     10  HN1 IND d   1       2.997  -1.287   0.158  0.00  0.00     0.298 HD
ENDROOT
TORSDOF 0
ENDMDL
