MODEL 1
REMARK minimizedAffinity 4.65534019
REMARK minimizedRMSD -1
REMARK  0 active torsions:
REMARK  status: ('A' for Active; 'I' for Inactive)
ROOT
ATOM      1  N1  IND d   1       0.633  -2.154  -0.018  0.00  0.00    -0.196 N 
ATOM      2  C2  IND d   1       1.756  -2.824   0.379  0.00  0.00     0.054 A 
ATOM      3  C3  IND d   1       1.857  -2.817   1.727  0.00  0.00    -0.031 A 
ATOM      4  C4  IND d   1       0.240  -1.854   3.483  0.00  0.00     0.051 A 
ATOM      5  C5  IND d   1      -0.906  -1.119   3.604  0.00  0.00    -0.031 A 
ATOM      6  C6  IND d   1      -1.612  -0.684   2.501  0.00  0.00     0.015 A 
ATOM      7  C7  IND d   1      -1.204  -0.980   1.231  0.00  0.00    -0.016 A 
ATOM      8  C8  IND d   1      -0.038  -1.721   1.105  0.00  0.00    -0.047 A 
ATOM      9  C9  IND d   1       0.707  -2.128   2.219  0.00  0.00    -0.096 A 
ATOM     10  HN1 IND d   1       0.387  -2.024  -0.831  0.00  0.00     0.298 HD
ENDROOT
TORSDOF 0
ENDMDL
