MODEL 1
REMARK minimizedAffinity 5.52012491
REMARK minimizedRMSD -1
REMARK  0 active torsions:
REMARK  status: ('A' for Active; 'I' for Inactive)
ROOT
ATOM      1  N1  IND d   1       5.254   4.071   4.570  0.00  0.00    -0.196 N 
ATOM      2  C2  IND d   1       6.000   5.079   5.115  0.00  0.00     0.054 A 
ATOM      3  C3  IND d   1       5.196   5.998   5.695  0.00  0.00    -0.031 A 
ATOM      4  C4  IND d   1       2.635   5.999   5.956  0.00  0.00     0.051 A 
ATOM      5  C5  IND d   1       1.514   5.307   5.590  0.00  0.00    -0.031 A 
ATOM      6  C6  IND d   1       1.585   4.143   4.852  0.00  0.00     0.015 A 
ATOM      7  C7  IND d   1       2.785   3.619   4.461  0.00  0.00    -0.016 A 
ATOM      8  C8  IND d   1       3.924   4.323   4.825  0.00  0.00    -0.047 A 
ATOM      9  C9  IND d   1       3.856   5.527   5.537  0.00  0.00    -0.096 A 
ATOM     10  HN1 IND d   1       5.564   3.395   4.139  0.00  0.00     0.298 HD
ENDROOT
TORSDOF 0
ENDMDL
