MODEL 1
REMARK minimizedAffinity 9.78945446
REMARK minimizedRMSD -1
REMARK  0 active torsions:
REMARK  status: ('A' for Active; 'I' for Inactive)
ROOT
ATOM      1  N1  IND d   1       5.934   0.248  -1.447  0.00  0.00    -0.196 N 
ATOM      2  C2  IND d   1       5.947  -1.050  -1.017  0.00  0.00     0.054 A 
ATOM      3  C3  IND d   1       5.996  -1.097   0.333  0.00  0.00    -0.031 A 
ATOM      4  C4  IND d   1       5.962   0.830   2.040  0.00  0.00     0.051 A 
ATOM      5  C5  IND d   1       5.991   2.194   2.126  0.00  0.00    -0.031 A 
ATOM      6  C6  IND d   1       6.000   2.995   1.002  0.00  0.00     0.015 A 
ATOM      7  C7  IND d   1       5.969   2.460  -0.254  0.00  0.00    -0.016 A 
ATOM      8  C8  IND d   1       5.946   1.075  -0.345  0.00  0.00    -0.047 A 
ATOM      9  C9  IND d   1       5.980   0.256   0.791  0.00  0.00    -0.096 A 
ATOM     10  HN1 IND d   1       5.921   0.504  -2.268  0.00  0.00     0.298 HD
ENDROOT
TORSDOF 0
ENDMDL
