MODEL 1
REMARK minimizedAffinity 8.89435768
REMARK minimizedRMSD -1
REMARK  0 active torsions:
REMARK  status: ('A' for Active; 'I' for Inactive)
ROOT
ATOM      1  N1  IND d   1       0.744  -3.104   0.618  0.00  0.00    -0.196 N 
ATOM      2  C2  IND d   1       1.963  -3.370   1.177  0.00  0.00     0.054 A 
ATOM      3  C3  IND d   1       2.064  -2.782   2.390  0.00  0.00    -0.031 A 
ATOM      4  C4  IND d   1       0.313  -1.420   3.697  0.00  0.00     0.051 A 
ATOM      5  C5  IND d   1      -0.937  -0.881   3.583  0.00  0.00    -0.031 A 
ATOM      6  C6  IND d   1      -1.708  -1.060   2.452  0.00  0.00     0.015 A 
ATOM      7  C7  IND d   1      -1.259  -1.799   1.394  0.00  0.00    -0.016 A 
ATOM      8  C8  IND d   1       0.013  -2.343   1.504  0.00  0.00    -0.047 A 
ATOM      9  C9  IND d   1       0.816  -2.129   2.632  0.00  0.00    -0.096 A 
ATOM     10  HN1 IND d   1       0.478  -3.367  -0.156  0.00  0.00     0.298 HD
ENDROOT
TORSDOF 0
ENDMDL
