MODEL 1
REMARK minimizedAffinity 4.29251432
REMARK minimizedRMSD -1
REMARK  0 active torsions:
REMARK  status: ('A' for Active; 'I' for Inactive)
ROOT
ATOM      1  N1  IND d   1      -2.732   0.428   4.078  0.00  0.00    -0.196 N 
ATOM      2  C2  IND d   1      -3.631   0.868   3.147  0.00  0.00     0.054 A 
ATOM      3  C3  IND d   1      -3.294   0.418   1.918  0.00  0.00    -0.031 A 
ATOM      4  C4  IND d   1      -1.364  -1.135   1.217  0.00  0.00     0.051 A 
ATOM      5  C5  IND d   1      -0.256  -1.766   1.709  0.00  0.00    -0.031 A 
ATOM      6  C6  IND d   1       0.088  -1.699   3.044  0.00  0.00     0.015 A 
ATOM      7  C7  IND d   1      -0.672  -1.005   3.942  0.00  0.00    -0.016 A 
ATOM      8  C8  IND d   1      -1.793  -0.357   3.444  0.00  0.00    -0.047 A 
ATOM      9  C9  IND d   1      -2.124  -0.385   2.083  0.00  0.00    -0.096 A 
ATOM     10  HN1 IND d   1      -2.749   0.611   4.918  0.00  0.00     0.298 HD
ENDROOT
TORSDOF 0
ENDMDL
