MODEL 1
REMARK minimizedAffinity 1.21241748
REMARK minimizedRMSD -1
REMARK  0 active torsions:
REMARK  status: ('A' for Active; 'I' for Inactive)
ROOT
ATOM      1  N1  IND d   1       0.987  -5.116   1.807  0.00  0.00    -0.196 N 
ATOM      2  C2  IND d   1       2.113  -4.450   1.409  0.00  0.00     0.054 A 
ATOM      3  C3  IND d   1       2.049  -3.153   1.784  0.00  0.00    -0.031 A 
ATOM      4  C4  IND d   1       0.240  -1.931   3.148  0.00  0.00     0.051 A 
ATOM      5  C5  IND d   1      -0.995  -2.112   3.704  0.00  0.00    -0.031 A 
ATOM      6  C6  IND d   1      -1.645  -3.329   3.658  0.00  0.00     0.015 A 
ATOM      7  C7  IND d   1      -1.076  -4.418   3.061  0.00  0.00    -0.016 A 
ATOM      8  C8  IND d   1       0.175  -4.236   2.489  0.00  0.00    -0.047 A 
ATOM      9  C9  IND d   1       0.821  -2.993   2.495  0.00  0.00    -0.096 A 
ATOM     10  HN1 IND d   1       0.815  -5.945   1.657  0.00  0.00     0.298 HD
ENDROOT
TORSDOF 0
ENDMDL
