MODEL 1
REMARK minimizedAffinity 8.1284256
REMARK minimizedRMSD -1
REMARK  0 active torsions:
REMARK  status: ('A' for Active; 'I' for Inactive)
ROOT
ATOM      1  N1  IND d   1       0.212  -1.779   3.661  0.00  0.00    -0.196 N 
ATOM      2  C2  IND d   1      -0.861  -1.101   3.156  0.00  0.00     0.054 A 
ATOM      3  C3  IND d   1      -0.781  -1.030   1.808  0.00  0.00    -0.031 A 
ATOM      4  C4  IND d   1       0.971  -2.045   0.219  0.00  0.00     0.051 A 
ATOM      5  C5  IND d   1       2.159  -2.721   0.215  0.00  0.00    -0.031 A 
ATOM      6  C6  IND d   1       2.770  -3.128   1.384  0.00  0.00     0.015 A 
ATOM      7  C7  IND d   1       2.207  -2.883   2.604  0.00  0.00    -0.016 A 
ATOM      8  C8  IND d   1       1.004  -2.191   2.612  0.00  0.00    -0.047 A 
ATOM      9  C9  IND d   1       0.401  -1.738   1.432  0.00  0.00    -0.096 A 
ATOM     10  HN1 IND d   1       0.367  -1.924   4.495  0.00  0.00     0.298 HD
ENDROOT
TORSDOF 0
ENDMDL
