MODEL 1
REMARK minimizedAffinity 5.34988451
REMARK minimizedRMSD -1
REMARK  0 active torsions:
REMARK  status: ('A' for Active; 'I' for Inactive)
ROOT
ATOM      1  N1  IND d   1       5.996  -0.826   1.156  0.00  0.00    -0.196 N 
ATOM      2  C2  IND d   1       5.974  -1.085  -0.186  0.00  0.00     0.054 A 
ATOM      3  C3  IND d   1       5.932   0.070  -0.887  0.00  0.00    -0.031 A 
ATOM      4  C4  IND d   1       5.995   2.500  -0.040  0.00  0.00     0.051 A 
ATOM      5  C5  IND d   1       5.979   3.242   1.108  0.00  0.00    -0.031 A 
ATOM      6  C6  IND d   1       5.970   2.653   2.356  0.00  0.00     0.015 A 
ATOM      7  C7  IND d   1       5.989   1.295   2.503  0.00  0.00    -0.016 A 
ATOM      8  C8  IND d   1       5.998   0.539   1.339  0.00  0.00    -0.047 A 
ATOM      9  C9  IND d   1       5.964   1.130   0.070  0.00  0.00    -0.096 A 
ATOM     10  HN1 IND d   1       6.006  -1.417   1.781  0.00  0.00     0.298 HD
ENDROOT
TORSDOF 0
ENDMDL
