MODEL 1
REMARK minimizedAffinity 8.03249073
REMARK minimizedRMSD -1
REMARK  0 active torsions:
REMARK  status: ('A' for Active; 'I' for Inactive)
ROOT
ATOM      1  C4' PXY d   1       1.172   2.259  -1.747  0.00  0.00     0.077 C 
ATOM      2  C1' PXY d   1      -0.016   6.000  -5.990  0.00  0.00     0.077 C 
ATOM      3  C1  PXY d   1       0.308   5.019  -4.881  0.00  0.00    -0.082 A 
ATOM      4  C2  PXY d   1      -0.648   4.247  -4.390  0.00  0.00     0.003 A 
ATOM      5  C3  PXY d   1      -0.380   3.377  -3.365  0.00  0.00     0.003 A 
ATOM      6  C4  PXY d   1       0.892   3.257  -2.873  0.00  0.00    -0.082 A 
ATOM      7  C5  PXY d   1       1.876   4.033  -3.376  0.00  0.00     0.003 A 
ATOM      8  C6  PXY d   1       1.574   4.940  -4.388  0.00  0.00     0.003 A 
ENDROOT
TORSDOF 0
ENDMDL
