MODEL 1
REMARK minimizedAffinity 2.91899872
REMARK minimizedRMSD -1
REMARK  0 active torsions:
REMARK  status: ('A' for Active; 'I' for Inactive)
ROOT
ATOM      1  C4' PXY d   1      -5.955  -0.152  -0.078  0.00  0.00     0.077 C 
ATOM      2  C1' PXY d   1      -5.998   0.545  -5.816  0.00  0.00     0.077 C 
ATOM      3  C1  PXY d   1      -5.981   0.374  -4.310  0.00  0.00    -0.082 A 
ATOM      4  C2  PXY d   1      -5.976  -0.842  -3.789  0.00  0.00     0.003 A 
ATOM      5  C3  PXY d   1      -5.994  -1.015  -2.429  0.00  0.00     0.003 A 
ATOM      6  C4  PXY d   1      -5.962   0.069  -1.593  0.00  0.00    -0.082 A 
ATOM      7  C5  PXY d   1      -5.956   1.313  -2.116  0.00  0.00     0.003 A 
ATOM      8  C6  PXY d   1      -5.980   1.467  -3.499  0.00  0.00     0.003 A 
ENDROOT
TORSDOF 0
ENDMDL
