MODEL 1
REMARK minimizedAffinity 5.40731049
REMARK minimizedRMSD -1
REMARK  0 active torsions:
REMARK  status: ('A' for Active; 'I' for Inactive)
ROOT
ATOM      1  C4' PXY d   1      -5.602   2.951  -1.114  0.00  0.00     0.077 C 
ATOM      2  C1' PXY d   1      -6.000  -0.113  -6.000  0.00  0.00     0.077 C 
ATOM      3  C1  PXY d   1      -5.900   0.680  -4.711  0.00  0.00    -0.082 A 
ATOM      4  C2  PXY d   1      -5.980   2.000  -4.748  0.00  0.00     0.003 A 
ATOM      5  C3  PXY d   1      -5.859   2.735  -3.597  0.00  0.00     0.003 A 
ATOM      6  C4  PXY d   1      -5.708   2.109  -2.388  0.00  0.00    -0.082 A 
ATOM      7  C5  PXY d   1      -5.636   0.762  -2.341  0.00  0.00     0.003 A 
ATOM      8  C6  PXY d   1      -5.720   0.036  -3.526  0.00  0.00     0.003 A 
ENDROOT
TORSDOF 0
ENDMDL
