MODEL 1
REMARK minimizedAffinity 5.70545149
REMARK minimizedRMSD -1
REMARK  0 active torsions:
REMARK  status: ('A' for Active; 'I' for Inactive)
ROOT
ATOM      1  C4' PXY d   1       3.841   4.006  -4.393  0.00  0.00     0.077 C 
ATOM      2  C1' PXY d   1      -1.507   6.000  -5.310  0.00  0.00     0.077 C 
ATOM      3  C1  PXY d   1      -0.107   5.478  -5.057  0.00  0.00    -0.082 A 
ATOM      4  C2  PXY d   1       0.822   5.617  -5.989  0.00  0.00     0.003 A 
ATOM      5  C3  PXY d   1       2.085   5.122  -5.789  0.00  0.00     0.003 A 
ATOM      6  C4  PXY d   1       2.416   4.526  -4.602  0.00  0.00    -0.082 A 
ATOM      7  C5  PXY d   1       1.477   4.390  -3.642  0.00  0.00     0.003 A 
ATOM      8  C6  PXY d   1       0.190   4.862  -3.880  0.00  0.00     0.003 A 
ENDROOT
TORSDOF 0
ENDMDL
