MODEL 1
REMARK minimizedAffinity -2.38565159
REMARK minimizedRMSD -1
REMARK  0 active torsions:
REMARK  status: ('A' for Active; 'I' for Inactive)
ROOT
ATOM      1  C4' PXY d   1      -5.754   0.646   1.907  0.00  0.00     0.077 C 
ATOM      2  C1' PXY d   1      -0.753  -2.223   2.327  0.00  0.00     0.077 C 
ATOM      3  C1  PXY d   1      -2.066  -1.476   2.205  0.00  0.00    -0.082 A 
ATOM      4  C2  PXY d   1      -2.256  -0.368   2.903  0.00  0.00     0.003 A 
ATOM      5  C3  PXY d   1      -3.449   0.303   2.828  0.00  0.00     0.003 A 
ATOM      6  C4  PXY d   1      -4.440  -0.136   1.991  0.00  0.00    -0.082 A 
ATOM      7  C5  PXY d   1      -4.250  -1.260   1.269  0.00  0.00     0.003 A 
ATOM      8  C6  PXY d   1      -3.047  -1.949   1.389  0.00  0.00     0.003 A 
ENDROOT
TORSDOF 0
ENDMDL
