MODEL 1
REMARK minimizedAffinity 3.86612201
REMARK minimizedRMSD -1
REMARK  0 active torsions:
REMARK  status: ('A' for Active; 'I' for Inactive)
ROOT
ATOM      1  C4' PXY d   1      -4.033  -1.478  -0.278  0.00  0.00     0.077 C 
ATOM      2  C1' PXY d   1      -2.818   0.052   5.163  0.00  0.00     0.077 C 
ATOM      3  C1  PXY d   1      -3.150  -0.349   3.739  0.00  0.00    -0.082 A 
ATOM      4  C2  PXY d   1      -2.254  -1.004   3.019  0.00  0.00     0.003 A 
ATOM      5  C3  PXY d   1      -2.525  -1.346   1.719  0.00  0.00     0.003 A 
ATOM      6  C4  PXY d   1      -3.745  -1.061   1.167  0.00  0.00    -0.082 A 
ATOM      7  C5  PXY d   1      -4.668  -0.402   1.899  0.00  0.00     0.003 A 
ATOM      8  C6  PXY d   1      -4.358  -0.027   3.203  0.00  0.00     0.003 A 
ENDROOT
TORSDOF 0
ENDMDL
