MODEL 1
REMARK minimizedAffinity 1.37098491
REMARK minimizedRMSD -1
REMARK  0 active torsions:
REMARK  status: ('A' for Active; 'I' for Inactive)
ROOT
ATOM      1  C4' PXY d   1       1.409   2.779  -1.057  0.00  0.00     0.077 C 
ATOM      2  C1' PXY d   1       0.873   5.729  -5.999  0.00  0.00     0.077 C 
ATOM      3  C1  PXY d   1       1.026   4.954  -4.705  0.00  0.00    -0.082 A 
ATOM      4  C2  PXY d   1       0.002   4.264  -4.230  0.00  0.00     0.003 A 
ATOM      5  C3  PXY d   1       0.114   3.584  -3.045  0.00  0.00     0.003 A 
ATOM      6  C4  PXY d   1       1.302   3.567  -2.365  0.00  0.00    -0.082 A 
ATOM      7  C5  PXY d   1       2.355   4.260  -2.848  0.00  0.00     0.003 A 
ATOM      8  C6  PXY d   1       2.209   4.978  -4.032  0.00  0.00     0.003 A 
ENDROOT
TORSDOF 0
ENDMDL
