MODEL 1
REMARK minimizedAffinity 7.08971882
REMARK minimizedRMSD -1
REMARK  0 active torsions:
REMARK  status: ('A' for Active; 'I' for Inactive)
ROOT
ATOM      1  C4' PXY d   1      -6.000  -1.297  -6.000  0.00  0.00     0.077 C 
ATOM      2  C1' PXY d   1      -5.766   3.006  -2.147  0.00  0.00     0.077 C 
ATOM      3  C1  PXY d   1      -5.822   1.870  -3.149  0.00  0.00    -0.082 A 
ATOM      4  C2  PXY d   1      -5.816   2.139  -4.444  0.00  0.00     0.003 A 
ATOM      5  C3  PXY d   1      -5.899   1.124  -5.363  0.00  0.00     0.003 A 
ATOM      6  C4  PXY d   1      -5.935  -0.181  -4.953  0.00  0.00    -0.082 A 
ATOM      7  C5  PXY d   1      -5.931  -0.464  -3.633  0.00  0.00     0.003 A 
ATOM      8  C6  PXY d   1      -5.888   0.582  -2.715  0.00  0.00     0.003 A 
ENDROOT
TORSDOF 0
ENDMDL
