MODEL 1
REMARK minimizedAffinity 7.93411064
REMARK minimizedRMSD -1
REMARK  0 active torsions:
REMARK  status: ('A' for Active; 'I' for Inactive)
ROOT
ATOM      1  C4' PXY d   1       3.144   3.708  -3.469  0.00  0.00     0.077 C 
ATOM      2  C1' PXY d   1      -1.808   5.283  -6.000  0.00  0.00     0.077 C 
ATOM      3  C1  PXY d   1      -0.515   4.873  -5.324  0.00  0.00    -0.082 A 
ATOM      4  C2  PXY d   1       0.624   4.943  -5.994  0.00  0.00     0.003 A 
ATOM      5  C3  PXY d   1       1.799   4.546  -5.409  0.00  0.00     0.003 A 
ATOM      6  C4  PXY d   1       1.815   4.121  -4.107  0.00  0.00    -0.082 A 
ATOM      7  C5  PXY d   1       0.659   4.057  -3.414  0.00  0.00     0.003 A 
ATOM      8  C6  PXY d   1      -0.528   4.426  -4.039  0.00  0.00     0.003 A 
ENDROOT
TORSDOF 0
ENDMDL
