MODEL 1
REMARK minimizedAffinity 6.82823181
REMARK minimizedRMSD -1
REMARK  0 active torsions:
REMARK  status: ('A' for Active; 'I' for Inactive)
ROOT
ATOM      1  C4' PXY d   1       3.037  -0.899   2.114  0.00  0.00     0.077 C 
ATOM      2  C1' PXY d   1       1.393   2.295  -2.415  0.00  0.00     0.077 C 
ATOM      3  C1  PXY d   1       1.823   1.468  -1.220  0.00  0.00    -0.082 A 
ATOM      4  C2  PXY d   1       2.490   0.341  -1.410  0.00  0.00     0.003 A 
ATOM      5  C3  PXY d   1       2.859  -0.436  -0.342  0.00  0.00     0.003 A 
ATOM      6  C4  PXY d   1       2.590  -0.028   0.937  0.00  0.00    -0.082 A 
ATOM      7  C5  PXY d   1       1.920   1.126   1.140  0.00  0.00     0.003 A 
ATOM      8  C6  PXY d   1       1.518   1.879   0.041  0.00  0.00     0.003 A 
ENDROOT
TORSDOF 0
ENDMDL
