MODEL 1
REMARK minimizedAffinity 3.89258337
REMARK minimizedRMSD -1
REMARK  0 active torsions:
REMARK  status: ('A' for Active; 'I' for Inactive)
ROOT
ATOM      1  C4' PXY d   1      -2.223   5.626  -6.000  0.00  0.00     0.077 C 
ATOM      2  C1' PXY d   1       2.769   4.341  -3.383  0.00  0.00     0.077 C 
ATOM      3  C1  PXY d   1       1.456   4.666  -4.067  0.00  0.00    -0.082 A 
ATOM      4  C2  PXY d   1       1.396   5.672  -4.924  0.00  0.00     0.003 A 
ATOM      5  C3  PXY d   1       0.209   6.000  -5.528  0.00  0.00     0.003 A 
ATOM      6  C4  PXY d   1      -0.916   5.256  -5.293  0.00  0.00    -0.082 A 
ATOM      7  C5  PXY d   1      -0.861   4.221  -4.428  0.00  0.00     0.003 A 
ATOM      8  C6  PXY d   1       0.344   3.931  -3.794  0.00  0.00     0.003 A 
ENDROOT
TORSDOF 0
ENDMDL
