MODEL 1
REMARK minimizedAffinity 3.86883616
REMARK minimizedRMSD -1
REMARK  0 active torsions:
REMARK  status: ('A' for Active; 'I' for Inactive)
ROOT
ATOM      1  C4' PXY d   1       1.335   2.322  -1.558  0.00  0.00     0.077 C 
ATOM      2  C1' PXY d   1       0.294   5.883  -5.992  0.00  0.00     0.077 C 
ATOM      3  C1  PXY d   1       0.580   4.950  -4.831  0.00  0.00    -0.082 A 
ATOM      4  C2  PXY d   1      -0.354   4.105  -4.426  0.00  0.00     0.003 A 
ATOM      5  C3  PXY d   1      -0.123   3.277  -3.358  0.00  0.00     0.003 A 
ATOM      6  C4  PXY d   1       1.094   3.276  -2.731  0.00  0.00    -0.082 A 
ATOM      7  C5  PXY d   1       2.056   4.128  -3.146  0.00  0.00     0.003 A 
ATOM      8  C6  PXY d   1       1.788   4.989  -4.206  0.00  0.00     0.003 A 
ENDROOT
TORSDOF 0
ENDMDL
