MODEL 1
REMARK minimizedAffinity 3.62951136
REMARK minimizedRMSD -1
REMARK  0 active torsions:
REMARK  status: ('A' for Active; 'I' for Inactive)
ROOT
ATOM      1  C4' PXY d   1      -2.616  -3.229   0.849  0.00  0.00     0.077 C 
ATOM      2  C1' PXY d   1      -5.964   1.292   2.177  0.00  0.00     0.077 C 
ATOM      3  C1  PXY d   1      -5.077   0.111   1.836  0.00  0.00    -0.082 A 
ATOM      4  C2  PXY d   1      -5.289  -0.566   0.720  0.00  0.00     0.003 A 
ATOM      5  C3  PXY d   1      -4.516  -1.656   0.412  0.00  0.00     0.003 A 
ATOM      6  C4  PXY d   1      -3.481  -2.024   1.229  0.00  0.00    -0.082 A 
ATOM      7  C5  PXY d   1      -3.251  -1.332   2.365  0.00  0.00     0.003 A 
ATOM      8  C6  PXY d   1      -4.073  -0.254   2.679  0.00  0.00     0.003 A 
ENDROOT
TORSDOF 0
ENDMDL
