MODEL 1
REMARK minimizedAffinity 5.45973492
REMARK minimizedRMSD -1
REMARK  0 active torsions:
REMARK  status: ('A' for Active; 'I' for Inactive)
ROOT
ATOM      1  C4' PXY d   1      -1.449  -3.728   0.373  0.00  0.00     0.077 C 
ATOM      2  C1' PXY d   1      -6.000  -5.685   3.352  0.00  0.00     0.077 C 
ATOM      3  C1  PXY d   1      -4.812  -5.160   2.570  0.00  0.00    -0.082 A 
ATOM      4  C2  PXY d   1      -4.071  -5.999   1.865  0.00  0.00     0.003 A 
ATOM      5  C3  PXY d   1      -2.974  -5.546   1.178  0.00  0.00     0.003 A 
ATOM      6  C4  PXY d   1      -2.664  -4.212   1.170  0.00  0.00    -0.082 A 
ATOM      7  C5  PXY d   1      -3.422  -3.349   1.878  0.00  0.00     0.003 A 
ATOM      8  C6  PXY d   1      -4.506  -3.835   2.602  0.00  0.00     0.003 A 
ENDROOT
TORSDOF 0
ENDMDL
