MODEL 1
REMARK minimizedAffinity 4.04128218
REMARK minimizedRMSD -1
REMARK  0 active torsions:
REMARK  status: ('A' for Active; 'I' for Inactive)
ROOT
ATOM      1  C4' PXY d   1       1.873   2.655  -1.572  0.00  0.00     0.077 C 
ATOM      2  C1' PXY d   1       0.252   5.999  -6.000  0.00  0.00     0.077 C 
ATOM      3  C1  PXY d   1       0.668   5.128  -4.831  0.00  0.00    -0.082 A 
ATOM      4  C2  PXY d   1       1.882   4.601  -4.808  0.00  0.00     0.003 A 
ATOM      5  C3  PXY d   1       2.263   3.784  -3.774  0.00  0.00     0.003 A 
ATOM      6  C4  PXY d   1       1.413   3.549  -2.727  0.00  0.00    -0.082 A 
ATOM      7  C5  PXY d   1       0.177   4.092  -2.738  0.00  0.00     0.003 A 
ATOM      8  C6  PXY d   1      -0.205   4.884  -3.817  0.00  0.00     0.003 A 
ENDROOT
TORSDOF 0
ENDMDL
