MODEL 1
REMARK minimizedAffinity 10.8443251
REMARK minimizedRMSD -1
REMARK  0 active torsions:
REMARK  status: ('A' for Active; 'I' for Inactive)
ROOT
ATOM      1  C4' PXY d   1      -1.009  -4.092  -3.334  0.00  0.00     0.077 C 
ATOM      2  C1' PXY d   1      -5.823  -5.863  -5.998  0.00  0.00     0.077 C 
ATOM      3  C1  PXY d   1      -4.555  -5.411  -5.302  0.00  0.00    -0.082 A 
ATOM      4  C2  PXY d   1      -4.612  -4.438  -4.407  0.00  0.00     0.003 A 
ATOM      5  C3  PXY d   1      -3.470  -3.994  -3.791  0.00  0.00     0.003 A 
ATOM      6  C4  PXY d   1      -2.265  -4.588  -4.055  0.00  0.00    -0.082 A 
ATOM      7  C5  PXY d   1      -2.200  -5.589  -4.959  0.00  0.00     0.003 A 
ATOM      8  C6  PXY d   1      -3.365  -5.997  -5.604  0.00  0.00     0.003 A 
ENDROOT
TORSDOF 0
ENDMDL
