MODEL 1
REMARK minimizedAffinity 0.230084777
REMARK minimizedRMSD -1
REMARK  0 active torsions:
REMARK  status: ('A' for Active; 'I' for Inactive)
ROOT
ATOM      1  C4' PXY d   1       1.495   1.910  -1.040  0.00  0.00     0.077 C 
ATOM      2  C1' PXY d   1       0.436   5.329  -5.579  0.00  0.00     0.077 C 
ATOM      3  C1  PXY d   1       0.727   4.435  -4.390  0.00  0.00    -0.082 A 
ATOM      4  C2  PXY d   1      -0.096   3.440  -4.103  0.00  0.00     0.003 A 
ATOM      5  C3  PXY d   1       0.134   2.642  -3.012  0.00  0.00     0.003 A 
ATOM      6  C4  PXY d   1       1.246   2.832  -2.237  0.00  0.00    -0.082 A 
ATOM      7  C5  PXY d   1       2.097   3.839  -2.529  0.00  0.00     0.003 A 
ATOM      8  C6  PXY d   1       1.823   4.663  -3.617  0.00  0.00     0.003 A 
ENDROOT
TORSDOF 0
ENDMDL
