MODEL 1
REMARK minimizedAffinity -0.258790076
REMARK minimizedRMSD -1
REMARK  0 active torsions:
REMARK  status: ('A' for Active; 'I' for Inactive)
ROOT
ATOM      1  C4' PXY d   1      -5.988   3.000  -2.637  0.00  0.00     0.077 C 
ATOM      2  C1' PXY d   1      -5.988  -2.576  -4.160  0.00  0.00     0.077 C 
ATOM      3  C1  PXY d   1      -5.993  -1.117  -3.749  0.00  0.00    -0.082 A 
ATOM      4  C2  PXY d   1      -5.997  -0.176  -4.679  0.00  0.00     0.003 A 
ATOM      5  C3  PXY d   1      -5.969   1.149  -4.325  0.00  0.00     0.003 A 
ATOM      6  C4  PXY d   1      -5.992   1.514  -3.006  0.00  0.00    -0.082 A 
ATOM      7  C5  PXY d   1      -6.000   0.559  -2.051  0.00  0.00     0.003 A 
ATOM      8  C6  PXY d   1      -5.986  -0.780  -2.431  0.00  0.00     0.003 A 
ENDROOT
TORSDOF 0
ENDMDL
