MODEL 1
REMARK minimizedAffinity 1.95727837
REMARK minimizedRMSD -1
REMARK  0 active torsions:
REMARK  status: ('A' for Active; 'I' for Inactive)
ROOT
ATOM      1  C4' PXY d   1      -6.000   1.224  -3.316  0.00  0.00     0.077 C 
ATOM      2  C1' PXY d   1      -4.954   5.082   0.859  0.00  0.00     0.077 C 
ATOM      3  C1  PXY d   1      -5.229   4.080  -0.245  0.00  0.00    -0.082 A 
ATOM      4  C2  PXY d   1      -5.757   2.905   0.056  0.00  0.00     0.003 A 
ATOM      5  C3  PXY d   1      -5.982   1.974  -0.926  0.00  0.00     0.003 A 
ATOM      6  C4  PXY d   1      -5.714   2.270  -2.236  0.00  0.00    -0.082 A 
ATOM      7  C5  PXY d   1      -5.185   3.471  -2.552  0.00  0.00     0.003 A 
ATOM      8  C6  PXY d   1      -4.926   4.386  -1.535  0.00  0.00     0.003 A 
ENDROOT
TORSDOF 0
ENDMDL
