MODEL 1
REMARK minimizedAffinity 5.54390049
REMARK minimizedRMSD -1
REMARK  0 active torsions:
REMARK  status: ('A' for Active; 'I' for Inactive)
ROOT
ATOM      1  C4' PXY d   1      -5.945   2.309  -5.969  0.00  0.00     0.077 C 
ATOM      2  C1' PXY d   1      -5.993  -0.762  -1.071  0.00  0.00     0.077 C 
ATOM      3  C1  PXY d   1      -5.986   0.053  -2.349  0.00  0.00    -0.082 A 
ATOM      4  C2  PXY d   1      -5.964  -0.564  -3.519  0.00  0.00     0.003 A 
ATOM      5  C3  PXY d   1      -5.925   0.158  -4.684  0.00  0.00     0.003 A 
ATOM      6  C4  PXY d   1      -5.963   1.526  -4.653  0.00  0.00    -0.082 A 
ATOM      7  C5  PXY d   1      -5.996   2.164  -3.463  0.00  0.00     0.003 A 
ATOM      8  C6  PXY d   1      -5.993   1.413  -2.291  0.00  0.00     0.003 A 
ENDROOT
TORSDOF 0
ENDMDL
