MODEL 1
REMARK minimizedAffinity 15.6154442
REMARK minimizedRMSD -1
REMARK  1 active torsions:
REMARK  status: ('A' for Active; 'I' for Inactive)
REMARK    1  A    between atoms: C1_2  and  C2_3 
ROOT
ATOM      1  C2  UNL d   1       2.226  -2.386  -2.076  0.00  0.00    -0.076 A 
ATOM      2  C3  UNL d   1       1.237  -1.870  -1.221  0.00  0.00     0.004 A 
ATOM      3  C4  UNL d   1      -0.116  -2.080  -1.480  0.00  0.00    -0.003 A 
ATOM      4  C5  UNL d   1      -0.502  -2.811  -2.599  0.00  0.00     0.000 A 
ATOM      5  C6  UNL d   1       0.466  -3.345  -3.448  0.00  0.00     0.000 A 
ATOM      6  C7  UNL d   1       1.835  -3.156  -3.192  0.00  0.00    -0.073 A 
ATOM      7  C8  UNL d   1       2.837  -3.749  -4.145  0.00  0.00     0.078 C 
ENDROOT
BRANCH   1   8
ATOM      8  C1  UNL d   1       3.677  -2.102  -1.759  0.00  0.00     0.053 C 
ATOM      9  C   UNL d   1       3.974  -2.176  -0.269  0.00  0.00     0.018 C 
ENDBRANCH   1   8
TORSDOF 1
ENDMDL
