MODEL 1
REMARK minimizedAffinity 5.39666033
REMARK minimizedRMSD -1
REMARK  1 active torsions:
REMARK  status: ('A' for Active; 'I' for Inactive)
REMARK    1  A    between atoms: C1_2  and  C2_3 
ROOT
ATOM      1  C2  UNL d   1       4.098  -3.122   4.968  0.00  0.00    -0.076 A 
ATOM      2  C3  UNL d   1       3.551  -4.387   4.690  0.00  0.00     0.004 A 
ATOM      3  C4  UNL d   1       4.221  -5.554   5.053  0.00  0.00    -0.003 A 
ATOM      4  C5  UNL d   1       5.449  -5.475   5.699  0.00  0.00     0.000 A 
ATOM      5  C6  UNL d   1       5.999  -4.229   5.998  0.00  0.00     0.000 A 
ATOM      6  C7  UNL d   1       5.329  -3.043   5.654  0.00  0.00    -0.073 A 
ATOM      7  C8  UNL d   1       5.971  -1.726   5.995  0.00  0.00     0.078 C 
ENDROOT
BRANCH   1   8
ATOM      8  C1  UNL d   1       3.339  -1.891   4.526  0.00  0.00     0.053 C 
ATOM      9  C   UNL d   1       2.635  -1.196   5.681  0.00  0.00     0.018 C 
ENDBRANCH   1   8
TORSDOF 1
ENDMDL
