MODEL 1
REMARK minimizedAffinity 6.88117027
REMARK minimizedRMSD -1
REMARK  1 active torsions:
REMARK  status: ('A' for Active; 'I' for Inactive)
REMARK    1  A    between atoms: C1_2  and  C2_3 
ROOT
ATOM      1  C2  UNL d   1      -0.073  -3.736  -4.610  0.00  0.00    -0.076 A 
ATOM      2  C3  UNL d   1       0.435  -4.225  -5.825  0.00  0.00     0.004 A 
ATOM      3  C4  UNL d   1       1.803  -4.431  -6.000  0.00  0.00    -0.003 A 
ATOM      4  C5  UNL d   1       2.684  -4.152  -4.961  0.00  0.00     0.000 A 
ATOM      5  C6  UNL d   1       2.195  -3.683  -3.742  0.00  0.00     0.000 A 
ATOM      6  C7  UNL d   1       0.818  -3.485  -3.544  0.00  0.00    -0.073 A 
ATOM      7  C8  UNL d   1       0.346  -2.971  -2.212  0.00  0.00     0.078 C 
ENDROOT
BRANCH   1   8
ATOM      8  C1  UNL d   1      -1.563  -3.506  -4.488  0.00  0.00     0.053 C 
ATOM      9  C   UNL d   1      -2.376  -4.719  -4.913  0.00  0.00     0.018 C 
ENDBRANCH   1   8
TORSDOF 1
ENDMDL
