MODEL 1
REMARK minimizedAffinity 6.07453346
REMARK minimizedRMSD -1
REMARK  1 active torsions:
REMARK  status: ('A' for Active; 'I' for Inactive)
REMARK    1  A    between atoms: C1_2  and  C2_3 
ROOT
ATOM      1  C2  UNL d   1      -1.124  -2.582  -0.607  0.00  0.00    -0.076 A 
ATOM      2  C3  UNL d   1       0.096  -3.040  -0.078  0.00  0.00     0.004 A 
ATOM      3  C4  UNL d   1       0.291  -3.131   1.299  0.00  0.00    -0.003 A 
ATOM      4  C5  UNL d   1      -0.730  -2.766   2.170  0.00  0.00     0.000 A 
ATOM      5  C6  UNL d   1      -1.952  -2.326   1.662  0.00  0.00     0.000 A 
ATOM      6  C7  UNL d   1      -2.171  -2.244   0.277  0.00  0.00    -0.073 A 
ATOM      7  C8  UNL d   1      -3.507  -1.757  -0.215  0.00  0.00     0.078 C 
ENDROOT
BRANCH   1   8
ATOM      8  C1  UNL d   1      -1.269  -2.478  -2.108  0.00  0.00     0.053 C 
ATOM      9  C   UNL d   1       0.015  -2.833  -2.844  0.00  0.00     0.018 C 
ENDBRANCH   1   8
TORSDOF 1
ENDMDL
