MODEL 1
REMARK minimizedAffinity 9.27268696
REMARK minimizedRMSD -1
REMARK  1 active torsions:
REMARK  status: ('A' for Active; 'I' for Inactive)
REMARK    1  A    between atoms: C1_2  and  C2_3 
ROOT
ATOM      1  C2  UNL d   1      -2.997   4.142   0.840  0.00  0.00    -0.076 A 
ATOM      2  C3  UNL d   1      -3.294   5.515   0.870  0.00  0.00     0.004 A 
ATOM      3  C4  UNL d   1      -4.498   6.000   0.361  0.00  0.00    -0.003 A 
ATOM      4  C5  UNL d   1      -5.424   5.118  -0.185  0.00  0.00     0.000 A 
ATOM      5  C6  UNL d   1      -5.153   3.751  -0.207  0.00  0.00     0.000 A 
ATOM      6  C7  UNL d   1      -3.951   3.244   0.317  0.00  0.00    -0.073 A 
ATOM      7  C8  UNL d   1      -3.709   1.761   0.262  0.00  0.00     0.078 C 
ENDROOT
BRANCH   1   8
ATOM      8  C1  UNL d   1      -1.663   3.678   1.382  0.00  0.00     0.053 C 
ATOM      9  C   UNL d   1      -0.504   4.524   0.880  0.00  0.00     0.018 C 
ENDBRANCH   1   8
TORSDOF 1
ENDMDL
