MODEL 1
REMARK minimizedAffinity 13.9133911
REMARK minimizedRMSD -1
REMARK  1 active torsions:
REMARK  status: ('A' for Active; 'I' for Inactive)
REMARK    1  A    between atoms: C1_2  and  C2_3 
ROOT
ATOM      1  C2  UNL d   1       0.842  -3.422  -2.753  0.00  0.00    -0.076 A 
ATOM      2  C3  UNL d   1       0.996  -3.087  -1.396  0.00  0.00     0.004 A 
ATOM      3  C4  UNL d   1       0.045  -2.311  -0.737  0.00  0.00    -0.003 A 
ATOM      4  C5  UNL d   1      -1.076  -1.857  -1.423  0.00  0.00     0.000 A 
ATOM      5  C6  UNL d   1      -1.254  -2.195  -2.764  0.00  0.00     0.000 A 
ATOM      6  C7  UNL d   1      -0.313  -2.990  -3.440  0.00  0.00    -0.073 A 
ATOM      7  C8  UNL d   1      -0.552  -3.319  -4.888  0.00  0.00     0.078 C 
ENDROOT
BRANCH   1   8
ATOM      8  C1  UNL d   1       1.920  -4.245  -3.423  0.00  0.00     0.053 C 
ATOM      9  C   UNL d   1       2.620  -3.488  -4.541  0.00  0.00     0.018 C 
ENDBRANCH   1   8
TORSDOF 1
ENDMDL
