MODEL 1
REMARK minimizedAffinity 9.82650185
REMARK minimizedRMSD -1
REMARK  1 active torsions:
REMARK  status: ('A' for Active; 'I' for Inactive)
REMARK    1  A    between atoms: C1_2  and  C2_3 
ROOT
ATOM      1  C2  UNL d   1       1.287  -3.285  -3.187  0.00  0.00    -0.076 A 
ATOM      2  C3  UNL d   1       0.916  -2.939  -1.876  0.00  0.00     0.004 A 
ATOM      3  C4  UNL d   1      -0.417  -2.701  -1.547  0.00  0.00    -0.003 A 
ATOM      4  C5  UNL d   1      -1.402  -2.806  -2.523  0.00  0.00     0.000 A 
ATOM      5  C6  UNL d   1      -1.054  -3.165  -3.825  0.00  0.00     0.000 A 
ATOM      6  C7  UNL d   1       0.284  -3.425  -4.170  0.00  0.00    -0.073 A 
ATOM      7  C8  UNL d   1       0.603  -3.803  -5.590  0.00  0.00     0.078 C 
ENDROOT
BRANCH   1   8
ATOM      8  C1  UNL d   1       2.752  -3.505  -3.491  0.00  0.00     0.053 C 
ATOM      9  C   UNL d   1       3.013  -3.719  -4.974  0.00  0.00     0.018 C 
ENDBRANCH   1   8
TORSDOF 1
ENDMDL
