MODEL 1
REMARK minimizedAffinity 11.769721
REMARK minimizedRMSD -1
REMARK  1 active torsions:
REMARK  status: ('A' for Active; 'I' for Inactive)
REMARK    1  A    between atoms: C1_2  and  C2_3 
ROOT
ATOM      1  C2  UNL d   1      -0.876  -2.797  -0.778  0.00  0.00    -0.076 A 
ATOM      2  C3  UNL d   1      -1.381  -1.634  -0.170  0.00  0.00     0.004 A 
ATOM      3  C4  UNL d   1      -1.472  -1.532   1.217  0.00  0.00    -0.003 A 
ATOM      4  C5  UNL d   1      -1.059  -2.591   2.019  0.00  0.00     0.000 A 
ATOM      5  C6  UNL d   1      -0.538  -3.744   1.433  0.00  0.00     0.000 A 
ATOM      6  C7  UNL d   1      -0.425  -3.857   0.036  0.00  0.00    -0.073 A 
ATOM      7  C8  UNL d   1       0.138  -5.126  -0.542  0.00  0.00     0.078 C 
ENDROOT
BRANCH   1   8
ATOM      8  C1  UNL d   1      -0.827  -2.861  -2.288  0.00  0.00     0.053 C 
ATOM      9  C   UNL d   1       0.226  -1.934  -2.876  0.00  0.00     0.018 C 
ENDBRANCH   1   8
TORSDOF 1
ENDMDL
