MODEL 1
REMARK minimizedAffinity 6.97827101
REMARK minimizedRMSD -1
REMARK  1 active torsions:
REMARK  status: ('A' for Active; 'I' for Inactive)
REMARK    1  A    between atoms: C1_2  and  C2_3 
ROOT
ATOM      1  C2  UNL d   1      -0.144  -3.351  -1.693  0.00  0.00    -0.076 A 
ATOM      2  C3  UNL d   1      -0.085  -4.755  -1.679  0.00  0.00     0.004 A 
ATOM      3  C4  UNL d   1      -0.177  -5.489  -2.860  0.00  0.00    -0.003 A 
ATOM      4  C5  UNL d   1      -0.330  -4.829  -4.075  0.00  0.00     0.000 A 
ATOM      5  C6  UNL d   1      -0.372  -3.436  -4.109  0.00  0.00     0.000 A 
ATOM      6  C7  UNL d   1      -0.264  -2.681  -2.929  0.00  0.00    -0.073 A 
ATOM      7  C8  UNL d   1      -0.322  -1.181  -3.024  0.00  0.00     0.078 C 
ENDROOT
BRANCH   1   8
ATOM      8  C1  UNL d   1      -0.065  -2.610  -0.377  0.00  0.00     0.053 C 
ATOM      9  C   UNL d   1      -1.415  -2.510   0.317  0.00  0.00     0.018 C 
ENDBRANCH   1   8
TORSDOF 1
ENDMDL
