MODEL 1
REMARK minimizedAffinity 7.66946316
REMARK minimizedRMSD -1
REMARK  1 active torsions:
REMARK  status: ('A' for Active; 'I' for Inactive)
REMARK    1  A    between atoms: C1_2  and  C2_3 
ROOT
ATOM      1  C2  UNL d   1      -1.675  -2.573  -0.403  0.00  0.00    -0.076 A 
ATOM      2  C3  UNL d   1      -2.362  -2.657  -1.627  0.00  0.00     0.004 A 
ATOM      3  C4  UNL d   1      -1.671  -2.671  -2.837  0.00  0.00    -0.003 A 
ATOM      4  C5  UNL d   1      -0.282  -2.602  -2.844  0.00  0.00     0.000 A 
ATOM      5  C6  UNL d   1       0.416  -2.537  -1.638  0.00  0.00     0.000 A 
ATOM      6  C7  UNL d   1      -0.264  -2.538  -0.409  0.00  0.00    -0.073 A 
ATOM      7  C8  UNL d   1       0.539  -2.460   0.861  0.00  0.00     0.078 C 
ENDROOT
BRANCH   1   8
ATOM      8  C1  UNL d   1      -2.479  -2.535   0.877  0.00  0.00     0.053 C 
ATOM      9  C   UNL d   1      -3.910  -2.070   0.653  0.00  0.00     0.018 C 
ENDBRANCH   1   8
TORSDOF 1
ENDMDL
