MODEL 1
REMARK minimizedAffinity 13.6138706
REMARK minimizedRMSD -1
REMARK  1 active torsions:
REMARK  status: ('A' for Active; 'I' for Inactive)
REMARK    1  A    between atoms: C1_2  and  C2_3 
ROOT
ATOM      1  C2  UNL d   1      -1.217  -3.227  -3.338  0.00  0.00    -0.076 A 
ATOM      2  C3  UNL d   1       0.173  -3.235  -3.127  0.00  0.00     0.004 A 
ATOM      3  C4  UNL d   1       0.719  -2.793  -1.924  0.00  0.00    -0.003 A 
ATOM      4  C5  UNL d   1      -0.116  -2.335  -0.910  0.00  0.00     0.000 A 
ATOM      5  C6  UNL d   1      -1.498  -2.336  -1.095  0.00  0.00     0.000 A 
ATOM      6  C7  UNL d   1      -2.066  -2.794  -2.296  0.00  0.00    -0.073 A 
ATOM      7  C8  UNL d   1      -3.563  -2.767  -2.444  0.00  0.00     0.078 C 
ENDROOT
BRANCH   1   8
ATOM      8  C1  UNL d   1      -1.751  -3.693  -4.673  0.00  0.00     0.053 C 
ATOM      9  C   UNL d   1      -0.725  -3.559  -5.789  0.00  0.00     0.018 C 
ENDBRANCH   1   8
TORSDOF 1
ENDMDL
