MODEL 1
REMARK minimizedAffinity 7.13230419
REMARK minimizedRMSD -1
REMARK  1 active torsions:
REMARK  status: ('A' for Active; 'I' for Inactive)
REMARK    1  A    between atoms: C1_2  and  C2_3 
ROOT
ATOM      1  C2  UNL d   1      -0.398  -2.725  -4.321  0.00  0.00    -0.076 A 
ATOM      2  C3  UNL d   1      -1.357  -2.228  -3.422  0.00  0.00     0.004 A 
ATOM      3  C4  UNL d   1      -1.053  -2.056  -2.072  0.00  0.00    -0.003 A 
ATOM      4  C5  UNL d   1       0.215  -2.378  -1.601  0.00  0.00     0.000 A 
ATOM      5  C6  UNL d   1       1.184  -2.855  -2.483  0.00  0.00     0.000 A 
ATOM      6  C7  UNL d   1       0.900  -3.019  -3.849  0.00  0.00    -0.073 A 
ATOM      7  C8  UNL d   1       1.981  -3.543  -4.754  0.00  0.00     0.078 C 
ENDROOT
BRANCH   1   8
ATOM      8  C1  UNL d   1      -0.793  -2.916  -5.768  0.00  0.00     0.053 C 
ATOM      9  C   UNL d   1      -1.552  -4.214  -5.999  0.00  0.00     0.018 C 
ENDBRANCH   1   8
TORSDOF 1
ENDMDL
