MODEL 1
REMARK minimizedAffinity 14.4157982
REMARK minimizedRMSD -1
REMARK  1 active torsions:
REMARK  status: ('A' for Active; 'I' for Inactive)
REMARK    1  A    between atoms: C1_2  and  C2_3 
ROOT
ATOM      1  C2  UNL d   1      -2.900   1.201   5.359  0.00  0.00    -0.076 A 
ATOM      2  C3  UNL d   1      -1.927   0.192   5.254  0.00  0.00     0.004 A 
ATOM      3  C4  UNL d   1      -2.242  -1.139   5.523  0.00  0.00    -0.003 A 
ATOM      4  C5  UNL d   1      -3.535  -1.483   5.901  0.00  0.00     0.000 A 
ATOM      5  C6  UNL d   1      -4.517  -0.497   5.993  0.00  0.00     0.000 A 
ATOM      6  C7  UNL d   1      -4.221   0.847   5.709  0.00  0.00    -0.073 A 
ATOM      7  C8  UNL d   1      -5.318   1.869   5.831  0.00  0.00     0.078 C 
ENDROOT
BRANCH   1   8
ATOM      8  C1  UNL d   1      -2.494   2.631   5.082  0.00  0.00     0.053 C 
ATOM      9  C   UNL d   1      -2.005   2.831   3.655  0.00  0.00     0.018 C 
ENDBRANCH   1   8
TORSDOF 1
ENDMDL
