MODEL 1
REMARK minimizedAffinity 5.91062784
REMARK minimizedRMSD -1
REMARK  1 active torsions:
REMARK  status: ('A' for Active; 'I' for Inactive)
REMARK    1  A    between atoms: C1_2  and  C2_3 
ROOT
ATOM      1  C2  UNL d   1      -2.080  -2.195  -0.594  0.00  0.00    -0.076 A 
ATOM      2  C3  UNL d   1      -2.961  -2.614  -1.606  0.00  0.00     0.004 A 
ATOM      3  C4  UNL d   1      -2.503  -2.858  -2.900  0.00  0.00    -0.003 A 
ATOM      4  C5  UNL d   1      -1.157  -2.687  -3.203  0.00  0.00     0.000 A 
ATOM      5  C6  UNL d   1      -0.266  -2.288  -2.207  0.00  0.00     0.000 A 
ATOM      6  C7  UNL d   1      -0.708  -2.054  -0.894  0.00  0.00    -0.073 A 
ATOM      7  C8  UNL d   1       0.296  -1.619   0.139  0.00  0.00     0.078 C 
ENDROOT
BRANCH   1   8
ATOM      8  C1  UNL d   1      -2.638  -1.919   0.784  0.00  0.00     0.053 C 
ATOM      9  C   UNL d   1      -4.096  -2.330   0.915  0.00  0.00     0.018 C 
ENDBRANCH   1   8
TORSDOF 1
ENDMDL
