MODEL 1
REMARK minimizedAffinity -3.67845011
REMARK minimizedRMSD -1
REMARK  1 active torsions:
REMARK  status: ('A' for Active; 'I' for Inactive)
REMARK    1  A    between atoms: C3_4  and  O_7 
ROOT
ATOM      1  C   UNL d   1      -5.277   5.299   5.716  0.00  0.00    -0.033 A 
ATOM      2  C1  UNL d   1      -4.891   3.988   5.999  0.00  0.00     0.039 A 
ATOM      3  C2  UNL d   1      -4.624   3.096   4.959  0.00  0.00    -0.080 A 
ATOM      4  C3  UNL d   1      -4.746   3.528   3.641  0.00  0.00     0.150 A 
ATOM      5  C4  UNL d   1      -5.126   4.834   3.351  0.00  0.00    -0.007 A 
ATOM      6  C5  UNL d   1      -5.393   5.723   4.391  0.00  0.00     0.039 A 
ENDROOT
BRANCH   4   7
ATOM      7  O   UNL d   1      -4.501   2.692   2.592  0.00  0.00    -0.526 OA
ATOM      8  H5  UNL d   1      -4.276   1.815   2.943  0.00  0.00     0.418 HD
ENDBRANCH   4   7
TORSDOF 1
ENDMDL
