MODEL 1
REMARK minimizedAffinity -1.81742775
REMARK minimizedRMSD -1
REMARK  1 active torsions:
REMARK  status: ('A' for Active; 'I' for Inactive)
REMARK    1  A    between atoms: C3_4  and  O_7 
ROOT
ATOM      1  C   UNL d   1      -4.916   5.259   5.987  0.00  0.00    -0.033 A 
ATOM      2  C1  UNL d   1      -5.989   5.878   5.343  0.00  0.00     0.039 A 
ATOM      3  C2  UNL d   1      -5.995   6.000   3.953  0.00  0.00    -0.080 A 
ATOM      4  C3  UNL d   1      -4.924   5.497   3.218  0.00  0.00     0.150 A 
ATOM      5  C4  UNL d   1      -3.854   4.875   3.853  0.00  0.00    -0.007 A 
ATOM      6  C5  UNL d   1      -3.849   4.755   5.242  0.00  0.00     0.039 A 
ENDROOT
BRANCH   4   7
ATOM      7  O   UNL d   1      -4.883   5.596   1.859  0.00  0.00    -0.526 OA
ATOM      8  H5  UNL d   1      -5.675   6.074   1.561  0.00  0.00     0.418 HD
ENDBRANCH   4   7
TORSDOF 1
ENDMDL
