MODEL 1
REMARK minimizedAffinity -1.30012655
REMARK minimizedRMSD -1
REMARK  1 active torsions:
REMARK  status: ('A' for Active; 'I' for Inactive)
REMARK    1  A    between atoms: C3_4  and  O_7 
ROOT
ATOM      1  C   UNL d   1      -5.265   4.282  -0.017  0.00  0.00    -0.033 A 
ATOM      2  C1  UNL d   1      -6.000   3.702   1.019  0.00  0.00     0.039 A 
ATOM      3  C2  UNL d   1      -5.978   4.268   2.295  0.00  0.00    -0.080 A 
ATOM      4  C3  UNL d   1      -5.219   5.413   2.522  0.00  0.00     0.150 A 
ATOM      5  C4  UNL d   1      -4.488   5.999   1.494  0.00  0.00    -0.007 A 
ATOM      6  C5  UNL d   1      -4.510   5.431   0.220  0.00  0.00     0.039 A 
ENDROOT
BRANCH   4   7
ATOM      7  O   UNL d   1      -5.163   5.999   3.752  0.00  0.00    -0.526 OA
ATOM      8  H5  UNL d   1      -5.694   5.469   4.369  0.00  0.00     0.418 HD
ENDBRANCH   4   7
TORSDOF 1
ENDMDL
