MODEL 1
REMARK minimizedAffinity -0.668597162
REMARK minimizedRMSD -1
REMARK  1 active torsions:
REMARK  status: ('A' for Active; 'I' for Inactive)
REMARK    1  A    between atoms: C3_4  and  O_7 
ROOT
ATOM      1  C   UNL d   1      -2.918  -3.310  -3.676  0.00  0.00    -0.033 A 
ATOM      2  C1  UNL d   1      -2.800  -1.970  -4.047  0.00  0.00     0.039 A 
ATOM      3  C2  UNL d   1      -2.254  -1.042  -3.157  0.00  0.00    -0.080 A 
ATOM      4  C3  UNL d   1      -1.831  -1.468  -1.901  0.00  0.00     0.150 A 
ATOM      5  C4  UNL d   1      -1.942  -2.803  -1.526  0.00  0.00    -0.007 A 
ATOM      6  C5  UNL d   1      -2.488  -3.727  -2.416  0.00  0.00     0.039 A 
ENDROOT
BRANCH   4   7
ATOM      7  O   UNL d   1      -1.296  -0.599  -0.997  0.00  0.00    -0.526 OA
ATOM      8  H5  UNL d   1      -1.308   0.293  -1.383  0.00  0.00     0.418 HD
ENDBRANCH   4   7
TORSDOF 1
ENDMDL
