MODEL 1
REMARK minimizedAffinity 0.590147674
REMARK minimizedRMSD -1
REMARK  1 active torsions:
REMARK  status: ('A' for Active; 'I' for Inactive)
REMARK    1  A    between atoms: C3_4  and  O_7 
ROOT
ATOM      1  C   UNL d   1       2.305  -0.279  -3.744  0.00  0.00    -0.033 A 
ATOM      2  C1  UNL d   1       0.994   0.083  -4.059  0.00  0.00     0.039 A 
ATOM      3  C2  UNL d   1       0.082   0.367  -3.040  0.00  0.00    -0.080 A 
ATOM      4  C3  UNL d   1       0.494   0.287  -1.713  0.00  0.00     0.150 A 
ATOM      5  C4  UNL d   1       1.800  -0.069  -1.392  0.00  0.00    -0.007 A 
ATOM      6  C5  UNL d   1       2.709  -0.353  -2.410  0.00  0.00     0.039 A 
ENDROOT
BRANCH   4   7
ATOM      7  O   UNL d   1      -0.361   0.550  -0.684  0.00  0.00    -0.526 OA
ATOM      8  H5  UNL d   1      -1.235   0.755  -1.056  0.00  0.00     0.418 HD
ENDBRANCH   4   7
TORSDOF 1
ENDMDL
