MODEL 1
REMARK minimizedAffinity 6.28084707
REMARK minimizedRMSD -1
REMARK  1 active torsions:
REMARK  status: ('A' for Active; 'I' for Inactive)
REMARK    1  A    between atoms: C3_4  and  O_7 
ROOT
ATOM      1  C   UNL d   1      -5.933   5.999   1.776  0.00  0.00    -0.033 A 
ATOM      2  C1  UNL d   1      -4.770   5.572   1.131  0.00  0.00     0.039 A 
ATOM      3  C2  UNL d   1      -3.670   5.147   1.879  0.00  0.00    -0.080 A 
ATOM      4  C3  UNL d   1      -3.746   5.153   3.269  0.00  0.00     0.150 A 
ATOM      5  C4  UNL d   1      -4.902   5.574   3.918  0.00  0.00    -0.007 A 
ATOM      6  C5  UNL d   1      -5.999   5.999   3.170  0.00  0.00     0.039 A 
ENDROOT
BRANCH   4   7
ATOM      7  O   UNL d   1      -2.697   4.752   4.042  0.00  0.00    -0.526 OA
ATOM      8  H5  UNL d   1      -1.957   4.517   3.458  0.00  0.00     0.418 HD
ENDBRANCH   4   7
TORSDOF 1
ENDMDL
