MODEL 1
REMARK minimizedAffinity -0.99265182
REMARK minimizedRMSD -1
REMARK  1 active torsions:
REMARK  status: ('A' for Active; 'I' for Inactive)
REMARK    1  A    between atoms: C3_4  and  O_7 
ROOT
ATOM      1  C   UNL d   1      -4.753   5.966   4.073  0.00  0.00    -0.033 A 
ATOM      2  C1  UNL d   1      -3.557   5.937   3.352  0.00  0.00     0.039 A 
ATOM      3  C2  UNL d   1      -3.581   5.936   1.956  0.00  0.00    -0.080 A 
ATOM      4  C3  UNL d   1      -4.805   5.966   1.294  0.00  0.00     0.150 A 
ATOM      5  C4  UNL d   1      -6.000   5.999   2.005  0.00  0.00    -0.007 A 
ATOM      6  C5  UNL d   1      -5.974   5.999   3.399  0.00  0.00     0.039 A 
ENDROOT
BRANCH   4   7
ATOM      7  O   UNL d   1      -4.879   5.962  -0.067  0.00  0.00    -0.526 OA
ATOM      8  H5  UNL d   1      -3.976   5.909  -0.424  0.00  0.00     0.418 HD
ENDBRANCH   4   7
TORSDOF 1
ENDMDL
