MODEL 1
REMARK minimizedAffinity 3.15501571
REMARK minimizedRMSD -1
REMARK  1 active torsions:
REMARK  status: ('A' for Active; 'I' for Inactive)
REMARK    1  A    between atoms: C3_4  and  O_7 
ROOT
ATOM      1  C   UNL d   1      -5.366   4.868  -1.533  0.00  0.00    -0.033 A 
ATOM      2  C1  UNL d   1      -4.562   3.948  -0.857  0.00  0.00     0.039 A 
ATOM      3  C2  UNL d   1      -4.386   4.053   0.524  0.00  0.00    -0.080 A 
ATOM      4  C3  UNL d   1      -5.019   5.082   1.217  0.00  0.00     0.150 A 
ATOM      5  C4  UNL d   1      -5.824   6.000   0.551  0.00  0.00    -0.007 A 
ATOM      6  C5  UNL d   1      -5.998   5.893  -0.828  0.00  0.00     0.039 A 
ENDROOT
BRANCH   4   7
ATOM      7  O   UNL d   1      -4.873   5.228   2.564  0.00  0.00    -0.526 OA
ATOM      8  H5  UNL d   1      -4.266   4.540   2.885  0.00  0.00     0.418 HD
ENDBRANCH   4   7
TORSDOF 1
ENDMDL
