MODEL 1
REMARK minimizedAffinity -2.19693327
REMARK minimizedRMSD -1
REMARK  1 active torsions:
REMARK  status: ('A' for Active; 'I' for Inactive)
REMARK    1  A    between atoms: C3_4  and  O_7 
ROOT
ATOM      1  C   UNL d   1      -4.868   4.949  -0.505  0.00  0.00    -0.033 A 
ATOM      2  C1  UNL d   1      -5.772   4.082   0.112  0.00  0.00     0.039 A 
ATOM      3  C2  UNL d   1      -5.999   4.170   1.487  0.00  0.00    -0.080 A 
ATOM      4  C3  UNL d   1      -5.319   5.130   2.232  0.00  0.00     0.150 A 
ATOM      5  C4  UNL d   1      -4.420   5.999   1.623  0.00  0.00    -0.007 A 
ATOM      6  C5  UNL d   1      -4.193   5.908   0.250  0.00  0.00     0.039 A 
ENDROOT
BRANCH   4   7
ATOM      7  O   UNL d   1      -5.504   5.251   3.577  0.00  0.00    -0.526 OA
ATOM      8  H5  UNL d   1      -6.131   4.566   3.864  0.00  0.00     0.418 HD
ENDBRANCH   4   7
TORSDOF 1
ENDMDL
