MODEL 1
REMARK minimizedAffinity -2.85791039
REMARK minimizedRMSD -1
REMARK  1 active torsions:
REMARK  status: ('A' for Active; 'I' for Inactive)
REMARK    1  A    between atoms: C3_4  and  O_7 
ROOT
ATOM      1  C   UNL d   1      -4.773   5.997   5.271  0.00  0.00    -0.033 A 
ATOM      2  C1  UNL d   1      -5.987   5.998   4.581  0.00  0.00     0.039 A 
ATOM      3  C2  UNL d   1      -5.999   5.992   3.185  0.00  0.00    -0.080 A 
ATOM      4  C3  UNL d   1      -4.792   5.983   2.491  0.00  0.00     0.150 A 
ATOM      5  C4  UNL d   1      -3.579   5.977   3.172  0.00  0.00    -0.007 A 
ATOM      6  C5  UNL d   1      -3.569   5.985   4.566  0.00  0.00     0.039 A 
ENDROOT
BRANCH   4   7
ATOM      7  O   UNL d   1      -4.754   5.982   1.128  0.00  0.00    -0.526 OA
ATOM      8  H5  UNL d   1      -5.666   6.015   0.795  0.00  0.00     0.418 HD
ENDBRANCH   4   7
TORSDOF 1
ENDMDL
