MODEL 1
REMARK minimizedAffinity -2.06840515
REMARK minimizedRMSD -1
REMARK  1 active torsions:
REMARK  status: ('A' for Active; 'I' for Inactive)
REMARK    1  A    between atoms: C3_4  and  O_7 
ROOT
ATOM      1  C   UNL d   1      -4.848   5.676   3.709  0.00  0.00    -0.033 A 
ATOM      2  C1  UNL d   1      -3.698   5.253   3.038  0.00  0.00     0.039 A 
ATOM      3  C2  UNL d   1      -3.698   5.151   1.646  0.00  0.00    -0.080 A 
ATOM      4  C3  UNL d   1      -4.852   5.474   0.937  0.00  0.00     0.150 A 
ATOM      5  C4  UNL d   1      -5.999   5.899   1.598  0.00  0.00    -0.007 A 
ATOM      6  C5  UNL d   1      -5.998   6.000   2.989  0.00  0.00     0.039 A 
ENDROOT
BRANCH   4   7
ATOM      7  O   UNL d   1      -4.901   5.385  -0.423  0.00  0.00    -0.526 OA
ATOM      8  H5  UNL d   1      -4.046   5.051  -0.740  0.00  0.00     0.418 HD
ENDBRANCH   4   7
TORSDOF 1
ENDMDL
