MODEL 1
REMARK minimizedAffinity 2.56534791
REMARK minimizedRMSD -1
REMARK  1 active torsions:
REMARK  status: ('A' for Active; 'I' for Inactive)
REMARK    1  A    between atoms: C3_4  and  O_7 
ROOT
ATOM      1  C   UNL d   1      -2.563  -1.910   3.944  0.00  0.00    -0.033 A 
ATOM      2  C1  UNL d   1      -2.914  -2.003   5.293  0.00  0.00     0.039 A 
ATOM      3  C2  UNL d   1      -3.287  -0.859   6.000  0.00  0.00    -0.080 A 
ATOM      4  C3  UNL d   1      -3.306   0.371   5.348  0.00  0.00     0.150 A 
ATOM      5  C4  UNL d   1      -2.961   0.471   4.004  0.00  0.00    -0.007 A 
ATOM      6  C5  UNL d   1      -2.588  -0.672   3.300  0.00  0.00     0.039 A 
ENDROOT
BRANCH   4   7
ATOM      7  O   UNL d   1      -3.658   1.517   5.998  0.00  0.00    -0.526 OA
ATOM      8  H5  UNL d   1      -3.843   1.299   6.927  0.00  0.00     0.418 HD
ENDBRANCH   4   7
TORSDOF 1
ENDMDL
