MODEL 1
REMARK minimizedAffinity -4.23905802
REMARK minimizedRMSD -1
REMARK  1 active torsions:
REMARK  status: ('A' for Active; 'I' for Inactive)
REMARK    1  A    between atoms: C3_4  and  O_7 
ROOT
ATOM      1  C   UNL d   1      -5.500  -5.832   0.694  0.00  0.00    -0.033 A 
ATOM      2  C1  UNL d   1      -4.208  -6.000   0.192  0.00  0.00     0.039 A 
ATOM      3  C2  UNL d   1      -3.415  -4.885  -0.085  0.00  0.00    -0.080 A 
ATOM      4  C3  UNL d   1      -3.924  -3.610   0.144  0.00  0.00     0.150 A 
ATOM      5  C4  UNL d   1      -5.209  -3.435   0.647  0.00  0.00    -0.007 A 
ATOM      6  C5  UNL d   1      -6.000  -4.550   0.923  0.00  0.00     0.039 A 
ENDROOT
BRANCH   4   7
ATOM      7  O   UNL d   1      -3.189  -2.492  -0.116  0.00  0.00    -0.526 OA
ATOM      8  H5  UNL d   1      -2.333  -2.765  -0.487  0.00  0.00     0.418 HD
ENDBRANCH   4   7
TORSDOF 1
ENDMDL
