MODEL 1
REMARK minimizedAffinity -1.81605244
REMARK minimizedRMSD -1
REMARK  1 active torsions:
REMARK  status: ('A' for Active; 'I' for Inactive)
REMARK    1  A    between atoms: C3_4  and  O_7 
ROOT
ATOM      1  C   UNL d   1      -5.135   4.938   6.000  0.00  0.00    -0.033 A 
ATOM      2  C1  UNL d   1      -4.620   3.855   5.284  0.00  0.00     0.039 A 
ATOM      3  C2  UNL d   1      -4.709   3.830   3.891  0.00  0.00    -0.080 A 
ATOM      4  C3  UNL d   1      -5.313   4.894   3.226  0.00  0.00     0.150 A 
ATOM      5  C4  UNL d   1      -5.824   5.978   3.932  0.00  0.00    -0.007 A 
ATOM      6  C5  UNL d   1      -5.736   6.000   5.323  0.00  0.00     0.039 A 
ENDROOT
BRANCH   4   7
ATOM      7  O   UNL d   1      -5.427   4.913   1.868  0.00  0.00    -0.526 OA
ATOM      8  H5  UNL d   1      -5.056   4.087   1.516  0.00  0.00     0.418 HD
ENDBRANCH   4   7
TORSDOF 1
ENDMDL
