MODEL 1
REMARK minimizedAffinity 7.66298294
REMARK minimizedRMSD -1
REMARK  1 active torsions:
REMARK  status: ('A' for Active; 'I' for Inactive)
REMARK    1  A    between atoms: C3_4  and  O_7 
ROOT
ATOM      1  C   UNL d   1      -2.622  -3.256  -4.551  0.00  0.00    -0.033 A 
ATOM      2  C1  UNL d   1      -2.772  -3.888  -3.315  0.00  0.00     0.039 A 
ATOM      3  C2  UNL d   1      -2.350  -3.249  -2.147  0.00  0.00    -0.080 A 
ATOM      4  C3  UNL d   1      -1.783  -1.981  -2.229  0.00  0.00     0.150 A 
ATOM      5  C4  UNL d   1      -1.634  -1.344  -3.456  0.00  0.00    -0.007 A 
ATOM      6  C5  UNL d   1      -2.055  -1.984  -4.622  0.00  0.00     0.039 A 
ENDROOT
BRANCH   4   7
ATOM      7  O   UNL d   1      -1.352  -1.320  -1.117  0.00  0.00    -0.526 OA
ATOM      8  H5  UNL d   1      -1.492  -1.893  -0.345  0.00  0.00     0.418 HD
ENDBRANCH   4   7
TORSDOF 1
ENDMDL
