MODEL 1
REMARK minimizedAffinity -0.152340546
REMARK minimizedRMSD -1
REMARK  1 active torsions:
REMARK  status: ('A' for Active; 'I' for Inactive)
REMARK    1  A    between atoms: C3_4  and  O_7 
ROOT
ATOM      1  C   UNL d   1       1.651   0.399   5.260  0.00  0.00    -0.033 A 
ATOM      2  C1  UNL d   1       1.189   1.715   5.301  0.00  0.00     0.039 A 
ATOM      3  C2  UNL d   1       1.550   2.616   4.297  0.00  0.00    -0.080 A 
ATOM      4  C3  UNL d   1       2.371   2.187   3.258  0.00  0.00     0.150 A 
ATOM      5  C4  UNL d   1       2.833   0.876   3.208  0.00  0.00    -0.007 A 
ATOM      6  C5  UNL d   1       2.472  -0.022   4.212  0.00  0.00     0.039 A 
ENDROOT
BRANCH   4   7
ATOM      7  O   UNL d   1       2.754   3.031   2.258  0.00  0.00    -0.526 OA
ATOM      8  H5  UNL d   1       2.384   3.911   2.439  0.00  0.00     0.418 HD
ENDBRANCH   4   7
TORSDOF 1
ENDMDL
