MODEL 1
REMARK minimizedAffinity -0.438969821
REMARK minimizedRMSD -1
REMARK  2 active torsions:
REMARK  status: ('A' for Active; 'I' for Inactive)
REMARK    1  A    between atoms: C2'_3  and  C1'_4 
REMARK    2  A    between atoms: C1'_4  and  C1_5 
ROOT
ATOM      1  C1  I4B d   1      -0.446   0.440  -0.813  0.00  0.00    -0.075 A 
ATOM      2  C2  I4B d   1      -0.053   1.043   0.355  0.00  0.00     0.003 A 
ATOM      3  C3  I4B d   1      -0.395   0.469   1.604  0.00  0.00     0.002 A 
ATOM      4  C4  I4B d   1      -1.168  -0.674   1.638  0.00  0.00    -0.004 A 
ATOM      5  C5  I4B d   1      -1.546  -1.297   0.452  0.00  0.00     0.002 A 
ATOM      6  C6  I4B d   1      -1.173  -0.744  -0.782  0.00  0.00     0.003 A 
ENDROOT
BRANCH   1   7
ATOM      7  C1' I4B d   1      -0.097   1.091  -2.114  0.00  0.00     0.060 C 
BRANCH   7   8
ATOM      8  C2' I4B d   1      -1.003   2.292  -2.292  0.00  0.00    -0.013 C 
ATOM      9  C4' I4B d   1      -0.364   3.331  -3.176  0.00  0.00     0.013 C 
ATOM     10  C3' I4B d   1      -2.300   1.811  -2.873  0.00  0.00     0.013 C 
ENDBRANCH   7   8
ENDBRANCH   1   7
TORSDOF 2
ENDMDL
