MODEL 1
REMARK minimizedAffinity -4.70456791
REMARK minimizedRMSD -1
REMARK  2 active torsions:
REMARK  status: ('A' for Active; 'I' for Inactive)
REMARK    1  A    between atoms: C2'_3  and  C1'_4 
REMARK    2  A    between atoms: C1'_4  and  C1_5 
ROOT
ATOM      1  C1  I4B d   1       0.105  -0.099  -0.426  0.00  0.00    -0.075 A 
ATOM      2  C2  I4B d   1       1.135  -0.902  -0.006  0.00  0.00     0.003 A 
ATOM      3  C3  I4B d   1       1.211  -1.315   1.347  0.00  0.00     0.002 A 
ATOM      4  C4  I4B d   1       0.270  -0.864   2.249  0.00  0.00    -0.004 A 
ATOM      5  C5  I4B d   1      -0.787  -0.068   1.817  0.00  0.00     0.002 A 
ATOM      6  C6  I4B d   1      -0.878   0.307   0.468  0.00  0.00     0.003 A 
ENDROOT
BRANCH   1   7
ATOM      7  C1' I4B d   1       0.074   0.346  -1.854  0.00  0.00     0.060 C 
BRANCH   7   8
ATOM      8  C2' I4B d   1      -0.363   1.797  -1.881  0.00  0.00    -0.013 C 
ATOM      9  C4' I4B d   1       0.657   2.660  -2.576  0.00  0.00     0.013 C 
ATOM     10  C3' I4B d   1      -1.692   1.868  -2.571  0.00  0.00     0.013 C 
ENDBRANCH   7   8
ENDBRANCH   1   7
TORSDOF 2
ENDMDL
