MODEL 1
REMARK minimizedAffinity -0.830069482
REMARK minimizedRMSD -1
REMARK  2 active torsions:
REMARK  status: ('A' for Active; 'I' for Inactive)
REMARK    1  A    between atoms: C2'_3  and  C1'_4 
REMARK    2  A    between atoms: C1'_4  and  C1_5 
ROOT
ATOM      1  C1  I4B d   1      -0.425   0.386  -1.256  0.00  0.00    -0.075 A 
ATOM      2  C2  I4B d   1       0.775  -0.132  -1.675  0.00  0.00     0.003 A 
ATOM      3  C3  I4B d   1       1.621  -0.802  -0.758  0.00  0.00     0.002 A 
ATOM      4  C4  I4B d   1       1.253  -0.887   0.569  0.00  0.00    -0.004 A 
ATOM      5  C5  I4B d   1       0.026  -0.381   0.988  0.00  0.00     0.002 A 
ATOM      6  C6  I4B d   1      -0.825   0.249   0.067  0.00  0.00     0.003 A 
ENDROOT
BRANCH   1   7
ATOM      7  C1' I4B d   1      -1.279   1.117  -2.243  0.00  0.00     0.060 C 
BRANCH   7   8
ATOM      8  C2' I4B d   1      -0.883   2.579  -2.212  0.00  0.00    -0.013 C 
ATOM      9  C4' I4B d   1       0.001   2.930  -3.380  0.00  0.00     0.013 C 
ATOM     10  C3' I4B d   1      -2.138   3.399  -2.216  0.00  0.00     0.013 C 
ENDBRANCH   7   8
ENDBRANCH   1   7
TORSDOF 2
ENDMDL
