MODEL 1
REMARK minimizedAffinity -3.8685019
REMARK minimizedRMSD -1
REMARK  2 active torsions:
REMARK  status: ('A' for Active; 'I' for Inactive)
REMARK    1  A    between atoms: C2'_3  and  C1'_4 
REMARK    2  A    between atoms: C1'_4  and  C1_5 
ROOT
ATOM      1  C1  I4B d   1       1.350  -0.535   0.298  0.00  0.00    -0.075 A 
ATOM      2  C2  I4B d   1       1.278  -0.849  -1.036  0.00  0.00     0.003 A 
ATOM      3  C3  I4B d   1       0.387  -0.151  -1.886  0.00  0.00     0.002 A 
ATOM      4  C4  I4B d   1      -0.444   0.814  -1.354  0.00  0.00    -0.004 A 
ATOM      5  C5  I4B d   1      -0.353   1.147  -0.005  0.00  0.00     0.002 A 
ATOM      6  C6  I4B d   1       0.558   0.478   0.824  0.00  0.00     0.003 A 
ENDROOT
BRANCH   1   7
ATOM      7  C1' I4B d   1       2.279  -1.315   1.174  0.00  0.00     0.060 C 
BRANCH   7   8
ATOM      8  C2' I4B d   1       1.702  -1.325   2.575  0.00  0.00    -0.013 C 
ATOM      9  C4' I4B d   1       0.537  -2.274   2.678  0.00  0.00     0.013 C 
ATOM     10  C3' I4B d   1       2.798  -1.707   3.524  0.00  0.00     0.013 C 
ENDBRANCH   7   8
ENDBRANCH   1   7
TORSDOF 2
ENDMDL
