MODEL 1
REMARK minimizedAffinity -3.39982033
REMARK minimizedRMSD -1
REMARK  2 active torsions:
REMARK  status: ('A' for Active; 'I' for Inactive)
REMARK    1  A    between atoms: C2'_3  and  C1'_4 
REMARK    2  A    between atoms: C1'_4  and  C1_5 
ROOT
ATOM      1  C1  I4B d   1       0.132   0.254   0.722  0.00  0.00    -0.075 A 
ATOM      2  C2  I4B d   1       1.494   0.282   0.557  0.00  0.00     0.003 A 
ATOM      3  C3  I4B d   1       2.330  -0.489   1.401  0.00  0.00     0.002 A 
ATOM      4  C4  I4B d   1       1.769  -1.229   2.422  0.00  0.00    -0.004 A 
ATOM      5  C5  I4B d   1       0.386  -1.273   2.573  0.00  0.00     0.002 A 
ATOM      6  C6  I4B d   1      -0.439  -0.537   1.711  0.00  0.00     0.003 A 
ENDROOT
BRANCH   1   7
ATOM      7  C1' I4B d   1      -0.719   1.106  -0.165  0.00  0.00     0.060 C 
BRANCH   7   8
ATOM      8  C2' I4B d   1      -0.174   1.001  -1.575  0.00  0.00    -0.013 C 
ATOM      9  C4' I4B d   1      -0.509  -0.331  -2.191  0.00  0.00     0.013 C 
ATOM     10  C3' I4B d   1      -0.749   2.129  -2.379  0.00  0.00     0.013 C 
ENDBRANCH   7   8
ENDBRANCH   1   7
TORSDOF 2
ENDMDL
