MODEL 1
REMARK minimizedAffinity -3.47042251
REMARK minimizedRMSD -1
REMARK  2 active torsions:
REMARK  status: ('A' for Active; 'I' for Inactive)
REMARK    1  A    between atoms: C2'_3  and  C1'_4 
REMARK    2  A    between atoms: C1'_4  and  C1_5 
ROOT
ATOM      1  C1  I4B d   1       0.111  -0.184   0.047  0.00  0.00    -0.075 A 
ATOM      2  C2  I4B d   1       0.311  -0.362   1.393  0.00  0.00     0.003 A 
ATOM      3  C3  I4B d   1       1.409  -1.127   1.856  0.00  0.00     0.002 A 
ATOM      4  C4  I4B d   1       2.247  -1.734   0.944  0.00  0.00    -0.004 A 
ATOM      5  C5  I4B d   1       2.056  -1.534  -0.421  0.00  0.00     0.002 A 
ATOM      6  C6  I4B d   1       0.989  -0.744  -0.872  0.00  0.00     0.003 A 
ENDROOT
BRANCH   1   7
ATOM      7  C1' I4B d   1      -1.077   0.602  -0.408  0.00  0.00     0.060 C 
BRANCH   7   8
ATOM      8  C2' I4B d   1      -0.797   1.101  -1.812  0.00  0.00    -0.013 C 
ATOM      9  C4' I4B d   1      -2.055   1.131  -2.640  0.00  0.00     0.013 C 
ATOM     10  C3' I4B d   1      -0.186   2.466  -1.705  0.00  0.00     0.013 C 
ENDBRANCH   7   8
ENDBRANCH   1   7
TORSDOF 2
ENDMDL
