MODEL 1
REMARK minimizedAffinity -3.11406016
REMARK minimizedRMSD -1
REMARK  2 active torsions:
REMARK  status: ('A' for Active; 'I' for Inactive)
REMARK    1  A    between atoms: C2'_3  and  C1'_4 
REMARK    2  A    between atoms: C1'_4  and  C1_5 
ROOT
ATOM      1  C1  I4B d   1       0.096   0.065  -0.034  0.00  0.00    -0.075 A 
ATOM      2  C2  I4B d   1      -0.899  -0.112   0.894  0.00  0.00     0.003 A 
ATOM      3  C3  I4B d   1      -0.574  -0.370   2.248  0.00  0.00     0.002 A 
ATOM      4  C4  I4B d   1       0.750  -0.492   2.617  0.00  0.00    -0.004 A 
ATOM      5  C5  I4B d   1       1.758  -0.290   1.679  0.00  0.00     0.002 A 
ATOM      6  C6  I4B d   1       1.430   0.002   0.347  0.00  0.00     0.003 A 
ENDROOT
BRANCH   1   7
ATOM      7  C1' I4B d   1      -0.284   0.303  -1.461  0.00  0.00     0.060 C 
BRANCH   7   8
ATOM      8  C2' I4B d   1      -0.842   1.708  -1.568  0.00  0.00    -0.013 C 
ATOM      9  C4' I4B d   1       0.177   2.657  -2.142  0.00  0.00     0.013 C 
ATOM     10  C3' I4B d   1      -2.073   1.653  -2.422  0.00  0.00     0.013 C 
ENDBRANCH   7   8
ENDBRANCH   1   7
TORSDOF 2
ENDMDL
