MODEL 1
REMARK minimizedAffinity 0.413210481
REMARK minimizedRMSD -1
REMARK  1 active torsions:
REMARK  status: ('A' for Active; 'I' for Inactive)
REMARK    1  A    between atoms: C1_2  and  C2_3 
ROOT
ATOM      1  C2  UNL d   1       0.283  -2.069   0.897  0.00  0.00    -0.077 A 
ATOM      2  C3  UNL d   1      -1.009  -1.566   0.691  0.00  0.00     0.002 A 
ATOM      3  C4  UNL d   1      -1.660  -1.769  -0.527  0.00  0.00     0.002 A 
ATOM      4  C5  UNL d   1      -1.029  -2.479  -1.546  0.00  0.00    -0.004 A 
ATOM      5  C6  UNL d   1       0.257  -2.981  -1.352  0.00  0.00     0.002 A 
ATOM      6  C7  UNL d   1       0.910  -2.777  -0.135  0.00  0.00     0.002 A 
ENDROOT
BRANCH   1   7
ATOM      7  C1  UNL d   1       0.968  -1.893   2.228  0.00  0.00     0.055 C 
ATOM      8  C   UNL d   1       2.108  -0.889   2.135  0.00  0.00     0.019 C 
ENDBRANCH   1   7
TORSDOF 1
ENDMDL
