MODEL 1
REMARK minimizedAffinity 0.543566346
REMARK minimizedRMSD -1
REMARK  1 active torsions:
REMARK  status: ('A' for Active; 'I' for Inactive)
REMARK    1  A    between atoms: C1_2  and  C2_3 
ROOT
ATOM      1  C2  UNL d   1       1.715  -0.684   2.442  0.00  0.00    -0.077 A 
ATOM      2  C3  UNL d   1       0.879  -1.099   1.397  0.00  0.00     0.002 A 
ATOM      3  C4  UNL d   1       0.894  -0.431   0.171  0.00  0.00     0.002 A 
ATOM      4  C5  UNL d   1       1.747   0.654  -0.022  0.00  0.00    -0.004 A 
ATOM      5  C6  UNL d   1       2.581   1.076   1.012  0.00  0.00     0.002 A 
ATOM      6  C7  UNL d   1       2.566   0.410   2.238  0.00  0.00     0.002 A 
ENDROOT
BRANCH   1   7
ATOM      7  C1  UNL d   1       1.736  -1.434   3.748  0.00  0.00     0.055 C 
ATOM      8  C   UNL d   1       1.314  -2.884   3.560  0.00  0.00     0.019 C 
ENDBRANCH   1   7
TORSDOF 1
ENDMDL
