MODEL 1
REMARK minimizedAffinity 0.351024598
REMARK minimizedRMSD -1
REMARK  1 active torsions:
REMARK  status: ('A' for Active; 'I' for Inactive)
REMARK    1  A    between atoms: C1_2  and  C2_3 
ROOT
ATOM      1  C2  UNL d   1       1.913  -0.171   2.094  0.00  0.00    -0.077 A 
ATOM      2  C3  UNL d   1       2.362   1.079   1.647  0.00  0.00     0.002 A 
ATOM      3  C4  UNL d   1       1.689   1.746   0.621  0.00  0.00     0.002 A 
ATOM      4  C5  UNL d   1       0.562   1.172   0.037  0.00  0.00    -0.004 A 
ATOM      5  C6  UNL d   1       0.109  -0.073   0.474  0.00  0.00     0.002 A 
ATOM      6  C7  UNL d   1       0.781  -0.741   1.498  0.00  0.00     0.002 A 
ENDROOT
BRANCH   1   7
ATOM      7  C1  UNL d   1       2.608  -0.869   3.234  0.00  0.00     0.055 C 
ATOM      8  C   UNL d   1       1.679  -1.853   3.930  0.00  0.00     0.019 C 
ENDBRANCH   1   7
TORSDOF 1
ENDMDL
