MODEL 1
REMARK minimizedAffinity -1.85284352
REMARK minimizedRMSD -1
REMARK  1 active torsions:
REMARK  status: ('A' for Active; 'I' for Inactive)
REMARK    1  A    between atoms: C1_2  and  C2_3 
ROOT
ATOM      1  C2  UNL d   1       1.913  -0.313   2.461  0.00  0.00    -0.077 A 
ATOM      2  C3  UNL d   1       0.897  -0.749   1.600  0.00  0.00     0.002 A 
ATOM      3  C4  UNL d   1       0.577  -0.013   0.457  0.00  0.00     0.002 A 
ATOM      4  C5  UNL d   1       1.271   1.158   0.163  0.00  0.00    -0.004 A 
ATOM      5  C6  UNL d   1       2.283   1.600   1.014  0.00  0.00     0.002 A 
ATOM      6  C7  UNL d   1       2.603   0.868   2.158  0.00  0.00     0.002 A 
ENDROOT
BRANCH   1   7
ATOM      7  C1  UNL d   1       2.293  -1.131   3.668  0.00  0.00     0.055 C 
ATOM      8  C   UNL d   1       1.279  -2.234   3.931  0.00  0.00     0.019 C 
ENDBRANCH   1   7
TORSDOF 1
ENDMDL
