MODEL 1
REMARK minimizedAffinity 1.65924573
REMARK minimizedRMSD -1
REMARK  1 active torsions:
REMARK  status: ('A' for Active; 'I' for Inactive)
REMARK    1  A    between atoms: C1_2  and  C2_3 
ROOT
ATOM      1  C2  UNL d   1       0.576  -2.994   1.265  0.00  0.00    -0.077 A 
ATOM      2  C3  UNL d   1       1.007  -4.271   1.649  0.00  0.00     0.002 A 
ATOM      3  C4  UNL d   1       1.153  -5.282   0.697  0.00  0.00     0.002 A 
ATOM      4  C5  UNL d   1       0.875  -5.025  -0.644  0.00  0.00    -0.004 A 
ATOM      5  C6  UNL d   1       0.444  -3.758  -1.035  0.00  0.00     0.002 A 
ATOM      6  C7  UNL d   1       0.296  -2.747  -0.085  0.00  0.00     0.002 A 
ENDROOT
BRANCH   1   7
ATOM      7  C1  UNL d   1       0.465  -1.888   2.283  0.00  0.00     0.055 C 
ATOM      8  C   UNL d   1       1.191  -2.246   3.571  0.00  0.00     0.019 C 
ENDBRANCH   1   7
TORSDOF 1
ENDMDL
