MODEL 1
REMARK minimizedAffinity 0.0132433241
REMARK minimizedRMSD -1
REMARK  1 active torsions:
REMARK  status: ('A' for Active; 'I' for Inactive)
REMARK    1  A    between atoms: C1_2  and  C2_3 
ROOT
ATOM      1  C2  UNL d   1       1.897  -0.911   3.847  0.00  0.00    -0.077 A 
ATOM      2  C3  UNL d   1       1.189  -1.327   2.710  0.00  0.00     0.002 A 
ATOM      3  C4  UNL d   1       0.715  -2.637   2.614  0.00  0.00     0.002 A 
ATOM      4  C5  UNL d   1       0.941  -3.540   3.651  0.00  0.00    -0.004 A 
ATOM      5  C6  UNL d   1       1.646  -3.136   4.784  0.00  0.00     0.002 A 
ATOM      6  C7  UNL d   1       2.121  -1.827   4.882  0.00  0.00     0.002 A 
ENDROOT
BRANCH   1   7
ATOM      7  C1  UNL d   1       2.366   0.515   3.974  0.00  0.00     0.055 C 
ATOM      8  C   UNL d   1       2.529   1.168   2.609  0.00  0.00     0.019 C 
ENDBRANCH   1   7
TORSDOF 1
ENDMDL
