MODEL 1
REMARK minimizedAffinity -0.0954017118
REMARK minimizedRMSD -1
REMARK  1 active torsions:
REMARK  status: ('A' for Active; 'I' for Inactive)
REMARK    1  A    between atoms: C1_2  and  C2_3 
ROOT
ATOM      1  C2  UNL d   1       1.238  -1.262   2.397  0.00  0.00    -0.077 A 
ATOM      2  C3  UNL d   1       0.418  -1.103   1.272  0.00  0.00     0.002 A 
ATOM      3  C4  UNL d   1       0.649  -0.060   0.372  0.00  0.00     0.002 A 
ATOM      4  C5  UNL d   1       1.701   0.828   0.586  0.00  0.00    -0.004 A 
ATOM      5  C6  UNL d   1       2.521   0.678   1.704  0.00  0.00     0.002 A 
ATOM      6  C7  UNL d   1       2.292  -0.363   2.605  0.00  0.00     0.002 A 
ENDROOT
BRANCH   1   7
ATOM      7  C1  UNL d   1       1.022  -2.415   3.342  0.00  0.00     0.055 C 
ATOM      8  C   UNL d   1       1.575  -2.108   4.726  0.00  0.00     0.019 C 
ENDBRANCH   1   7
TORSDOF 1
ENDMDL
