MODEL 1
REMARK minimizedAffinity 3.51648498
REMARK minimizedRMSD -1
REMARK  1 active torsions:
REMARK  status: ('A' for Active; 'I' for Inactive)
REMARK    1  A    between atoms: C1_2  and  C2_3 
ROOT
ATOM      1  C2  UNL d   1       0.675   0.798   1.170  0.00  0.00    -0.077 A 
ATOM      2  C3  UNL d   1      -0.541   1.485   1.052  0.00  0.00     0.002 A 
ATOM      3  C4  UNL d   1      -0.590   2.731   0.423  0.00  0.00     0.002 A 
ATOM      4  C5  UNL d   1       0.572   3.298  -0.095  0.00  0.00    -0.004 A 
ATOM      5  C6  UNL d   1       1.787   2.623   0.019  0.00  0.00     0.002 A 
ATOM      6  C7  UNL d   1       1.838   1.378   0.648  0.00  0.00     0.002 A 
ENDROOT
BRANCH   1   7
ATOM      7  C1  UNL d   1       0.721  -0.568   1.805  0.00  0.00     0.055 C 
ATOM      8  C   UNL d   1      -0.457  -1.423   1.364  0.00  0.00     0.019 C 
ENDBRANCH   1   7
TORSDOF 1
ENDMDL
