MODEL 1
REMARK minimizedAffinity 2.55865312
REMARK minimizedRMSD -1
REMARK  1 active torsions:
REMARK  status: ('A' for Active; 'I' for Inactive)
REMARK    1  A    between atoms: C1_2  and  C2_3 
ROOT
ATOM      1  C2  UNL d   1       0.393  -0.021   0.838  0.00  0.00    -0.077 A 
ATOM      2  C3  UNL d   1      -0.381   0.991   0.255  0.00  0.00     0.002 A 
ATOM      3  C4  UNL d   1       0.201   2.210  -0.100  0.00  0.00     0.002 A 
ATOM      4  C5  UNL d   1       1.560   2.425   0.120  0.00  0.00    -0.004 A 
ATOM      5  C6  UNL d   1       2.338   1.425   0.702  0.00  0.00     0.002 A 
ATOM      6  C7  UNL d   1       1.757   0.207   1.058  0.00  0.00     0.002 A 
ENDROOT
BRANCH   1   7
ATOM      7  C1  UNL d   1      -0.223  -1.354   1.177  0.00  0.00     0.055 C 
ATOM      8  C   UNL d   1       0.618  -2.109   2.197  0.00  0.00     0.019 C 
ENDBRANCH   1   7
TORSDOF 1
ENDMDL
