MODEL 1
REMARK minimizedAffinity 10.7084227
REMARK minimizedRMSD -1
REMARK  2 active torsions:
REMARK  status: ('A' for Active; 'I' for Inactive)
REMARK    1  A    between atoms: C1_2  and  C2_3 
REMARK    2  A    between atoms: C2_3  and  C3_4 
ROOT
ATOM      1  C3  UNL d   1      -1.602  -3.114  -3.702  0.00  0.00    -0.075 A 
ATOM      2  C4  UNL d   1      -2.405  -4.193  -4.101  0.00  0.00     0.002 A 
ATOM      3  C5  UNL d   1      -3.397  -4.019  -5.066  0.00  0.00     0.002 A 
ATOM      4  C6  UNL d   1      -3.607  -2.765  -5.636  0.00  0.00    -0.004 A 
ATOM      5  C7  UNL d   1      -2.826  -1.682  -5.235  0.00  0.00     0.002 A 
ATOM      6  C8  UNL d   1      -1.830  -1.855  -4.273  0.00  0.00     0.002 A 
ENDROOT
BRANCH   1   7
ATOM      7  C2  UNL d   1      -0.507  -3.303  -2.680  0.00  0.00     0.056 C 
BRANCH   7   8
ATOM      8  C1  UNL d   1      -0.063  -2.006  -1.995  0.00  0.00     0.007 C 
ATOM      9  C   UNL d   1      -0.525  -1.902  -0.548  0.00  0.00     0.009 C 
ENDBRANCH   7   8
ENDBRANCH   1   7
TORSDOF 2
ENDMDL
