MODEL 1
REMARK minimizedAffinity 4.59998274
REMARK minimizedRMSD -1
REMARK  2 active torsions:
REMARK  status: ('A' for Active; 'I' for Inactive)
REMARK    1  A    between atoms: C1_2  and  C2_3 
REMARK    2  A    between atoms: C2_3  and  C3_4 
ROOT
ATOM      1  C3  UNL d   1       3.839   1.709  -0.461  0.00  0.00    -0.075 A 
ATOM      2  C4  UNL d   1       4.910   2.280   0.243  0.00  0.00     0.002 A 
ATOM      3  C5  UNL d   1       5.979   2.859  -0.442  0.00  0.00     0.002 A 
ATOM      4  C6  UNL d   1       5.997   2.865  -1.835  0.00  0.00    -0.004 A 
ATOM      5  C7  UNL d   1       4.946   2.286  -2.544  0.00  0.00     0.002 A 
ATOM      6  C8  UNL d   1       3.873   1.710  -1.861  0.00  0.00     0.002 A 
ENDROOT
BRANCH   1   7
ATOM      7  C2  UNL d   1       2.665   1.108   0.274  0.00  0.00     0.056 C 
BRANCH   7   8
ATOM      8  C1  UNL d   1       2.646  -0.424   0.272  0.00  0.00     0.007 C 
ATOM      9  C   UNL d   1       2.650  -1.027   1.670  0.00  0.00     0.009 C 
ENDBRANCH   7   8
ENDBRANCH   1   7
TORSDOF 2
ENDMDL
