MODEL 1
REMARK minimizedAffinity 1.76816881
REMARK minimizedRMSD -1
REMARK  2 active torsions:
REMARK  status: ('A' for Active; 'I' for Inactive)
REMARK    1  A    between atoms: C1_2  and  C2_3 
REMARK    2  A    between atoms: C2_3  and  C3_4 
ROOT
ATOM      1  C3  UNL d   1       4.755   2.277  -0.768  0.00  0.00    -0.075 A 
ATOM      2  C4  UNL d   1       4.517   2.205   0.612  0.00  0.00     0.002 A 
ATOM      3  C5  UNL d   1       3.379   1.563   1.102  0.00  0.00     0.002 A 
ATOM      4  C6  UNL d   1       2.462   0.996   0.220  0.00  0.00    -0.004 A 
ATOM      5  C7  UNL d   1       2.680   1.077  -1.154  0.00  0.00     0.002 A 
ATOM      6  C8  UNL d   1       3.820   1.714  -1.646  0.00  0.00     0.002 A 
ENDROOT
BRANCH   1   7
ATOM      7  C2  UNL d   1       6.000   2.945  -1.303  0.00  0.00     0.056 C 
BRANCH   7   8
ATOM      8  C1  UNL d   1       5.995   3.147  -2.822  0.00  0.00     0.007 C 
ATOM      9  C   UNL d   1       5.956   4.613  -3.232  0.00  0.00     0.009 C 
ENDBRANCH   7   8
ENDBRANCH   1   7
TORSDOF 2
ENDMDL
