MODEL 1
REMARK minimizedAffinity 18.5966377
REMARK minimizedRMSD -1
REMARK  2 active torsions:
REMARK  status: ('A' for Active; 'I' for Inactive)
REMARK    1  A    between atoms: C1_2  and  C2_3 
REMARK    2  A    between atoms: C2_3  and  C3_4 
ROOT
ATOM      1  C3  UNL d   1      -3.274   0.002  -1.083  0.00  0.00    -0.075 A 
ATOM      2  C4  UNL d   1      -3.734   0.792  -0.020  0.00  0.00     0.002 A 
ATOM      3  C5  UNL d   1      -5.088   0.811   0.314  0.00  0.00     0.002 A 
ATOM      4  C6  UNL d   1      -6.000   0.051  -0.415  0.00  0.00    -0.004 A 
ATOM      5  C7  UNL d   1      -5.556  -0.725  -1.484  0.00  0.00     0.002 A 
ATOM      6  C8  UNL d   1      -4.201  -0.750  -1.817  0.00  0.00     0.002 A 
ENDROOT
BRANCH   1   7
ATOM      7  C2  UNL d   1      -1.806  -0.047  -1.431  0.00  0.00     0.056 C 
BRANCH   7   8
ATOM      8  C1  UNL d   1      -1.105  -1.340  -1.001  0.00  0.00     0.007 C 
ATOM      9  C   UNL d   1       0.358  -1.135  -0.630  0.00  0.00     0.009 C 
ENDBRANCH   7   8
ENDBRANCH   1   7
TORSDOF 2
ENDMDL
