MODEL 1
REMARK minimizedAffinity 4.77436733
REMARK minimizedRMSD -1
REMARK  2 active torsions:
REMARK  status: ('A' for Active; 'I' for Inactive)
REMARK    1  A    between atoms: C1_2  and  C2_3 
REMARK    2  A    between atoms: C2_3  and  C3_4 
ROOT
ATOM      1  C3  UNL d   1       4.159   1.966  -0.187  0.00  0.00    -0.075 A 
ATOM      2  C4  UNL d   1       5.386   2.646  -0.173  0.00  0.00     0.002 A 
ATOM      3  C5  UNL d   1       5.999   3.024  -1.368  0.00  0.00     0.002 A 
ATOM      4  C6  UNL d   1       5.401   2.719  -2.589  0.00  0.00    -0.004 A 
ATOM      5  C7  UNL d   1       4.192   2.028  -2.615  0.00  0.00     0.002 A 
ATOM      6  C8  UNL d   1       3.573   1.653  -1.421  0.00  0.00     0.002 A 
ENDROOT
BRANCH   1   7
ATOM      7  C2  UNL d   1       3.476   1.580   1.103  0.00  0.00     0.056 C 
BRANCH   7   8
ATOM      8  C1  UNL d   1       3.293   2.742   2.084  0.00  0.00     0.007 C 
ATOM      9  C   UNL d   1       1.916   3.388   2.001  0.00  0.00     0.009 C 
ENDBRANCH   7   8
ENDBRANCH   1   7
TORSDOF 2
ENDMDL
