MODEL 1
REMARK minimizedAffinity 2.62333012
REMARK minimizedRMSD -1
REMARK  2 active torsions:
REMARK  status: ('A' for Active; 'I' for Inactive)
REMARK    1  A    between atoms: C1_2  and  C2_3 
REMARK    2  A    between atoms: C2_3  and  C3_4 
ROOT
ATOM      1  C3  UNL d   1       1.835   2.688   1.749  0.00  0.00    -0.075 A 
ATOM      2  C4  UNL d   1       0.737   3.040   0.951  0.00  0.00     0.002 A 
ATOM      3  C5  UNL d   1       0.534   2.426  -0.285  0.00  0.00     0.002 A 
ATOM      4  C6  UNL d   1       1.430   1.462  -0.743  0.00  0.00    -0.004 A 
ATOM      5  C7  UNL d   1       2.533   1.117   0.034  0.00  0.00     0.002 A 
ATOM      6  C8  UNL d   1       2.736   1.727   1.274  0.00  0.00     0.002 A 
ENDROOT
BRANCH   1   7
ATOM      7  C2  UNL d   1       2.043   3.328   3.101  0.00  0.00     0.056 C 
BRANCH   7   8
ATOM      8  C1  UNL d   1       1.033   2.883   4.164  0.00  0.00     0.007 C 
ATOM      9  C   UNL d   1       1.633   1.950   5.209  0.00  0.00     0.009 C 
ENDBRANCH   7   8
ENDBRANCH   1   7
TORSDOF 2
ENDMDL
