MODEL 1
REMARK minimizedAffinity -3.1030705
REMARK minimizedRMSD -1
REMARK  2 active torsions:
REMARK  status: ('A' for Active; 'I' for Inactive)
REMARK    1  A    between atoms: C1_2  and  C2_3 
REMARK    2  A    between atoms: C2_3  and  C3_4 
ROOT
ATOM      1  C3  UNL d   1       3.933   1.384   0.144  0.00  0.00    -0.075 A 
ATOM      2  C4  UNL d   1       5.264   1.804   0.280  0.00  0.00     0.002 A 
ATOM      3  C5  UNL d   1       5.992   2.220  -0.835  0.00  0.00     0.002 A 
ATOM      4  C6  UNL d   1       5.405   2.211  -2.098  0.00  0.00    -0.004 A 
ATOM      5  C7  UNL d   1       4.088   1.779  -2.247  0.00  0.00     0.002 A 
ATOM      6  C8  UNL d   1       3.356   1.367  -1.133  0.00  0.00     0.002 A 
ENDROOT
BRANCH   1   7
ATOM      7  C2  UNL d   1       3.129   0.961   1.351  0.00  0.00     0.056 C 
BRANCH   7   8
ATOM      8  C1  UNL d   1       3.478  -0.437   1.873  0.00  0.00     0.007 C 
ATOM      9  C   UNL d   1       4.032  -0.426   3.292  0.00  0.00     0.009 C 
ENDBRANCH   7   8
ENDBRANCH   1   7
TORSDOF 2
ENDMDL
