MODEL 1
REMARK minimizedAffinity 5.30697727
REMARK minimizedRMSD -1
REMARK  2 active torsions:
REMARK  status: ('A' for Active; 'I' for Inactive)
REMARK    1  A    between atoms: C1_2  and  C2_3 
REMARK    2  A    between atoms: C2_3  and  C3_4 
ROOT
ATOM      1  C3  UNL d   1       1.977   2.864   2.070  0.00  0.00    -0.075 A 
ATOM      2  C4  UNL d   1       0.992   2.761   1.078  0.00  0.00     0.002 A 
ATOM      3  C5  UNL d   1       1.273   2.135  -0.138  0.00  0.00     0.002 A 
ATOM      4  C6  UNL d   1       2.543   1.616  -0.380  0.00  0.00    -0.004 A 
ATOM      5  C7  UNL d   1       3.534   1.729   0.592  0.00  0.00     0.002 A 
ATOM      6  C8  UNL d   1       3.255   2.350   1.810  0.00  0.00     0.002 A 
ENDROOT
BRANCH   1   7
ATOM      7  C2  UNL d   1       1.671   3.514   3.398  0.00  0.00     0.056 C 
BRANCH   7   8
ATOM      8  C1  UNL d   1       0.914   2.608   4.375  0.00  0.00     0.007 C 
ATOM      9  C   UNL d   1       1.825   1.663   5.148  0.00  0.00     0.009 C 
ENDBRANCH   7   8
ENDBRANCH   1   7
TORSDOF 2
ENDMDL
