MODEL 1
REMARK minimizedAffinity -1.3825804
REMARK minimizedRMSD -1
REMARK  2 active torsions:
REMARK  status: ('A' for Active; 'I' for Inactive)
REMARK    1  A    between atoms: C1_2  and  C2_3 
REMARK    2  A    between atoms: C2_3  and  C3_4 
ROOT
ATOM      1  C3  UNL d   1       4.956   2.565  -1.512  0.00  0.00    -0.075 A 
ATOM      2  C4  UNL d   1       3.955   1.834  -2.169  0.00  0.00     0.002 A 
ATOM      3  C5  UNL d   1       2.993   1.136  -1.439  0.00  0.00     0.002 A 
ATOM      4  C6  UNL d   1       3.024   1.150  -0.046  0.00  0.00    -0.004 A 
ATOM      5  C7  UNL d   1       4.023   1.859   0.617  0.00  0.00     0.002 A 
ATOM      6  C8  UNL d   1       4.985   2.563  -0.111  0.00  0.00     0.002 A 
ENDROOT
BRANCH   1   7
ATOM      7  C2  UNL d   1       5.983   3.346  -2.295  0.00  0.00     0.056 C 
BRANCH   7   8
ATOM      8  C1  UNL d   1       5.999   4.846  -1.980  0.00  0.00     0.007 C 
ATOM      9  C   UNL d   1       5.523   5.709  -3.141  0.00  0.00     0.009 C 
ENDBRANCH   7   8
ENDBRANCH   1   7
TORSDOF 2
ENDMDL
