MODEL 1
REMARK minimizedAffinity 12.8038797
REMARK minimizedRMSD -1
REMARK  2 active torsions:
REMARK  status: ('A' for Active; 'I' for Inactive)
REMARK    1  A    between atoms: C1_2  and  C2_3 
REMARK    2  A    between atoms: C2_3  and  C3_4 
ROOT
ATOM      1  C3  UNL d   1       3.827   1.363  -0.119  0.00  0.00    -0.075 A 
ATOM      2  C4  UNL d   1       4.816   1.887   0.726  0.00  0.00     0.002 A 
ATOM      3  C5  UNL d   1       5.893   2.600   0.198  0.00  0.00     0.002 A 
ATOM      4  C6  UNL d   1       5.999   2.790  -1.178  0.00  0.00    -0.004 A 
ATOM      5  C7  UNL d   1       5.031   2.259  -2.028  0.00  0.00     0.002 A 
ATOM      6  C8  UNL d   1       3.950   1.549  -1.502  0.00  0.00     0.002 A 
ENDROOT
BRANCH   1   7
ATOM      7  C2  UNL d   1       2.644   0.615   0.448  0.00  0.00     0.056 C 
BRANCH   7   8
ATOM      8  C1  UNL d   1       2.995  -0.756   1.035  0.00  0.00     0.007 C 
ATOM      9  C   UNL d   1       3.004  -0.773   2.558  0.00  0.00     0.009 C 
ENDBRANCH   7   8
ENDBRANCH   1   7
TORSDOF 2
ENDMDL
