MODEL 1
REMARK minimizedAffinity 5.04683113
REMARK minimizedRMSD -1
REMARK  2 active torsions:
REMARK  status: ('A' for Active; 'I' for Inactive)
REMARK    1  A    between atoms: C1_2  and  C2_3 
REMARK    2  A    between atoms: C2_3  and  C3_4 
ROOT
ATOM      1  C3  UNL d   1       3.618   1.590  -0.871  0.00  0.00    -0.075 A 
ATOM      2  C4  UNL d   1       4.575   2.077   0.031  0.00  0.00     0.002 A 
ATOM      3  C5  UNL d   1       5.756   2.657  -0.433  0.00  0.00     0.002 A 
ATOM      4  C6  UNL d   1       5.999   2.749  -1.802  0.00  0.00    -0.004 A 
ATOM      5  C7  UNL d   1       5.063   2.254  -2.707  0.00  0.00     0.002 A 
ATOM      6  C8  UNL d   1       3.878   1.677  -2.245  0.00  0.00     0.002 A 
ENDROOT
BRANCH   1   7
ATOM      7  C2  UNL d   1       2.325   0.988  -0.375  0.00  0.00     0.056 C 
BRANCH   7   8
ATOM      8  C1  UNL d   1       2.314  -0.544  -0.365  0.00  0.00     0.007 C 
ATOM      9  C   UNL d   1       1.480  -1.146  -1.488  0.00  0.00     0.009 C 
ENDBRANCH   7   8
ENDBRANCH   1   7
TORSDOF 2
ENDMDL
