MODEL 1
REMARK minimizedAffinity 0.518780112
REMARK minimizedRMSD -1
REMARK  0 active torsions:
REMARK  status: ('A' for Active; 'I' for Inactive)
ROOT
ATOM      1  C   UNL d   1       3.569  -0.063  -1.960  0.00  0.00     0.023 A 
ATOM      2  C1  UNL d   1       3.574  -1.329  -1.375  0.00  0.00     0.003 A 
ATOM      3  C2  UNL d   1       2.613  -1.661  -0.417  0.00  0.00     0.048 A 
ATOM      4  C3  UNL d   1       1.649  -0.722  -0.051  0.00  0.00     0.023 A 
ATOM      5  C4  UNL d   1       1.639   0.546  -0.635  0.00  0.00     0.048 A 
ATOM      6  C5  UNL d   1       2.603   0.873  -1.591  0.00  0.00     0.003 A 
ATOM      7  I   UNL d   1       0.218  -1.214   1.374  0.00  0.00    -0.146 I 
ENDROOT
TORSDOF 0
ENDMDL
