MODEL 1
REMARK minimizedAffinity 1.11169171
REMARK minimizedRMSD -1
REMARK  0 active torsions:
REMARK  status: ('A' for Active; 'I' for Inactive)
ROOT
ATOM      1  C   UNL d   1       0.659  -0.438   0.956  0.00  0.00     0.023 A 
ATOM      2  C1  UNL d   1       0.754   0.522  -0.052  0.00  0.00     0.003 A 
ATOM      3  C2  UNL d   1       1.815   0.479  -0.960  0.00  0.00     0.048 A 
ATOM      4  C3  UNL d   1       2.775  -0.526  -0.854  0.00  0.00     0.023 A 
ATOM      5  C4  UNL d   1       2.683  -1.488   0.152  0.00  0.00     0.048 A 
ATOM      6  C5  UNL d   1       1.622  -1.442   1.058  0.00  0.00     0.003 A 
ATOM      7  I   UNL d   1       4.354  -0.591  -2.204  0.00  0.00    -0.146 I 
ENDROOT
TORSDOF 0
ENDMDL
