MODEL 1
REMARK minimizedAffinity 1.15678918
REMARK minimizedRMSD -1
REMARK  0 active torsions:
REMARK  status: ('A' for Active; 'I' for Inactive)
ROOT
ATOM      1  C   UNL d   1       0.433   0.153   1.399  0.00  0.00     0.023 A 
ATOM      2  C1  UNL d   1       1.468   1.069   1.209  0.00  0.00     0.003 A 
ATOM      3  C2  UNL d   1       2.505   0.778   0.320  0.00  0.00     0.048 A 
ATOM      4  C3  UNL d   1       2.500  -0.429  -0.377  0.00  0.00     0.023 A 
ATOM      5  C4  UNL d   1       1.466  -1.348  -0.191  0.00  0.00     0.048 A 
ATOM      6  C5  UNL d   1       0.432  -1.054   0.699  0.00  0.00     0.003 A 
ATOM      7  I   UNL d   1       4.042  -0.863  -1.701  0.00  0.00    -0.146 I 
ENDROOT
TORSDOF 0
ENDMDL
