MODEL 1
REMARK minimizedAffinity 1.16396892
REMARK minimizedRMSD -1
REMARK  0 active torsions:
REMARK  status: ('A' for Active; 'I' for Inactive)
ROOT
ATOM      1  C   UNL d   1       2.409  -0.008  -0.303  0.00  0.00     0.023 A 
ATOM      2  C1  UNL d   1       2.052   0.903   0.692  0.00  0.00     0.003 A 
ATOM      3  C2  UNL d   1       0.971   0.633   1.533  0.00  0.00     0.048 A 
ATOM      4  C3  UNL d   1       0.252  -0.552   1.376  0.00  0.00     0.023 A 
ATOM      5  C4  UNL d   1       0.606  -1.467   0.383  0.00  0.00     0.048 A 
ATOM      6  C5  UNL d   1       1.686  -1.191  -0.457  0.00  0.00     0.003 A 
ATOM      7  I   UNL d   1      -1.357  -0.957   2.627  0.00  0.00    -0.146 I 
ENDROOT
TORSDOF 0
ENDMDL
