MODEL 1
REMARK minimizedAffinity 0.160835415
REMARK minimizedRMSD -1
REMARK  0 active torsions:
REMARK  status: ('A' for Active; 'I' for Inactive)
ROOT
ATOM      1  C   UNL d   1       1.229  -0.338  -0.452  0.00  0.00     0.023 A 
ATOM      2  C1  UNL d   1       1.904  -1.500  -0.828  0.00  0.00     0.003 A 
ATOM      3  C2  UNL d   1       3.113  -1.414  -1.520  0.00  0.00     0.048 A 
ATOM      4  C3  UNL d   1       3.643  -0.163  -1.833  0.00  0.00     0.023 A 
ATOM      5  C4  UNL d   1       2.973   1.003  -1.458  0.00  0.00     0.048 A 
ATOM      6  C5  UNL d   1       1.763   0.912  -0.767  0.00  0.00     0.003 A 
ATOM      7  I   UNL d   1       5.443  -0.032  -2.863  0.00  0.00    -0.146 I 
ENDROOT
TORSDOF 0
ENDMDL
