MODEL 1
REMARK minimizedAffinity -0.204011217
REMARK minimizedRMSD -1
REMARK  0 active torsions:
REMARK  status: ('A' for Active; 'I' for Inactive)
ROOT
ATOM      1  C   UNL d   1       1.508  -0.696  -0.072  0.00  0.00     0.023 A 
ATOM      2  C1  UNL d   1       2.229  -1.818  -0.482  0.00  0.00     0.003 A 
ATOM      3  C2  UNL d   1       3.406  -1.664  -1.216  0.00  0.00     0.048 A 
ATOM      4  C3  UNL d   1       3.858  -0.384  -1.537  0.00  0.00     0.023 A 
ATOM      5  C4  UNL d   1       3.141   0.742  -1.129  0.00  0.00     0.048 A 
ATOM      6  C5  UNL d   1       1.964   0.582  -0.395  0.00  0.00     0.003 A 
ATOM      7  I   UNL d   1       5.610  -0.152  -2.630  0.00  0.00    -0.146 I 
ENDROOT
TORSDOF 0
ENDMDL
