MODEL 1
REMARK minimizedAffinity 2.90770984
REMARK minimizedRMSD -1
REMARK  0 active torsions:
REMARK  status: ('A' for Active; 'I' for Inactive)
ROOT
ATOM      1  C   UNL d   1       2.257  -2.177  -0.752  0.00  0.00     0.023 A 
ATOM      2  C1  UNL d   1       1.255  -1.470  -0.088  0.00  0.00     0.003 A 
ATOM      3  C2  UNL d   1       1.306  -0.076  -0.025  0.00  0.00     0.048 A 
ATOM      4  C3  UNL d   1       2.362   0.605  -0.630  0.00  0.00     0.023 A 
ATOM      5  C4  UNL d   1       3.367  -0.098  -1.297  0.00  0.00     0.048 A 
ATOM      6  C5  UNL d   1       3.312  -1.492  -1.356  0.00  0.00     0.003 A 
ATOM      7  I   UNL d   1       2.440   2.680  -0.538  0.00  0.00    -0.146 I 
ENDROOT
TORSDOF 0
ENDMDL
