MODEL 1
REMARK minimizedAffinity 7.66963959
REMARK minimizedRMSD -1
REMARK  0 active torsions:
REMARK  status: ('A' for Active; 'I' for Inactive)
ROOT
ATOM      1  C   UNL d   1       0.076   1.963  -4.027  0.00  0.00     0.023 A 
ATOM      2  C1  UNL d   1      -1.271   2.110  -3.696  0.00  0.00     0.003 A 
ATOM      3  C2  UNL d   1      -1.703   3.245  -3.007  0.00  0.00     0.048 A 
ATOM      4  C3  UNL d   1      -0.782   4.231  -2.653  0.00  0.00     0.023 A 
ATOM      5  C4  UNL d   1       0.567   4.089  -2.983  0.00  0.00     0.048 A 
ATOM      6  C5  UNL d   1       0.994   2.951  -3.671  0.00  0.00     0.003 A 
ATOM      7  I   UNL d   1      -1.421   5.922  -1.628  0.00  0.00    -0.146 I 
ENDROOT
TORSDOF 0
ENDMDL
