MODEL 1
REMARK minimizedAffinity 3.09065509
REMARK minimizedRMSD -1
REMARK  0 active torsions:
REMARK  status: ('A' for Active; 'I' for Inactive)
ROOT
ATOM      1  C   UNL d   1       1.941  -0.147   0.894  0.00  0.00     0.023 A 
ATOM      2  C1  UNL d   1       1.364  -1.242   0.250  0.00  0.00     0.003 A 
ATOM      3  C2  UNL d   1       0.072  -1.651   0.588  0.00  0.00     0.048 A 
ATOM      4  C3  UNL d   1      -0.637  -0.960   1.569  0.00  0.00     0.023 A 
ATOM      5  C4  UNL d   1      -0.065   0.137   2.215  0.00  0.00     0.048 A 
ATOM      6  C5  UNL d   1       1.227   0.542   1.875  0.00  0.00     0.003 A 
ATOM      7  I   UNL d   1      -2.560  -1.567   2.073  0.00  0.00    -0.146 I 
ENDROOT
TORSDOF 0
ENDMDL
