MODEL 1
REMARK minimizedAffinity 0.863435626
REMARK minimizedRMSD -1
REMARK  0 active torsions:
REMARK  status: ('A' for Active; 'I' for Inactive)
ROOT
ATOM      1  C   UNL d   1       0.850  -2.172   0.946  0.00  0.00     0.023 A 
ATOM      2  C1  UNL d   1       0.148  -1.159   1.601  0.00  0.00     0.003 A 
ATOM      3  C2  UNL d   1       0.532   0.174   1.441  0.00  0.00     0.048 A 
ATOM      4  C3  UNL d   1       1.619   0.488   0.625  0.00  0.00     0.023 A 
ATOM      5  C4  UNL d   1       2.324  -0.522  -0.032  0.00  0.00     0.048 A 
ATOM      6  C5  UNL d   1       1.936  -1.853   0.131  0.00  0.00     0.003 A 
ATOM      7  I   UNL d   1       2.192   2.471   0.387  0.00  0.00    -0.146 I 
ENDROOT
TORSDOF 0
ENDMDL
