MODEL 1
REMARK minimizedAffinity 2.66650152
REMARK minimizedRMSD -1
REMARK  0 active torsions:
REMARK  status: ('A' for Active; 'I' for Inactive)
ROOT
ATOM      1  C   UNL d   1       2.525  -0.241   0.026  0.00  0.00     0.023 A 
ATOM      2  C1  UNL d   1       1.682   0.853   0.226  0.00  0.00     0.003 A 
ATOM      3  C2  UNL d   1       0.473   0.689   0.905  0.00  0.00     0.048 A 
ATOM      4  C3  UNL d   1       0.114  -0.571   1.383  0.00  0.00     0.023 A 
ATOM      5  C4  UNL d   1       0.954  -1.668   1.186  0.00  0.00     0.048 A 
ATOM      6  C5  UNL d   1       2.162  -1.499   0.505  0.00  0.00     0.003 A 
ATOM      7  I   UNL d   1      -1.685  -0.817   2.394  0.00  0.00    -0.146 I 
ENDROOT
TORSDOF 0
ENDMDL
