MODEL 1
REMARK minimizedAffinity 0.880662978
REMARK minimizedRMSD -1
REMARK  0 active torsions:
REMARK  status: ('A' for Active; 'I' for Inactive)
ROOT
ATOM      1  C   UNL d   1       1.769   0.195   0.291  0.00  0.00     0.023 A 
ATOM      2  C1  UNL d   1       2.330  -1.057   0.039  0.00  0.00     0.003 A 
ATOM      3  C2  UNL d   1       3.413  -1.176  -0.835  0.00  0.00     0.048 A 
ATOM      4  C3  UNL d   1       3.930  -0.037  -1.452  0.00  0.00     0.023 A 
ATOM      5  C4  UNL d   1       3.372   1.218  -1.203  0.00  0.00     0.048 A 
ATOM      6  C5  UNL d   1       2.289   1.331  -0.329  0.00  0.00     0.003 A 
ATOM      7  I   UNL d   1       5.542  -0.211  -2.753  0.00  0.00    -0.146 I 
ENDROOT
TORSDOF 0
ENDMDL
