MODEL 1
REMARK minimizedAffinity 0.934244454
REMARK minimizedRMSD -1
REMARK  0 active torsions:
REMARK  status: ('A' for Active; 'I' for Inactive)
ROOT
ATOM      1  C   UNL d   1       3.172  -0.458  -0.537  0.00  0.00     0.023 A 
ATOM      2  C1  UNL d   1       2.394   0.678  -0.312  0.00  0.00     0.003 A 
ATOM      3  C2  UNL d   1       1.202   0.578   0.407  0.00  0.00     0.048 A 
ATOM      4  C3  UNL d   1       0.794  -0.661   0.901  0.00  0.00     0.023 A 
ATOM      5  C4  UNL d   1       1.570  -1.800   0.680  0.00  0.00     0.048 A 
ATOM      6  C5  UNL d   1       2.761  -1.695  -0.041  0.00  0.00     0.003 A 
ATOM      7  I   UNL d   1      -0.980  -0.812   1.973  0.00  0.00    -0.146 I 
ENDROOT
TORSDOF 0
ENDMDL
