MODEL 1
REMARK minimizedAffinity -1.02298439
REMARK minimizedRMSD -1
REMARK  0 active torsions:
REMARK  status: ('A' for Active; 'I' for Inactive)
ROOT
ATOM      1  C   UNL d   1      -3.396  -1.210   1.504  0.00  0.00     0.023 A 
ATOM      2  C1  UNL d   1      -2.873   0.027   1.883  0.00  0.00     0.003 A 
ATOM      3  C2  UNL d   1      -1.504   0.165   2.118  0.00  0.00     0.048 A 
ATOM      4  C3  UNL d   1      -0.662  -0.937   1.972  0.00  0.00     0.023 A 
ATOM      5  C4  UNL d   1      -1.181  -2.177   1.593  0.00  0.00     0.048 A 
ATOM      6  C5  UNL d   1      -2.551  -2.310   1.360  0.00  0.00     0.003 A 
ATOM      7  I   UNL d   1       1.376  -0.734   2.322  0.00  0.00    -0.146 I 
ENDROOT
TORSDOF 0
ENDMDL
