MODEL 1
REMARK minimizedAffinity -1.16000533
REMARK minimizedRMSD -1
REMARK  1 active torsions:
REMARK  status: ('A' for Active; 'I' for Inactive)
REMARK    1  A    between atoms: N_2  and  C1_3 
ROOT
ATOM      1  C1  UNL d   1      -3.422  -3.634  -5.350  0.00  0.00     0.143 A 
ATOM      2  C2  UNL d   1      -2.640  -3.553  -4.193  0.00  0.00    -0.057 A 
ATOM      3  C3  UNL d   1      -1.937  -4.665  -3.713  0.00  0.00     0.033 A 
ATOM      4  C4  UNL d   1      -2.028  -5.889  -4.367  0.00  0.00    -0.042 A 
ATOM      5  C5  UNL d   1      -2.820  -5.999  -5.505  0.00  0.00     0.033 A 
ATOM      6  C6  UNL d   1      -3.514  -4.884  -5.984  0.00  0.00    -0.057 A 
ENDROOT
BRANCH   1   7
ATOM      7  N   UNL d   1      -4.222  -2.591  -5.823  0.00  0.00    -0.732 N 
ATOM      8  C   UNL d   1      -3.675  -1.263  -5.997  0.00  0.00     0.284 C 
ATOM      9  H3  UNL d   1      -4.843  -2.887  -6.572  0.00  0.00     0.395 HD
ENDBRANCH   1   7
TORSDOF 1
ENDMDL
