MODEL 1
REMARK minimizedAffinity 0.812796533
REMARK minimizedRMSD -1
REMARK  1 active torsions:
REMARK  status: ('A' for Active; 'I' for Inactive)
REMARK    1  A    between atoms: N_2  and  C1_3 
ROOT
ATOM      1  C1  UNL d   1      -3.966   0.248  -5.965  0.00  0.00     0.143 A 
ATOM      2  C2  UNL d   1      -4.701   1.437  -5.918  0.00  0.00    -0.057 A 
ATOM      3  C3  UNL d   1      -4.067   2.678  -5.784  0.00  0.00     0.033 A 
ATOM      4  C4  UNL d   1      -2.683   2.750  -5.665  0.00  0.00    -0.042 A 
ATOM      5  C5  UNL d   1      -1.934   1.579  -5.684  0.00  0.00     0.033 A 
ATOM      6  C6  UNL d   1      -2.572   0.343  -5.825  0.00  0.00    -0.057 A 
ENDROOT
BRANCH   1   7
ATOM      7  N   UNL d   1      -4.543  -1.023  -5.998  0.00  0.00    -0.732 N 
ATOM      8  C   UNL d   1      -5.269  -1.533  -4.854  0.00  0.00     0.284 C 
ATOM      9  H3  UNL d   1      -4.982  -1.228  -6.893  0.00  0.00     0.395 HD
ENDBRANCH   1   7
TORSDOF 1
ENDMDL
