MODEL 1
REMARK minimizedAffinity -3.34261727
REMARK minimizedRMSD -1
REMARK  1 active torsions:
REMARK  status: ('A' for Active; 'I' for Inactive)
REMARK    1  A    between atoms: N_2  and  C1_3 
ROOT
ATOM      1  C1  UNL d   1      -4.794  -0.060  -5.453  0.00  0.00     0.143 A 
ATOM      2  C2  UNL d   1      -5.247   1.207  -5.836  0.00  0.00    -0.057 A 
ATOM      3  C3  UNL d   1      -4.358   2.277  -5.999  0.00  0.00     0.033 A 
ATOM      4  C4  UNL d   1      -3.000   2.105  -5.752  0.00  0.00    -0.042 A 
ATOM      5  C5  UNL d   1      -2.531   0.861  -5.346  0.00  0.00     0.033 A 
ATOM      6  C6  UNL d   1      -3.422  -0.205  -5.192  0.00  0.00    -0.057 A 
ENDROOT
BRANCH   1   7
ATOM      7  N   UNL d   1      -5.639  -1.138  -5.179  0.00  0.00    -0.732 N 
ATOM      8  C   UNL d   1      -5.601  -2.331  -5.997  0.00  0.00     0.284 C 
ATOM      9  H3  UNL d   1      -5.725  -1.320  -4.181  0.00  0.00     0.395 HD
ENDBRANCH   1   7
TORSDOF 1
ENDMDL
