MODEL 1
REMARK minimizedAffinity -3.38633871
REMARK minimizedRMSD -1
REMARK  1 active torsions:
REMARK  status: ('A' for Active; 'I' for Inactive)
REMARK    1  A    between atoms: N_2  and  C1_3 
ROOT
ATOM      1  C1  UNL d   1      -4.094   1.711  -5.922  0.00  0.00     0.143 A 
ATOM      2  C2  UNL d   1      -3.206   2.791  -5.965  0.00  0.00    -0.057 A 
ATOM      3  C3  UNL d   1      -3.670   4.112  -5.989  0.00  0.00     0.033 A 
ATOM      4  C4  UNL d   1      -5.035   4.376  -6.000  0.00  0.00    -0.042 A 
ATOM      5  C5  UNL d   1      -5.937   3.318  -5.983  0.00  0.00     0.033 A 
ATOM      6  C6  UNL d   1      -5.467   2.001  -5.952  0.00  0.00    -0.057 A 
ENDROOT
BRANCH   1   7
ATOM      7  N   UNL d   1      -3.697   0.374  -5.996  0.00  0.00    -0.732 N 
ATOM      8  C   UNL d   1      -4.662  -0.692  -5.833  0.00  0.00     0.284 C 
ATOM      9  H3  UNL d   1      -3.019   0.211  -6.736  0.00  0.00     0.395 HD
ENDBRANCH   1   7
TORSDOF 1
ENDMDL
