MODEL 1
REMARK minimizedAffinity 1.83676183
REMARK minimizedRMSD -1
REMARK  1 active torsions:
REMARK  status: ('A' for Active; 'I' for Inactive)
REMARK    1  A    between atoms: N_2  and  C1_3 
ROOT
ATOM      1  C1  UNL d   1      -4.594   2.310  -5.653  0.00  0.00     0.143 A 
ATOM      2  C2  UNL d   1      -3.272   2.768  -5.649  0.00  0.00    -0.057 A 
ATOM      3  C3  UNL d   1      -2.198   1.889  -5.834  0.00  0.00     0.033 A 
ATOM      4  C4  UNL d   1      -2.427   0.527  -5.998  0.00  0.00    -0.042 A 
ATOM      5  C5  UNL d   1      -3.731   0.045  -5.981  0.00  0.00     0.033 A 
ATOM      6  C6  UNL d   1      -4.799   0.929  -5.802  0.00  0.00    -0.057 A 
ENDROOT
BRANCH   1   7
ATOM      7  N   UNL d   1      -5.698   3.119  -5.375  0.00  0.00    -0.732 N 
ATOM      8  C   UNL d   1      -5.790   4.454  -5.925  0.00  0.00     0.284 C 
ATOM      9  H3  UNL d   1      -6.574   2.600  -5.393  0.00  0.00     0.395 HD
ENDBRANCH   1   7
TORSDOF 1
ENDMDL
