MODEL 1
REMARK minimizedAffinity -2.13575244
REMARK minimizedRMSD -1
REMARK  1 active torsions:
REMARK  status: ('A' for Active; 'I' for Inactive)
REMARK    1  A    between atoms: N_2  and  C1_3 
ROOT
ATOM      1  C1  UNL d   1      -2.898   3.368  -5.904  0.00  0.00     0.143 A 
ATOM      2  C2  UNL d   1      -4.253   3.714  -5.961  0.00  0.00    -0.057 A 
ATOM      3  C3  UNL d   1      -5.252   2.733  -5.994  0.00  0.00     0.033 A 
ATOM      4  C4  UNL d   1      -4.911   1.384  -6.000  0.00  0.00    -0.042 A 
ATOM      5  C5  UNL d   1      -3.570   1.018  -5.968  0.00  0.00     0.033 A 
ATOM      6  C6  UNL d   1      -2.577   2.002  -5.929  0.00  0.00    -0.057 A 
ENDROOT
BRANCH   1   7
ATOM      7  N   UNL d   1      -1.856   4.296  -5.968  0.00  0.00    -0.732 N 
ATOM      8  C   UNL d   1      -2.133   5.716  -5.990  0.00  0.00     0.284 C 
ATOM      9  H3  UNL d   1      -1.067   4.035  -5.380  0.00  0.00     0.395 HD
ENDBRANCH   1   7
TORSDOF 1
ENDMDL
