MODEL 1
REMARK minimizedAffinity -2.76721048
REMARK minimizedRMSD -1
REMARK  1 active torsions:
REMARK  status: ('A' for Active; 'I' for Inactive)
REMARK    1  A    between atoms: N_2  and  C1_3 
ROOT
ATOM      1  C1  UNL d   1      -4.641   1.892  -5.922  0.00  0.00     0.143 A 
ATOM      2  C2  UNL d   1      -4.973   0.533  -5.952  0.00  0.00    -0.057 A 
ATOM      3  C3  UNL d   1      -3.983  -0.456  -5.975  0.00  0.00     0.033 A 
ATOM      4  C4  UNL d   1      -2.638  -0.102  -5.999  0.00  0.00    -0.042 A 
ATOM      5  C5  UNL d   1      -2.285   1.242  -5.996  0.00  0.00     0.033 A 
ATOM      6  C6  UNL d   1      -3.278   2.226  -5.966  0.00  0.00    -0.057 A 
ENDROOT
BRANCH   1   7
ATOM      7  N   UNL d   1      -5.579   2.924  -5.998  0.00  0.00    -0.732 N 
ATOM      8  C   UNL d   1      -5.155   4.308  -5.987  0.00  0.00     0.284 C 
ATOM      9  H3  UNL d   1      -6.325   2.723  -6.660  0.00  0.00     0.395 HD
ENDBRANCH   1   7
TORSDOF 1
ENDMDL
