MODEL 1
REMARK minimizedAffinity -1.22700202
REMARK minimizedRMSD -1
REMARK  1 active torsions:
REMARK  status: ('A' for Active; 'I' for Inactive)
REMARK    1  A    between atoms: N_2  and  C1_3 
ROOT
ATOM      1  C1  UNL d   1      -4.321   2.031  -5.907  0.00  0.00     0.143 A 
ATOM      2  C2  UNL d   1      -5.223   0.965  -5.997  0.00  0.00    -0.057 A 
ATOM      3  C3  UNL d   1      -4.780  -0.363  -6.000  0.00  0.00     0.033 A 
ATOM      4  C4  UNL d   1      -3.420  -0.649  -5.941  0.00  0.00    -0.042 A 
ATOM      5  C5  UNL d   1      -2.504   0.395  -5.877  0.00  0.00     0.033 A 
ATOM      6  C6  UNL d   1      -2.953   1.719  -5.868  0.00  0.00    -0.057 A 
ENDROOT
BRANCH   1   7
ATOM      7  N   UNL d   1      -4.693   3.374  -6.000  0.00  0.00    -0.732 N 
ATOM      8  C   UNL d   1      -3.691   4.418  -5.997  0.00  0.00     0.284 C 
ATOM      9  H3  UNL d   1      -5.448   3.523  -6.666  0.00  0.00     0.395 HD
ENDBRANCH   1   7
TORSDOF 1
ENDMDL
