MODEL 1
REMARK minimizedAffinity -2.12534952
REMARK minimizedRMSD -1
REMARK  1 active torsions:
REMARK  status: ('A' for Active; 'I' for Inactive)
REMARK    1  A    between atoms: N_2  and  C1_3 
ROOT
ATOM      1  C1  UNL d   1      -4.666   0.970  -5.999  0.00  0.00     0.143 A 
ATOM      2  C2  UNL d   1      -5.209   2.258  -5.960  0.00  0.00    -0.057 A 
ATOM      3  C3  UNL d   1      -4.389   3.393  -5.967  0.00  0.00     0.033 A 
ATOM      4  C4  UNL d   1      -3.005   3.258  -5.984  0.00  0.00    -0.042 A 
ATOM      5  C5  UNL d   1      -2.442   1.986  -5.998  0.00  0.00     0.033 A 
ATOM      6  C6  UNL d   1      -3.267   0.857  -5.998  0.00  0.00    -0.057 A 
ENDROOT
BRANCH   1   7
ATOM      7  N   UNL d   1      -5.425  -0.198  -5.895  0.00  0.00    -0.732 N 
ATOM      8  C   UNL d   1      -4.794  -1.498  -5.979  0.00  0.00     0.284 C 
ATOM      9  H3  UNL d   1      -6.145  -0.131  -5.179  0.00  0.00     0.395 HD
ENDBRANCH   1   7
TORSDOF 1
ENDMDL
