MODEL 1
REMARK minimizedAffinity -2.09440422
REMARK minimizedRMSD -1
REMARK  1 active torsions:
REMARK  status: ('A' for Active; 'I' for Inactive)
REMARK    1  A    between atoms: N_2  and  C1_3 
ROOT
ATOM      1  C1  UNL d   1      -4.677   0.641  -5.921  0.00  0.00     0.143 A 
ATOM      2  C2  UNL d   1      -3.303   0.896  -5.981  0.00  0.00    -0.057 A 
ATOM      3  C3  UNL d   1      -2.807   2.205  -5.999  0.00  0.00     0.033 A 
ATOM      4  C4  UNL d   1      -3.682   3.287  -5.986  0.00  0.00    -0.042 A 
ATOM      5  C5  UNL d   1      -5.053   3.057  -5.952  0.00  0.00     0.033 A 
ATOM      6  C6  UNL d   1      -5.541   1.747  -5.927  0.00  0.00    -0.057 A 
ENDROOT
BRANCH   1   7
ATOM      7  N   UNL d   1      -5.235  -0.637  -6.000  0.00  0.00    -0.732 N 
ATOM      8  C   UNL d   1      -4.393  -1.813  -5.964  0.00  0.00     0.284 C 
ATOM      9  H3  UNL d   1      -6.090  -0.722  -5.455  0.00  0.00     0.395 HD
ENDBRANCH   1   7
TORSDOF 1
ENDMDL
