MODEL 1
REMARK minimizedAffinity -1.69862485
REMARK minimizedRMSD -1
REMARK  1 active torsions:
REMARK  status: ('A' for Active; 'I' for Inactive)
REMARK    1  A    between atoms: N_2  and  C1_3 
ROOT
ATOM      1  C1  UNL d   1      -3.637   2.491  -5.895  0.00  0.00     0.143 A 
ATOM      2  C2  UNL d   1      -3.321   3.853  -5.840  0.00  0.00    -0.057 A 
ATOM      3  C3  UNL d   1      -4.323   4.831  -5.837  0.00  0.00     0.033 A 
ATOM      4  C4  UNL d   1      -5.662   4.464  -5.919  0.00  0.00    -0.042 A 
ATOM      5  C5  UNL d   1      -5.998   3.117  -5.999  0.00  0.00     0.033 A 
ATOM      6  C6  UNL d   1      -4.994   2.145  -5.995  0.00  0.00    -0.057 A 
ENDROOT
BRANCH   1   7
ATOM      7  N   UNL d   1      -2.684   1.475  -6.000  0.00  0.00    -0.732 N 
ATOM      8  C   UNL d   1      -3.081   0.085  -5.961  0.00  0.00     0.284 C 
ATOM      9  H3  UNL d   1      -1.969   1.684  -6.693  0.00  0.00     0.395 HD
ENDBRANCH   1   7
TORSDOF 1
ENDMDL
