MODEL 1
REMARK minimizedAffinity 0.0390711576
REMARK minimizedRMSD -1
REMARK  1 active torsions:
REMARK  status: ('A' for Active; 'I' for Inactive)
REMARK    1  A    between atoms: N_2  and  C1_3 
ROOT
ATOM      1  C1  UNL d   1      -5.085  -3.564  -5.883  0.00  0.00     0.143 A 
ATOM      2  C2  UNL d   1      -3.691  -3.586  -5.999  0.00  0.00    -0.057 A 
ATOM      3  C3  UNL d   1      -2.980  -4.793  -5.980  0.00  0.00     0.033 A 
ATOM      4  C4  UNL d   1      -3.651  -6.000  -5.814  0.00  0.00    -0.042 A 
ATOM      5  C5  UNL d   1      -5.034  -5.999  -5.671  0.00  0.00     0.033 A 
ATOM      6  C6  UNL d   1      -5.739  -4.792  -5.698  0.00  0.00    -0.057 A 
ENDROOT
BRANCH   1   7
ATOM      7  N   UNL d   1      -5.839  -2.391  -5.796  0.00  0.00    -0.732 N 
ATOM      8  C   UNL d   1      -5.219  -1.099  -5.996  0.00  0.00     0.284 C 
ATOM      9  H3  UNL d   1      -6.754  -2.484  -6.230  0.00  0.00     0.395 HD
ENDBRANCH   1   7
TORSDOF 1
ENDMDL
