MODEL 1
REMARK minimizedAffinity 1.2547878
REMARK minimizedRMSD -1
REMARK  1 active torsions:
REMARK  status: ('A' for Active; 'I' for Inactive)
REMARK    1  A    between atoms: N_2  and  C1_3 
ROOT
ATOM      1  C1  UNL d   1      -3.604  -3.444  -5.412  0.00  0.00     0.143 A 
ATOM      2  C2  UNL d   1      -2.861  -3.166  -4.260  0.00  0.00    -0.057 A 
ATOM      3  C3  UNL d   1      -1.962  -4.101  -3.732  0.00  0.00     0.033 A 
ATOM      4  C4  UNL d   1      -1.812  -5.347  -4.333  0.00  0.00    -0.042 A 
ATOM      5  C5  UNL d   1      -2.558  -5.654  -5.465  0.00  0.00     0.033 A 
ATOM      6  C6  UNL d   1      -3.449  -4.714  -5.991  0.00  0.00    -0.057 A 
ENDROOT
BRANCH   1   7
ATOM      7  N   UNL d   1      -4.585  -2.595  -5.928  0.00  0.00    -0.732 N 
ATOM      8  C   UNL d   1      -5.988  -2.861  -5.694  0.00  0.00     0.284 C 
ATOM      9  H3  UNL d   1      -4.330  -1.613  -5.850  0.00  0.00     0.395 HD
ENDBRANCH   1   7
TORSDOF 1
ENDMDL
