MODEL 1
REMARK minimizedAffinity -0.861042798
REMARK minimizedRMSD -1
REMARK  1 active torsions:
REMARK  status: ('A' for Active; 'I' for Inactive)
REMARK    1  A    between atoms: N_2  and  C1_3 
ROOT
ATOM      1  C1  UNL d   1      -4.395  -3.021  -4.993  0.00  0.00     0.143 A 
ATOM      2  C2  UNL d   1      -4.465  -4.036  -5.954  0.00  0.00    -0.057 A 
ATOM      3  C3  UNL d   1      -3.515  -5.063  -5.996  0.00  0.00     0.033 A 
ATOM      4  C4  UNL d   1      -2.458  -5.078  -5.092  0.00  0.00    -0.042 A 
ATOM      5  C5  UNL d   1      -2.354  -4.067  -4.144  0.00  0.00     0.033 A 
ATOM      6  C6  UNL d   1      -3.310  -3.047  -4.103  0.00  0.00    -0.057 A 
ENDROOT
BRANCH   1   7
ATOM      7  N   UNL d   1      -5.252  -1.919  -4.963  0.00  0.00    -0.732 N 
ATOM      8  C   UNL d   1      -5.050  -0.803  -5.861  0.00  0.00     0.284 C 
ATOM      9  H3  UNL d   1      -6.226  -2.188  -4.846  0.00  0.00     0.395 HD
ENDBRANCH   1   7
TORSDOF 1
ENDMDL
