MODEL 1
REMARK minimizedAffinity 7.22588778
REMARK minimizedRMSD -1
REMARK  1 active torsions:
REMARK  status: ('A' for Active; 'I' for Inactive)
REMARK    1  A    between atoms: N_2  and  C1_3 
ROOT
ATOM      1  C1  UNL d   1       0.486  -0.062  -1.717  0.00  0.00     0.143 A 
ATOM      2  C2  UNL d   1       1.457   0.012  -0.712  0.00  0.00    -0.057 A 
ATOM      3  C3  UNL d   1       1.273   0.820   0.417  0.00  0.00     0.033 A 
ATOM      4  C4  UNL d   1       0.124   1.592   0.548  0.00  0.00    -0.042 A 
ATOM      5  C5  UNL d   1      -0.844   1.553  -0.450  0.00  0.00     0.033 A 
ATOM      6  C6  UNL d   1      -0.658   0.740  -1.572  0.00  0.00    -0.057 A 
ENDROOT
BRANCH   1   7
ATOM      7  N   UNL d   1       0.653  -0.769  -2.910  0.00  0.00    -0.732 N 
ATOM      8  C   UNL d   1       1.388  -0.190  -4.013  0.00  0.00     0.284 C 
ATOM      9  H3  UNL d   1       0.848  -1.756  -2.752  0.00  0.00     0.395 HD
ENDBRANCH   1   7
TORSDOF 1
ENDMDL
