MODEL 1
REMARK minimizedAffinity 22.8442955
REMARK minimizedRMSD -1
REMARK  0 active torsions:
REMARK  status: ('A' for Active; 'I' for Inactive)
ROOT
ATOM      1  C   UNL d   1      -3.455   2.649  -1.989  0.00  0.00     0.124 A 
ATOM      2  C1  UNL d   1      -3.090   2.646  -0.650  0.00  0.00     0.062 A 
ATOM      3  C2  UNL d   1      -1.746   2.699  -0.290  0.00  0.00     0.162 A 
ATOM      4  C3  UNL d   1      -0.757   2.757  -1.272  0.00  0.00    -0.034 A 
ATOM      5  C4  UNL d   1      -1.131   2.758  -2.616  0.00  0.00     0.162 A 
ATOM      6  C5  UNL d   1      -2.475   2.705  -2.971  0.00  0.00     0.062 A 
ATOM      7  F   UNL d   1      -2.826   2.708  -4.265  0.00  0.00    -0.097 F 
ATOM      8  F1  UNL d   1      -0.206   2.813  -3.586  0.00  0.00    -0.096 F 
ATOM      9  I   UNL d   1       1.253   2.836  -0.738  0.00  0.00    -0.060 I 
ATOM     10  F2  UNL d   1      -1.423   2.695   1.012  0.00  0.00    -0.096 F 
ATOM     11  F3  UNL d   1      -4.034   2.591   0.301  0.00  0.00    -0.097 F 
ATOM     12  F4  UNL d   1      -4.748   2.597  -2.332  0.00  0.00    -0.092 F 
ENDROOT
TORSDOF 0
ENDMDL
