MODEL 1
REMARK minimizedAffinity 15.813055
REMARK minimizedRMSD -1
REMARK  0 active torsions:
REMARK  status: ('A' for Active; 'I' for Inactive)
ROOT
ATOM      1  C   UNL d   1       4.646  -1.216  -0.785  0.00  0.00     0.124 A 
ATOM      2  C1  UNL d   1       3.892  -2.290  -0.333  0.00  0.00     0.062 A 
ATOM      3  C2  UNL d   1       2.845  -2.085   0.560  0.00  0.00     0.162 A 
ATOM      4  C3  UNL d   1       2.544  -0.798   1.008  0.00  0.00    -0.034 A 
ATOM      5  C4  UNL d   1       3.306   0.277   0.549  0.00  0.00     0.162 A 
ATOM      6  C5  UNL d   1       4.352   0.067  -0.344  0.00  0.00     0.062 A 
ATOM      7  F   UNL d   1       5.079   1.106  -0.779  0.00  0.00    -0.097 F 
ATOM      8  F1  UNL d   1       3.044   1.527   0.959  0.00  0.00    -0.096 F 
ATOM      9  I   UNL d   1       0.979  -0.487   2.344  0.00  0.00    -0.060 I 
ATOM     10  F2  UNL d   1       2.134  -3.142   0.980  0.00  0.00    -0.096 F 
ATOM     11  F3  UNL d   1       4.174  -3.531  -0.758  0.00  0.00    -0.097 F 
ATOM     12  F4  UNL d   1       5.653  -1.417  -1.644  0.00  0.00    -0.092 F 
ENDROOT
TORSDOF 0
ENDMDL
