MODEL 1
REMARK minimizedAffinity 23.9019947
REMARK minimizedRMSD -1
REMARK  0 active torsions:
REMARK  status: ('A' for Active; 'I' for Inactive)
ROOT
ATOM      1  C   UNL d   1       0.000  -0.729   4.052  0.00  0.00     0.124 A 
ATOM      2  C1  UNL d   1      -1.093  -1.256   4.725  0.00  0.00     0.062 A 
ATOM      3  C2  UNL d   1      -1.951  -2.142   4.081  0.00  0.00     0.162 A 
ATOM      4  C3  UNL d   1      -1.718  -2.509   2.755  0.00  0.00    -0.034 A 
ATOM      5  C4  UNL d   1      -0.617  -1.974   2.085  0.00  0.00     0.162 A 
ATOM      6  C5  UNL d   1       0.238  -1.089   2.733  0.00  0.00     0.062 A 
ATOM      7  F   UNL d   1       1.294  -0.581   2.082  0.00  0.00    -0.097 F 
ATOM      8  F1  UNL d   1      -0.363  -2.305   0.810  0.00  0.00    -0.096 F 
ATOM      9  I   UNL d   1      -2.999  -3.834   1.788  0.00  0.00    -0.060 I 
ATOM     10  F2  UNL d   1      -3.000  -2.636   4.755  0.00  0.00    -0.096 F 
ATOM     11  F3  UNL d   1      -1.325  -0.909   6.000  0.00  0.00    -0.097 F 
ATOM     12  F4  UNL d   1       0.824   0.124   4.675  0.00  0.00    -0.092 F 
ENDROOT
TORSDOF 0
ENDMDL
