MODEL 1
REMARK minimizedAffinity 23.6860943
REMARK minimizedRMSD -1
REMARK  0 active torsions:
REMARK  status: ('A' for Active; 'I' for Inactive)
ROOT
ATOM      1  C   UNL d   1      -1.497  -1.857   4.031  0.00  0.00     0.124 A 
ATOM      2  C1  UNL d   1      -0.843  -0.820   4.683  0.00  0.00     0.062 A 
ATOM      3  C2  UNL d   1       0.283  -0.235   4.113  0.00  0.00     0.162 A 
ATOM      4  C3  UNL d   1       0.764  -0.685   2.883  0.00  0.00    -0.034 A 
ATOM      5  C4  UNL d   1       0.101  -1.728   2.234  0.00  0.00     0.162 A 
ATOM      6  C5  UNL d   1      -1.024  -2.310   2.808  0.00  0.00     0.062 A 
ATOM      7  F   UNL d   1      -1.655  -3.311   2.177  0.00  0.00    -0.097 F 
ATOM      8  F1  UNL d   1       0.536  -2.185   1.050  0.00  0.00    -0.096 F 
ATOM      9  I   UNL d   1       2.448   0.187   2.027  0.00  0.00    -0.060 I 
ATOM     10  F2  UNL d   1       0.895   0.765   4.765  0.00  0.00    -0.096 F 
ATOM     11  F3  UNL d   1      -1.298  -0.381   5.866  0.00  0.00    -0.097 F 
ATOM     12  F4  UNL d   1      -2.581  -2.419   4.583  0.00  0.00    -0.092 F 
ENDROOT
TORSDOF 0
ENDMDL
