MODEL 1
REMARK minimizedAffinity 23.7043533
REMARK minimizedRMSD -1
REMARK  0 active torsions:
REMARK  status: ('A' for Active; 'I' for Inactive)
ROOT
ATOM      1  C   UNL d   1       1.080  -2.231   1.625  0.00  0.00     0.124 A 
ATOM      2  C1  UNL d   1       2.326  -2.655   1.184  0.00  0.00     0.062 A 
ATOM      3  C2  UNL d   1       3.225  -1.741   0.642  0.00  0.00     0.162 A 
ATOM      4  C3  UNL d   1       2.882  -0.393   0.538  0.00  0.00    -0.034 A 
ATOM      5  C4  UNL d   1       1.626   0.026   0.983  0.00  0.00     0.162 A 
ATOM      6  C5  UNL d   1       0.731  -0.891   1.524  0.00  0.00     0.062 A 
ATOM      7  F   UNL d   1      -0.472  -0.479   1.950  0.00  0.00    -0.097 F 
ATOM      8  F1  UNL d   1       1.264   1.315   0.898  0.00  0.00    -0.096 F 
ATOM      9  I   UNL d   1       4.223   0.977  -0.272  0.00  0.00    -0.060 I 
ATOM     10  F2  UNL d   1       4.422  -2.179   0.224  0.00  0.00    -0.096 F 
ATOM     11  F3  UNL d   1       2.664  -3.949   1.279  0.00  0.00    -0.097 F 
ATOM     12  F4  UNL d   1       0.216  -3.112   2.146  0.00  0.00    -0.092 F 
ENDROOT
TORSDOF 0
ENDMDL
