MODEL 1
REMARK minimizedAffinity 20.286417
REMARK minimizedRMSD -1
REMARK  0 active torsions:
REMARK  status: ('A' for Active; 'I' for Inactive)
ROOT
ATOM      1  C   UNL d   1      -1.469  -1.904   4.248  0.00  0.00     0.124 A 
ATOM      2  C1  UNL d   1      -1.139  -2.429   3.006  0.00  0.00     0.062 A 
ATOM      3  C2  UNL d   1      -0.037  -1.940   2.310  0.00  0.00     0.162 A 
ATOM      4  C3  UNL d   1       0.743  -0.920   2.855  0.00  0.00    -0.034 A 
ATOM      5  C4  UNL d   1       0.404  -0.397   4.104  0.00  0.00     0.162 A 
ATOM      6  C5  UNL d   1      -0.698  -0.889   4.795  0.00  0.00     0.062 A 
ATOM      7  F   UNL d   1      -1.015  -0.381   5.995  0.00  0.00    -0.097 F 
ATOM      8  F1  UNL d   1       1.133   0.583   4.657  0.00  0.00    -0.096 F 
ATOM      9  I   UNL d   1       2.391  -0.186   1.817  0.00  0.00    -0.060 I 
ATOM     10  F2  UNL d   1       0.258  -2.465   1.112  0.00  0.00    -0.096 F 
ATOM     11  F3  UNL d   1      -1.884  -3.409   2.474  0.00  0.00    -0.097 F 
ATOM     12  F4  UNL d   1      -2.530  -2.376   4.915  0.00  0.00    -0.092 F 
ENDROOT
TORSDOF 0
ENDMDL
