MODEL 1
REMARK minimizedAffinity 22.9882603
REMARK minimizedRMSD -1
REMARK  0 active torsions:
REMARK  status: ('A' for Active; 'I' for Inactive)
ROOT
ATOM      1  C   UNL d   1      -1.479  -1.989   3.847  0.00  0.00     0.124 A 
ATOM      2  C1  UNL d   1      -0.805  -0.924   4.427  0.00  0.00     0.062 A 
ATOM      3  C2  UNL d   1       0.285  -0.349   3.781  0.00  0.00     0.162 A 
ATOM      4  C3  UNL d   1       0.708  -0.838   2.545  0.00  0.00    -0.034 A 
ATOM      5  C4  UNL d   1       0.025  -1.910   1.967  0.00  0.00     0.162 A 
ATOM      6  C5  UNL d   1      -1.064  -2.481   2.618  0.00  0.00     0.062 A 
ATOM      7  F   UNL d   1      -1.713  -3.510   2.055  0.00  0.00    -0.097 F 
ATOM      8  F1  UNL d   1       0.406  -2.405   0.780  0.00  0.00    -0.096 F 
ATOM      9  I   UNL d   1       2.337   0.019   1.574  0.00  0.00    -0.060 I 
ATOM     10  F2  UNL d   1       0.917   0.680   4.365  0.00  0.00    -0.096 F 
ATOM     11  F3  UNL d   1      -1.205  -0.447   5.615  0.00  0.00    -0.097 F 
ATOM     12  F4  UNL d   1      -2.528  -2.541   4.472  0.00  0.00    -0.092 F 
ENDROOT
TORSDOF 0
ENDMDL
