MODEL 1
REMARK minimizedAffinity 29.8917313
REMARK minimizedRMSD -1
REMARK  0 active torsions:
REMARK  status: ('A' for Active; 'I' for Inactive)
ROOT
ATOM      1  C   UNL d   1       1.384   3.639  -0.026  0.00  0.00     0.124 A 
ATOM      2  C1  UNL d   1       0.860   4.834  -0.500  0.00  0.00     0.062 A 
ATOM      3  C2  UNL d   1      -0.255   4.828  -1.333  0.00  0.00     0.162 A 
ATOM      4  C3  UNL d   1      -0.854   3.622  -1.698  0.00  0.00    -0.034 A 
ATOM      5  C4  UNL d   1      -0.321   2.425  -1.219  0.00  0.00     0.162 A 
ATOM      6  C5  UNL d   1       0.793   2.436  -0.386  0.00  0.00     0.062 A 
ATOM      7  F   UNL d   1       1.298   1.280   0.070  0.00  0.00    -0.097 F 
ATOM      8  F1  UNL d   1      -0.872   1.248  -1.550  0.00  0.00    -0.096 F 
ATOM      9  I   UNL d   1      -2.521   3.609  -2.944  0.00  0.00    -0.060 I 
ATOM     10  F2  UNL d   1      -0.740   5.998  -1.776  0.00  0.00    -0.096 F 
ATOM     11  F3  UNL d   1       1.429   5.998  -0.154  0.00  0.00    -0.097 F 
ATOM     12  F4  UNL d   1       2.457   3.647   0.775  0.00  0.00    -0.092 F 
ENDROOT
TORSDOF 0
ENDMDL
