MODEL 1
REMARK minimizedAffinity 15.6169424
REMARK minimizedRMSD -1
REMARK  0 active torsions:
REMARK  status: ('A' for Active; 'I' for Inactive)
ROOT
ATOM      1  C   UNL d   1       0.136  -0.618   3.762  0.00  0.00     0.124 A 
ATOM      2  C1  UNL d   1       1.429  -0.197   4.041  0.00  0.00     0.062 A 
ATOM      3  C2  UNL d   1       2.461  -0.464   3.146  0.00  0.00     0.162 A 
ATOM      4  C3  UNL d   1       2.204  -1.155   1.962  0.00  0.00    -0.034 A 
ATOM      5  C4  UNL d   1       0.902  -1.577   1.689  0.00  0.00     0.162 A 
ATOM      6  C5  UNL d   1      -0.126  -1.308   2.586  0.00  0.00     0.062 A 
ATOM      7  F   UNL d   1      -1.374  -1.716   2.315  0.00  0.00    -0.097 F 
ATOM      8  F1  UNL d   1       0.620  -2.244   0.560  0.00  0.00    -0.096 F 
ATOM      9  I   UNL d   1       3.745  -1.557   0.622  0.00  0.00    -0.060 I 
ATOM     10  F2  UNL d   1       3.700  -0.044   3.442  0.00  0.00    -0.096 F 
ATOM     11  F3  UNL d   1       1.684   0.469   5.176  0.00  0.00    -0.097 F 
ATOM     12  F4  UNL d   1      -0.855  -0.361   4.625  0.00  0.00    -0.092 F 
ENDROOT
TORSDOF 0
ENDMDL
