MODEL 1
REMARK minimizedAffinity 19.73633
REMARK minimizedRMSD -1
REMARK  0 active torsions:
REMARK  status: ('A' for Active; 'I' for Inactive)
ROOT
ATOM      1  C   UNL d   1       2.825  -2.113   0.787  0.00  0.00     0.124 A 
ATOM      2  C1  UNL d   1       2.109  -1.102   1.413  0.00  0.00     0.062 A 
ATOM      3  C2  UNL d   1       0.806  -1.332   1.845  0.00  0.00     0.162 A 
ATOM      4  C3  UNL d   1       0.210  -2.578   1.654  0.00  0.00    -0.034 A 
ATOM      5  C4  UNL d   1       0.937  -3.590   1.023  0.00  0.00     0.162 A 
ATOM      6  C5  UNL d   1       2.239  -3.356   0.593  0.00  0.00     0.062 A 
ATOM      7  F   UNL d   1       2.929  -4.334  -0.011  0.00  0.00    -0.097 F 
ATOM      8  F1  UNL d   1       0.395  -4.801   0.823  0.00  0.00    -0.096 F 
ATOM      9  I   UNL d   1      -1.738  -2.926   2.298  0.00  0.00    -0.060 I 
ATOM     10  F2  UNL d   1       0.137  -0.336   2.446  0.00  0.00    -0.096 F 
ATOM     11  F3  UNL d   1       2.673   0.100   1.601  0.00  0.00    -0.097 F 
ATOM     12  F4  UNL d   1       4.079  -1.889   0.372  0.00  0.00    -0.092 F 
ENDROOT
TORSDOF 0
ENDMDL
