MODEL 1
REMARK minimizedAffinity 26.5906715
REMARK minimizedRMSD -1
REMARK  0 active torsions:
REMARK  status: ('A' for Active; 'I' for Inactive)
ROOT
ATOM      1  C   UNL d   1       1.980  -0.738   0.878  0.00  0.00     0.124 A 
ATOM      2  C1  UNL d   1       2.543   0.348   0.222  0.00  0.00     0.062 A 
ATOM      3  C2  UNL d   1       3.315   0.153  -0.920  0.00  0.00     0.162 A 
ATOM      4  C3  UNL d   1       3.526  -1.134  -1.415  0.00  0.00    -0.034 A 
ATOM      5  C4  UNL d   1       2.957  -2.221  -0.749  0.00  0.00     0.162 A 
ATOM      6  C5  UNL d   1       2.187  -2.021   0.392  0.00  0.00     0.062 A 
ATOM      7  F   UNL d   1       1.643  -3.071   1.024  0.00  0.00    -0.097 F 
ATOM      8  F1  UNL d   1       3.141  -3.472  -1.197  0.00  0.00    -0.096 F 
ATOM      9  I   UNL d   1       4.679  -1.431  -3.122  0.00  0.00    -0.060 I 
ATOM     10  F2  UNL d   1       3.847   1.220  -1.533  0.00  0.00    -0.096 F 
ATOM     11  F3  UNL d   1       2.345   1.589   0.690  0.00  0.00    -0.097 F 
ATOM     12  F4  UNL d   1       1.239  -0.547   1.977  0.00  0.00    -0.092 F 
ENDROOT
TORSDOF 0
ENDMDL
