MODEL 1
REMARK minimizedAffinity 1.32941341
REMARK minimizedRMSD -1
REMARK  0 active torsions:
REMARK  status: ('A' for Active; 'I' for Inactive)
ROOT
ATOM      1  C   UNL d   1       0.556  -3.281   2.022  0.00  0.00     0.124 A 
ATOM      2  C1  UNL d   1       1.794  -3.347   1.396  0.00  0.00     0.062 A 
ATOM      3  C2  UNL d   1       2.460  -2.178   1.038  0.00  0.00     0.162 A 
ATOM      4  C3  UNL d   1       1.890  -0.933   1.304  0.00  0.00    -0.034 A 
ATOM      5  C4  UNL d   1       0.645  -0.875   1.933  0.00  0.00     0.162 A 
ATOM      6  C5  UNL d   1      -0.017  -2.045   2.289  0.00  0.00     0.062 A 
ATOM      7  F   UNL d   1      -1.212  -1.980   2.893  0.00  0.00    -0.097 F 
ATOM      8  F1  UNL d   1       0.069   0.306   2.204  0.00  0.00    -0.096 F 
ATOM      9  I   UNL d   1       2.883   0.816   0.770  0.00  0.00    -0.060 I 
ATOM     10  F2  UNL d   1       3.654  -2.272   0.435  0.00  0.00    -0.096 F 
ATOM     11  F3  UNL d   1       2.349  -4.539   1.136  0.00  0.00    -0.097 F 
ATOM     12  F4  UNL d   1      -0.083  -4.406   2.365  0.00  0.00    -0.092 F 
ENDROOT
TORSDOF 0
ENDMDL
