MODEL 1
REMARK minimizedAffinity 22.4808769
REMARK minimizedRMSD -1
REMARK  0 active torsions:
REMARK  status: ('A' for Active; 'I' for Inactive)
ROOT
ATOM      1  C   UNL d   1       0.055   2.037  -1.169  0.00  0.00     0.124 A 
ATOM      2  C1  UNL d   1      -0.797   1.934  -2.260  0.00  0.00     0.062 A 
ATOM      3  C2  UNL d   1      -1.120   3.064  -3.006  0.00  0.00     0.162 A 
ATOM      4  C3  UNL d   1      -0.590   4.308  -2.664  0.00  0.00    -0.034 A 
ATOM      5  C4  UNL d   1       0.265   4.405  -1.564  0.00  0.00     0.162 A 
ATOM      6  C5  UNL d   1       0.585   3.272  -0.822  0.00  0.00     0.062 A 
ATOM      7  F   UNL d   1       1.408   3.375   0.231  0.00  0.00    -0.097 F 
ATOM      8  F1  UNL d   1       0.792   5.585  -1.208  0.00  0.00    -0.096 F 
ATOM      9  I   UNL d   1      -1.071   6.000  -3.776  0.00  0.00    -0.060 I 
ATOM     10  F2  UNL d   1      -1.945   2.934  -4.055  0.00  0.00    -0.096 F 
ATOM     11  F3  UNL d   1      -1.311   0.742  -2.596  0.00  0.00    -0.097 F 
ATOM     12  F4  UNL d   1       0.364   0.949  -0.453  0.00  0.00    -0.092 F 
ENDROOT
TORSDOF 0
ENDMDL
