MODEL 1
REMARK minimizedAffinity 20.134613
REMARK minimizedRMSD -1
REMARK  0 active torsions:
REMARK  status: ('A' for Active; 'I' for Inactive)
ROOT
ATOM      1  C   UNL d   1       4.872  -0.360  -2.464  0.00  0.00     0.124 A 
ATOM      2  C1  UNL d   1       5.438  -1.606  -2.237  0.00  0.00     0.062 A 
ATOM      3  C2  UNL d   1       5.446  -2.566  -3.245  0.00  0.00     0.162 A 
ATOM      4  C3  UNL d   1       4.885  -2.283  -4.490  0.00  0.00    -0.034 A 
ATOM      5  C4  UNL d   1       4.317  -1.028  -4.712  0.00  0.00     0.162 A 
ATOM      6  C5  UNL d   1       4.312  -0.072  -3.701  0.00  0.00     0.062 A 
ATOM      7  F   UNL d   1       3.764   1.132  -3.923  0.00  0.00    -0.097 F 
ATOM      8  F1  UNL d   1       3.770  -0.722  -5.898  0.00  0.00    -0.096 F 
ATOM      9  I   UNL d   1       4.895  -3.716  -6.000  0.00  0.00    -0.060 I 
ATOM     10  F2  UNL d   1       6.000  -3.762  -2.997  0.00  0.00    -0.096 F 
ATOM     11  F3  UNL d   1       5.979  -1.887  -1.043  0.00  0.00    -0.097 F 
ATOM     12  F4  UNL d   1       4.865   0.562  -1.493  0.00  0.00    -0.092 F 
ENDROOT
TORSDOF 0
ENDMDL
