MODEL 1
REMARK minimizedAffinity 27.4642258
REMARK minimizedRMSD -1
REMARK  0 active torsions:
REMARK  status: ('A' for Active; 'I' for Inactive)
ROOT
ATOM      1  C   UNL d   1       3.744   0.413   0.806  0.00  0.00     0.124 A 
ATOM      2  C1  UNL d   1       3.722  -0.538  -0.205  0.00  0.00     0.062 A 
ATOM      3  C2  UNL d   1       2.933  -1.677  -0.078  0.00  0.00     0.162 A 
ATOM      4  C3  UNL d   1       2.157  -1.872   1.065  0.00  0.00    -0.034 A 
ATOM      5  C4  UNL d   1       2.185  -0.912   2.078  0.00  0.00     0.162 A 
ATOM      6  C5  UNL d   1       2.975   0.225   1.946  0.00  0.00     0.062 A 
ATOM      7  F   UNL d   1       2.995   1.143   2.924  0.00  0.00    -0.097 F 
ATOM      8  F1  UNL d   1       1.451  -1.067   3.190  0.00  0.00    -0.096 F 
ATOM      9  I   UNL d   1       0.976  -3.574   1.259  0.00  0.00    -0.060 I 
ATOM     10  F2  UNL d   1       2.932  -2.579  -1.070  0.00  0.00    -0.096 F 
ATOM     11  F3  UNL d   1       4.464  -0.359  -1.307  0.00  0.00    -0.097 F 
ATOM     12  F4  UNL d   1       4.505   1.508   0.681  0.00  0.00    -0.092 F 
ENDROOT
TORSDOF 0
ENDMDL
