MODEL 1
REMARK minimizedAffinity 22.4164047
REMARK minimizedRMSD -1
REMARK  0 active torsions:
REMARK  status: ('A' for Active; 'I' for Inactive)
ROOT
ATOM      1  C   UNL d   1       0.268   4.680  -0.627  0.00  0.00     0.124 A 
ATOM      2  C1  UNL d   1       1.200   4.795   0.395  0.00  0.00     0.062 A 
ATOM      3  C2  UNL d   1       1.840   3.662   0.888  0.00  0.00     0.162 A 
ATOM      4  C3  UNL d   1       1.552   2.404   0.359  0.00  0.00    -0.034 A 
ATOM      5  C4  UNL d   1       0.613   2.296  -0.668  0.00  0.00     0.162 A 
ATOM      6  C5  UNL d   1      -0.025   3.431  -1.158  0.00  0.00     0.062 A 
ATOM      7  F   UNL d   1      -0.925   3.319  -2.145  0.00  0.00    -0.097 F 
ATOM      8  F1  UNL d   1       0.312   1.102  -1.199  0.00  0.00    -0.096 F 
ATOM      9  I   UNL d   1       2.508   0.707   1.095  0.00  0.00    -0.060 I 
ATOM     10  F2  UNL d   1       2.736   3.802   1.877  0.00  0.00    -0.096 F 
ATOM     11  F3  UNL d   1       1.483   6.000   0.910  0.00  0.00    -0.097 F 
ATOM     12  F4  UNL d   1      -0.348   5.772  -1.100  0.00  0.00    -0.092 F 
ENDROOT
TORSDOF 0
ENDMDL
