MODEL 1
REMARK minimizedAffinity -1.63177097
REMARK minimizedRMSD -1
REMARK  0 active torsions:
REMARK  status: ('A' for Active; 'I' for Inactive)
ROOT
ATOM      1  C   UNL d   1       0.414  -3.388  -1.765  0.00  0.00     0.172 C 
ATOM      2  N   UNL d   1       0.113  -3.259  -0.358  0.00  0.00    -0.070 N 
ATOM      3  C1  UNL d   1      -0.846  -2.444   0.182  0.00  0.00    -0.004 A 
ATOM      4  C2  UNL d   1      -0.819  -2.610   1.550  0.00  0.00    -0.047 A 
ATOM      5  C3  UNL d   1       0.192  -3.556   1.842  0.00  0.00    -0.047 A 
ATOM      6  C4  UNL d   1       0.753  -3.942   0.643  0.00  0.00    -0.004 A 
ENDROOT
TORSDOF 0
ENDMDL
