MODEL 1
REMARK minimizedAffinity -1.8469882
REMARK minimizedRMSD -1
REMARK  0 active torsions:
REMARK  status: ('A' for Active; 'I' for Inactive)
ROOT
ATOM      1  C   UNL d   1      -0.496  -2.670   0.063  0.00  0.00     0.172 C 
ATOM      2  N   UNL d   1      -0.012  -2.628  -1.296  0.00  0.00    -0.070 N 
ATOM      3  C1  UNL d   1       0.335  -3.715  -2.054  0.00  0.00    -0.004 A 
ATOM      4  C2  UNL d   1       0.745  -3.255  -3.287  0.00  0.00    -0.047 A 
ATOM      5  C3  UNL d   1       0.642  -1.844  -3.269  0.00  0.00    -0.047 A 
ATOM      6  C4  UNL d   1       0.171  -1.483  -2.025  0.00  0.00    -0.004 A 
ENDROOT
TORSDOF 0
ENDMDL
