MODEL 1
REMARK minimizedAffinity 1.02250707
REMARK minimizedRMSD -1
REMARK  0 active torsions:
REMARK  status: ('A' for Active; 'I' for Inactive)
ROOT
ATOM      1  C   UNL d   1      -0.325  -2.207  -1.368  0.00  0.00     0.172 C 
ATOM      2  N   UNL d   1      -0.682  -1.962   0.010  0.00  0.00    -0.070 N 
ATOM      3  C1  UNL d   1      -0.515  -2.841   1.046  0.00  0.00    -0.004 A 
ATOM      4  C2  UNL d   1      -0.978  -2.234   2.194  0.00  0.00    -0.047 A 
ATOM      5  C3  UNL d   1      -1.439  -0.945   1.834  0.00  0.00    -0.047 A 
ATOM      6  C4  UNL d   1      -1.244  -0.803   0.477  0.00  0.00    -0.004 A 
ENDROOT
TORSDOF 0
ENDMDL
