MODEL 1
REMARK minimizedAffinity 1.98266017
REMARK minimizedRMSD -1
REMARK  0 active torsions:
REMARK  status: ('A' for Active; 'I' for Inactive)
ROOT
ATOM      1  C   UNL d   1       5.878  -3.588  -4.040  0.00  0.00     0.172 C 
ATOM      2  N   UNL d   1       4.864  -4.242  -4.834  0.00  0.00    -0.070 N 
ATOM      3  C1  UNL d   1       4.912  -5.535  -5.283  0.00  0.00    -0.004 A 
ATOM      4  C2  UNL d   1       3.760  -5.775  -6.000  0.00  0.00    -0.047 A 
ATOM      5  C3  UNL d   1       2.993  -4.586  -5.982  0.00  0.00    -0.047 A 
ATOM      6  C4  UNL d   1       3.701  -3.653  -5.253  0.00  0.00    -0.004 A 
ENDROOT
TORSDOF 0
ENDMDL
