MODEL 1
REMARK minimizedAffinity 4.91104841
REMARK minimizedRMSD -1
REMARK  0 active torsions:
REMARK  status: ('A' for Active; 'I' for Inactive)
ROOT
ATOM      1  C   UNL d   1       0.682  -2.505  -1.823  0.00  0.00     0.172 C 
ATOM      2  N   UNL d   1      -0.161  -2.829  -0.696  0.00  0.00    -0.070 N 
ATOM      3  C1  UNL d   1      -1.525  -2.946  -0.727  0.00  0.00    -0.004 A 
ATOM      4  C2  UNL d   1      -1.950  -3.265   0.545  0.00  0.00    -0.047 A 
ATOM      5  C3  UNL d   1      -0.802  -3.342   1.368  0.00  0.00    -0.047 A 
ATOM      6  C4  UNL d   1       0.292  -3.068   0.575  0.00  0.00    -0.004 A 
ENDROOT
TORSDOF 0
ENDMDL
