MODEL 1
REMARK minimizedAffinity 0.314121813
REMARK minimizedRMSD -1
REMARK  0 active torsions:
REMARK  status: ('A' for Active; 'I' for Inactive)
ROOT
ATOM      1  C   UNL d   1       0.228  -3.565   0.791  0.00  0.00     0.172 C 
ATOM      2  N   UNL d   1       0.347  -3.134  -0.582  0.00  0.00    -0.070 N 
ATOM      3  C1  UNL d   1       0.366  -3.954  -1.678  0.00  0.00    -0.004 A 
ATOM      4  C2  UNL d   1       0.491  -3.160  -2.797  0.00  0.00    -0.047 A 
ATOM      5  C3  UNL d   1       0.551  -1.816  -2.359  0.00  0.00    -0.047 A 
ATOM      6  C4  UNL d   1       0.459  -1.829  -0.983  0.00  0.00    -0.004 A 
ENDROOT
TORSDOF 0
ENDMDL
