MODEL 1
REMARK minimizedAffinity 2.32363009
REMARK minimizedRMSD -1
REMARK  0 active torsions:
REMARK  status: ('A' for Active; 'I' for Inactive)
ROOT
ATOM      1  C   UNL d   1       0.818   0.450  -2.344  0.00  0.00     0.172 C 
ATOM      2  N   UNL d   1       0.377  -0.914  -2.173  0.00  0.00    -0.070 N 
ATOM      3  C1  UNL d   1       0.199  -1.552  -0.974  0.00  0.00    -0.004 A 
ATOM      4  C2  UNL d   1      -0.227  -2.836  -1.238  0.00  0.00    -0.047 A 
ATOM      5  C3  UNL d   1      -0.309  -2.974  -2.644  0.00  0.00    -0.047 A 
ATOM      6  C4  UNL d   1       0.071  -1.770  -3.198  0.00  0.00    -0.004 A 
ENDROOT
TORSDOF 0
ENDMDL
