MODEL 1
REMARK minimizedAffinity 2.28587079
REMARK minimizedRMSD -1
REMARK  0 active torsions:
REMARK  status: ('A' for Active; 'I' for Inactive)
ROOT
ATOM      1  C   UNL d   1      -0.930   0.669  -0.571  0.00  0.00     0.172 C 
ATOM      2  N   UNL d   1      -0.723  -0.727  -0.266  0.00  0.00    -0.070 N 
ATOM      3  C1  UNL d   1      -1.166  -1.373   0.856  0.00  0.00    -0.004 A 
ATOM      4  C2  UNL d   1      -0.766  -2.689   0.771  0.00  0.00    -0.047 A 
ATOM      5  C3  UNL d   1      -0.057  -2.839  -0.444  0.00  0.00    -0.047 A 
ATOM      6  C4  UNL d   1      -0.045  -1.608  -1.067  0.00  0.00    -0.004 A 
ENDROOT
TORSDOF 0
ENDMDL
