MODEL 1
REMARK minimizedAffinity 5.10598278
REMARK minimizedRMSD -1
REMARK  0 active torsions:
REMARK  status: ('A' for Active; 'I' for Inactive)
ROOT
ATOM      1  C   UNL d   1       0.769  -1.564  -1.887  0.00  0.00     0.172 C 
ATOM      2  N   UNL d   1       1.439  -0.424  -1.308  0.00  0.00    -0.070 N 
ATOM      3  C1  UNL d   1       2.529  -0.475  -0.480  0.00  0.00    -0.004 A 
ATOM      4  C2  UNL d   1       2.866   0.820  -0.147  0.00  0.00    -0.047 A 
ATOM      5  C3  UNL d   1       1.946   1.677  -0.795  0.00  0.00    -0.047 A 
ATOM      6  C4  UNL d   1       1.074   0.881  -1.507  0.00  0.00    -0.004 A 
ENDROOT
TORSDOF 0
ENDMDL
