MODEL 1
REMARK minimizedAffinity 1.00899363
REMARK minimizedRMSD -1
REMARK  0 active torsions:
REMARK  status: ('A' for Active; 'I' for Inactive)
ROOT
ATOM      1  C   UNL d   1       4.442  -2.352   5.634  0.00  0.00     0.172 C 
ATOM      2  N   UNL d   1       4.778  -3.756   5.658  0.00  0.00    -0.070 N 
ATOM      3  C1  UNL d   1       5.999  -4.290   5.346  0.00  0.00    -0.004 A 
ATOM      4  C2  UNL d   1       5.912  -5.658   5.491  0.00  0.00    -0.047 A 
ATOM      5  C3  UNL d   1       4.592  -5.956   5.904  0.00  0.00    -0.047 A 
ATOM      6  C4  UNL d   1       3.911  -4.760   6.000  0.00  0.00    -0.004 A 
ENDROOT
TORSDOF 0
ENDMDL
