MODEL 1
REMARK minimizedAffinity 2.16179132
REMARK minimizedRMSD -1
REMARK  0 active torsions:
REMARK  status: ('A' for Active; 'I' for Inactive)
ROOT
ATOM      1  C   UNL d   1       1.150  -1.010  -2.814  0.00  0.00     0.172 C 
ATOM      2  N   UNL d   1       1.955  -0.320  -1.833  0.00  0.00    -0.070 N 
ATOM      3  C1  UNL d   1       3.133  -0.776  -1.305  0.00  0.00    -0.004 A 
ATOM      4  C2  UNL d   1       3.586   0.168  -0.409  0.00  0.00    -0.047 A 
ATOM      5  C3  UNL d   1       2.648   1.227  -0.398  0.00  0.00    -0.047 A 
ATOM      6  C4  UNL d   1       1.648   0.899  -1.289  0.00  0.00    -0.004 A 
ENDROOT
TORSDOF 0
ENDMDL
