MODEL 1
REMARK minimizedAffinity 5.7707963
REMARK minimizedRMSD -1
REMARK  0 active torsions:
REMARK  status: ('A' for Active; 'I' for Inactive)
ROOT
ATOM      1  C   UNL d   1       1.271   0.431  -1.485  0.00  0.00     0.172 C 
ATOM      2  N   UNL d   1       0.817  -0.742  -2.194  0.00  0.00    -0.070 N 
ATOM      3  C1  UNL d   1       0.134  -1.794  -1.643  0.00  0.00    -0.004 A 
ATOM      4  C2  UNL d   1      -0.116  -2.706  -2.645  0.00  0.00    -0.047 A 
ATOM      5  C3  UNL d   1       0.436  -2.186  -3.839  0.00  0.00    -0.047 A 
ATOM      6  C4  UNL d   1       1.008  -0.969  -3.532  0.00  0.00    -0.004 A 
ENDROOT
TORSDOF 0
ENDMDL
