MODEL 1
REMARK minimizedAffinity -0.462268531
REMARK minimizedRMSD -1
REMARK  0 active torsions:
REMARK  status: ('A' for Active; 'I' for Inactive)
ROOT
ATOM      1  C   UNL d   1      -1.760  -0.135   0.052  0.00  0.00     0.172 C 
ATOM      2  N   UNL d   1      -1.583  -1.550   0.281  0.00  0.00    -0.070 N 
ATOM      3  C1  UNL d   1      -2.236  -2.554  -0.382  0.00  0.00    -0.004 A 
ATOM      4  C2  UNL d   1      -1.789  -3.755   0.125  0.00  0.00    -0.047 A 
ATOM      5  C3  UNL d   1      -0.834  -3.463   1.127  0.00  0.00    -0.047 A 
ATOM      6  C4  UNL d   1      -0.726  -2.090   1.203  0.00  0.00    -0.004 A 
ENDROOT
TORSDOF 0
ENDMDL
