MODEL 1
REMARK minimizedAffinity 0.0824501216
REMARK minimizedRMSD -1
REMARK  0 active torsions:
REMARK  status: ('A' for Active; 'I' for Inactive)
ROOT
ATOM      1  C   UNL d   1      -1.665   0.249  -0.280  0.00  0.00     0.172 C 
ATOM      2  N   UNL d   1      -1.810  -1.103   0.204  0.00  0.00    -0.070 N 
ATOM      3  C1  UNL d   1      -0.886  -1.788   0.948  0.00  0.00    -0.004 A 
ATOM      4  C2  UNL d   1      -1.398  -3.041   1.208  0.00  0.00    -0.047 A 
ATOM      5  C3  UNL d   1      -2.673  -3.112   0.598  0.00  0.00    -0.047 A 
ATOM      6  C4  UNL d   1      -2.903  -1.899  -0.016  0.00  0.00    -0.004 A 
ENDROOT
TORSDOF 0
ENDMDL
