MODEL 1
REMARK minimizedAffinity 3.2128067
REMARK minimizedRMSD -1
REMARK  0 active torsions:
REMARK  status: ('A' for Active; 'I' for Inactive)
ROOT
ATOM      1  C   UNL d   1       1.125  -0.334  -2.250  0.00  0.00     0.172 C 
ATOM      2  N   UNL d   1       0.514  -1.624  -2.027  0.00  0.00    -0.070 N 
ATOM      3  C1  UNL d   1       0.180  -2.528  -3.000  0.00  0.00    -0.004 A 
ATOM      4  C2  UNL d   1      -0.375  -3.627  -2.382  0.00  0.00    -0.047 A 
ATOM      5  C3  UNL d   1      -0.375  -3.375  -0.989  0.00  0.00    -0.047 A 
ATOM      6  C4  UNL d   1       0.181  -2.128  -0.798  0.00  0.00    -0.004 A 
ENDROOT
TORSDOF 0
ENDMDL
