MODEL 1
REMARK minimizedAffinity -4.66091967
REMARK minimizedRMSD -1
REMARK  0 active torsions:
REMARK  status: ('A' for Active; 'I' for Inactive)
ROOT
ATOM      1  C4' PXY d   1       0.371  -1.378  -0.975  0.00  0.00     0.077 C 
ATOM      2  C1' PXY d   1      -0.535   3.726   1.584  0.00  0.00     0.077 C 
ATOM      3  C1  PXY d   1      -0.306   2.390   0.903  0.00  0.00    -0.082 A 
ATOM      4  C2  PXY d   1       0.105   1.354   1.617  0.00  0.00     0.003 A 
ATOM      5  C3  PXY d   1       0.348   0.148   1.012  0.00  0.00     0.003 A 
ATOM      6  C4  PXY d   1       0.117  -0.014  -0.328  0.00  0.00    -0.082 A 
ATOM      7  C5  PXY d   1      -0.312   1.036  -1.061  0.00  0.00     0.003 A 
ATOM      8  C6  PXY d   1      -0.513   2.263  -0.436  0.00  0.00     0.003 A 
ENDROOT
TORSDOF 0
ENDMDL
