MODEL 1
REMARK minimizedAffinity -5.05258322
REMARK minimizedRMSD -1
REMARK  0 active torsions:
REMARK  status: ('A' for Active; 'I' for Inactive)
ROOT
ATOM      1  C4' PXY d   1      -0.729   2.499  -1.991  0.00  0.00     0.077 C 
ATOM      2  C1' PXY d   1       0.271  -0.131   3.058  0.00  0.00     0.077 C 
ATOM      3  C1  PXY d   1       0.002   0.568   1.740  0.00  0.00    -0.082 A 
ATOM      4  C2  PXY d   1       0.089  -0.113   0.609  0.00  0.00     0.003 A 
ATOM      5  C3  PXY d   1      -0.121   0.510  -0.594  0.00  0.00     0.003 A 
ATOM      6  C4  PXY d   1      -0.474   1.832  -0.636  0.00  0.00    -0.082 A 
ATOM      7  C5  PXY d   1      -0.576   2.531   0.514  0.00  0.00     0.003 A 
ATOM      8  C6  PXY d   1      -0.319   1.890   1.722  0.00  0.00     0.003 A 
ENDROOT
TORSDOF 0
ENDMDL
