MODEL 1
REMARK minimizedAffinity -2.23512912
REMARK minimizedRMSD -1
REMARK  0 active torsions:
REMARK  status: ('A' for Active; 'I' for Inactive)
ROOT
ATOM      1  C4' PXY d   1       0.376  -2.093  -1.506  0.00  0.00     0.077 C 
ATOM      2  C1' PXY d   1      -0.013   2.437   2.063  0.00  0.00     0.077 C 
ATOM      3  C1  PXY d   1       0.079   1.254   1.120  0.00  0.00    -0.082 A 
ATOM      4  C2  PXY d   1       0.616   0.121   1.543  0.00  0.00     0.003 A 
ATOM      5  C3  PXY d   1       0.737  -0.949   0.693  0.00  0.00     0.003 A 
ATOM      6  C4  PXY d   1       0.254  -0.875  -0.586  0.00  0.00    -0.082 A 
ATOM      7  C5  PXY d   1      -0.305   0.274  -1.021  0.00  0.00     0.003 A 
ATOM      8  C6  PXY d   1      -0.380   1.361  -0.156  0.00  0.00     0.003 A 
ENDROOT
TORSDOF 0
ENDMDL
