MODEL 1
REMARK minimizedAffinity -4.39521837
REMARK minimizedRMSD -1
REMARK  0 active torsions:
REMARK  status: ('A' for Active; 'I' for Inactive)
ROOT
ATOM      1  C4' PXY d   1      -0.817   2.515   1.790  0.00  0.00     0.077 C 
ATOM      2  C1' PXY d   1       0.666  -2.088  -1.377  0.00  0.00     0.077 C 
ATOM      3  C1  PXY d   1       0.280  -0.888  -0.536  0.00  0.00    -0.082 A 
ATOM      4  C2  PXY d   1      -0.552   0.016  -1.028  0.00  0.00     0.003 A 
ATOM      5  C3  PXY d   1      -0.886   1.124  -0.293  0.00  0.00     0.003 A 
ATOM      6  C4  PXY d   1      -0.407   1.282   0.980  0.00  0.00    -0.082 A 
ATOM      7  C5  PXY d   1       0.433   0.359   1.493  0.00  0.00     0.003 A 
ATOM      8  C6  PXY d   1       0.794  -0.738   0.715  0.00  0.00     0.003 A 
ENDROOT
TORSDOF 0
ENDMDL
