MODEL 1
REMARK minimizedAffinity -4.38673496
REMARK minimizedRMSD -1
REMARK  0 active torsions:
REMARK  status: ('A' for Active; 'I' for Inactive)
ROOT
ATOM      1  C4' PXY d   1       1.424  -1.021   1.550  0.00  0.00     0.077 C 
ATOM      2  C1' PXY d   1      -1.440   3.995   1.774  0.00  0.00     0.077 C 
ATOM      3  C1  PXY d   1      -0.700   2.673   1.714  0.00  0.00    -0.082 A 
ATOM      4  C2  PXY d   1       0.490   2.564   2.281  0.00  0.00     0.003 A 
ATOM      5  C3  PXY d   1       1.187   1.385   2.209  0.00  0.00     0.003 A 
ATOM      6  C4  PXY d   1       0.637   0.292   1.594  0.00  0.00    -0.082 A 
ATOM      7  C5  PXY d   1      -0.581   0.393   1.022  0.00  0.00     0.003 A 
ATOM      8  C6  PXY d   1      -1.255   1.610   1.071  0.00  0.00     0.003 A 
ENDROOT
TORSDOF 0
ENDMDL
