MODEL 1
REMARK minimizedAffinity -2.78968549
REMARK minimizedRMSD -1
REMARK  0 active torsions:
REMARK  status: ('A' for Active; 'I' for Inactive)
ROOT
ATOM      1  C4' PXY d   1      -0.793   2.972   1.756  0.00  0.00     0.077 C 
ATOM      2  C1' PXY d   1       0.415  -2.041  -0.857  0.00  0.00     0.077 C 
ATOM      3  C1  PXY d   1       0.097  -0.732  -0.160  0.00  0.00    -0.082 A 
ATOM      4  C2  PXY d   1      -0.395   0.278  -0.859  0.00  0.00     0.003 A 
ATOM      5  C3  PXY d   1      -0.659   1.478  -0.251  0.00  0.00     0.003 A 
ATOM      6  C4  PXY d   1      -0.466   1.630   1.096  0.00  0.00    -0.082 A 
ATOM      7  C5  PXY d   1       0.026   0.601   1.818  0.00  0.00     0.003 A 
ATOM      8  C6  PXY d   1       0.326  -0.597   1.174  0.00  0.00     0.003 A 
ENDROOT
TORSDOF 0
ENDMDL
