MODEL 1
REMARK minimizedAffinity -4.09813643
REMARK minimizedRMSD -1
REMARK  0 active torsions:
REMARK  status: ('A' for Active; 'I' for Inactive)
ROOT
ATOM      1  C4' PXY d   1       0.005   1.909   1.839  0.00  0.00     0.077 C 
ATOM      2  C1' PXY d   1       1.001  -2.899  -1.211  0.00  0.00     0.077 C 
ATOM      3  C1  PXY d   1       0.741  -1.645  -0.400  0.00  0.00    -0.082 A 
ATOM      4  C2  PXY d   1       0.073  -0.641  -0.944  0.00  0.00     0.003 A 
ATOM      5  C3  PXY d   1      -0.143   0.513  -0.236  0.00  0.00     0.003 A 
ATOM      6  C4  PXY d   1       0.283   0.620   1.061  0.00  0.00    -0.082 A 
ATOM      7  C5  PXY d   1       0.956  -0.404   1.627  0.00  0.00     0.003 A 
ATOM      8  C6  PXY d   1       1.201  -1.551   0.877  0.00  0.00     0.003 A 
ENDROOT
TORSDOF 0
ENDMDL
