MODEL 1
REMARK minimizedAffinity -5.2524786
REMARK minimizedRMSD -1
REMARK  0 active torsions:
REMARK  status: ('A' for Active; 'I' for Inactive)
ROOT
ATOM      1  C4' PXY d   1       0.895  -1.526  -0.534  0.00  0.00     0.077 C 
ATOM      2  C1' PXY d   1      -1.004   3.534   1.517  0.00  0.00     0.077 C 
ATOM      3  C1  PXY d   1      -0.496   2.207   0.988  0.00  0.00    -0.082 A 
ATOM      4  C2  PXY d   1      -0.760   1.856  -0.261  0.00  0.00     0.003 A 
ATOM      5  C3  PXY d   1      -0.336   0.646  -0.745  0.00  0.00     0.003 A 
ATOM      6  C4  PXY d   1       0.411  -0.192   0.039  0.00  0.00    -0.082 A 
ATOM      7  C5  PXY d   1       0.693   0.163   1.311  0.00  0.00     0.003 A 
ATOM      8  C6  PXY d   1       0.218   1.378   1.797  0.00  0.00     0.003 A 
ENDROOT
TORSDOF 0
ENDMDL
