MODEL 1
REMARK minimizedAffinity -2.95112562
REMARK minimizedRMSD -1
REMARK  0 active torsions:
REMARK  status: ('A' for Active; 'I' for Inactive)
ROOT
ATOM      1  C4' PXY d   1      -1.522   2.249  -1.868  0.00  0.00     0.077 C 
ATOM      2  C1' PXY d   1       1.035  -0.314   2.639  0.00  0.00     0.077 C 
ATOM      3  C1  PXY d   1       0.374   0.353   1.449  0.00  0.00    -0.082 A 
ATOM      4  C2  PXY d   1      -0.372   1.430   1.634  0.00  0.00     0.003 A 
ATOM      5  C3  PXY d   1      -1.004   2.027   0.574  0.00  0.00     0.003 A 
ATOM      6  C4  PXY d   1      -0.827   1.548  -0.697  0.00  0.00    -0.082 A 
ATOM      7  C5  PXY d   1      -0.059   0.456  -0.895  0.00  0.00     0.003 A 
ATOM      8  C6  PXY d   1       0.540  -0.160   0.200  0.00  0.00     0.003 A 
ENDROOT
TORSDOF 0
ENDMDL
