MODEL 1
REMARK minimizedAffinity -2.6383121
REMARK minimizedRMSD -1
REMARK  0 active torsions:
REMARK  status: ('A' for Active; 'I' for Inactive)
ROOT
ATOM      1  C4' PXY d   1       1.881  -0.889   2.142  0.00  0.00     0.077 C 
ATOM      2  C1' PXY d   1      -1.683   2.041  -1.341  0.00  0.00     0.077 C 
ATOM      3  C1  PXY d   1      -0.748   1.262  -0.436  0.00  0.00    -0.082 A 
ATOM      4  C2  PXY d   1      -0.692   1.555   0.853  0.00  0.00     0.003 A 
ATOM      5  C3  PXY d   1       0.170   0.882   1.680  0.00  0.00     0.003 A 
ATOM      6  C4  PXY d   1       0.945  -0.136   1.192  0.00  0.00    -0.082 A 
ATOM      7  C5  PXY d   1       0.886  -0.447  -0.120  0.00  0.00     0.003 A 
ATOM      8  C6  PXY d   1       0.034   0.275  -0.950  0.00  0.00     0.003 A 
ENDROOT
TORSDOF 0
ENDMDL
