MODEL 1
REMARK minimizedAffinity -0.0906621292
REMARK minimizedRMSD -1
REMARK  1 active torsions:
REMARK  status: ('A' for Active; 'I' for Inactive)
REMARK    1  A    between atoms: C1_2  and  C2_3 
ROOT
ATOM      1  C2  UNL d   1      -0.502  -0.502   0.662  0.00  0.00    -0.077 A 
ATOM      2  C3  UNL d   1      -1.498  -0.314  -0.306  0.00  0.00     0.002 A 
ATOM      3  C4  UNL d   1      -2.766   0.140   0.064  0.00  0.00     0.002 A 
ATOM      4  C5  UNL d   1      -3.047   0.411   1.401  0.00  0.00    -0.004 A 
ATOM      5  C6  UNL d   1      -2.064   0.225   2.372  0.00  0.00     0.002 A 
ATOM      6  C7  UNL d   1      -0.797  -0.229   2.003  0.00  0.00     0.002 A 
ENDROOT
BRANCH   1   7
ATOM      7  C1  UNL d   1       0.881  -0.944   0.258  0.00  0.00     0.055 C 
ATOM      8  C   UNL d   1       1.895  -0.662   1.357  0.00  0.00     0.019 C 
ENDBRANCH   1   7
TORSDOF 1
ENDMDL
