MODEL 1
REMARK minimizedAffinity 0.525100768
REMARK minimizedRMSD -1
REMARK  1 active torsions:
REMARK  status: ('A' for Active; 'I' for Inactive)
REMARK    1  A    between atoms: C1_2  and  C2_3 
ROOT
ATOM      1  C2  UNL d   1       3.727   0.739  -2.519  0.00  0.00    -0.077 A 
ATOM      2  C3  UNL d   1       4.845  -0.092  -2.366  0.00  0.00     0.002 A 
ATOM      3  C4  UNL d   1       5.306  -0.429  -1.092  0.00  0.00     0.002 A 
ATOM      4  C5  UNL d   1       4.652   0.058   0.038  0.00  0.00    -0.004 A 
ATOM      5  C6  UNL d   1       3.541   0.887  -0.104  0.00  0.00     0.002 A 
ATOM      6  C7  UNL d   1       3.079   1.226  -1.377  0.00  0.00     0.002 A 
ENDROOT
BRANCH   1   7
ATOM      7  C1  UNL d   1       3.199   1.064  -3.892  0.00  0.00     0.055 C 
ATOM      8  C   UNL d   1       1.677   1.052  -3.917  0.00  0.00     0.019 C 
ENDBRANCH   1   7
TORSDOF 1
ENDMDL
