MODEL 1
REMARK minimizedAffinity -2.66601896
REMARK minimizedRMSD -1
REMARK  1 active torsions:
REMARK  status: ('A' for Active; 'I' for Inactive)
REMARK    1  A    between atoms: C1_2  and  C2_3 
ROOT
ATOM      1  C2  UNL d   1       0.025  -0.659   2.783  0.00  0.00    -0.077 A 
ATOM      2  C3  UNL d   1      -1.316  -0.325   3.022  0.00  0.00     0.002 A 
ATOM      3  C4  UNL d   1      -2.137   0.095   1.973  0.00  0.00     0.002 A 
ATOM      4  C5  UNL d   1      -1.628   0.181   0.679  0.00  0.00    -0.004 A 
ATOM      5  C6  UNL d   1      -0.295  -0.147   0.432  0.00  0.00     0.002 A 
ATOM      6  C7  UNL d   1       0.527  -0.566   1.479  0.00  0.00     0.002 A 
ENDROOT
BRANCH   1   7
ATOM      7  C1  UNL d   1       0.899  -1.159   3.903  0.00  0.00     0.055 C 
ATOM      8  C   UNL d   1       0.065  -1.633   5.086  0.00  0.00     0.019 C 
ENDBRANCH   1   7
TORSDOF 1
ENDMDL
