MODEL 1
REMARK minimizedAffinity -4.86636257
REMARK minimizedRMSD -1
REMARK  0 active torsions:
REMARK  status: ('A' for Active; 'I' for Inactive)
ROOT
ATOM      1  C   UNL d   1      -2.613   0.755   2.603  0.00  0.00    -0.002 A 
ATOM      2  C1  UNL d   1      -2.923   0.883   1.257  0.00  0.00     0.010 A 
ATOM      3  C2  UNL d   1      -1.934   0.729   0.283  0.00  0.00     0.041 A 
ATOM      4  C3  UNL d   1      -0.617   0.439   0.688  0.00  0.00    -0.075 A 
ATOM      5  S   UNL d   1       0.757   0.207  -0.328  0.00  0.00     0.015 SA
ATOM      6  C4  UNL d   1       1.787  -0.069   1.002  0.00  0.00     0.022 A 
ATOM      7  C5  UNL d   1       1.116   0.011   2.199  0.00  0.00     0.026 A 
ATOM      8  C6  UNL d   1      -0.280   0.304   2.038  0.00  0.00    -0.082 A 
ATOM      9  C7  UNL d   1      -1.305   0.467   3.002  0.00  0.00     0.045 A 
ENDROOT
TORSDOF 0
ENDMDL
