MODEL 1
REMARK minimizedAffinity -2.57253122
REMARK minimizedRMSD -1
REMARK  0 active torsions:
REMARK  status: ('A' for Active; 'I' for Inactive)
ROOT
ATOM      1  C   UNL d   1      -2.823   0.854   2.919  0.00  0.00    -0.002 A 
ATOM      2  C1  UNL d   1      -3.282   0.794   1.611  0.00  0.00     0.010 A 
ATOM      3  C2  UNL d   1      -2.411   0.482   0.565  0.00  0.00     0.041 A 
ATOM      4  C3  UNL d   1      -1.057   0.226   0.860  0.00  0.00    -0.075 A 
ATOM      5  S   UNL d   1       0.191  -0.177  -0.259  0.00  0.00     0.015 SA
ATOM      6  C4  UNL d   1       1.364  -0.281   0.974  0.00  0.00     0.022 A 
ATOM      7  C5  UNL d   1       0.833  -0.017   2.214  0.00  0.00     0.026 A 
ATOM      8  C6  UNL d   1      -0.571   0.279   2.169  0.00  0.00    -0.082 A 
ATOM      9  C7  UNL d   1      -1.479   0.599   3.207  0.00  0.00     0.045 A 
ENDROOT
TORSDOF 0
ENDMDL
