MODEL 1
REMARK minimizedAffinity 1.28611028
REMARK minimizedRMSD -1
REMARK  0 active torsions:
REMARK  status: ('A' for Active; 'I' for Inactive)
ROOT
ATOM      1  C   UNL d   1       1.130  -0.060   2.410  0.00  0.00    -0.002 A 
ATOM      2  C1  UNL d   1      -0.222   0.226   2.533  0.00  0.00     0.010 A 
ATOM      3  C2  UNL d   1      -1.010   0.433   1.399  0.00  0.00     0.041 A 
ATOM      4  C3  UNL d   1      -0.411   0.346   0.127  0.00  0.00    -0.075 A 
ATOM      5  S   UNL d   1      -1.179   0.562  -1.401  0.00  0.00     0.015 SA
ATOM      6  C4  UNL d   1       0.269   0.279  -2.253  0.00  0.00     0.022 A 
ATOM      7  C5  UNL d   1       1.324   0.025  -1.408  0.00  0.00     0.026 A 
ATOM      8  C6  UNL d   1       0.949   0.059  -0.022  0.00  0.00    -0.082 A 
ATOM      9  C7  UNL d   1       1.721  -0.145   1.147  0.00  0.00     0.045 A 
ENDROOT
TORSDOF 0
ENDMDL
