MODEL 1
REMARK minimizedAffinity -0.460151851
REMARK minimizedRMSD -1
REMARK  0 active torsions:
REMARK  status: ('A' for Active; 'I' for Inactive)
ROOT
ATOM      1  C   UNL d   1      -1.511   0.362   3.314  0.00  0.00    -0.002 A 
ATOM      2  C1  UNL d   1      -2.638   0.669   2.565  0.00  0.00     0.010 A 
ATOM      3  C2  UNL d   1      -2.592   0.644   1.169  0.00  0.00     0.041 A 
ATOM      4  C3  UNL d   1      -1.383   0.299   0.534  0.00  0.00    -0.075 A 
ATOM      5  S   UNL d   1      -1.092   0.201  -1.163  0.00  0.00     0.015 SA
ATOM      6  C4  UNL d   1       0.535  -0.253  -0.933  0.00  0.00     0.022 A 
ATOM      7  C5  UNL d   1       0.865  -0.332   0.399  0.00  0.00     0.026 A 
ATOM      8  C6  UNL d   1      -0.235  -0.016   1.266  0.00  0.00    -0.082 A 
ATOM      9  C7  UNL d   1      -0.313   0.020   2.679  0.00  0.00     0.045 A 
ENDROOT
TORSDOF 0
ENDMDL
