MODEL 1
REMARK minimizedAffinity -0.791469097
REMARK minimizedRMSD -1
REMARK  0 active torsions:
REMARK  status: ('A' for Active; 'I' for Inactive)
ROOT
ATOM      1  C   UNL d   1       1.280  -0.935  -4.146  0.00  0.00    -0.002 A 
ATOM      2  C1  UNL d   1       1.645  -2.143  -3.570  0.00  0.00     0.010 A 
ATOM      3  C2  UNL d   1       1.576  -2.320  -2.187  0.00  0.00     0.041 A 
ATOM      4  C3  UNL d   1       1.129  -1.252  -1.384  0.00  0.00    -0.075 A 
ATOM      5  S   UNL d   1       0.962  -1.240   0.332  0.00  0.00     0.015 SA
ATOM      6  C4  UNL d   1       0.402   0.370   0.340  0.00  0.00     0.022 A 
ATOM      7  C5  UNL d   1       0.338   0.900  -0.926  0.00  0.00     0.026 A 
ATOM      8  C6  UNL d   1       0.755  -0.026  -1.941  0.00  0.00    -0.082 A 
ATOM      9  C7  UNL d   1       0.837   0.122  -3.347  0.00  0.00     0.045 A 
ENDROOT
TORSDOF 0
ENDMDL
