MODEL 1
REMARK minimizedAffinity -0.150095999
REMARK minimizedRMSD -1
REMARK  0 active torsions:
REMARK  status: ('A' for Active; 'I' for Inactive)
ROOT
ATOM      1  C   UNL d   1       0.973  -0.126  -3.379  0.00  0.00    -0.002 A 
ATOM      2  C1  UNL d   1      -0.399   0.073  -3.312  0.00  0.00     0.010 A 
ATOM      3  C2  UNL d   1      -1.033   0.236  -2.079  0.00  0.00     0.041 A 
ATOM      4  C3  UNL d   1      -0.258   0.198  -0.903  0.00  0.00    -0.075 A 
ATOM      5  S   UNL d   1      -0.819   0.375   0.718  0.00  0.00     0.015 SA
ATOM      6  C4  UNL d   1       0.750   0.192   1.359  0.00  0.00     0.022 A 
ATOM      7  C5  UNL d   1       1.690  -0.000   0.375  0.00  0.00     0.026 A 
ATOM      8  C6  UNL d   1       1.125   0.000  -0.945  0.00  0.00    -0.082 A 
ATOM      9  C7  UNL d   1       1.739  -0.163  -2.210  0.00  0.00     0.045 A 
ENDROOT
TORSDOF 0
ENDMDL
