MODEL 1
REMARK minimizedAffinity -1.0507704
REMARK minimizedRMSD -1
REMARK  0 active torsions:
REMARK  status: ('A' for Active; 'I' for Inactive)
ROOT
ATOM      1  C   UNL d   1       2.020  -0.267   1.228  0.00  0.00    -0.002 A 
ATOM      2  C1  UNL d   1       1.359  -0.284   0.009  0.00  0.00     0.010 A 
ATOM      3  C2  UNL d   1      -0.008  -0.009  -0.062  0.00  0.00     0.041 A 
ATOM      4  C3  UNL d   1      -0.705   0.289   1.125  0.00  0.00    -0.075 A 
ATOM      5  S   UNL d   1      -2.382   0.659   1.280  0.00  0.00     0.015 SA
ATOM      6  C4  UNL d   1      -2.260   0.849   2.970  0.00  0.00     0.022 A 
ATOM      7  C5  UNL d   1      -0.979   0.639   3.421  0.00  0.00     0.026 A 
ATOM      8  C6  UNL d   1      -0.061   0.313   2.365  0.00  0.00    -0.082 A 
ATOM      9  C7  UNL d   1       1.325   0.029   2.404  0.00  0.00     0.045 A 
ENDROOT
TORSDOF 0
ENDMDL
