MODEL 1
REMARK minimizedAffinity -2.36280537
REMARK minimizedRMSD -1
REMARK  0 active torsions:
REMARK  status: ('A' for Active; 'I' for Inactive)
ROOT
ATOM      1  C   UNL d   1      -2.390   0.918   2.601  0.00  0.00    -0.002 A 
ATOM      2  C1  UNL d   1      -2.892   0.937   1.308  0.00  0.00     0.010 A 
ATOM      3  C2  UNL d   1      -2.060   0.669   0.219  0.00  0.00     0.041 A 
ATOM      4  C3  UNL d   1      -0.702   0.378   0.454  0.00  0.00    -0.075 A 
ATOM      5  S   UNL d   1       0.503   0.018  -0.725  0.00  0.00     0.015 SA
ATOM      6  C4  UNL d   1       1.713  -0.169   0.461  0.00  0.00     0.022 A 
ATOM      7  C5  UNL d   1       1.227   0.034   1.730  0.00  0.00     0.026 A 
ATOM      8  C6  UNL d   1      -0.173   0.353   1.748  0.00  0.00    -0.082 A 
ATOM      9  C7  UNL d   1      -1.042   0.629   2.831  0.00  0.00     0.045 A 
ENDROOT
TORSDOF 0
ENDMDL
