MODEL 1
REMARK minimizedAffinity -4.39149761
REMARK minimizedRMSD -1
REMARK  0 active torsions:
REMARK  status: ('A' for Active; 'I' for Inactive)
ROOT
ATOM      1  C   UNL d   1       1.817  -1.672  -3.571  0.00  0.00    -0.002 A 
ATOM      2  C1  UNL d   1       0.694  -0.910  -3.862  0.00  0.00     0.010 A 
ATOM      3  C2  UNL d   1       0.020  -0.223  -2.851  0.00  0.00     0.041 A 
ATOM      4  C3  UNL d   1       0.499  -0.313  -1.529  0.00  0.00    -0.075 A 
ATOM      5  S   UNL d   1      -0.164   0.443  -0.129  0.00  0.00     0.015 SA
ATOM      6  C4  UNL d   1       1.028  -0.226   0.889  0.00  0.00     0.022 A 
ATOM      7  C5  UNL d   1       1.918  -1.010   0.194  0.00  0.00     0.026 A 
ATOM      8  C6  UNL d   1       1.629  -1.073  -1.211  0.00  0.00    -0.082 A 
ATOM      9  C7  UNL d   1       2.289  -1.759  -2.258  0.00  0.00     0.045 A 
ENDROOT
TORSDOF 0
ENDMDL
