MODEL 1
REMARK minimizedAffinity 0.799685895
REMARK minimizedRMSD -1
REMARK  0 active torsions:
REMARK  status: ('A' for Active; 'I' for Inactive)
ROOT
ATOM      1  C   UNL d   1      -2.362   1.084   2.546  0.00  0.00    -0.002 A 
ATOM      2  C1  UNL d   1      -3.053   0.978   1.347  0.00  0.00     0.010 A 
ATOM      3  C2  UNL d   1      -2.382   0.651   0.167  0.00  0.00     0.041 A 
ATOM      4  C3  UNL d   1      -0.992   0.428   0.212  0.00  0.00    -0.075 A 
ATOM      5  S   UNL d   1       0.038   0.015  -1.107  0.00  0.00     0.015 SA
ATOM      6  C4  UNL d   1       1.420  -0.031  -0.110  0.00  0.00     0.022 A 
ATOM      7  C5  UNL d   1       1.121   0.259   1.200  0.00  0.00     0.026 A 
ATOM      8  C6  UNL d   1      -0.274   0.528   1.407  0.00  0.00    -0.082 A 
ATOM      9  C7  UNL d   1      -0.983   0.862   2.587  0.00  0.00     0.045 A 
ENDROOT
TORSDOF 0
ENDMDL
