MODEL 1
REMARK minimizedAffinity -1.00317252
REMARK minimizedRMSD -1
REMARK  0 active torsions:
REMARK  status: ('A' for Active; 'I' for Inactive)
ROOT
ATOM      1  C   UNL d   1       0.111   0.337   1.251  0.00  0.00    -0.002 A 
ATOM      2  C1  UNL d   1       1.082  -0.630   1.472  0.00  0.00     0.010 A 
ATOM      3  C2  UNL d   1       1.614  -1.358   0.406  0.00  0.00     0.041 A 
ATOM      4  C3  UNL d   1       1.152  -1.094  -0.898  0.00  0.00    -0.075 A 
ATOM      5  S   UNL d   1       1.661  -1.860  -2.356  0.00  0.00     0.015 SA
ATOM      6  C4  UNL d   1       0.603  -0.921  -3.307  0.00  0.00     0.022 A 
ATOM      7  C5  UNL d   1      -0.129  -0.040  -2.546  0.00  0.00     0.026 A 
ATOM      8  C6  UNL d   1       0.176  -0.124  -1.146  0.00  0.00    -0.082 A 
ATOM      9  C7  UNL d   1      -0.345   0.596  -0.044  0.00  0.00     0.045 A 
ENDROOT
TORSDOF 0
ENDMDL
