MODEL 1
REMARK minimizedAffinity -1.54905379
REMARK minimizedRMSD -1
REMARK  0 active torsions:
REMARK  status: ('A' for Active; 'I' for Inactive)
ROOT
ATOM      1  C   UNL d   1       1.060  -1.440  -3.100  0.00  0.00    -0.002 A 
ATOM      2  C1  UNL d   1       0.723  -0.104  -3.270  0.00  0.00     0.010 A 
ATOM      3  C2  UNL d   1       0.589   0.740  -2.167  0.00  0.00     0.041 A 
ATOM      4  C3  UNL d   1       0.802   0.216  -0.877  0.00  0.00    -0.075 A 
ATOM      5  S   UNL d   1       0.693   1.062   0.621  0.00  0.00     0.015 SA
ATOM      6  C4  UNL d   1       1.092  -0.328   1.522  0.00  0.00     0.022 A 
ATOM      7  C5  UNL d   1       1.305  -1.421   0.716  0.00  0.00     0.026 A 
ATOM      8  C6  UNL d   1       1.142  -1.126  -0.680  0.00  0.00    -0.082 A 
ATOM      9  C7  UNL d   1       1.270  -1.957  -1.819  0.00  0.00     0.045 A 
ENDROOT
TORSDOF 0
ENDMDL
