MODEL 1
REMARK minimizedAffinity -4.40642595
REMARK minimizedRMSD -1
REMARK  0 active torsions:
REMARK  status: ('A' for Active; 'I' for Inactive)
ROOT
ATOM      1  C   UNL d   1       0.363   0.385   1.055  0.00  0.00    -0.002 A 
ATOM      2  C1  UNL d   1       1.062  -0.786   1.312  0.00  0.00     0.010 A 
ATOM      3  C2  UNL d   1       1.449  -1.626   0.266  0.00  0.00     0.041 A 
ATOM      4  C3  UNL d   1       1.120  -1.265  -1.055  0.00  0.00    -0.075 A 
ATOM      5  S   UNL d   1       1.492  -2.138  -2.495  0.00  0.00     0.015 SA
ATOM      6  C4  UNL d   1       0.732  -0.977  -3.484  0.00  0.00     0.022 A 
ATOM      7  C5  UNL d   1       0.202   0.058  -2.751  0.00  0.00     0.026 A 
ATOM      8  C6  UNL d   1       0.418  -0.091  -1.339  0.00  0.00    -0.082 A 
ATOM      9  C7  UNL d   1       0.038   0.740  -0.257  0.00  0.00     0.045 A 
ENDROOT
TORSDOF 0
ENDMDL
