MODEL 1
REMARK minimizedAffinity -4.07716322
REMARK minimizedRMSD -1
REMARK  0 active torsions:
REMARK  status: ('A' for Active; 'I' for Inactive)
ROOT
ATOM      1  C   UNL d   1      -1.586  -2.491   1.726  0.00  0.00    -0.002 A 
ATOM      2  C1  UNL d   1      -2.340  -1.375   2.061  0.00  0.00     0.010 A 
ATOM      3  C2  UNL d   1      -2.037  -0.125   1.519  0.00  0.00     0.041 A 
ATOM      4  C3  UNL d   1      -0.954  -0.013   0.625  0.00  0.00    -0.075 A 
ATOM      5  S   UNL d   1      -0.400   1.416  -0.163  0.00  0.00     0.015 SA
ATOM      6  C4  UNL d   1       0.850   0.579  -0.964  0.00  0.00     0.022 A 
ATOM      7  C5  UNL d   1       0.859  -0.759  -0.650  0.00  0.00     0.026 A 
ATOM      8  C6  UNL d   1      -0.181  -1.123   0.271  0.00  0.00    -0.082 A 
ATOM      9  C7  UNL d   1      -0.513  -2.377   0.838  0.00  0.00     0.045 A 
ENDROOT
TORSDOF 0
ENDMDL
