MODEL 1
REMARK minimizedAffinity -1.80090809
REMARK minimizedRMSD -1
REMARK  0 active torsions:
REMARK  status: ('A' for Active; 'I' for Inactive)
ROOT
ATOM      1  C   UNL d   1      -0.842  -2.262   1.202  0.00  0.00    -0.002 A 
ATOM      2  C1  UNL d   1       0.436  -2.222   0.662  0.00  0.00     0.010 A 
ATOM      3  C2  UNL d   1       1.010  -1.006   0.286  0.00  0.00     0.041 A 
ATOM      4  C3  UNL d   1       0.271   0.180   0.464  0.00  0.00    -0.075 A 
ATOM      5  S   UNL d   1       0.771   1.784   0.077  0.00  0.00     0.015 SA
ATOM      6  C4  UNL d   1      -0.700   2.454   0.619  0.00  0.00     0.022 A 
ATOM      7  C5  UNL d   1      -1.563   1.491   1.087  0.00  0.00     0.026 A 
ATOM      8  C6  UNL d   1      -1.017   0.165   1.006  0.00  0.00    -0.082 A 
ATOM      9  C7  UNL d   1      -1.572  -1.083   1.377  0.00  0.00     0.045 A 
ENDROOT
TORSDOF 0
ENDMDL
