MODEL 1
REMARK minimizedAffinity -2.20864892
REMARK minimizedRMSD -1
REMARK  0 active torsions:
REMARK  status: ('A' for Active; 'I' for Inactive)
ROOT
ATOM      1  C   UNL d   1      -2.598  -1.676   2.595  0.00  0.00    -0.002 A 
ATOM      2  C1  UNL d   1      -2.945  -0.351   2.368  0.00  0.00     0.010 A 
ATOM      3  C2  UNL d   1      -2.236   0.421   1.446  0.00  0.00     0.041 A 
ATOM      4  C3  UNL d   1      -1.164  -0.167   0.746  0.00  0.00    -0.075 A 
ATOM      5  S   UNL d   1      -0.154   0.585  -0.432  0.00  0.00     0.015 SA
ATOM      6  C4  UNL d   1       0.761  -0.834  -0.662  0.00  0.00     0.022 A 
ATOM      7  C5  UNL d   1       0.321  -1.866   0.132  0.00  0.00     0.026 A 
ATOM      8  C6  UNL d   1      -0.796  -1.499   0.956  0.00  0.00    -0.082 A 
ATOM      9  C7  UNL d   1      -1.533  -2.255   1.899  0.00  0.00     0.045 A 
ENDROOT
TORSDOF 0
ENDMDL
