MODEL 1
REMARK minimizedAffinity -2.90542984
REMARK minimizedRMSD -1
REMARK  0 active torsions:
REMARK  status: ('A' for Active; 'I' for Inactive)
ROOT
ATOM      1  C   UNL d   1       0.855  -0.555   0.329  0.00  0.00    -0.002 A 
ATOM      2  C1  UNL d   1       0.540  -1.451  -0.684  0.00  0.00     0.010 A 
ATOM      3  C2  UNL d   1       0.453  -1.022  -2.009  0.00  0.00     0.041 A 
ATOM      4  C3  UNL d   1       0.691   0.334  -2.304  0.00  0.00    -0.075 A 
ATOM      5  S   UNL d   1       0.641   1.086  -3.855  0.00  0.00     0.015 SA
ATOM      6  C4  UNL d   1       1.037   2.613  -3.211  0.00  0.00     0.022 A 
ATOM      7  C5  UNL d   1       1.206   2.569  -1.847  0.00  0.00     0.026 A 
ATOM      8  C6  UNL d   1       1.011   1.255  -1.302  0.00  0.00    -0.082 A 
ATOM      9  C7  UNL d   1       1.091   0.790   0.032  0.00  0.00     0.045 A 
ENDROOT
TORSDOF 0
ENDMDL
