MODEL 1
REMARK minimizedAffinity -2.7801671
REMARK minimizedRMSD -1
REMARK  0 active torsions:
REMARK  status: ('A' for Active; 'I' for Inactive)
ROOT
ATOM      1  C   UNL d   1       0.066  -1.544  -0.277  0.00  0.00    -0.002 A 
ATOM      2  C1  UNL d   1       0.631  -0.699   0.668  0.00  0.00     0.010 A 
ATOM      3  C2  UNL d   1       1.134   0.548   0.295  0.00  0.00     0.041 A 
ATOM      4  C3  UNL d   1       1.058   0.938  -1.057  0.00  0.00    -0.075 A 
ATOM      5  S   UNL d   1       1.609   2.420  -1.744  0.00  0.00     0.015 SA
ATOM      6  C4  UNL d   1       1.107   1.967  -3.309  0.00  0.00     0.022 A 
ATOM      7  C5  UNL d   1       0.531   0.719  -3.325  0.00  0.00     0.026 A 
ATOM      8  C6  UNL d   1       0.493   0.105  -2.027  0.00  0.00    -0.082 A 
ATOM      9  C7  UNL d   1      -0.008  -1.154  -1.617  0.00  0.00     0.045 A 
ENDROOT
TORSDOF 0
ENDMDL
