MODEL 1
REMARK minimizedAffinity -3.50206184
REMARK minimizedRMSD -1
REMARK  0 active torsions:
REMARK  status: ('A' for Active; 'I' for Inactive)
ROOT
ATOM      1  C   UNL d   1       0.121   2.153   0.274  0.00  0.00    -0.002 A 
ATOM      2  C1  UNL d   1      -1.119   1.805   0.791  0.00  0.00     0.010 A 
ATOM      3  C2  UNL d   1      -1.445   0.466   1.015  0.00  0.00     0.041 A 
ATOM      4  C3  UNL d   1      -0.493  -0.527   0.709  0.00  0.00    -0.075 A 
ATOM      5  S   UNL d   1      -0.671  -2.232   0.901  0.00  0.00     0.015 SA
ATOM      6  C4  UNL d   1       0.895  -2.538   0.302  0.00  0.00     0.022 A 
ATOM      7  C5  UNL d   1       1.551  -1.380  -0.041  0.00  0.00     0.026 A 
ATOM      8  C6  UNL d   1       0.762  -0.202   0.188  0.00  0.00    -0.082 A 
ATOM      9  C7  UNL d   1       1.062   1.165  -0.028  0.00  0.00     0.045 A 
ENDROOT
TORSDOF 0
ENDMDL
