MODEL 1
REMARK minimizedAffinity -4.55796719
REMARK minimizedRMSD -1
REMARK  1 active torsions:
REMARK  status: ('A' for Active; 'I' for Inactive)
REMARK    1  A    between atoms: C1_2  and  C2_3 
ROOT
ATOM      1  C2  UNL d   1      -1.235  -0.116   1.409  0.00  0.00    -0.073 A 
ATOM      2  C3  UNL d   1      -0.754   0.737   0.409  0.00  0.00    -0.002 A 
ATOM      3  C4  UNL d   1       0.105   0.252  -0.578  0.00  0.00     0.004 A 
ATOM      4  C5  UNL d   1       0.485  -1.090  -0.580  0.00  0.00    -0.004 A 
ATOM      5  C6  UNL d   1       0.005  -1.960   0.404  0.00  0.00    -0.075 A 
ATOM      6  C7  UNL d   1       0.407  -3.406   0.417  0.00  0.00     0.076 C 
ATOM      7  C8  UNL d   1      -0.855  -1.465   1.393  0.00  0.00     0.001 A 
ENDROOT
BRANCH   1   8
ATOM      8  C1  UNL d   1      -2.168   0.402   2.473  0.00  0.00     0.053 C 
ATOM      9  C   UNL d   1      -1.872  -0.206   3.835  0.00  0.00     0.018 C 
ENDBRANCH   1   8
TORSDOF 1
ENDMDL
