MODEL 1
REMARK minimizedAffinity -4.45503521
REMARK minimizedRMSD -1
REMARK  1 active torsions:
REMARK  status: ('A' for Active; 'I' for Inactive)
REMARK    1  A    between atoms: C1_2  and  C2_3 
ROOT
ATOM      1  C2  UNL d   1      -0.095   0.661   0.114  0.00  0.00    -0.073 A 
ATOM      2  C3  UNL d   1      -1.016   0.902   1.139  0.00  0.00    -0.002 A 
ATOM      3  C4  UNL d   1      -1.652  -0.162   1.780  0.00  0.00     0.004 A 
ATOM      4  C5  UNL d   1      -1.368  -1.476   1.408  0.00  0.00    -0.004 A 
ATOM      5  C6  UNL d   1      -0.442  -1.738   0.393  0.00  0.00    -0.075 A 
ATOM      6  C7  UNL d   1      -0.127  -3.145  -0.020  0.00  0.00     0.076 C 
ATOM      7  C8  UNL d   1       0.191  -0.664  -0.247  0.00  0.00     0.001 A 
ENDROOT
BRANCH   1   8
ATOM      8  C1  UNL d   1       0.599   1.807  -0.577  0.00  0.00     0.053 C 
ATOM      9  C   UNL d   1       1.062   2.869   0.407  0.00  0.00     0.018 C 
ENDBRANCH   1   8
TORSDOF 1
ENDMDL
