MODEL 1
REMARK minimizedAffinity -3.3325963
REMARK minimizedRMSD -1
REMARK  1 active torsions:
REMARK  status: ('A' for Active; 'I' for Inactive)
REMARK    1  A    between atoms: C1_2  and  C2_3 
ROOT
ATOM      1  C2  UNL d   1      -0.084  -0.144   0.019  0.00  0.00    -0.073 A 
ATOM      2  C3  UNL d   1       1.030  -0.957  -0.220  0.00  0.00    -0.002 A 
ATOM      3  C4  UNL d   1       0.913  -2.347  -0.167  0.00  0.00     0.004 A 
ATOM      4  C5  UNL d   1      -0.318  -2.937   0.118  0.00  0.00    -0.004 A 
ATOM      5  C6  UNL d   1      -1.446  -2.142   0.348  0.00  0.00    -0.075 A 
ATOM      6  C7  UNL d   1      -2.777  -2.762   0.658  0.00  0.00     0.076 C 
ATOM      7  C8  UNL d   1      -1.320  -0.747   0.296  0.00  0.00     0.001 A 
ENDROOT
BRANCH   1   8
ATOM      8  C1  UNL d   1       0.036   1.356  -0.044  0.00  0.00     0.053 C 
ATOM      9  C   UNL d   1       1.392   1.841   0.445  0.00  0.00     0.018 C 
ENDBRANCH   1   8
TORSDOF 1
ENDMDL
