MODEL 1
REMARK minimizedAffinity -3.9963057
REMARK minimizedRMSD -1
REMARK  1 active torsions:
REMARK  status: ('A' for Active; 'I' for Inactive)
REMARK    1  A    between atoms: C1_2  and  C2_3 
ROOT
ATOM      1  C2  UNL d   1       0.339   1.823   0.156  0.00  0.00    -0.073 A 
ATOM      2  C3  UNL d   1      -0.303   1.276   1.273  0.00  0.00    -0.002 A 
ATOM      3  C4  UNL d   1      -0.665  -0.071   1.288  0.00  0.00     0.004 A 
ATOM      4  C5  UNL d   1      -0.384  -0.886   0.192  0.00  0.00    -0.004 A 
ATOM      5  C6  UNL d   1       0.267  -0.360  -0.929  0.00  0.00    -0.075 A 
ATOM      6  C7  UNL d   1       0.574  -1.223  -2.118  0.00  0.00     0.076 C 
ATOM      7  C8  UNL d   1       0.625   0.994  -0.938  0.00  0.00     0.001 A 
ENDROOT
BRANCH   1   8
ATOM      8  C1  UNL d   1       0.738   3.276   0.138  0.00  0.00     0.053 C 
ATOM      9  C   UNL d   1       1.850   3.575   1.131  0.00  0.00     0.018 C 
ENDBRANCH   1   8
TORSDOF 1
ENDMDL
