MODEL 1
REMARK minimizedAffinity -3.86340928
REMARK minimizedRMSD -1
REMARK  1 active torsions:
REMARK  status: ('A' for Active; 'I' for Inactive)
REMARK    1  A    between atoms: C1_2  and  C2_3 
ROOT
ATOM      1  C2  UNL d   1       0.839   3.689   1.120  0.00  0.00    -0.073 A 
ATOM      2  C3  UNL d   1       1.554   3.727  -0.082  0.00  0.00    -0.002 A 
ATOM      3  C4  UNL d   1       1.520   2.640  -0.957  0.00  0.00     0.004 A 
ATOM      4  C5  UNL d   1       0.767   1.509  -0.642  0.00  0.00    -0.004 A 
ATOM      5  C6  UNL d   1       0.036   1.457   0.549  0.00  0.00    -0.075 A 
ATOM      6  C7  UNL d   1      -0.778   0.247   0.903  0.00  0.00     0.076 C 
ATOM      7  C8  UNL d   1       0.077   2.552   1.423  0.00  0.00     0.001 A 
ENDROOT
BRANCH   1   8
ATOM      8  C1  UNL d   1       0.867   4.863   2.065  0.00  0.00     0.053 C 
ATOM      9  C   UNL d   1      -0.527   5.261   2.522  0.00  0.00     0.018 C 
ENDBRANCH   1   8
TORSDOF 1
ENDMDL
