MODEL 1
REMARK minimizedAffinity -4.61237478
REMARK minimizedRMSD -1
REMARK  1 active torsions:
REMARK  status: ('A' for Active; 'I' for Inactive)
REMARK    1  A    between atoms: C1_2  and  C2_3 
ROOT
ATOM      1  C2  UNL d   1      -0.119  -0.347   0.119  0.00  0.00    -0.073 A 
ATOM      2  C3  UNL d   1      -1.004  -0.230   1.196  0.00  0.00    -0.002 A 
ATOM      3  C4  UNL d   1      -1.422  -1.365   1.892  0.00  0.00     0.004 A 
ATOM      4  C5  UNL d   1      -0.954  -2.626   1.524  0.00  0.00    -0.004 A 
ATOM      5  C6  UNL d   1      -0.060  -2.763   0.457  0.00  0.00    -0.075 A 
ATOM      6  C7  UNL d   1       0.451  -4.113   0.047  0.00  0.00     0.076 C 
ATOM      7  C8  UNL d   1       0.353  -1.618  -0.239  0.00  0.00     0.001 A 
ENDROOT
BRANCH   1   8
ATOM      8  C1  UNL d   1       0.340   0.876  -0.632  0.00  0.00     0.053 C 
ATOM      9  C   UNL d   1       0.384   2.108   0.259  0.00  0.00     0.018 C 
ENDBRANCH   1   8
TORSDOF 1
ENDMDL
