MODEL 1
REMARK minimizedAffinity -5.77164841
REMARK minimizedRMSD -1
REMARK  1 active torsions:
REMARK  status: ('A' for Active; 'I' for Inactive)
REMARK    1  A    between atoms: C1_2  and  C2_3 
ROOT
ATOM      1  C2  UNL d   1      -0.158  -2.114  -0.260  0.00  0.00    -0.073 A 
ATOM      2  C3  UNL d   1      -0.722  -2.406   0.988  0.00  0.00    -0.002 A 
ATOM      3  C4  UNL d   1      -1.001  -1.380   1.892  0.00  0.00     0.004 A 
ATOM      4  C5  UNL d   1      -0.727  -0.054   1.557  0.00  0.00    -0.004 A 
ATOM      5  C6  UNL d   1      -0.174   0.258   0.311  0.00  0.00    -0.075 A 
ATOM      6  C7  UNL d   1       0.129   1.679  -0.064  0.00  0.00     0.076 C 
ATOM      7  C8  UNL d   1       0.106  -0.777  -0.591  0.00  0.00     0.001 A 
ENDROOT
BRANCH   1   8
ATOM      8  C1  UNL d   1       0.139  -3.217  -1.242  0.00  0.00     0.053 C 
ATOM      9  C   UNL d   1       0.324  -2.687  -2.655  0.00  0.00     0.018 C 
ENDBRANCH   1   8
TORSDOF 1
ENDMDL
