MODEL 1
REMARK minimizedAffinity -1.3037107
REMARK minimizedRMSD -1
REMARK  1 active torsions:
REMARK  status: ('A' for Active; 'I' for Inactive)
REMARK    1  A    between atoms: C1_2  and  C2_3 
ROOT
ATOM      1  C2  UNL d   1      -0.741   0.190   0.466  0.00  0.00    -0.081 A 
ATOM      2  C3  UNL d   1       0.595   0.360   0.850  0.00  0.00     0.006 A 
ATOM      3  C4  UNL d   1       0.911   0.813   2.133  0.00  0.00     0.002 A 
ATOM      4  C5  UNL d   1      -0.102   1.096   3.056  0.00  0.00    -0.080 A 
ATOM      5  C6  UNL d   1       0.225   1.554   4.446  0.00  0.00     0.076 C 
ATOM      6  C7  UNL d   1      -1.437   0.943   2.667  0.00  0.00     0.002 A 
ATOM      7  C8  UNL d   1      -1.754   0.491   1.384  0.00  0.00     0.006 A 
ENDROOT
BRANCH   1   8
ATOM      8  C1  UNL d   1      -1.083  -0.359  -0.895  0.00  0.00     0.054 C 
ATOM      9  C   UNL d   1      -0.277  -1.612  -1.204  0.00  0.00     0.018 C 
ENDBRANCH   1   8
TORSDOF 1
ENDMDL
