MODEL 1
REMARK minimizedAffinity 0.399435788
REMARK minimizedRMSD -1
REMARK  1 active torsions:
REMARK  status: ('A' for Active; 'I' for Inactive)
REMARK    1  A    between atoms: C1_2  and  C2_3 
ROOT
ATOM      1  C2  UNL d   1      -0.195   0.056   3.008  0.00  0.00    -0.081 A 
ATOM      2  C3  UNL d   1      -0.576  -1.235   3.395  0.00  0.00     0.006 A 
ATOM      3  C4  UNL d   1       0.356  -2.110   3.957  0.00  0.00     0.002 A 
ATOM      4  C5  UNL d   1       1.682  -1.708   4.149  0.00  0.00    -0.080 A 
ATOM      5  C6  UNL d   1       2.685  -2.628   4.779  0.00  0.00     0.076 C 
ATOM      6  C7  UNL d   1       2.068  -0.425   3.746  0.00  0.00     0.002 A 
ATOM      7  C8  UNL d   1       1.136   0.450   3.183  0.00  0.00     0.006 A 
ENDROOT
BRANCH   1   8
ATOM      8  C1  UNL d   1      -1.212   1.024   2.461  0.00  0.00     0.054 C 
ATOM      9  C   UNL d   1      -2.398   0.293   1.849  0.00  0.00     0.018 C 
ENDBRANCH   1   8
TORSDOF 1
ENDMDL
