MODEL 1
REMARK minimizedAffinity 6.52661562
REMARK minimizedRMSD -1
REMARK  1 active torsions:
REMARK  status: ('A' for Active; 'I' for Inactive)
REMARK    1  A    between atoms: C1_2  and  C2_3 
ROOT
ATOM      1  C2  UNL d   1      -2.248  -1.989  -5.439  0.00  0.00    -0.081 A 
ATOM      2  C3  UNL d   1      -2.096  -0.710  -5.988  0.00  0.00     0.006 A 
ATOM      3  C4  UNL d   1      -1.110   0.155  -5.507  0.00  0.00     0.002 A 
ATOM      4  C5  UNL d   1      -0.255  -0.247  -4.476  0.00  0.00    -0.080 A 
ATOM      5  C6  UNL d   1       0.827   0.661  -3.971  0.00  0.00     0.076 C 
ATOM      6  C7  UNL d   1      -0.418  -1.518  -3.915  0.00  0.00     0.002 A 
ATOM      7  C8  UNL d   1      -1.404  -2.383  -4.395  0.00  0.00     0.006 A 
ENDROOT
BRANCH   1   8
ATOM      8  C1  UNL d   1      -3.267  -2.947  -5.999  0.00  0.00     0.054 C 
ATOM      9  C   UNL d   1      -4.661  -2.335  -5.999  0.00  0.00     0.018 C 
ENDBRANCH   1   8
TORSDOF 1
ENDMDL
