MODEL 1
REMARK minimizedAffinity 2.21137142
REMARK minimizedRMSD -1
REMARK  1 active torsions:
REMARK  status: ('A' for Active; 'I' for Inactive)
REMARK    1  A    between atoms: C1_2  and  C2_3 
ROOT
ATOM      1  C2  UNL d   1       3.964   4.709   2.473  0.00  0.00    -0.081 A 
ATOM      2  C3  UNL d   1       2.989   4.722   1.468  0.00  0.00     0.006 A 
ATOM      3  C4  UNL d   1       2.418   3.528   1.021  0.00  0.00     0.002 A 
ATOM      4  C5  UNL d   1       2.806   2.304   1.576  0.00  0.00    -0.080 A 
ATOM      5  C6  UNL d   1       2.179   1.018   1.126  0.00  0.00     0.076 C 
ATOM      6  C7  UNL d   1       3.792   2.290   2.568  0.00  0.00     0.002 A 
ATOM      7  C8  UNL d   1       4.364   3.483   3.015  0.00  0.00     0.006 A 
ENDROOT
BRANCH   1   8
ATOM      8  C1  UNL d   1       4.535   6.000   3.003  0.00  0.00     0.054 C 
ATOM      9  C   UNL d   1       5.999   5.841   3.386  0.00  0.00     0.018 C 
ENDBRANCH   1   8
TORSDOF 1
ENDMDL
