MODEL 1
REMARK minimizedAffinity 1.72715139
REMARK minimizedRMSD -1
REMARK  1 active torsions:
REMARK  status: ('A' for Active; 'I' for Inactive)
REMARK    1  A    between atoms: C1_2  and  C2_3 
ROOT
ATOM      1  C2  UNL d   1       0.423  -3.281  -2.507  0.00  0.00    -0.081 A 
ATOM      2  C3  UNL d   1       0.086  -2.747  -3.757  0.00  0.00     0.006 A 
ATOM      3  C4  UNL d   1       0.060  -3.561  -4.892  0.00  0.00     0.002 A 
ATOM      4  C5  UNL d   1       0.362  -4.923  -4.795  0.00  0.00    -0.080 A 
ATOM      5  C6  UNL d   1       0.309  -5.815  -6.000  0.00  0.00     0.076 C 
ATOM      6  C7  UNL d   1       0.716  -5.454  -3.550  0.00  0.00     0.002 A 
ATOM      7  C8  UNL d   1       0.743  -4.640  -2.415  0.00  0.00     0.006 A 
ENDROOT
BRANCH   1   8
ATOM      8  C1  UNL d   1       0.389  -2.420  -1.271  0.00  0.00     0.054 C 
ATOM      9  C   UNL d   1      -0.941  -1.691  -1.141  0.00  0.00     0.018 C 
ENDBRANCH   1   8
TORSDOF 1
ENDMDL
