MODEL 1
REMARK minimizedAffinity 8.98355961
REMARK minimizedRMSD -1
REMARK  1 active torsions:
REMARK  status: ('A' for Active; 'I' for Inactive)
REMARK    1  A    between atoms: C1_2  and  C2_3 
ROOT
ATOM      1  C2  UNL d   1      -1.712   2.787   1.399  0.00  0.00    -0.081 A 
ATOM      2  C3  UNL d   1      -1.974   1.651   2.176  0.00  0.00     0.006 A 
ATOM      3  C4  UNL d   1      -2.329   0.444   1.568  0.00  0.00     0.002 A 
ATOM      4  C5  UNL d   1      -2.420   0.351   0.175  0.00  0.00    -0.080 A 
ATOM      5  C6  UNL d   1      -2.770  -0.947  -0.491  0.00  0.00     0.076 C 
ATOM      6  C7  UNL d   1      -2.175   1.489  -0.600  0.00  0.00     0.002 A 
ATOM      7  C8  UNL d   1      -1.821   2.696   0.007  0.00  0.00     0.006 A 
ENDROOT
BRANCH   1   8
ATOM      8  C1  UNL d   1      -1.266   4.072   2.048  0.00  0.00     0.054 C 
ATOM      9  C   UNL d   1      -2.073   5.258   1.537  0.00  0.00     0.018 C 
ENDBRANCH   1   8
TORSDOF 1
ENDMDL
