MODEL 1
REMARK minimizedAffinity 2.61321902
REMARK minimizedRMSD -1
REMARK  1 active torsions:
REMARK  status: ('A' for Active; 'I' for Inactive)
REMARK    1  A    between atoms: C1_2  and  C2_3 
ROOT
ATOM      1  C2  UNL d   1       0.372   0.056   2.181  0.00  0.00    -0.081 A 
ATOM      2  C3  UNL d   1       0.347  -1.008   3.092  0.00  0.00     0.006 A 
ATOM      3  C4  UNL d   1      -0.861  -1.440   3.643  0.00  0.00     0.002 A 
ATOM      4  C5  UNL d   1      -2.065  -0.822   3.288  0.00  0.00    -0.080 A 
ATOM      5  C6  UNL d   1      -3.372  -1.296   3.850  0.00  0.00     0.076 C 
ATOM      6  C7  UNL d   1      -2.039   0.252   2.392  0.00  0.00     0.002 A 
ATOM      7  C8  UNL d   1      -0.831   0.685   1.841  0.00  0.00     0.006 A 
ENDROOT
BRANCH   1   8
ATOM      8  C1  UNL d   1       1.665   0.482   1.536  0.00  0.00     0.054 C 
ATOM      9  C   UNL d   1       1.790   1.998   1.495  0.00  0.00     0.018 C 
ENDBRANCH   1   8
TORSDOF 1
ENDMDL
