MODEL 1
REMARK minimizedAffinity 2.88913441
REMARK minimizedRMSD -1
REMARK  1 active torsions:
REMARK  status: ('A' for Active; 'I' for Inactive)
REMARK    1  A    between atoms: C1_2  and  C2_3 
ROOT
ATOM      1  C2  UNL d   1      -0.327  -0.119   1.589  0.00  0.00    -0.081 A 
ATOM      2  C3  UNL d   1      -1.405   0.563   2.167  0.00  0.00     0.006 A 
ATOM      3  C4  UNL d   1      -2.513   0.919   1.394  0.00  0.00     0.002 A 
ATOM      4  C5  UNL d   1      -2.565   0.593   0.035  0.00  0.00    -0.080 A 
ATOM      5  C6  UNL d   1      -3.762   0.942  -0.798  0.00  0.00     0.076 C 
ATOM      6  C7  UNL d   1      -1.481  -0.073  -0.546  0.00  0.00     0.002 A 
ATOM      7  C8  UNL d   1      -0.372  -0.429   0.226  0.00  0.00     0.006 A 
ENDROOT
BRANCH   1   8
ATOM      8  C1  UNL d   1       0.841  -0.561   2.434  0.00  0.00     0.054 C 
ATOM      9  C   UNL d   1       0.374  -1.277   3.693  0.00  0.00     0.018 C 
ENDBRANCH   1   8
TORSDOF 1
ENDMDL
