MODEL 1
REMARK minimizedAffinity -4.12626028
REMARK minimizedRMSD -1
REMARK  1 active torsions:
REMARK  status: ('A' for Active; 'I' for Inactive)
REMARK    1  A    between atoms: C1_2  and  C2_3 
ROOT
ATOM      1  C2  UNL d   1       0.689  -1.018   0.040  0.00  0.00    -0.081 A 
ATOM      2  C3  UNL d   1       0.253  -1.816  -1.024  0.00  0.00     0.006 A 
ATOM      3  C4  UNL d   1      -1.045  -1.684  -1.523  0.00  0.00     0.002 A 
ATOM      4  C5  UNL d   1      -1.925  -0.746  -0.972  0.00  0.00    -0.080 A 
ATOM      5  C6  UNL d   1      -3.311  -0.573  -1.518  0.00  0.00     0.076 C 
ATOM      6  C7  UNL d   1      -1.495   0.039   0.103  0.00  0.00     0.002 A 
ATOM      7  C8  UNL d   1      -0.197  -0.093   0.602  0.00  0.00     0.006 A 
ENDROOT
BRANCH   1   8
ATOM      8  C1  UNL d   1       2.109  -1.113   0.538  0.00  0.00     0.054 C 
ATOM      9  C   UNL d   1       3.072  -1.439  -0.595  0.00  0.00     0.018 C 
ENDBRANCH   1   8
TORSDOF 1
ENDMDL
