MODEL 1
REMARK minimizedAffinity 20.2913742
REMARK minimizedRMSD -1
REMARK  0 active torsions:
REMARK  status: ('A' for Active; 'I' for Inactive)
ROOT
ATOM      1  C   UNL d   1      -3.025   0.566   1.610  0.00  0.00    -0.002 A 
ATOM      2  C1  UNL d   1      -3.349   0.410   0.269  0.00  0.00     0.010 A 
ATOM      3  C2  UNL d   1      -2.358   0.128  -0.673  0.00  0.00     0.041 A 
ATOM      4  C3  UNL d   1      -1.023   0.002  -0.241  0.00  0.00    -0.075 A 
ATOM      5  S   UNL d   1       0.356  -0.341  -1.217  0.00  0.00     0.015 SA
ATOM      6  C4  UNL d   1       1.409  -0.290   0.123  0.00  0.00     0.022 A 
ATOM      7  C5  UNL d   1       0.741  -0.018   1.293  0.00  0.00     0.026 A 
ATOM      8  C6  UNL d   1      -0.672   0.154   1.103  0.00  0.00    -0.082 A 
ATOM      9  C7  UNL d   1      -1.699   0.441   2.034  0.00  0.00     0.045 A 
ENDROOT
TORSDOF 0
ENDMDL
