MODEL 1
REMARK minimizedAffinity 12.5686665
REMARK minimizedRMSD -1
REMARK  0 active torsions:
REMARK  status: ('A' for Active; 'I' for Inactive)
ROOT
ATOM      1  C   UNL d   1      -3.848  -1.157   3.293  0.00  0.00    -0.002 A 
ATOM      2  C1  UNL d   1      -2.894  -1.866   4.009  0.00  0.00     0.010 A 
ATOM      3  C2  UNL d   1      -1.533  -1.664   3.774  0.00  0.00     0.041 A 
ATOM      4  C3  UNL d   1      -1.142  -0.725   2.798  0.00  0.00    -0.075 A 
ATOM      5  S   UNL d   1       0.467  -0.310   2.341  0.00  0.00     0.015 SA
ATOM      6  C4  UNL d   1      -0.073   0.820   1.185  0.00  0.00     0.022 A 
ATOM      7  C5  UNL d   1      -1.445   0.891   1.136  0.00  0.00     0.026 A 
ATOM      8  C6  UNL d   1      -2.084   0.003   2.065  0.00  0.00    -0.082 A 
ATOM      9  C7  UNL d   1      -3.456  -0.226   2.326  0.00  0.00     0.045 A 
ENDROOT
TORSDOF 0
ENDMDL
