MODEL 1
REMARK minimizedAffinity 11.9567661
REMARK minimizedRMSD -1
REMARK  0 active torsions:
REMARK  status: ('A' for Active; 'I' for Inactive)
ROOT
ATOM      1  C   UNL d   1       0.487  -1.186   4.074  0.00  0.00    -0.002 A 
ATOM      2  C1  UNL d   1       1.469  -0.945   3.124  0.00  0.00     0.010 A 
ATOM      3  C2  UNL d   1       1.131  -0.438   1.867  0.00  0.00     0.041 A 
ATOM      4  C3  UNL d   1      -0.222  -0.174   1.580  0.00  0.00    -0.075 A 
ATOM      5  S   UNL d   1      -0.870   0.449   0.108  0.00  0.00     0.015 SA
ATOM      6  C4  UNL d   1      -2.465   0.410   0.707  0.00  0.00     0.022 A 
ATOM      7  C5  UNL d   1      -2.521  -0.064   1.996  0.00  0.00     0.026 A 
ATOM      8  C6  UNL d   1      -1.229  -0.408   2.520  0.00  0.00    -0.082 A 
ATOM      9  C7  UNL d   1      -0.855  -0.923   3.785  0.00  0.00     0.045 A 
ENDROOT
TORSDOF 0
ENDMDL
