MODEL 1
REMARK minimizedAffinity 0.210447416
REMARK minimizedRMSD -1
REMARK  0 active torsions:
REMARK  status: ('A' for Active; 'I' for Inactive)
ROOT
ATOM      1  C   UNL d   1       0.023  -0.275  -4.533  0.00  0.00    -0.002 A 
ATOM      2  C1  UNL d   1       1.046   0.662  -4.570  0.00  0.00     0.010 A 
ATOM      3  C2  UNL d   1       1.858   0.872  -3.454  0.00  0.00     0.041 A 
ATOM      4  C3  UNL d   1       1.622   0.117  -2.288  0.00  0.00    -0.075 A 
ATOM      5  S   UNL d   1       2.489   0.204  -0.801  0.00  0.00     0.015 SA
ATOM      6  C4  UNL d   1       1.522  -1.001  -0.081  0.00  0.00     0.022 A 
ATOM      7  C5  UNL d   1       0.556  -1.469  -0.940  0.00  0.00     0.026 A 
ATOM      8  C6  UNL d   1       0.598  -0.832  -2.226  0.00  0.00    -0.082 A 
ATOM      9  C7  UNL d   1      -0.208  -1.022  -3.375  0.00  0.00     0.045 A 
ENDROOT
TORSDOF 0
ENDMDL
