MODEL 1
REMARK minimizedAffinity -1.3978883
REMARK minimizedRMSD -1
REMARK  0 active torsions:
REMARK  status: ('A' for Active; 'I' for Inactive)
ROOT
ATOM      1  C   UNL d   1       2.796   0.108  -0.571  0.00  0.00    -0.002 A 
ATOM      2  C1  UNL d   1       1.898  -0.880  -0.192  0.00  0.00     0.010 A 
ATOM      3  C2  UNL d   1       0.908  -1.317  -1.074  0.00  0.00     0.041 A 
ATOM      4  C3  UNL d   1       0.836  -0.740  -2.358  0.00  0.00    -0.075 A 
ATOM      5  S   UNL d   1      -0.292  -1.118  -3.606  0.00  0.00     0.015 SA
ATOM      6  C4  UNL d   1       0.392   0.022  -4.672  0.00  0.00     0.022 A 
ATOM      7  C5  UNL d   1       1.455   0.684  -4.106  0.00  0.00     0.026 A 
ATOM      8  C6  UNL d   1       1.729   0.256  -2.763  0.00  0.00    -0.082 A 
ATOM      9  C7  UNL d   1       2.721   0.678  -1.845  0.00  0.00     0.045 A 
ENDROOT
TORSDOF 0
ENDMDL
