MODEL 1
REMARK minimizedAffinity 12.2301416
REMARK minimizedRMSD -1
REMARK  0 active torsions:
REMARK  status: ('A' for Active; 'I' for Inactive)
ROOT
ATOM      1  C   UNL d   1      -3.445  -0.875   2.977  0.00  0.00    -0.002 A 
ATOM      2  C1  UNL d   1      -3.261  -0.157   1.804  0.00  0.00     0.010 A 
ATOM      3  C2  UNL d   1      -1.976   0.173   1.368  0.00  0.00     0.041 A 
ATOM      4  C3  UNL d   1      -0.869  -0.237   2.136  0.00  0.00    -0.075 A 
ATOM      5  S   UNL d   1       0.797   0.052   1.796  0.00  0.00     0.015 SA
ATOM      6  C4  UNL d   1       1.303  -0.772   3.200  0.00  0.00     0.022 A 
ATOM      7  C5  UNL d   1       0.240  -1.262   3.922  0.00  0.00     0.026 A 
ATOM      8  C6  UNL d   1      -1.029  -0.962   3.320  0.00  0.00    -0.082 A 
ATOM      9  C7  UNL d   1      -2.344  -1.280   3.737  0.00  0.00     0.045 A 
ENDROOT
TORSDOF 0
ENDMDL
