MODEL 1
REMARK minimizedAffinity 3.09100628
REMARK minimizedRMSD -1
REMARK  0 active torsions:
REMARK  status: ('A' for Active; 'I' for Inactive)
ROOT
ATOM      1  C   UNL d   1      -2.050   0.127   0.691  0.00  0.00    -0.002 A 
ATOM      2  C1  UNL d   1      -0.827  -0.250   0.155  0.00  0.00     0.010 A 
ATOM      3  C2  UNL d   1       0.219  -0.655   0.988  0.00  0.00     0.041 A 
ATOM      4  C3  UNL d   1       0.011  -0.676   2.381  0.00  0.00    -0.075 A 
ATOM      5  S   UNL d   1       1.146  -1.137   3.594  0.00  0.00     0.015 SA
ATOM      6  C4  UNL d   1       0.034  -0.845   4.852  0.00  0.00     0.022 A 
ATOM      7  C5  UNL d   1      -1.179  -0.406   4.376  0.00  0.00     0.026 A 
ATOM      8  C6  UNL d   1      -1.212  -0.302   2.944  0.00  0.00    -0.082 A 
ATOM      9  C7  UNL d   1      -2.252   0.105   2.074  0.00  0.00     0.045 A 
ENDROOT
TORSDOF 0
ENDMDL
