MODEL 1
REMARK minimizedAffinity 2.62474394
REMARK minimizedRMSD -1
REMARK  0 active torsions:
REMARK  status: ('A' for Active; 'I' for Inactive)
ROOT
ATOM      1  C   UNL d   1      -1.339   0.224  -0.738  0.00  0.00    -0.002 A 
ATOM      2  C1  UNL d   1      -0.055  -0.080  -0.306  0.00  0.00     0.010 A 
ATOM      3  C2  UNL d   1       0.171  -0.508   1.003  0.00  0.00     0.041 A 
ATOM      4  C3  UNL d   1      -0.925  -0.628   1.880  0.00  0.00    -0.075 A 
ATOM      5  S   UNL d   1      -0.887  -1.134   3.528  0.00  0.00     0.015 SA
ATOM      6  C4  UNL d   1      -2.574  -0.960   3.698  0.00  0.00     0.022 A 
ATOM      7  C5  UNL d   1      -3.167  -0.526   2.536  0.00  0.00     0.026 A 
ATOM      8  C6  UNL d   1      -2.226  -0.328   1.469  0.00  0.00    -0.082 A 
ATOM      9  C7  UNL d   1      -2.423   0.104   0.135  0.00  0.00     0.045 A 
ENDROOT
TORSDOF 0
ENDMDL
