MODEL 1
REMARK minimizedAffinity 5.37588787
REMARK minimizedRMSD -1
REMARK  0 active torsions:
REMARK  status: ('A' for Active; 'I' for Inactive)
ROOT
ATOM      1  C   UNL d   1      -1.792  -1.122   2.996  0.00  0.00    -0.002 A 
ATOM      2  C1  UNL d   1      -0.434  -1.346   3.172  0.00  0.00     0.010 A 
ATOM      3  C2  UNL d   1       0.480  -0.978   2.183  0.00  0.00     0.041 A 
ATOM      4  C3  UNL d   1       0.002  -0.373   1.004  0.00  0.00    -0.075 A 
ATOM      5  S   UNL d   1       0.937   0.162  -0.342  0.00  0.00     0.015 SA
ATOM      6  C4  UNL d   1      -0.445   0.703  -1.182  0.00  0.00     0.022 A 
ATOM      7  C5  UNL d   1      -1.599   0.487  -0.467  0.00  0.00     0.026 A 
ATOM      8  C6  UNL d   1      -1.361  -0.135   0.805  0.00  0.00    -0.082 A 
ATOM      9  C7  UNL d   1      -2.263  -0.521   1.826  0.00  0.00     0.045 A 
ENDROOT
TORSDOF 0
ENDMDL
