MODEL 1
REMARK minimizedAffinity 2.63287163
REMARK minimizedRMSD -1
REMARK  0 active torsions:
REMARK  status: ('A' for Active; 'I' for Inactive)
ROOT
ATOM      1  C   UNL d   1      -2.416  -0.372   1.912  0.00  0.00    -0.002 A 
ATOM      2  C1  UNL d   1      -1.227  -0.834   2.459  0.00  0.00     0.010 A 
ATOM      3  C2  UNL d   1      -0.013  -0.623   1.801  0.00  0.00     0.041 A 
ATOM      4  C3  UNL d   1      -0.014   0.069   0.574  0.00  0.00    -0.075 A 
ATOM      5  S   UNL d   1       1.352   0.445  -0.408  0.00  0.00     0.015 SA
ATOM      6  C4  UNL d   1       0.390   1.229  -1.576  0.00  0.00     0.022 A 
ATOM      7  C5  UNL d   1      -0.944   1.214  -1.241  0.00  0.00     0.026 A 
ATOM      8  C6  UNL d   1      -1.198   0.545   0.004  0.00  0.00    -0.082 A 
ATOM      9  C7  UNL d   1      -2.413   0.315   0.695  0.00  0.00     0.045 A 
ENDROOT
TORSDOF 0
ENDMDL
