MODEL 1
REMARK minimizedAffinity 0.976194441
REMARK minimizedRMSD -1
REMARK  0 active torsions:
REMARK  status: ('A' for Active; 'I' for Inactive)
ROOT
ATOM      1  C   UNL d   1       5.505   3.938   4.902  0.00  0.00    -0.002 A 
ATOM      2  C1  UNL d   1       5.766   5.282   4.675  0.00  0.00     0.010 A 
ATOM      3  C2  UNL d   1       5.037   5.995   3.721  0.00  0.00     0.041 A 
ATOM      4  C3  UNL d   1       4.031   5.329   2.994  0.00  0.00    -0.075 A 
ATOM      5  S   UNL d   1       3.011   6.000   1.777  0.00  0.00     0.015 SA
ATOM      6  C4  UNL d   1       2.205   4.519   1.530  0.00  0.00     0.022 A 
ATOM      7  C5  UNL d   1       2.690   3.525   2.348  0.00  0.00     0.026 A 
ATOM      8  C6  UNL d   1       3.750   3.976   3.205  0.00  0.00    -0.082 A 
ATOM      9  C7  UNL d   1       4.507   3.280   4.178  0.00  0.00     0.045 A 
ENDROOT
TORSDOF 0
ENDMDL
