MODEL 1
REMARK minimizedAffinity 16.3730221
REMARK minimizedRMSD -1
REMARK  1 active torsions:
REMARK  status: ('A' for Active; 'I' for Inactive)
REMARK    1  A    between atoms: C1_2  and  C2_3 
ROOT
ATOM      1  C2  UNL d   1      -0.423   0.427  -1.922  0.00  0.00    -0.076 A 
ATOM      2  C3  UNL d   1      -0.805   1.571  -1.200  0.00  0.00     0.004 A 
ATOM      3  C4  UNL d   1      -0.493   1.704   0.152  0.00  0.00    -0.003 A 
ATOM      4  C5  UNL d   1       0.208   0.695   0.804  0.00  0.00     0.000 A 
ATOM      5  C6  UNL d   1       0.610  -0.439   0.099  0.00  0.00     0.000 A 
ATOM      6  C7  UNL d   1       0.317  -0.581  -1.268  0.00  0.00    -0.073 A 
ATOM      7  C8  UNL d   1       0.770  -1.828  -1.978  0.00  0.00     0.078 C 
ENDROOT
BRANCH   1   8
ATOM      8  C1  UNL d   1      -0.813   0.327  -3.379  0.00  0.00     0.053 C 
ATOM      9  C   UNL d   1      -2.006  -0.591  -3.601  0.00  0.00     0.018 C 
ENDBRANCH   1   8
TORSDOF 1
ENDMDL
