MODEL 1
REMARK minimizedAffinity 13.9383173
REMARK minimizedRMSD -1
REMARK  1 active torsions:
REMARK  status: ('A' for Active; 'I' for Inactive)
REMARK    1  A    between atoms: C1_2  and  C2_3 
ROOT
ATOM      1  C2  UNL d   1       1.933   1.735   1.352  0.00  0.00    -0.076 A 
ATOM      2  C3  UNL d   1       2.439   0.460   1.046  0.00  0.00     0.004 A 
ATOM      3  C4  UNL d   1       1.757  -0.393   0.179  0.00  0.00    -0.003 A 
ATOM      4  C5  UNL d   1       0.559   0.016  -0.395  0.00  0.00     0.000 A 
ATOM      5  C6  UNL d   1       0.051   1.284  -0.116  0.00  0.00     0.000 A 
ATOM      6  C7  UNL d   1       0.734   2.163   0.743  0.00  0.00    -0.073 A 
ATOM      7  C8  UNL d   1       0.138   3.517   1.013  0.00  0.00     0.078 C 
ENDROOT
BRANCH   1   8
ATOM      8  C1  UNL d   1       2.702   2.606   2.320  0.00  0.00     0.053 C 
ATOM      9  C   UNL d   1       2.824   1.977   3.699  0.00  0.00     0.018 C 
ENDBRANCH   1   8
TORSDOF 1
ENDMDL
