MODEL 1
REMARK minimizedAffinity 9.67381477
REMARK minimizedRMSD -1
REMARK  1 active torsions:
REMARK  status: ('A' for Active; 'I' for Inactive)
REMARK    1  A    between atoms: C1_2  and  C2_3 
ROOT
ATOM      1  C2  UNL d   1       2.385  -2.817   3.087  0.00  0.00    -0.076 A 
ATOM      2  C3  UNL d   1       2.596  -2.037   1.936  0.00  0.00     0.004 A 
ATOM      3  C4  UNL d   1       2.046  -0.761   1.825  0.00  0.00    -0.003 A 
ATOM      4  C5  UNL d   1       1.279  -0.243   2.862  0.00  0.00     0.000 A 
ATOM      5  C6  UNL d   1       1.075  -0.996   4.018  0.00  0.00     0.000 A 
ATOM      6  C7  UNL d   1       1.635  -2.278   4.154  0.00  0.00    -0.073 A 
ATOM      7  C8  UNL d   1       1.377  -3.048   5.420  0.00  0.00     0.078 C 
ENDROOT
BRANCH   1   8
ATOM      8  C1  UNL d   1       2.983  -4.205   3.140  0.00  0.00     0.053 C 
ATOM      9  C   UNL d   1       2.732  -4.997   1.866  0.00  0.00     0.018 C 
ENDBRANCH   1   8
TORSDOF 1
ENDMDL
