MODEL 1
REMARK minimizedAffinity 12.421834
REMARK minimizedRMSD -1
REMARK  1 active torsions:
REMARK  status: ('A' for Active; 'I' for Inactive)
REMARK    1  A    between atoms: C1_2  and  C2_3 
ROOT
ATOM      1  C2  UNL d   1       2.237  -2.413   2.090  0.00  0.00    -0.076 A 
ATOM      2  C3  UNL d   1       1.705  -1.124   1.914  0.00  0.00     0.004 A 
ATOM      3  C4  UNL d   1       0.945  -0.809   0.788  0.00  0.00    -0.003 A 
ATOM      4  C5  UNL d   1       0.704  -1.778  -0.179  0.00  0.00     0.000 A 
ATOM      5  C6  UNL d   1       1.209  -3.067  -0.012  0.00  0.00     0.000 A 
ATOM      6  C7  UNL d   1       1.963  -3.406   1.125  0.00  0.00    -0.073 A 
ATOM      7  C8  UNL d   1       2.489  -4.810   1.251  0.00  0.00     0.078 C 
ENDROOT
BRANCH   1   8
ATOM      8  C1  UNL d   1       3.076  -2.688   3.317  0.00  0.00     0.053 C 
ATOM      9  C   UNL d   1       4.540  -2.329   3.114  0.00  0.00     0.018 C 
ENDBRANCH   1   8
TORSDOF 1
ENDMDL
