MODEL 1
REMARK minimizedAffinity 2.1893146
REMARK minimizedRMSD -1
REMARK  1 active torsions:
REMARK  status: ('A' for Active; 'I' for Inactive)
REMARK    1  A    between atoms: C1_2  and  C2_3 
ROOT
ATOM      1  C2  UNL d   1       3.662  -1.459   3.967  0.00  0.00    -0.076 A 
ATOM      2  C3  UNL d   1       5.017  -1.109   3.839  0.00  0.00     0.004 A 
ATOM      3  C4  UNL d   1       6.000  -1.761   4.582  0.00  0.00    -0.003 A 
ATOM      4  C5  UNL d   1       5.644  -2.775   5.464  0.00  0.00     0.000 A 
ATOM      5  C6  UNL d   1       4.306  -3.148   5.590  0.00  0.00     0.000 A 
ATOM      6  C7  UNL d   1       3.304  -2.512   4.837  0.00  0.00    -0.073 A 
ATOM      7  C8  UNL d   1       1.877  -2.950   5.018  0.00  0.00     0.078 C 
ENDROOT
BRANCH   1   8
ATOM      8  C1  UNL d   1       2.637  -0.698   3.157  0.00  0.00     0.053 C 
ATOM      9  C   UNL d   1       3.274   0.295   2.197  0.00  0.00     0.018 C 
ENDBRANCH   1   8
TORSDOF 1
ENDMDL
