MODEL 1
REMARK minimizedAffinity 9.09100533
REMARK minimizedRMSD -1
REMARK  1 active torsions:
REMARK  status: ('A' for Active; 'I' for Inactive)
REMARK    1  A    between atoms: C1_2  and  C2_3 
ROOT
ATOM      1  C2  UNL d   1       1.051  -0.795   1.002  0.00  0.00    -0.076 A 
ATOM      2  C3  UNL d   1      -0.230  -0.327   1.344  0.00  0.00     0.004 A 
ATOM      3  C4  UNL d   1      -1.343  -0.653   0.571  0.00  0.00    -0.003 A 
ATOM      4  C5  UNL d   1      -1.194  -1.453  -0.556  0.00  0.00     0.000 A 
ATOM      5  C6  UNL d   1       0.066  -1.941  -0.900  0.00  0.00     0.000 A 
ATOM      6  C7  UNL d   1       1.196  -1.635  -0.122  0.00  0.00    -0.073 A 
ATOM      7  C8  UNL d   1       2.532  -2.183  -0.543  0.00  0.00     0.078 C 
ENDROOT
BRANCH   1   8
ATOM      8  C1  UNL d   1       2.225  -0.387   1.863  0.00  0.00     0.053 C 
ATOM      9  C   UNL d   1       2.043  -0.779   3.321  0.00  0.00     0.018 C 
ENDBRANCH   1   8
TORSDOF 1
ENDMDL
