MODEL 1
REMARK minimizedAffinity -3.58957005
REMARK minimizedRMSD -1
REMARK  0 active torsions:
REMARK  status: ('A' for Active; 'I' for Inactive)
ROOT
ATOM      1  C   UNL d   1       0.872  -1.240   1.519  0.00  0.00     0.124 A 
ATOM      2  C1  UNL d   1      -0.332  -0.598   1.772  0.00  0.00     0.062 A 
ATOM      3  C2  UNL d   1      -0.992   0.080   0.751  0.00  0.00     0.162 A 
ATOM      4  C3  UNL d   1      -0.449   0.118  -0.533  0.00  0.00    -0.034 A 
ATOM      5  C4  UNL d   1       0.764  -0.529  -0.779  0.00  0.00     0.162 A 
ATOM      6  C5  UNL d   1       1.419  -1.205   0.244  0.00  0.00     0.062 A 
ATOM      7  F   UNL d   1       2.582  -1.825  -0.002  0.00  0.00    -0.097 F 
ATOM      8  F1  UNL d   1       1.314  -0.511  -2.003  0.00  0.00    -0.096 F 
ATOM      9  I   UNL d   1      -1.432   1.131  -2.063  0.00  0.00    -0.060 I 
ATOM     10  F2  UNL d   1      -2.154   0.691   1.024  0.00  0.00    -0.096 F 
ATOM     11  F3  UNL d   1      -0.862  -0.630   3.003  0.00  0.00    -0.097 F 
ATOM     12  F4  UNL d   1       1.505  -1.891   2.504  0.00  0.00    -0.092 F 
ENDROOT
TORSDOF 0
ENDMDL
