MODEL 1
REMARK minimizedAffinity -1.10492229
REMARK minimizedRMSD -1
REMARK  0 active torsions:
REMARK  status: ('A' for Active; 'I' for Inactive)
ROOT
ATOM      1  C   UNL d   1      -1.550   2.845  -2.232  0.00  0.00     0.124 A 
ATOM      2  C1  UNL d   1      -0.244   3.152  -1.875  0.00  0.00     0.062 A 
ATOM      3  C2  UNL d   1       0.668   2.133  -1.617  0.00  0.00     0.162 A 
ATOM      4  C3  UNL d   1       0.278   0.797  -1.716  0.00  0.00    -0.034 A 
ATOM      5  C4  UNL d   1      -1.037   0.497  -2.074  0.00  0.00     0.162 A 
ATOM      6  C5  UNL d   1      -1.945   1.519  -2.331  0.00  0.00     0.062 A 
ATOM      7  F   UNL d   1      -3.207   1.221  -2.675  0.00  0.00    -0.097 F 
ATOM      8  F1  UNL d   1      -1.446  -0.776  -2.179  0.00  0.00    -0.096 F 
ATOM      9  I   UNL d   1       1.640  -0.729  -1.332  0.00  0.00    -0.060 I 
ATOM     10  F2  UNL d   1       1.924   2.458  -1.275  0.00  0.00    -0.096 F 
ATOM     11  F3  UNL d   1       0.140   4.433  -1.777  0.00  0.00    -0.097 F 
ATOM     12  F4  UNL d   1      -2.426   3.828  -2.478  0.00  0.00    -0.092 F 
ENDROOT
TORSDOF 0
ENDMDL
