MODEL 1
REMARK minimizedAffinity -2.55305004
REMARK minimizedRMSD -1
REMARK  0 active torsions:
REMARK  status: ('A' for Active; 'I' for Inactive)
ROOT
ATOM      1  C   UNL d   1       1.873  -1.748   2.315  0.00  0.00     0.124 A 
ATOM      2  C1  UNL d   1       2.583  -1.631   1.128  0.00  0.00     0.062 A 
ATOM      3  C2  UNL d   1       2.008  -1.001   0.028  0.00  0.00     0.162 A 
ATOM      4  C3  UNL d   1       0.716  -0.481   0.110  0.00  0.00    -0.034 A 
ATOM      5  C4  UNL d   1       0.008  -0.603   1.307  0.00  0.00     0.162 A 
ATOM      6  C5  UNL d   1       0.587  -1.234   2.404  0.00  0.00     0.062 A 
ATOM      7  F   UNL d   1      -0.101  -1.346   3.550  0.00  0.00    -0.097 F 
ATOM      8  F1  UNL d   1      -1.236  -0.115   1.421  0.00  0.00    -0.096 F 
ATOM      9  I   UNL d   1      -0.146   0.462  -1.532  0.00  0.00    -0.060 I 
ATOM     10  F2  UNL d   1       2.717  -0.902  -1.106  0.00  0.00    -0.096 F 
ATOM     11  F3  UNL d   1       3.825  -2.128   1.040  0.00  0.00    -0.097 F 
ATOM     12  F4  UNL d   1       2.428  -2.356   3.372  0.00  0.00    -0.092 F 
ENDROOT
TORSDOF 0
ENDMDL
