MODEL 1
REMARK minimizedAffinity 0.922317326
REMARK minimizedRMSD -1
REMARK  0 active torsions:
REMARK  status: ('A' for Active; 'I' for Inactive)
ROOT
ATOM      1  C   UNL d   1      -1.188   3.534  -2.705  0.00  0.00     0.124 A 
ATOM      2  C1  UNL d   1       0.121   3.676  -2.266  0.00  0.00     0.062 A 
ATOM      3  C2  UNL d   1       0.741   2.644  -1.567  0.00  0.00     0.162 A 
ATOM      4  C3  UNL d   1       0.052   1.460  -1.303  0.00  0.00    -0.034 A 
ATOM      5  C4  UNL d   1      -1.264   1.325  -1.747  0.00  0.00     0.162 A 
ATOM      6  C5  UNL d   1      -1.879   2.359  -2.445  0.00  0.00     0.062 A 
ATOM      7  F   UNL d   1      -3.144   2.221  -2.868  0.00  0.00    -0.097 F 
ATOM      8  F1  UNL d   1      -1.955   0.200  -1.511  0.00  0.00    -0.096 F 
ATOM      9  I   UNL d   1       0.975  -0.085  -0.259  0.00  0.00    -0.060 I 
ATOM     10  F2  UNL d   1       2.007   2.809  -1.155  0.00  0.00    -0.096 F 
ATOM     11  F3  UNL d   1       0.791   4.811  -2.515  0.00  0.00    -0.097 F 
ATOM     12  F4  UNL d   1      -1.782   4.529  -3.376  0.00  0.00    -0.092 F 
ENDROOT
TORSDOF 0
ENDMDL
