MODEL 1
REMARK minimizedAffinity -4.83493519
REMARK minimizedRMSD -1
REMARK  0 active torsions:
REMARK  status: ('A' for Active; 'I' for Inactive)
ROOT
ATOM      1  C   UNL d   1      -0.063  -0.647   2.493  0.00  0.00     0.124 A 
ATOM      2  C1  UNL d   1      -0.961  -0.427   1.458  0.00  0.00     0.062 A 
ATOM      3  C2  UNL d   1      -0.533  -0.484   0.135  0.00  0.00     0.162 A 
ATOM      4  C3  UNL d   1       0.801  -0.764  -0.161  0.00  0.00    -0.034 A 
ATOM      5  C4  UNL d   1       1.700  -0.982   0.885  0.00  0.00     0.162 A 
ATOM      6  C5  UNL d   1       1.266  -0.924   2.205  0.00  0.00     0.062 A 
ATOM      7  F   UNL d   1       2.136  -1.136   3.204  0.00  0.00    -0.097 F 
ATOM      8  F1  UNL d   1       2.989  -1.253   0.636  0.00  0.00    -0.096 F 
ATOM      9  I   UNL d   1       1.446  -0.850  -2.138  0.00  0.00    -0.060 I 
ATOM     10  F2  UNL d   1      -1.423  -0.268  -0.845  0.00  0.00    -0.096 F 
ATOM     11  F3  UNL d   1      -2.246  -0.158   1.733  0.00  0.00    -0.097 F 
ATOM     12  F4  UNL d   1      -0.477  -0.590   3.765  0.00  0.00    -0.092 F 
ENDROOT
TORSDOF 0
ENDMDL
