MODEL 1
REMARK minimizedAffinity -0.450870037
REMARK minimizedRMSD -1
REMARK  0 active torsions:
REMARK  status: ('A' for Active; 'I' for Inactive)
ROOT
ATOM      1  C   UNL d   1       2.114  -1.222   2.036  0.00  0.00     0.124 A 
ATOM      2  C1  UNL d   1       1.116  -0.315   2.365  0.00  0.00     0.062 A 
ATOM      3  C2  UNL d   1       0.254   0.164   1.382  0.00  0.00     0.162 A 
ATOM      4  C3  UNL d   1       0.386  -0.264   0.061  0.00  0.00    -0.034 A 
ATOM      5  C4  UNL d   1       1.392  -1.176  -0.262  0.00  0.00     0.162 A 
ATOM      6  C5  UNL d   1       2.251  -1.652   0.724  0.00  0.00     0.062 A 
ATOM      7  F   UNL d   1       3.215  -2.528   0.404  0.00  0.00    -0.097 F 
ATOM      8  F1  UNL d   1       1.547  -1.608  -1.522  0.00  0.00    -0.096 F 
ATOM      9  I   UNL d   1      -0.901   0.450  -1.411  0.00  0.00    -0.060 I 
ATOM     10  F2  UNL d   1      -0.701   1.040   1.728  0.00  0.00    -0.096 F 
ATOM     11  F3  UNL d   1       0.982   0.102   3.632  0.00  0.00    -0.097 F 
ATOM     12  F4  UNL d   1       2.942  -1.681   2.983  0.00  0.00    -0.092 F 
ENDROOT
TORSDOF 0
ENDMDL
