MODEL 1
REMARK minimizedAffinity -0.096709393
REMARK minimizedRMSD -1
REMARK  0 active torsions:
REMARK  status: ('A' for Active; 'I' for Inactive)
ROOT
ATOM      1  C   UNL d   1       1.019  -1.307   1.331  0.00  0.00     0.124 A 
ATOM      2  C1  UNL d   1       1.385  -1.316  -0.008  0.00  0.00     0.062 A 
ATOM      3  C2  UNL d   1       0.666  -0.566  -0.934  0.00  0.00     0.162 A 
ATOM      4  C3  UNL d   1      -0.425   0.201  -0.525  0.00  0.00    -0.034 A 
ATOM      5  C4  UNL d   1      -0.787   0.204   0.823  0.00  0.00     0.162 A 
ATOM      6  C5  UNL d   1      -0.065  -0.547   1.746  0.00  0.00     0.062 A 
ATOM      7  F   UNL d   1      -0.420  -0.537   3.039  0.00  0.00    -0.097 F 
ATOM      8  F1  UNL d   1      -1.830   0.930   1.251  0.00  0.00    -0.096 F 
ATOM      9  I   UNL d   1      -1.502   1.324  -1.907  0.00  0.00    -0.060 I 
ATOM     10  F2  UNL d   1       1.041  -0.594  -2.222  0.00  0.00    -0.096 F 
ATOM     11  F3  UNL d   1       2.432  -2.050  -0.411  0.00  0.00    -0.097 F 
ATOM     12  F4  UNL d   1       1.712  -2.030   2.221  0.00  0.00    -0.092 F 
ENDROOT
TORSDOF 0
ENDMDL
