MODEL 1
REMARK minimizedAffinity -4.62255478
REMARK minimizedRMSD -1
REMARK  0 active torsions:
REMARK  status: ('A' for Active; 'I' for Inactive)
ROOT
ATOM      1  C   UNL d   1       2.172  -1.892   1.920  0.00  0.00     0.124 A 
ATOM      2  C1  UNL d   1       1.320  -0.867   2.306  0.00  0.00     0.062 A 
ATOM      3  C2  UNL d   1       0.688  -0.083   1.345  0.00  0.00     0.162 A 
ATOM      4  C3  UNL d   1       0.905  -0.322  -0.012  0.00  0.00    -0.034 A 
ATOM      5  C4  UNL d   1       1.764  -1.355  -0.392  0.00  0.00     0.162 A 
ATOM      6  C5  UNL d   1       2.393  -2.135   0.572  0.00  0.00     0.062 A 
ATOM      7  F   UNL d   1       3.216  -3.126   0.197  0.00  0.00    -0.097 F 
ATOM      8  F1  UNL d   1       1.995  -1.612  -1.688  0.00  0.00    -0.096 F 
ATOM      9  I   UNL d   1      -0.039   0.847  -1.452  0.00  0.00    -0.060 I 
ATOM     10  F2  UNL d   1      -0.131   0.901   1.747  0.00  0.00    -0.096 F 
ATOM     11  F3  UNL d   1       1.105  -0.630   3.608  0.00  0.00    -0.097 F 
ATOM     12  F4  UNL d   1       2.780  -2.644   2.847  0.00  0.00    -0.092 F 
ENDROOT
TORSDOF 0
ENDMDL
