MODEL 1
REMARK minimizedAffinity 0.193853334
REMARK minimizedRMSD -1
REMARK  0 active torsions:
REMARK  status: ('A' for Active; 'I' for Inactive)
ROOT
ATOM      1  C   UNL d   1       1.104  -1.881   1.388  0.00  0.00     0.124 A 
ATOM      2  C1  UNL d   1       1.475  -2.027   0.059  0.00  0.00     0.062 A 
ATOM      3  C2  UNL d   1       0.916  -1.208  -0.918  0.00  0.00     0.162 A 
ATOM      4  C3  UNL d   1      -0.019  -0.234  -0.569  0.00  0.00    -0.034 A 
ATOM      5  C4  UNL d   1      -0.387  -0.093   0.770  0.00  0.00     0.162 A 
ATOM      6  C5  UNL d   1       0.174  -0.915   1.743  0.00  0.00     0.062 A 
ATOM      7  F   UNL d   1      -0.186  -0.772   3.027  0.00  0.00    -0.097 F 
ATOM      8  F1  UNL d   1      -1.284   0.833   1.141  0.00  0.00    -0.096 F 
ATOM      9  I   UNL d   1      -0.856   0.993  -2.026  0.00  0.00    -0.060 I 
ATOM     10  F2  UNL d   1       1.293  -1.372  -2.195  0.00  0.00    -0.096 F 
ATOM     11  F3  UNL d   1       2.373  -2.961  -0.287  0.00  0.00    -0.097 F 
ATOM     12  F4  UNL d   1       1.642  -2.672   2.326  0.00  0.00    -0.092 F 
ENDROOT
TORSDOF 0
ENDMDL
