MODEL 1
REMARK minimizedAffinity -2.765764
REMARK minimizedRMSD -1
REMARK  0 active torsions:
REMARK  status: ('A' for Active; 'I' for Inactive)
ROOT
ATOM      1  C   UNL d   1       0.737  -1.254   1.153  0.00  0.00     0.124 A 
ATOM      2  C1  UNL d   1       1.085  -1.273  -0.191  0.00  0.00     0.062 A 
ATOM      3  C2  UNL d   1       0.483  -0.390  -1.082  0.00  0.00     0.162 A 
ATOM      4  C3  UNL d   1      -0.473   0.521  -0.633  0.00  0.00    -0.034 A 
ATOM      5  C4  UNL d   1      -0.819   0.534   0.719  0.00  0.00     0.162 A 
ATOM      6  C5  UNL d   1      -0.214  -0.351   1.606  0.00  0.00     0.062 A 
ATOM      7  F   UNL d   1      -0.551  -0.330   2.904  0.00  0.00    -0.097 F 
ATOM      8  F1  UNL d   1      -1.734   1.397   1.185  0.00  0.00    -0.096 F 
ATOM      9  I   UNL d   1      -1.376   1.842  -1.964  0.00  0.00    -0.060 I 
ATOM     10  F2  UNL d   1       0.838  -0.431  -2.375  0.00  0.00    -0.096 F 
ATOM     11  F3  UNL d   1       2.003  -2.145  -0.632  0.00  0.00    -0.097 F 
ATOM     12  F4  UNL d   1       1.317  -2.105   2.009  0.00  0.00    -0.092 F 
ENDROOT
TORSDOF 0
ENDMDL
