MODEL 1
REMARK minimizedAffinity -2.39799643
REMARK minimizedRMSD -1
REMARK  0 active torsions:
REMARK  status: ('A' for Active; 'I' for Inactive)
ROOT
ATOM      1  C4' PXY d   1       2.625  -0.265  -2.350  0.00  0.00     0.077 C 
ATOM      2  C1' PXY d   1      -1.400  -0.063   1.794  0.00  0.00     0.077 C 
ATOM      3  C1  PXY d   1      -0.348  -0.104   0.704  0.00  0.00    -0.082 A 
ATOM      4  C2  PXY d   1       0.079  -1.271   0.251  0.00  0.00     0.003 A 
ATOM      5  C3  PXY d   1       1.053  -1.327  -0.713  0.00  0.00     0.003 A 
ATOM      6  C4  PXY d   1       1.557  -0.176  -1.256  0.00  0.00    -0.082 A 
ATOM      7  C5  PXY d   1       1.118   1.019  -0.807  0.00  0.00     0.003 A 
ATOM      8  C6  PXY d   1       0.159   1.054   0.201  0.00  0.00     0.003 A 
ENDROOT
TORSDOF 0
ENDMDL
