MODEL 1
REMARK minimizedAffinity -2.49983382
REMARK minimizedRMSD -1
REMARK  0 active torsions:
REMARK  status: ('A' for Active; 'I' for Inactive)
ROOT
ATOM      1  C4' PXY d   1      -4.247   0.753   1.857  0.00  0.00     0.077 C 
ATOM      2  C1' PXY d   1      -2.311   4.303   5.988  0.00  0.00     0.077 C 
ATOM      3  C1  PXY d   1      -2.830   3.378   4.905  0.00  0.00    -0.082 A 
ATOM      4  C2  PXY d   1      -2.271   2.191   4.735  0.00  0.00     0.003 A 
ATOM      5  C3  PXY d   1      -2.707   1.355   3.740  0.00  0.00     0.003 A 
ATOM      6  C4  PXY d   1      -3.761   1.716   2.944  0.00  0.00    -0.082 A 
ATOM      7  C5  PXY d   1      -4.344   2.922   3.117  0.00  0.00     0.003 A 
ATOM      8  C6  PXY d   1      -3.859   3.773   4.107  0.00  0.00     0.003 A 
ENDROOT
TORSDOF 0
ENDMDL
