MODEL 1
REMARK minimizedAffinity -3.90428138
REMARK minimizedRMSD -1
REMARK  0 active torsions:
REMARK  status: ('A' for Active; 'I' for Inactive)
ROOT
ATOM      1  C4' PXY d   1       2.099   3.398   0.367  0.00  0.00     0.077 C 
ATOM      2  C1' PXY d   1      -0.043  -1.353  -2.134  0.00  0.00     0.077 C 
ATOM      3  C1  PXY d   1       0.530  -0.109  -1.484  0.00  0.00    -0.082 A 
ATOM      4  C2  PXY d   1       0.013   0.334  -0.350  0.00  0.00     0.003 A 
ATOM      5  C3  PXY d   1       0.498   1.475   0.235  0.00  0.00     0.003 A 
ATOM      6  C4  PXY d   1       1.559   2.141  -0.320  0.00  0.00    -0.082 A 
ATOM      7  C5  PXY d   1       2.099   1.689  -1.471  0.00  0.00     0.003 A 
ATOM      8  C6  PXY d   1       1.565   0.552  -2.071  0.00  0.00     0.003 A 
ENDROOT
TORSDOF 0
ENDMDL
