MODEL 1
REMARK minimizedAffinity -3.46036792
REMARK minimizedRMSD -1
REMARK  0 active torsions:
REMARK  status: ('A' for Active; 'I' for Inactive)
ROOT
ATOM      1  C4' PXY d   1      -1.172   0.705   1.418  0.00  0.00     0.077 C 
ATOM      2  C1' PXY d   1       2.489  -0.356  -2.927  0.00  0.00     0.077 C 
ATOM      3  C1  PXY d   1       1.538  -0.071  -1.782  0.00  0.00    -0.082 A 
ATOM      4  C2  PXY d   1       0.504  -0.870  -1.575  0.00  0.00     0.003 A 
ATOM      5  C3  PXY d   1      -0.383  -0.609  -0.564  0.00  0.00     0.003 A 
ATOM      6  C4  PXY d   1      -0.181   0.451   0.279  0.00  0.00    -0.082 A 
ATOM      7  C5  PXY d   1       0.878   1.265   0.082  0.00  0.00     0.003 A 
ATOM      8  C6  PXY d   1       1.744   1.006  -0.976  0.00  0.00     0.003 A 
ENDROOT
TORSDOF 0
ENDMDL
