MODEL 1
REMARK minimizedAffinity -2.18938088
REMARK minimizedRMSD -1
REMARK  0 active torsions:
REMARK  status: ('A' for Active; 'I' for Inactive)
ROOT
ATOM      1  C4' PXY d   1       3.001   0.009  -2.239  0.00  0.00     0.077 C 
ATOM      2  C1' PXY d   1      -1.509   0.558   1.335  0.00  0.00     0.077 C 
ATOM      3  C1  PXY d   1      -0.329   0.401   0.396  0.00  0.00    -0.082 A 
ATOM      4  C2  PXY d   1       0.708   1.215   0.508  0.00  0.00     0.003 A 
ATOM      5  C3  PXY d   1       1.769   1.108  -0.354  0.00  0.00     0.003 A 
ATOM      6  C4  PXY d   1       1.792   0.124  -1.306  0.00  0.00    -0.082 A 
ATOM      7  C5  PXY d   1       0.742  -0.716  -1.420  0.00  0.00     0.003 A 
ATOM      8  C6  PXY d   1      -0.343  -0.565  -0.562  0.00  0.00     0.003 A 
ENDROOT
TORSDOF 0
ENDMDL
