MODEL 1
REMARK minimizedAffinity -4.59749413
REMARK minimizedRMSD -1
REMARK  0 active torsions:
REMARK  status: ('A' for Active; 'I' for Inactive)
ROOT
ATOM      1  C4' PXY d   1      -0.970  -0.033   1.850  0.00  0.00     0.077 C 
ATOM      2  C1' PXY d   1       2.100   0.183  -3.043  0.00  0.00     0.077 C 
ATOM      3  C1  PXY d   1       1.287   0.117  -1.765  0.00  0.00    -0.082 A 
ATOM      4  C2  PXY d   1       1.253   1.164  -0.957  0.00  0.00     0.003 A 
ATOM      5  C3  PXY d   1       0.549   1.110   0.219  0.00  0.00     0.003 A 
ATOM      6  C4  PXY d   1      -0.170  -0.008   0.544  0.00  0.00    -0.082 A 
ATOM      7  C5  PXY d   1      -0.149  -1.077  -0.280  0.00  0.00     0.003 A 
ATOM      8  C6  PXY d   1       0.605  -1.017  -1.449  0.00  0.00     0.003 A 
ENDROOT
TORSDOF 0
ENDMDL
