MODEL 1
REMARK minimizedAffinity -3.80445766
REMARK minimizedRMSD -1
REMARK  0 active torsions:
REMARK  status: ('A' for Active; 'I' for Inactive)
ROOT
ATOM      1  C4' PXY d   1      -2.618   0.298   1.311  0.00  0.00     0.077 C 
ATOM      2  C1' PXY d   1       2.381   1.418  -1.367  0.00  0.00     0.077 C 
ATOM      3  C1  PXY d   1       1.075   1.114  -0.659  0.00  0.00    -0.082 A 
ATOM      4  C2  PXY d   1      -0.059   1.593  -1.144  0.00  0.00     0.003 A 
ATOM      5  C3  PXY d   1      -1.245   1.354  -0.499  0.00  0.00     0.003 A 
ATOM      6  C4  PXY d   1      -1.277   0.572   0.625  0.00  0.00    -0.082 A 
ATOM      7  C5  PXY d   1      -0.126   0.071   1.120  0.00  0.00     0.003 A 
ATOM      8  C6  PXY d   1       1.073   0.359   0.473  0.00  0.00     0.003 A 
ENDROOT
TORSDOF 0
ENDMDL
