MODEL 1
REMARK minimizedAffinity -3.75885534
REMARK minimizedRMSD -1
REMARK  0 active torsions:
REMARK  status: ('A' for Active; 'I' for Inactive)
ROOT
ATOM      1  C4' PXY d   1       0.158  -1.522  -1.758  0.00  0.00     0.077 C 
ATOM      2  C1' PXY d   1       1.611   3.667   0.336  0.00  0.00     0.077 C 
ATOM      3  C1  PXY d   1       1.239   2.307  -0.223  0.00  0.00    -0.082 A 
ATOM      4  C2  PXY d   1       0.028   1.819  -0.005  0.00  0.00     0.003 A 
ATOM      5  C3  PXY d   1      -0.314   0.578  -0.476  0.00  0.00     0.003 A 
ATOM      6  C4  PXY d   1       0.574  -0.150  -1.222  0.00  0.00    -0.082 A 
ATOM      7  C5  PXY d   1       1.808   0.346  -1.457  0.00  0.00     0.003 A 
ATOM      8  C6  PXY d   1       2.150   1.590  -0.935  0.00  0.00     0.003 A 
ENDROOT
TORSDOF 0
ENDMDL
