MODEL 1
REMARK minimizedAffinity -5.76246738
REMARK minimizedRMSD -1
REMARK  0 active torsions:
REMARK  status: ('A' for Active; 'I' for Inactive)
ROOT
ATOM      1  C4' PXY d   1       1.195  -2.579  -2.206  0.00  0.00     0.077 C 
ATOM      2  C1' PXY d   1       1.256   2.638   0.283  0.00  0.00     0.077 C 
ATOM      3  C1  PXY d   1       1.244   1.275  -0.381  0.00  0.00    -0.082 A 
ATOM      4  C2  PXY d   1       0.477   0.315   0.110  0.00  0.00     0.003 A 
ATOM      5  C3  PXY d   1       0.478  -0.932  -0.459  0.00  0.00     0.003 A 
ATOM      6  C4  PXY d   1       1.232  -1.185  -1.574  0.00  0.00    -0.082 A 
ATOM      7  C5  PXY d   1       2.009  -0.207  -2.087  0.00  0.00     0.003 A 
ATOM      8  C6  PXY d   1       2.025   1.040  -1.470  0.00  0.00     0.003 A 
ENDROOT
TORSDOF 0
ENDMDL
