MODEL 1
REMARK minimizedAffinity -1.3530736
REMARK minimizedRMSD -1
REMARK  0 active torsions:
REMARK  status: ('A' for Active; 'I' for Inactive)
ROOT
ATOM      1  C4' PXY d   1       2.075   3.372  -0.450  0.00  0.00     0.077 C 
ATOM      2  C1' PXY d   1       0.710  -2.242  -0.283  0.00  0.00     0.077 C 
ATOM      3  C1  PXY d   1       1.080  -0.773  -0.331  0.00  0.00    -0.082 A 
ATOM      4  C2  PXY d   1       0.422   0.092   0.423  0.00  0.00     0.003 A 
ATOM      5  C3  PXY d   1       0.722   1.429   0.368  0.00  0.00     0.003 A 
ATOM      6  C4  PXY d   1       1.742   1.878  -0.427  0.00  0.00    -0.082 A 
ATOM      7  C5  PXY d   1       2.425   1.000  -1.192  0.00  0.00     0.003 A 
ATOM      8  C6  PXY d   1       2.078  -0.347  -1.153  0.00  0.00     0.003 A 
ENDROOT
TORSDOF 0
ENDMDL
