MODEL 1
REMARK minimizedAffinity -4.12385178
REMARK minimizedRMSD -1
REMARK  0 active torsions:
REMARK  status: ('A' for Active; 'I' for Inactive)
ROOT
ATOM      1  C4' PXY d   1      -2.094   0.207   1.621  0.00  0.00     0.077 C 
ATOM      2  C1' PXY d   1       2.411   0.327  -1.998  0.00  0.00     0.077 C 
ATOM      3  C1  PXY d   1       1.227   0.283  -1.053  0.00  0.00    -0.082 A 
ATOM      4  C2  PXY d   1       0.641   1.411  -0.686  0.00  0.00     0.003 A 
ATOM      5  C3  PXY d   1      -0.411   1.392   0.194  0.00  0.00     0.003 A 
ATOM      6  C4  PXY d   1      -0.902   0.202   0.661  0.00  0.00    -0.082 A 
ATOM      7  C5  PXY d   1      -0.316  -0.954   0.283  0.00  0.00     0.003 A 
ATOM      8  C6  PXY d   1       0.777  -0.910  -0.578  0.00  0.00     0.003 A 
ENDROOT
TORSDOF 0
ENDMDL
