MODEL 1
REMARK minimizedAffinity -4.28500938
REMARK minimizedRMSD -1
REMARK  0 active torsions:
REMARK  status: ('A' for Active; 'I' for Inactive)
ROOT
ATOM      1  C4' PXY d   1       1.808  -2.638  -1.201  0.00  0.00     0.077 C 
ATOM      2  C1' PXY d   1       0.780   2.907   0.073  0.00  0.00     0.077 C 
ATOM      3  C1  PXY d   1       1.053   1.456  -0.274  0.00  0.00    -0.082 A 
ATOM      4  C2  PXY d   1       0.452   0.496   0.410  0.00  0.00     0.003 A 
ATOM      5  C3  PXY d   1       0.712  -0.821   0.132  0.00  0.00     0.003 A 
ATOM      6  C4  PXY d   1       1.555  -1.159  -0.893  0.00  0.00    -0.082 A 
ATOM      7  C5  PXY d   1       2.164  -0.186  -1.602  0.00  0.00     0.003 A 
ATOM      8  C6  PXY d   1       1.918   1.145  -1.277  0.00  0.00     0.003 A 
ENDROOT
TORSDOF 0
ENDMDL
