MODEL 1
REMARK minimizedAffinity -3.16982222
REMARK minimizedRMSD -1
REMARK  0 active torsions:
REMARK  status: ('A' for Active; 'I' for Inactive)
ROOT
ATOM      1  C4' PXY d   1       0.334  -2.393   0.320  0.00  0.00     0.077 C 
ATOM      2  C1' PXY d   1       2.063   2.834  -1.442  0.00  0.00     0.077 C 
ATOM      3  C1  PXY d   1       1.608   1.468  -0.968  0.00  0.00    -0.082 A 
ATOM      4  C2  PXY d   1       1.934   0.392  -1.666  0.00  0.00     0.003 A 
ATOM      5  C3  PXY d   1       1.504  -0.849  -1.269  0.00  0.00     0.003 A 
ATOM      6  C4  PXY d   1       0.779  -0.995  -0.116  0.00  0.00    -0.082 A 
ATOM      7  C5  PXY d   1       0.452   0.097   0.607  0.00  0.00     0.003 A 
ATOM      8  C6  PXY d   1       0.863   1.352   0.164  0.00  0.00     0.003 A 
ENDROOT
TORSDOF 0
ENDMDL
