MODEL 1
REMARK minimizedAffinity -3.39752126
REMARK minimizedRMSD -1
REMARK  0 active torsions:
REMARK  status: ('A' for Active; 'I' for Inactive)
ROOT
ATOM      1  C4' PXY d   1       1.740   3.100  -0.745  0.00  0.00     0.077 C 
ATOM      2  C1' PXY d   1       0.986  -2.627  -0.535  0.00  0.00     0.077 C 
ATOM      3  C1  PXY d   1       1.194  -1.127  -0.597  0.00  0.00    -0.082 A 
ATOM      4  C2  PXY d   1       0.676  -0.355   0.344  0.00  0.00     0.003 A 
ATOM      5  C3  PXY d   1       0.828   1.007   0.286  0.00  0.00     0.003 A 
ATOM      6  C4  PXY d   1       1.563   1.579  -0.718  0.00  0.00    -0.082 A 
ATOM      7  C5  PXY d   1       2.103   0.798  -1.676  0.00  0.00     0.003 A 
ATOM      8  C6  PXY d   1       1.903  -0.579  -1.622  0.00  0.00     0.003 A 
ENDROOT
TORSDOF 0
ENDMDL
