MODEL 1
REMARK minimizedAffinity -4.3960619
REMARK minimizedRMSD -1
REMARK  0 active torsions:
REMARK  status: ('A' for Active; 'I' for Inactive)
ROOT
ATOM      1  C4' PXY d   1      -3.585   0.108   1.666  0.00  0.00     0.077 C 
ATOM      2  C1' PXY d   1       1.579   0.376  -0.917  0.00  0.00     0.077 C 
ATOM      3  C1  PXY d   1       0.229   0.296  -0.231  0.00  0.00    -0.082 A 
ATOM      4  C2  PXY d   1      -0.857   0.681  -0.881  0.00  0.00     0.003 A 
ATOM      5  C3  PXY d   1      -2.082   0.646  -0.265  0.00  0.00     0.003 A 
ATOM      6  C4  PXY d   1      -2.203   0.162   1.010  0.00  0.00    -0.082 A 
ATOM      7  C5  PXY d   1      -1.100  -0.243   1.676  0.00  0.00     0.003 A 
ATOM      8  C6  PXY d   1       0.139  -0.160   1.047  0.00  0.00     0.003 A 
ENDROOT
TORSDOF 0
ENDMDL
