MODEL 1
REMARK minimizedAffinity -2.32386541
REMARK minimizedRMSD -1
REMARK  0 active torsions:
REMARK  status: ('A' for Active; 'I' for Inactive)
ROOT
ATOM      1  C4' PXY d   1       1.855   2.462  -1.428  0.00  0.00     0.077 C 
ATOM      2  C1' PXY d   1       0.945  -3.123  -0.247  0.00  0.00     0.077 C 
ATOM      3  C1  PXY d   1       1.197  -1.660  -0.557  0.00  0.00    -0.082 A 
ATOM      4  C2  PXY d   1       0.293  -0.755  -0.217  0.00  0.00     0.003 A 
ATOM      5  C3  PXY d   1       0.490   0.568  -0.519  0.00  0.00     0.003 A 
ATOM      6  C4  PXY d   1       1.647   0.976  -1.126  0.00  0.00    -0.082 A 
ATOM      7  C5  PXY d   1       2.579   0.059  -1.466  0.00  0.00     0.003 A 
ATOM      8  C6  PXY d   1       2.341  -1.284  -1.188  0.00  0.00     0.003 A 
ENDROOT
TORSDOF 0
ENDMDL
