MODEL 1
REMARK minimizedAffinity -2.65640521
REMARK minimizedRMSD -1
REMARK  0 active torsions:
REMARK  status: ('A' for Active; 'I' for Inactive)
ROOT
ATOM      1  C4' PXY d   1      -1.224  -0.254   1.814  0.00  0.00     0.077 C 
ATOM      2  C1' PXY d   1       2.623   0.584  -2.419  0.00  0.00     0.077 C 
ATOM      3  C1  PXY d   1       1.608   0.355  -1.316  0.00  0.00    -0.082 A 
ATOM      4  C2  PXY d   1       1.341   1.329  -0.460  0.00  0.00     0.003 A 
ATOM      5  C3  PXY d   1       0.450   1.128   0.562  0.00  0.00     0.003 A 
ATOM      6  C4  PXY d   1      -0.214  -0.064   0.679  0.00  0.00    -0.082 A 
ATOM      7  C5  PXY d   1       0.046  -1.058  -0.196  0.00  0.00     0.003 A 
ATOM      8  C6  PXY d   1       0.984  -0.849  -1.202  0.00  0.00     0.003 A 
ENDROOT
TORSDOF 0
ENDMDL
