MODEL 1
REMARK minimizedAffinity -2.42559028
REMARK minimizedRMSD -1
REMARK  0 active torsions:
REMARK  status: ('A' for Active; 'I' for Inactive)
ROOT
ATOM      1  C4' PXY d   1      -1.524  -0.054   2.310  0.00  0.00     0.077 C 
ATOM      2  C1' PXY d   1       2.427   0.375  -1.887  0.00  0.00     0.077 C 
ATOM      3  C1  PXY d   1       1.386   0.252  -0.792  0.00  0.00    -0.082 A 
ATOM      4  C2  PXY d   1       1.046   1.321  -0.090  0.00  0.00     0.003 A 
ATOM      5  C3  PXY d   1       0.130   1.220   0.926  0.00  0.00     0.003 A 
ATOM      6  C4  PXY d   1      -0.484   0.026   1.189  0.00  0.00    -0.082 A 
ATOM      7  C5  PXY d   1      -0.151  -1.067   0.469  0.00  0.00     0.003 A 
ATOM      8  C6  PXY d   1       0.812  -0.953  -0.530  0.00  0.00     0.003 A 
ENDROOT
TORSDOF 0
ENDMDL
