MODEL 1
REMARK minimizedAffinity -3.80955267
REMARK minimizedRMSD -1
REMARK  0 active torsions:
REMARK  status: ('A' for Active; 'I' for Inactive)
ROOT
ATOM      1  C4' PXY d   1      -1.022   0.232  -0.083  0.00  0.00     0.077 C 
ATOM      2  C1' PXY d   1       4.455   1.988  -0.659  0.00  0.00     0.077 C 
ATOM      3  C1  PXY d   1       3.017   1.529  -0.520  0.00  0.00    -0.082 A 
ATOM      4  C2  PXY d   1       2.403   1.644   0.646  0.00  0.00     0.003 A 
ATOM      5  C3  PXY d   1       1.113   1.204   0.797  0.00  0.00     0.003 A 
ATOM      6  C4  PXY d   1       0.427   0.691  -0.271  0.00  0.00    -0.082 A 
ATOM      7  C5  PXY d   1       1.043   0.580  -1.467  0.00  0.00     0.003 A 
ATOM      8  C6  PXY d   1       2.366   0.993  -1.589  0.00  0.00     0.003 A 
ENDROOT
TORSDOF 0
ENDMDL
