MODEL 1
REMARK minimizedAffinity -3.2129333
REMARK minimizedRMSD -1
REMARK  0 active torsions:
REMARK  status: ('A' for Active; 'I' for Inactive)
ROOT
ATOM      1  C   UNL d   1       0.110  -0.563  -0.720  0.00  0.00     0.172 C 
ATOM      2  N   UNL d   1      -0.085  -0.459   0.707  0.00  0.00    -0.070 N 
ATOM      3  C1  UNL d   1      -1.263  -0.679   1.370  0.00  0.00    -0.004 A 
ATOM      4  C2  UNL d   1      -1.034  -0.479   2.714  0.00  0.00    -0.047 A 
ATOM      5  C3  UNL d   1       0.328  -0.126   2.865  0.00  0.00    -0.047 A 
ATOM      6  C4  UNL d   1       0.892  -0.121   1.606  0.00  0.00    -0.004 A 
ENDROOT
TORSDOF 0
ENDMDL
