MODEL 1
REMARK minimizedAffinity -4.01879215
REMARK minimizedRMSD -1
REMARK  0 active torsions:
REMARK  status: ('A' for Active; 'I' for Inactive)
ROOT
ATOM      1  C   UNL d   1      -0.050   0.088  -0.828  0.00  0.00     0.172 C 
ATOM      2  N   UNL d   1      -0.006  -0.078   0.606  0.00  0.00    -0.070 N 
ATOM      3  C1  UNL d   1      -1.042  -0.508   1.392  0.00  0.00    -0.004 A 
ATOM      4  C2  UNL d   1      -0.600  -0.531   2.697  0.00  0.00    -0.047 A 
ATOM      5  C3  UNL d   1       0.747  -0.098   2.696  0.00  0.00    -0.047 A 
ATOM      6  C4  UNL d   1       1.089   0.176   1.389  0.00  0.00    -0.004 A 
ENDROOT
TORSDOF 0
ENDMDL
