MODEL 1
REMARK minimizedAffinity -1.89247966
REMARK minimizedRMSD -1
REMARK  0 active torsions:
REMARK  status: ('A' for Active; 'I' for Inactive)
ROOT
ATOM      1  C   UNL d   1       0.477  -0.669  -0.672  0.00  0.00     0.172 C 
ATOM      2  N   UNL d   1       0.117  -0.652   0.727  0.00  0.00    -0.070 N 
ATOM      3  C1  UNL d   1      -0.596  -1.622   1.379  0.00  0.00    -0.004 A 
ATOM      4  C2  UNL d   1      -0.727  -1.236   2.696  0.00  0.00    -0.047 A 
ATOM      5  C3  UNL d   1      -0.071   0.010   2.839  0.00  0.00    -0.047 A 
ATOM      6  C4  UNL d   1       0.443   0.348   1.605  0.00  0.00    -0.004 A 
ENDROOT
TORSDOF 0
ENDMDL
