MODEL 1
REMARK minimizedAffinity -3.47885871
REMARK minimizedRMSD -1
REMARK  0 active torsions:
REMARK  status: ('A' for Active; 'I' for Inactive)
ROOT
ATOM      1  C   UNL d   1      -0.837  -1.114   2.169  0.00  0.00     0.172 C 
ATOM      2  N   UNL d   1      -0.286  -0.269   1.135  0.00  0.00    -0.070 N 
ATOM      3  C1  UNL d   1       0.907   0.399   1.201  0.00  0.00    -0.004 A 
ATOM      4  C2  UNL d   1       1.070   1.089   0.019  0.00  0.00    -0.047 A 
ATOM      5  C3  UNL d   1      -0.065   0.827  -0.784  0.00  0.00    -0.047 A 
ATOM      6  C4  UNL d   1      -0.889  -0.016  -0.069  0.00  0.00    -0.004 A 
ENDROOT
TORSDOF 0
ENDMDL
