MODEL 1
REMARK minimizedAffinity -2.85763121
REMARK minimizedRMSD -1
REMARK  0 active torsions:
REMARK  status: ('A' for Active; 'I' for Inactive)
ROOT
ATOM      1  C   UNL d   1      -0.013   0.098  -1.636  0.00  0.00     0.172 C 
ATOM      2  N   UNL d   1      -0.333  -0.221  -0.264  0.00  0.00    -0.070 N 
ATOM      3  C1  UNL d   1      -1.527  -0.722   0.181  0.00  0.00    -0.004 A 
ATOM      4  C2  UNL d   1      -1.432  -0.889   1.546  0.00  0.00    -0.047 A 
ATOM      5  C3  UNL d   1      -0.136  -0.472   1.934  0.00  0.00    -0.047 A 
ATOM      6  C4  UNL d   1       0.523  -0.063   0.794  0.00  0.00    -0.004 A 
ENDROOT
TORSDOF 0
ENDMDL
