MODEL 1
REMARK minimizedAffinity -1.97343254
REMARK minimizedRMSD -1
REMARK  0 active torsions:
REMARK  status: ('A' for Active; 'I' for Inactive)
ROOT
ATOM      1  C   UNL d   1       0.690  -0.291  -1.051  0.00  0.00     0.172 C 
ATOM      2  N   UNL d   1       0.153  -0.346   0.289  0.00  0.00    -0.070 N 
ATOM      3  C1  UNL d   1       0.495   0.487   1.320  0.00  0.00    -0.004 A 
ATOM      4  C2  UNL d   1      -0.235   0.110   2.427  0.00  0.00    -0.047 A 
ATOM      5  C3  UNL d   1      -1.042  -0.989   2.048  0.00  0.00    -0.047 A 
ATOM      6  C4  UNL d   1      -0.781  -1.251   0.719  0.00  0.00    -0.004 A 
ENDROOT
TORSDOF 0
ENDMDL
