MODEL 1
REMARK minimizedAffinity -3.46261573
REMARK minimizedRMSD -1
REMARK  0 active torsions:
REMARK  status: ('A' for Active; 'I' for Inactive)
ROOT
ATOM      1  C   UNL d   1      -0.312   0.142  -0.655  0.00  0.00     0.172 C 
ATOM      2  N   UNL d   1      -0.391  -0.004   0.779  0.00  0.00    -0.070 N 
ATOM      3  C1  UNL d   1       0.672  -0.009   1.641  0.00  0.00    -0.004 A 
ATOM      4  C2  UNL d   1       0.179  -0.170   2.918  0.00  0.00    -0.047 A 
ATOM      5  C3  UNL d   1      -1.229  -0.266   2.820  0.00  0.00    -0.047 A 
ATOM      6  C4  UNL d   1      -1.555  -0.160   1.484  0.00  0.00    -0.004 A 
ENDROOT
TORSDOF 0
ENDMDL
