MODEL 1
REMARK minimizedAffinity -3.24940395
REMARK minimizedRMSD -1
REMARK  0 active torsions:
REMARK  status: ('A' for Active; 'I' for Inactive)
ROOT
ATOM      1  C   UNL d   1       0.233   0.169  -0.993  0.00  0.00     0.172 C 
ATOM      2  N   UNL d   1      -0.108  -0.122   0.380  0.00  0.00    -0.070 N 
ATOM      3  C1  UNL d   1      -1.169  -0.881   0.795  0.00  0.00    -0.004 A 
ATOM      4  C2  UNL d   1      -1.147  -0.919   2.173  0.00  0.00    -0.047 A 
ATOM      5  C3  UNL d   1      -0.034  -0.156   2.600  0.00  0.00    -0.047 A 
ATOM      6  C4  UNL d   1       0.591   0.326   1.469  0.00  0.00    -0.004 A 
ENDROOT
TORSDOF 0
ENDMDL
