MODEL 1
REMARK minimizedAffinity -4.03842783
REMARK minimizedRMSD -1
REMARK  0 active torsions:
REMARK  status: ('A' for Active; 'I' for Inactive)
ROOT
ATOM      1  C   UNL d   1       0.511  -0.005   2.402  0.00  0.00     0.172 C 
ATOM      2  N   UNL d   1      -0.867   0.030   1.975  0.00  0.00    -0.070 N 
ATOM      3  C1  UNL d   1      -1.301   0.011   0.676  0.00  0.00    -0.004 A 
ATOM      4  C2  UNL d   1      -2.678   0.057   0.690  0.00  0.00    -0.047 A 
ATOM      5  C3  UNL d   1      -3.087   0.106   2.044  0.00  0.00    -0.047 A 
ATOM      6  C4  UNL d   1      -1.945   0.088   2.818  0.00  0.00    -0.004 A 
ENDROOT
TORSDOF 0
ENDMDL
