MODEL 1
REMARK minimizedAffinity -3.82053566
REMARK minimizedRMSD -1
REMARK  0 active torsions:
REMARK  status: ('A' for Active; 'I' for Inactive)
ROOT
ATOM      1  C   UNL d   1      -0.050   0.633  -0.604  0.00  0.00     0.172 C 
ATOM      2  N   UNL d   1       0.124   0.349   0.801  0.00  0.00    -0.070 N 
ATOM      3  C1  UNL d   1       1.275   0.541   1.518  0.00  0.00    -0.004 A 
ATOM      4  C2  UNL d   1       1.034   0.151   2.817  0.00  0.00    -0.047 A 
ATOM      5  C3  UNL d   1      -0.309  -0.291   2.884  0.00  0.00    -0.047 A 
ATOM      6  C4  UNL d   1      -0.849  -0.158   1.622  0.00  0.00    -0.004 A 
ENDROOT
TORSDOF 0
ENDMDL
