MODEL 1
REMARK minimizedAffinity -3.73800969
REMARK minimizedRMSD -1
REMARK  0 active torsions:
REMARK  status: ('A' for Active; 'I' for Inactive)
ROOT
ATOM      1  C   UNL d   1      -0.445  -0.681   3.235  0.00  0.00     0.172 C 
ATOM      2  N   UNL d   1      -0.041  -0.338   1.891  0.00  0.00    -0.070 N 
ATOM      3  C1  UNL d   1      -0.837  -0.397   0.779  0.00  0.00    -0.004 A 
ATOM      4  C2  UNL d   1      -0.084   0.009  -0.302  0.00  0.00    -0.047 A 
ATOM      5  C3  UNL d   1       1.210   0.322   0.178  0.00  0.00    -0.047 A 
ATOM      6  C4  UNL d   1       1.209   0.098   1.539  0.00  0.00    -0.004 A 
ENDROOT
TORSDOF 0
ENDMDL
