MODEL 1
REMARK minimizedAffinity -3.8968575
REMARK minimizedRMSD -1
REMARK  0 active torsions:
REMARK  status: ('A' for Active; 'I' for Inactive)
ROOT
ATOM      1  C   UNL d   1       0.380  -0.022  -1.099  0.00  0.00     0.172 C 
ATOM      2  N   UNL d   1       0.153  -0.172   0.319  0.00  0.00    -0.070 N 
ATOM      3  C1  UNL d   1      -0.886  -0.853   0.893  0.00  0.00    -0.004 A 
ATOM      4  C2  UNL d   1      -0.745  -0.763   2.261  0.00  0.00    -0.047 A 
ATOM      5  C3  UNL d   1       0.419  -0.000   2.518  0.00  0.00    -0.047 A 
ATOM      6  C4  UNL d   1       0.956   0.353   1.298  0.00  0.00    -0.004 A 
ENDROOT
TORSDOF 0
ENDMDL
