MODEL 1
REMARK minimizedAffinity -3.84461904
REMARK minimizedRMSD -1
REMARK  0 active torsions:
REMARK  status: ('A' for Active; 'I' for Inactive)
ROOT
ATOM      1  C   UNL d   1      -0.391   0.488  -0.832  0.00  0.00     0.172 C 
ATOM      2  N   UNL d   1      -1.148   0.218   0.368  0.00  0.00    -0.070 N 
ATOM      3  C1  UNL d   1      -2.508   0.321   0.494  0.00  0.00    -0.004 A 
ATOM      4  C2  UNL d   1      -2.839  -0.020   1.788  0.00  0.00    -0.047 A 
ATOM      5  C3  UNL d   1      -1.636  -0.338   2.463  0.00  0.00    -0.047 A 
ATOM      6  C4  UNL d   1      -0.605  -0.182   1.560  0.00  0.00    -0.004 A 
ENDROOT
TORSDOF 0
ENDMDL
