MODEL 1
REMARK minimizedAffinity -3.09651995
REMARK minimizedRMSD -1
REMARK  0 active torsions:
REMARK  status: ('A' for Active; 'I' for Inactive)
ROOT
ATOM      1  C   UNL d   1       0.307   0.081  -1.006  0.00  0.00     0.172 C 
ATOM      2  N   UNL d   1       0.037  -0.045   0.407  0.00  0.00    -0.070 N 
ATOM      3  C1  UNL d   1      -1.152  -0.438   0.961  0.00  0.00    -0.004 A 
ATOM      4  C2  UNL d   1      -1.002  -0.431   2.331  0.00  0.00    -0.047 A 
ATOM      5  C3  UNL d   1       0.322  -0.018   2.610  0.00  0.00    -0.047 A 
ATOM      6  C4  UNL d   1       0.943   0.214   1.401  0.00  0.00    -0.004 A 
ENDROOT
TORSDOF 0
ENDMDL
