MODEL 1
REMARK minimizedAffinity -3.52555513
REMARK minimizedRMSD -1
REMARK  0 active torsions:
REMARK  status: ('A' for Active; 'I' for Inactive)
ROOT
ATOM      1  C   UNL d   1       0.233   0.142  -1.358  0.00  0.00     0.172 C 
ATOM      2  N   UNL d   1       0.038  -0.120   0.049  0.00  0.00    -0.070 N 
ATOM      3  C1  UNL d   1       1.005  -0.055   1.015  0.00  0.00    -0.004 A 
ATOM      4  C2  UNL d   1       0.419  -0.371   2.222  0.00  0.00    -0.047 A 
ATOM      5  C3  UNL d   1      -0.948  -0.636   1.972  0.00  0.00    -0.047 A 
ATOM      6  C4  UNL d   1      -1.157  -0.473   0.619  0.00  0.00    -0.004 A 
ENDROOT
TORSDOF 0
ENDMDL
