MODEL 1
REMARK minimizedAffinity -2.22606015
REMARK minimizedRMSD -1
REMARK  0 active torsions:
REMARK  status: ('A' for Active; 'I' for Inactive)
ROOT
ATOM      1  C   UNL d   1      -0.175   0.444  -2.047  0.00  0.00     0.172 C 
ATOM      2  N   UNL d   1       0.665  -0.459  -2.799  0.00  0.00    -0.070 N 
ATOM      3  C1  UNL d   1       1.539  -0.098  -3.789  0.00  0.00    -0.004 A 
ATOM      4  C2  UNL d   1       2.147  -1.245  -4.254  0.00  0.00    -0.047 A 
ATOM      5  C3  UNL d   1       1.619  -2.332  -3.517  0.00  0.00    -0.047 A 
ATOM      6  C4  UNL d   1       0.704  -1.817  -2.624  0.00  0.00    -0.004 A 
ENDROOT
TORSDOF 0
ENDMDL
