MODEL 1
REMARK minimizedAffinity -3.64671373
REMARK minimizedRMSD -1
REMARK  0 active torsions:
REMARK  status: ('A' for Active; 'I' for Inactive)
ROOT
ATOM      1  C   UNL d   1       0.054  -0.207  -0.708  0.00  0.00     0.172 C 
ATOM      2  N   UNL d   1      -0.068  -0.070   0.725  0.00  0.00    -0.070 N 
ATOM      3  C1  UNL d   1       0.584   0.854   1.497  0.00  0.00    -0.004 A 
ATOM      4  C2  UNL d   1       0.200   0.657   2.805  0.00  0.00    -0.047 A 
ATOM      5  C3  UNL d   1      -0.713  -0.424   2.821  0.00  0.00    -0.047 A 
ATOM      6  C4  UNL d   1      -0.861  -0.855   1.520  0.00  0.00    -0.004 A 
ENDROOT
TORSDOF 0
ENDMDL
