MODEL 1
REMARK minimizedAffinity 12.5839367
REMARK minimizedRMSD -1
REMARK  1 active torsions:
REMARK  status: ('A' for Active; 'I' for Inactive)
REMARK    1  A    between atoms: C1_2  and  C2_3 
ROOT
ATOM      1  C2  UNL d   1       1.863  -3.257   0.548  0.00  0.00    -0.076 A 
ATOM      2  C3  UNL d   1       0.468  -3.098   0.625  0.00  0.00     0.004 A 
ATOM      3  C4  UNL d   1      -0.094  -2.009   1.290  0.00  0.00    -0.003 A 
ATOM      4  C5  UNL d   1       0.730  -1.061   1.886  0.00  0.00     0.000 A 
ATOM      5  C6  UNL d   1       2.116  -1.193   1.804  0.00  0.00     0.000 A 
ATOM      6  C7  UNL d   1       2.698  -2.276   1.124  0.00  0.00    -0.073 A 
ATOM      7  C8  UNL d   1       4.198  -2.373   1.071  0.00  0.00     0.078 C 
ENDROOT
BRANCH   1   8
ATOM      8  C1  UNL d   1       2.414  -4.473  -0.162  0.00  0.00     0.053 C 
ATOM      9  C   UNL d   1       1.910  -5.776   0.437  0.00  0.00     0.018 C 
ENDBRANCH   1   8
TORSDOF 1
ENDMDL
