MODEL 1
REMARK minimizedAffinity 16.2811909
REMARK minimizedRMSD -1
REMARK  1 active torsions:
REMARK  status: ('A' for Active; 'I' for Inactive)
REMARK    1  A    between atoms: C1_2  and  C2_3 
ROOT
ATOM      1  C2  UNL d   1      -3.701   0.854  -0.856  0.00  0.00    -0.076 A 
ATOM      2  C3  UNL d   1      -3.399  -0.240  -1.685  0.00  0.00     0.004 A 
ATOM      3  C4  UNL d   1      -3.642  -1.547  -1.265  0.00  0.00    -0.003 A 
ATOM      4  C5  UNL d   1      -4.192  -1.780  -0.009  0.00  0.00     0.000 A 
ATOM      5  C6  UNL d   1      -4.515  -0.706   0.819  0.00  0.00     0.000 A 
ATOM      6  C7  UNL d   1      -4.291   0.619   0.404  0.00  0.00    -0.073 A 
ATOM      7  C8  UNL d   1      -4.652   1.739   1.341  0.00  0.00     0.078 C 
ENDROOT
BRANCH   1   8
ATOM      8  C1  UNL d   1      -3.390   2.248  -1.354  0.00  0.00     0.053 C 
ATOM      9  C   UNL d   1      -2.863   2.252  -2.781  0.00  0.00     0.018 C 
ENDBRANCH   1   8
TORSDOF 1
ENDMDL
