MODEL 1
REMARK minimizedAffinity 11.1076794
REMARK minimizedRMSD -1
REMARK  1 active torsions:
REMARK  status: ('A' for Active; 'I' for Inactive)
REMARK    1  A    between atoms: C1_2  and  C2_3 
ROOT
ATOM      1  C2  UNL d   1      -3.976   2.271   4.674  0.00  0.00    -0.076 A 
ATOM      2  C3  UNL d   1      -4.018   1.466   5.825  0.00  0.00     0.004 A 
ATOM      3  C4  UNL d   1      -5.021   0.514   6.000  0.00  0.00    -0.003 A 
ATOM      4  C5  UNL d   1      -5.999   0.352   5.025  0.00  0.00     0.000 A 
ATOM      5  C6  UNL d   1      -5.964   1.129   3.868  0.00  0.00     0.000 A 
ATOM      6  C7  UNL d   1      -4.949   2.082   3.669  0.00  0.00    -0.073 A 
ATOM      7  C8  UNL d   1      -4.963   2.897   2.405  0.00  0.00     0.078 C 
ENDROOT
BRANCH   1   8
ATOM      8  C1  UNL d   1      -2.880   3.305   4.552  0.00  0.00     0.053 C 
ATOM      9  C   UNL d   1      -3.055   4.458   5.528  0.00  0.00     0.018 C 
ENDBRANCH   1   8
TORSDOF 1
ENDMDL
