MODEL 1
REMARK minimizedAffinity 16.1755009
REMARK minimizedRMSD -1
REMARK  1 active torsions:
REMARK  status: ('A' for Active; 'I' for Inactive)
REMARK    1  A    between atoms: C1_2  and  C2_3 
ROOT
ATOM      1  C2  UNL d   1       0.421  -2.328   1.699  0.00  0.00    -0.076 A 
ATOM      2  C3  UNL d   1       0.669  -3.473   0.922  0.00  0.00     0.004 A 
ATOM      3  C4  UNL d   1       1.942  -3.739   0.422  0.00  0.00    -0.003 A 
ATOM      4  C5  UNL d   1       2.990  -2.865   0.692  0.00  0.00     0.000 A 
ATOM      5  C6  UNL d   1       2.766  -1.734   1.476  0.00  0.00     0.000 A 
ATOM      6  C7  UNL d   1       1.492  -1.460   2.002  0.00  0.00    -0.073 A 
ATOM      7  C8  UNL d   1       1.306  -0.222   2.837  0.00  0.00     0.078 C 
ENDROOT
BRANCH   1   8
ATOM      8  C1  UNL d   1      -0.986  -2.078   2.192  0.00  0.00     0.053 C 
ATOM      9  C   UNL d   1      -1.623  -3.321   2.794  0.00  0.00     0.018 C 
ENDBRANCH   1   8
TORSDOF 1
ENDMDL
