MODEL 1
REMARK minimizedAffinity 10.1445847
REMARK minimizedRMSD -1
REMARK  1 active torsions:
REMARK  status: ('A' for Active; 'I' for Inactive)
REMARK    1  A    between atoms: C1_2  and  C2_3 
ROOT
ATOM      1  C2  UNL d   1       1.293  -2.337   1.154  0.00  0.00    -0.076 A 
ATOM      2  C3  UNL d   1       0.038  -2.083   1.734  0.00  0.00     0.004 A 
ATOM      3  C4  UNL d   1      -0.090  -1.209   2.813  0.00  0.00    -0.003 A 
ATOM      4  C5  UNL d   1       1.035  -0.575   3.328  0.00  0.00     0.000 A 
ATOM      5  C6  UNL d   1       2.285  -0.802   2.754  0.00  0.00     0.000 A 
ATOM      6  C7  UNL d   1       2.429  -1.667   1.655  0.00  0.00    -0.073 A 
ATOM      7  C8  UNL d   1       3.802  -1.880   1.079  0.00  0.00     0.078 C 
ENDROOT
BRANCH   1   8
ATOM      8  C1  UNL d   1       1.374  -3.315   0.003  0.00  0.00     0.053 C 
ATOM      9  C   UNL d   1       1.980  -4.648   0.414  0.00  0.00     0.018 C 
ENDBRANCH   1   8
TORSDOF 1
ENDMDL
