MODEL 1
REMARK minimizedAffinity 2.25021338
REMARK minimizedRMSD -1
REMARK  1 active torsions:
REMARK  status: ('A' for Active; 'I' for Inactive)
REMARK    1  A    between atoms: C1_2  and  C2_3 
ROOT
ATOM      1  C2  UNL d   1      -3.006   3.288  -5.260  0.00  0.00    -0.076 A 
ATOM      2  C3  UNL d   1      -2.639   4.645  -5.247  0.00  0.00     0.004 A 
ATOM      3  C4  UNL d   1      -3.548   5.637  -5.613  0.00  0.00    -0.003 A 
ATOM      4  C5  UNL d   1      -4.838   5.288  -5.997  0.00  0.00     0.000 A 
ATOM      5  C6  UNL d   1      -5.224   3.948  -5.999  0.00  0.00     0.000 A 
ATOM      6  C7  UNL d   1      -4.325   2.937  -5.618  0.00  0.00    -0.073 A 
ATOM      7  C8  UNL d   1      -4.793   1.507  -5.644  0.00  0.00     0.078 C 
ENDROOT
BRANCH   1   8
ATOM      8  C1  UNL d   1      -1.969   2.254  -4.880  0.00  0.00     0.053 C 
ATOM      9  C   UNL d   1      -1.817   2.109  -3.374  0.00  0.00     0.018 C 
ENDBRANCH   1   8
TORSDOF 1
ENDMDL
