MODEL 1
REMARK minimizedAffinity 8.22765923
REMARK minimizedRMSD -1
REMARK  0 active torsions:
REMARK  status: ('A' for Active; 'I' for Inactive)
ROOT
ATOM      1  C1  DEN d   1       3.075  -2.901   4.977  0.00  0.00     0.130 A 
ATOM      2  C2  DEN d   1       2.467  -1.927   4.074  0.00  0.00    -0.031 A 
ATOM      3  C3  DEN d   1       1.104  -2.394   3.750  0.00  0.00     0.027 A 
ATOM      4  C4  DEN d   1      -0.119  -4.517   4.558  0.00  0.00     0.027 A 
ATOM      5  C5  DEN d   1      -0.005  -5.654   5.326  0.00  0.00    -0.003 A 
ATOM      6  C6  DEN d   1       1.146  -5.968   5.999  0.00  0.00     0.001 A 
ATOM      7  C7  DEN d   1       2.214  -5.112   5.954  0.00  0.00     0.017 A 
ATOM      8  C8  DEN d   1       2.110  -3.967   5.175  0.00  0.00    -0.094 A 
ATOM      9  C9  DEN d   1       0.933  -3.661   4.512  0.00  0.00    -0.072 A 
ENDROOT
TORSDOF 0
ENDMDL
