MODEL 1
REMARK minimizedAffinity 11.0007944
REMARK minimizedRMSD -1
REMARK  0 active torsions:
REMARK  status: ('A' for Active; 'I' for Inactive)
ROOT
ATOM      1  C1  DEN d   1       4.755  -2.382   4.108  0.00  0.00     0.130 A 
ATOM      2  C2  DEN d   1       4.604  -3.468   5.073  0.00  0.00    -0.031 A 
ATOM      3  C3  DEN d   1       3.208  -3.946   5.007  0.00  0.00     0.027 A 
ATOM      4  C4  DEN d   1       1.279  -3.119   3.507  0.00  0.00     0.027 A 
ATOM      5  C5  DEN d   1       0.923  -2.210   2.535  0.00  0.00    -0.003 A 
ATOM      6  C6  DEN d   1       1.803  -1.281   2.048  0.00  0.00     0.001 A 
ATOM      7  C7  DEN d   1       3.096  -1.268   2.499  0.00  0.00     0.017 A 
ATOM      8  C8  DEN d   1       3.461  -2.176   3.484  0.00  0.00    -0.094 A 
ATOM      9  C9  DEN d   1       2.560  -3.116   3.955  0.00  0.00    -0.072 A 
ENDROOT
TORSDOF 0
ENDMDL
