MODEL 1
REMARK minimizedAffinity 0.640175104
REMARK minimizedRMSD -1
REMARK  0 active torsions:
REMARK  status: ('A' for Active; 'I' for Inactive)
ROOT
ATOM      1  C1  DEN d   1       1.164  -2.460   2.859  0.00  0.00     0.130 A 
ATOM      2  C2  DEN d   1       1.545  -1.341   2.001  0.00  0.00    -0.031 A 
ATOM      3  C3  DEN d   1       2.988  -1.091   2.191  0.00  0.00     0.027 A 
ATOM      4  C4  DEN d   1       4.661  -2.325   3.718  0.00  0.00     0.027 A 
ATOM      5  C5  DEN d   1       4.802  -3.335   4.643  0.00  0.00    -0.003 A 
ATOM      6  C6  DEN d   1       3.743  -4.096   5.061  0.00  0.00     0.001 A 
ATOM      7  C7  DEN d   1       2.502  -3.888   4.518  0.00  0.00     0.017 A 
ATOM      8  C8  DEN d   1       2.351  -2.866   3.590  0.00  0.00    -0.094 A 
ATOM      9  C9  DEN d   1       3.437  -2.116   3.172  0.00  0.00    -0.072 A 
ENDROOT
TORSDOF 0
ENDMDL
