MODEL 1
REMARK minimizedAffinity 5.61654186
REMARK minimizedRMSD -1
REMARK  0 active torsions:
REMARK  status: ('A' for Active; 'I' for Inactive)
ROOT
ATOM      1  C1  DEN d   1       5.275  -5.731  -2.187  0.00  0.00     0.130 A 
ATOM      2  C2  DEN d   1       4.300  -5.720  -1.099  0.00  0.00    -0.031 A 
ATOM      3  C3  DEN d   1       2.951  -5.790  -1.695  0.00  0.00     0.027 A 
ATOM      4  C4  DEN d   1       2.280  -5.918  -4.183  0.00  0.00     0.027 A 
ATOM      5  C5  DEN d   1       2.758  -5.943  -5.474  0.00  0.00    -0.003 A 
ATOM      6  C6  DEN d   1       4.095  -5.865  -5.760  0.00  0.00     0.001 A 
ATOM      7  C7  DEN d   1       5.005  -5.804  -4.737  0.00  0.00     0.017 A 
ATOM      8  C8  DEN d   1       4.530  -5.771  -3.433  0.00  0.00    -0.094 A 
ATOM      9  C9  DEN d   1       3.175  -5.863  -3.164  0.00  0.00    -0.072 A 
ENDROOT
TORSDOF 0
ENDMDL
