MODEL 1
REMARK minimizedAffinity 11.9131584
REMARK minimizedRMSD -1
REMARK  0 active torsions:
REMARK  status: ('A' for Active; 'I' for Inactive)
ROOT
ATOM      1  C1  DEN d   1      -3.871   1.856  -2.313  0.00  0.00     0.130 A 
ATOM      2  C2  DEN d   1      -2.606   1.300  -1.840  0.00  0.00    -0.031 A 
ATOM      3  C3  DEN d   1      -2.438   1.687  -0.425  0.00  0.00     0.027 A 
ATOM      4  C4  DEN d   1      -4.008   3.082   1.073  0.00  0.00     0.027 A 
ATOM      5  C5  DEN d   1      -5.194   3.781   1.112  0.00  0.00    -0.003 A 
ATOM      6  C6  DEN d   1      -5.999   3.915   0.012  0.00  0.00     0.001 A 
ATOM      7  C7  DEN d   1      -5.650   3.303  -1.163  0.00  0.00     0.017 A 
ATOM      8  C8  DEN d   1      -4.452   2.603  -1.212  0.00  0.00    -0.094 A 
ATOM      9  C9  DEN d   1      -3.658   2.468  -0.086  0.00  0.00    -0.072 A 
ENDROOT
TORSDOF 0
ENDMDL
