MODEL 1
REMARK minimizedAffinity 6.34498644
REMARK minimizedRMSD -1
REMARK  0 active torsions:
REMARK  status: ('A' for Active; 'I' for Inactive)
ROOT
ATOM      1  C1  DEN d   1       2.794  -5.335   5.416  0.00  0.00     0.130 A 
ATOM      2  C2  DEN d   1       1.533  -5.783   5.999  0.00  0.00    -0.031 A 
ATOM      3  C3  DEN d   1       0.448  -4.958   5.430  0.00  0.00     0.027 A 
ATOM      4  C4  DEN d   1       0.599  -3.043   3.709  0.00  0.00     0.027 A 
ATOM      5  C5  DEN d   1       1.457  -2.295   2.935  0.00  0.00    -0.003 A 
ATOM      6  C6  DEN d   1       2.814  -2.483   2.959  0.00  0.00     0.001 A 
ATOM      7  C7  DEN d   1       3.348  -3.473   3.740  0.00  0.00     0.017 A 
ATOM      8  C8  DEN d   1       2.489  -4.227   4.529  0.00  0.00    -0.094 A 
ATOM      9  C9  DEN d   1       1.120  -4.030   4.481  0.00  0.00    -0.072 A 
ENDROOT
TORSDOF 0
ENDMDL
