MODEL 1
REMARK minimizedAffinity 1.67830467
REMARK minimizedRMSD -1
REMARK  0 active torsions:
REMARK  status: ('A' for Active; 'I' for Inactive)
ROOT
ATOM      1  C1  DEN d   1       2.944  -5.998  -2.089  0.00  0.00     0.130 A 
ATOM      2  C2  DEN d   1       4.208  -5.987  -1.358  0.00  0.00    -0.031 A 
ATOM      3  C3  DEN d   1       5.306  -5.945  -2.344  0.00  0.00     0.027 A 
ATOM      4  C4  DEN d   1       5.173  -5.892  -4.920  0.00  0.00     0.027 A 
ATOM      5  C5  DEN d   1       4.318  -5.899  -6.000  0.00  0.00    -0.003 A 
ATOM      6  C6  DEN d   1       2.958  -5.973  -5.854  0.00  0.00     0.001 A 
ATOM      7  C7  DEN d   1       2.410  -5.997  -4.599  0.00  0.00     0.017 A 
ATOM      8  C8  DEN d   1       3.266  -5.998  -3.505  0.00  0.00    -0.094 A 
ATOM      9  C9  DEN d   1       4.637  -5.911  -3.673  0.00  0.00    -0.072 A 
ENDROOT
TORSDOF 0
ENDMDL
