MODEL 1
REMARK minimizedAffinity 4.895082
REMARK minimizedRMSD -1
REMARK  1 active torsions:
REMARK  status: ('A' for Active; 'I' for Inactive)
REMARK    1  A    between atoms: C1_2  and  C2_3 
ROOT
ATOM      1  C2  UNL d   1      -1.872   1.595   3.119  0.00  0.00    -0.081 A 
ATOM      2  C3  UNL d   1      -1.277   1.110   1.948  0.00  0.00     0.006 A 
ATOM      3  C4  UNL d   1       0.100   1.236   1.749  0.00  0.00     0.002 A 
ATOM      4  C5  UNL d   1       0.905   1.841   2.721  0.00  0.00    -0.080 A 
ATOM      5  C6  UNL d   1       2.389   1.956   2.533  0.00  0.00     0.076 C 
ATOM      6  C7  UNL d   1       0.308   2.341   3.883  0.00  0.00     0.002 A 
ATOM      7  C8  UNL d   1      -1.069   2.216   4.082  0.00  0.00     0.006 A 
ENDROOT
BRANCH   1   8
ATOM      8  C1  UNL d   1      -3.347   1.402   3.365  0.00  0.00     0.054 C 
ATOM      9  C   UNL d   1      -3.638   0.019   3.929  0.00  0.00     0.018 C 
ENDBRANCH   1   8
TORSDOF 1
ENDMDL
