MODEL 1
REMARK minimizedAffinity 17.7694321
REMARK minimizedRMSD -1
REMARK  1 active torsions:
REMARK  status: ('A' for Active; 'I' for Inactive)
REMARK    1  A    between atoms: C1_2  and  C2_3 
ROOT
ATOM      1  C2  UNL d   1       1.893   2.123   2.086  0.00  0.00    -0.081 A 
ATOM      2  C3  UNL d   1       0.583   1.680   2.310  0.00  0.00     0.006 A 
ATOM      3  C4  UNL d   1       0.196   1.223   3.572  0.00  0.00     0.002 A 
ATOM      4  C5  UNL d   1       1.109   1.209   4.632  0.00  0.00    -0.080 A 
ATOM      5  C6  UNL d   1       0.698   0.750   5.999  0.00  0.00     0.076 C 
ATOM      6  C7  UNL d   1       2.422   1.636   4.404  0.00  0.00     0.002 A 
ATOM      7  C8  UNL d   1       2.809   2.092   3.143  0.00  0.00     0.006 A 
ENDROOT
BRANCH   1   8
ATOM      8  C1  UNL d   1       2.295   2.677   0.743  0.00  0.00     0.054 C 
ATOM      9  C   UNL d   1       1.553   3.969   0.432  0.00  0.00     0.018 C 
ENDBRANCH   1   8
TORSDOF 1
ENDMDL
