MODEL 1
REMARK minimizedAffinity 13.18431
REMARK minimizedRMSD -1
REMARK  1 active torsions:
REMARK  status: ('A' for Active; 'I' for Inactive)
REMARK    1  A    between atoms: C1_2  and  C2_3 
ROOT
ATOM      1  C2  UNL d   1      -4.262  -3.519  -5.249  0.00  0.00    -0.081 A 
ATOM      2  C3  UNL d   1      -4.227  -4.065  -3.960  0.00  0.00     0.006 A 
ATOM      3  C4  UNL d   1      -3.017  -4.177  -3.271  0.00  0.00     0.002 A 
ATOM      4  C5  UNL d   1      -1.824  -3.739  -3.856  0.00  0.00    -0.080 A 
ATOM      5  C6  UNL d   1      -0.522  -3.826  -3.116  0.00  0.00     0.076 C 
ATOM      6  C7  UNL d   1      -1.857  -3.209  -5.151  0.00  0.00     0.002 A 
ATOM      7  C8  UNL d   1      -3.066  -3.098  -5.840  0.00  0.00     0.006 A 
ENDROOT
BRANCH   1   8
ATOM      8  C1  UNL d   1      -5.574  -3.338  -5.968  0.00  0.00     0.054 C 
ATOM      9  C   UNL d   1      -5.995  -1.875  -5.991  0.00  0.00     0.018 C 
ENDBRANCH   1   8
TORSDOF 1
ENDMDL
