MODEL 1
REMARK minimizedAffinity 20.664381
REMARK minimizedRMSD -1
REMARK  1 active torsions:
REMARK  status: ('A' for Active; 'I' for Inactive)
REMARK    1  A    between atoms: C1_2  and  C2_3 
ROOT
ATOM      1  C2  UNL d   1       2.165  -0.019  -2.213  0.00  0.00    -0.081 A 
ATOM      2  C3  UNL d   1       2.551   1.304  -2.464  0.00  0.00     0.006 A 
ATOM      3  C4  UNL d   1       3.342   1.997  -1.545  0.00  0.00     0.002 A 
ATOM      4  C5  UNL d   1       3.767   1.378  -0.365  0.00  0.00    -0.080 A 
ATOM      5  C6  UNL d   1       4.642   2.101   0.616  0.00  0.00     0.076 C 
ATOM      6  C7  UNL d   1       3.367   0.063  -0.106  0.00  0.00     0.002 A 
ATOM      7  C8  UNL d   1       2.575  -0.631  -1.024  0.00  0.00     0.006 A 
ENDROOT
BRANCH   1   8
ATOM      8  C1  UNL d   1       1.366  -0.791  -3.232  0.00  0.00     0.054 C 
ATOM      9  C   UNL d   1       2.088  -0.852  -4.571  0.00  0.00     0.018 C 
ENDBRANCH   1   8
TORSDOF 1
ENDMDL
