MODEL 1
REMARK minimizedAffinity 15.6726818
REMARK minimizedRMSD -1
REMARK  1 active torsions:
REMARK  status: ('A' for Active; 'I' for Inactive)
REMARK    1  A    between atoms: C1_2  and  C2_3 
ROOT
ATOM      1  C2  UNL d   1      -4.361   0.748   3.760  0.00  0.00    -0.081 A 
ATOM      2  C3  UNL d   1      -5.381   1.645   3.418  0.00  0.00     0.006 A 
ATOM      3  C4  UNL d   1      -5.561   2.824   4.146  0.00  0.00     0.002 A 
ATOM      4  C5  UNL d   1      -4.720   3.129   5.222  0.00  0.00    -0.080 A 
ATOM      5  C6  UNL d   1      -4.884   4.405   5.993  0.00  0.00     0.076 C 
ATOM      6  C7  UNL d   1      -3.713   2.224   5.574  0.00  0.00     0.002 A 
ATOM      7  C8  UNL d   1      -3.533   1.046   4.847  0.00  0.00     0.006 A 
ENDROOT
BRANCH   1   8
ATOM      8  C1  UNL d   1      -4.124  -0.492   2.936  0.00  0.00     0.054 C 
ATOM      9  C   UNL d   1      -4.163  -1.745   3.799  0.00  0.00     0.018 C 
ENDBRANCH   1   8
TORSDOF 1
ENDMDL
