MODEL 1
REMARK minimizedAffinity 16.5545959
REMARK minimizedRMSD -1
REMARK  1 active torsions:
REMARK  status: ('A' for Active; 'I' for Inactive)
REMARK    1  A    between atoms: C1_2  and  C2_3 
ROOT
ATOM      1  C2  UNL d   1      -3.153   1.849   4.576  0.00  0.00    -0.081 A 
ATOM      2  C3  UNL d   1      -1.912   2.123   5.162  0.00  0.00     0.006 A 
ATOM      3  C4  UNL d   1      -0.729   1.917   4.447  0.00  0.00     0.002 A 
ATOM      4  C5  UNL d   1      -0.769   1.442   3.132  0.00  0.00    -0.080 A 
ATOM      5  C6  UNL d   1       0.491   1.245   2.343  0.00  0.00     0.076 C 
ATOM      6  C7  UNL d   1      -2.009   1.151   2.552  0.00  0.00     0.002 A 
ATOM      7  C8  UNL d   1      -3.191   1.356   3.267  0.00  0.00     0.006 A 
ENDROOT
BRANCH   1   8
ATOM      8  C1  UNL d   1      -4.432   2.131   5.322  0.00  0.00     0.054 C 
ATOM      9  C   UNL d   1      -5.494   2.712   4.399  0.00  0.00     0.018 C 
ENDBRANCH   1   8
TORSDOF 1
ENDMDL
