MODEL 1
REMARK minimizedAffinity 14.4012403
REMARK minimizedRMSD -1
REMARK  1 active torsions:
REMARK  status: ('A' for Active; 'I' for Inactive)
REMARK    1  A    between atoms: C1_2  and  C2_3 
ROOT
ATOM      1  C2  UNL d   1      -3.032   3.435  -5.298  0.00  0.00    -0.081 A 
ATOM      2  C3  UNL d   1      -2.590   3.598  -3.979  0.00  0.00     0.006 A 
ATOM      3  C4  UNL d   1      -1.784   2.628  -3.378  0.00  0.00     0.002 A 
ATOM      4  C5  UNL d   1      -1.400   1.485  -4.087  0.00  0.00    -0.080 A 
ATOM      5  C6  UNL d   1      -0.510   0.451  -3.463  0.00  0.00     0.076 C 
ATOM      6  C7  UNL d   1      -1.857   1.314  -5.398  0.00  0.00     0.002 A 
ATOM      7  C8  UNL d   1      -2.663   2.282  -6.000  0.00  0.00     0.006 A 
ENDROOT
BRANCH   1   8
ATOM      8  C1  UNL d   1      -3.848   4.509  -5.971  0.00  0.00     0.054 C 
ATOM      9  C   UNL d   1      -5.332   4.172  -5.949  0.00  0.00     0.018 C 
ENDBRANCH   1   8
TORSDOF 1
ENDMDL
