MODEL 1
REMARK minimizedAffinity 14.9470921
REMARK minimizedRMSD -1
REMARK  1 active torsions:
REMARK  status: ('A' for Active; 'I' for Inactive)
REMARK    1  A    between atoms: C1_2  and  C2_3 
ROOT
ATOM      1  C2  UNL d   1      -0.836   3.972  -3.635  0.00  0.00    -0.081 A 
ATOM      2  C3  UNL d   1       0.367   3.317  -3.341  0.00  0.00     0.006 A 
ATOM      3  C4  UNL d   1       1.289   3.890  -2.463  0.00  0.00     0.002 A 
ATOM      4  C5  UNL d   1       1.022   5.123  -1.858  0.00  0.00    -0.080 A 
ATOM      5  C6  UNL d   1       1.991   5.735  -0.890  0.00  0.00     0.076 C 
ATOM      6  C7  UNL d   1      -0.171   5.786  -2.165  0.00  0.00     0.002 A 
ATOM      7  C8  UNL d   1      -1.094   5.213  -3.043  0.00  0.00     0.006 A 
ENDROOT
BRANCH   1   8
ATOM      8  C1  UNL d   1      -1.861   3.326  -4.531  0.00  0.00     0.054 C 
ATOM      9  C   UNL d   1      -1.273   2.992  -5.894  0.00  0.00     0.018 C 
ENDBRANCH   1   8
TORSDOF 1
ENDMDL
