MODEL 1
REMARK minimizedAffinity 9.08329391
REMARK minimizedRMSD -1
REMARK  1 active torsions:
REMARK  status: ('A' for Active; 'I' for Inactive)
REMARK    1  A    between atoms: C1_2  and  C2_3 
ROOT
ATOM      1  C2  UNL d   1      -0.855   5.122  -3.265  0.00  0.00    -0.081 A 
ATOM      2  C3  UNL d   1      -1.584   6.000  -4.076  0.00  0.00     0.006 A 
ATOM      3  C4  UNL d   1      -2.540   5.510  -4.969  0.00  0.00     0.002 A 
ATOM      4  C5  UNL d   1      -2.789   4.136  -5.060  0.00  0.00    -0.080 A 
ATOM      5  C6  UNL d   1      -3.834   3.600  -5.992  0.00  0.00     0.076 C 
ATOM      6  C7  UNL d   1      -2.048   3.258  -4.262  0.00  0.00     0.002 A 
ATOM      7  C8  UNL d   1      -1.092   3.747  -3.369  0.00  0.00     0.006 A 
ENDROOT
BRANCH   1   8
ATOM      8  C1  UNL d   1       0.131   5.652  -2.255  0.00  0.00     0.054 C 
ATOM      9  C   UNL d   1       1.388   4.795  -2.206  0.00  0.00     0.018 C 
ENDBRANCH   1   8
TORSDOF 1
ENDMDL
