MODEL 1
REMARK minimizedAffinity 8.96443176
REMARK minimizedRMSD -1
REMARK  1 active torsions:
REMARK  status: ('A' for Active; 'I' for Inactive)
REMARK    1  A    between atoms: C1_2  and  C2_3 
ROOT
ATOM      1  C2  UNL d   1      -3.555   4.053  -5.187  0.00  0.00    -0.081 A 
ATOM      2  C3  UNL d   1      -2.772   3.211  -4.387  0.00  0.00     0.006 A 
ATOM      3  C4  UNL d   1      -1.748   3.738  -3.596  0.00  0.00     0.002 A 
ATOM      4  C5  UNL d   1      -1.495   5.113  -3.585  0.00  0.00    -0.080 A 
ATOM      5  C6  UNL d   1      -0.419   5.695  -2.717  0.00  0.00     0.076 C 
ATOM      6  C7  UNL d   1      -2.266   5.952  -4.397  0.00  0.00     0.002 A 
ATOM      7  C8  UNL d   1      -3.290   5.427  -5.189  0.00  0.00     0.006 A 
ENDROOT
BRANCH   1   8
ATOM      8  C1  UNL d   1      -4.702   3.496  -5.992  0.00  0.00     0.054 C 
ATOM      9  C   UNL d   1      -5.893   4.444  -5.986  0.00  0.00     0.018 C 
ENDBRANCH   1   8
TORSDOF 1
ENDMDL
