MODEL 1
REMARK minimizedAffinity 9.16111851
REMARK minimizedRMSD -1
REMARK  1 active torsions:
REMARK  status: ('A' for Active; 'I' for Inactive)
REMARK    1  A    between atoms: C1_2  and  C2_3 
ROOT
ATOM      1  C2  UNL d   1      -0.935   1.057   3.014  0.00  0.00    -0.081 A 
ATOM      2  C3  UNL d   1      -2.245   1.548   2.970  0.00  0.00     0.006 A 
ATOM      3  C4  UNL d   1      -3.323   0.677   2.794  0.00  0.00     0.002 A 
ATOM      4  C5  UNL d   1      -3.109  -0.700   2.667  0.00  0.00    -0.080 A 
ATOM      5  C6  UNL d   1      -4.259  -1.650   2.509  0.00  0.00     0.076 C 
ATOM      6  C7  UNL d   1      -1.798  -1.189   2.694  0.00  0.00     0.002 A 
ATOM      7  C8  UNL d   1      -0.721  -0.318   2.869  0.00  0.00     0.006 A 
ENDROOT
BRANCH   1   8
ATOM      8  C1  UNL d   1       0.224   1.986   3.268  0.00  0.00     0.054 C 
ATOM      9  C   UNL d   1       0.894   1.685   4.601  0.00  0.00     0.018 C 
ENDBRANCH   1   8
TORSDOF 1
ENDMDL
