MODEL 1
REMARK minimizedAffinity 3.81689167
REMARK minimizedRMSD -1
REMARK  0 active torsions:
REMARK  status: ('A' for Active; 'I' for Inactive)
ROOT
ATOM      1  C   UNL d   1      -5.250  -4.769   2.404  0.00  0.00     0.172 C 
ATOM      2  N   UNL d   1      -5.306  -4.867   3.844  0.00  0.00    -0.070 N 
ATOM      3  C1  UNL d   1      -5.035  -3.853   4.724  0.00  0.00    -0.004 A 
ATOM      4  C2  UNL d   1      -5.201  -4.346   6.000  0.00  0.00    -0.047 A 
ATOM      5  C3  UNL d   1      -5.585  -5.704   5.883  0.00  0.00    -0.047 A 
ATOM      6  C4  UNL d   1      -5.642  -6.000   4.537  0.00  0.00    -0.004 A 
ENDROOT
TORSDOF 0
ENDMDL
