MODEL 1
REMARK minimizedAffinity 0.880659223
REMARK minimizedRMSD -1
REMARK  0 active torsions:
REMARK  status: ('A' for Active; 'I' for Inactive)
ROOT
ATOM      1  C   UNL d   1      -4.779   5.217  -4.341  0.00  0.00     0.172 C 
ATOM      2  N   UNL d   1      -3.397   5.218  -4.757  0.00  0.00    -0.070 N 
ATOM      3  C1  UNL d   1      -2.935   5.577  -5.995  0.00  0.00    -0.004 A 
ATOM      4  C2  UNL d   1      -1.564   5.442  -5.990  0.00  0.00    -0.047 A 
ATOM      5  C3  UNL d   1      -1.188   4.985  -4.705  0.00  0.00    -0.047 A 
ATOM      6  C4  UNL d   1      -2.342   4.855  -3.962  0.00  0.00    -0.004 A 
ENDROOT
TORSDOF 0
ENDMDL
