MODEL 1
REMARK minimizedAffinity 2.37580562
REMARK minimizedRMSD -1
REMARK  0 active torsions:
REMARK  status: ('A' for Active; 'I' for Inactive)
ROOT
ATOM      1  C   UNL d   1      -4.513  -4.491   2.716  0.00  0.00     0.172 C 
ATOM      2  N   UNL d   1      -4.948  -4.874   4.039  0.00  0.00    -0.070 N 
ATOM      3  C1  UNL d   1      -4.552  -5.997   4.715  0.00  0.00    -0.004 A 
ATOM      4  C2  UNL d   1      -5.188  -6.000   5.937  0.00  0.00    -0.047 A 
ATOM      5  C3  UNL d   1      -5.995  -4.839   5.998  0.00  0.00    -0.047 A 
ATOM      6  C4  UNL d   1      -5.827  -4.160   4.809  0.00  0.00    -0.004 A 
ENDROOT
TORSDOF 0
ENDMDL
