MODEL 1
REMARK minimizedAffinity -1.82021868
REMARK minimizedRMSD -1
REMARK  0 active torsions:
REMARK  status: ('A' for Active; 'I' for Inactive)
ROOT
ATOM      1  C   UNL d   1      -4.224  -0.517   2.688  0.00  0.00     0.172 C 
ATOM      2  N   UNL d   1      -3.739   0.167   3.863  0.00  0.00    -0.070 N 
ATOM      3  C1  UNL d   1      -4.439   0.350   5.026  0.00  0.00    -0.004 A 
ATOM      4  C2  UNL d   1      -3.631   1.045   5.900  0.00  0.00    -0.047 A 
ATOM      5  C3  UNL d   1      -2.404   1.289   5.239  0.00  0.00    -0.047 A 
ATOM      6  C4  UNL d   1      -2.498   0.735   3.980  0.00  0.00    -0.004 A 
ENDROOT
TORSDOF 0
ENDMDL
