MODEL 1
REMARK minimizedAffinity 1.91573703
REMARK minimizedRMSD -1
REMARK  0 active torsions:
REMARK  status: ('A' for Active; 'I' for Inactive)
ROOT
ATOM      1  C   UNL d   1      -0.942  -2.027   0.808  0.00  0.00     0.172 C 
ATOM      2  N   UNL d   1      -1.627  -1.233   1.801  0.00  0.00    -0.070 N 
ATOM      3  C1  UNL d   1      -1.057  -0.259   2.576  0.00  0.00    -0.004 A 
ATOM      4  C2  UNL d   1      -2.040   0.260   3.392  0.00  0.00    -0.047 A 
ATOM      5  C3  UNL d   1      -3.241  -0.427   3.097  0.00  0.00    -0.047 A 
ATOM      6  C4  UNL d   1      -2.957  -1.346   2.108  0.00  0.00    -0.004 A 
ENDROOT
TORSDOF 0
ENDMDL
