MODEL 1
REMARK minimizedAffinity 1.08090675
REMARK minimizedRMSD -1
REMARK  0 active torsions:
REMARK  status: ('A' for Active; 'I' for Inactive)
ROOT
ATOM      1  C   UNL d   1      -5.563  -0.737   3.707  0.00  0.00     0.172 C 
ATOM      2  N   UNL d   1      -4.172  -0.396   3.522  0.00  0.00    -0.070 N 
ATOM      3  C1  UNL d   1      -3.422   0.383   4.363  0.00  0.00    -0.004 A 
ATOM      4  C2  UNL d   1      -2.151   0.469   3.837  0.00  0.00    -0.047 A 
ATOM      5  C3  UNL d   1      -2.137  -0.283   2.639  0.00  0.00    -0.047 A 
ATOM      6  C4  UNL d   1      -3.400  -0.808   2.468  0.00  0.00    -0.004 A 
ENDROOT
TORSDOF 0
ENDMDL
