MODEL 1
REMARK minimizedAffinity 4.82152033
REMARK minimizedRMSD -1
REMARK  0 active torsions:
REMARK  status: ('A' for Active; 'I' for Inactive)
ROOT
ATOM      1  C   UNL d   1      -4.313   0.906   6.000  0.00  0.00     0.172 C 
ATOM      2  N   UNL d   1      -4.715  -0.031   4.977  0.00  0.00    -0.070 N 
ATOM      3  C1  UNL d   1      -4.370   0.035   3.654  0.00  0.00    -0.004 A 
ATOM      4  C2  UNL d   1      -4.950  -1.038   3.012  0.00  0.00    -0.047 A 
ATOM      5  C3  UNL d   1      -5.668  -1.774   3.984  0.00  0.00    -0.047 A 
ATOM      6  C4  UNL d   1      -5.506  -1.129   5.191  0.00  0.00    -0.004 A 
ENDROOT
TORSDOF 0
ENDMDL
