MODEL 1
REMARK minimizedAffinity 0.0399415232
REMARK minimizedRMSD -1
REMARK  0 active torsions:
REMARK  status: ('A' for Active; 'I' for Inactive)
ROOT
ATOM      1  C   UNL d   1      -2.267   1.476   5.999  0.00  0.00     0.172 C 
ATOM      2  N   UNL d   1      -3.325   0.723   5.368  0.00  0.00    -0.070 N 
ATOM      3  C1  UNL d   1      -3.352   0.329   4.057  0.00  0.00    -0.004 A 
ATOM      4  C2  UNL d   1      -4.525  -0.364   3.848  0.00  0.00    -0.047 A 
ATOM      5  C3  UNL d   1      -5.227  -0.387   5.076  0.00  0.00    -0.047 A 
ATOM      6  C4  UNL d   1      -4.462   0.293   6.000  0.00  0.00    -0.004 A 
ENDROOT
TORSDOF 0
ENDMDL
