MODEL 1
REMARK minimizedAffinity -3.01085997
REMARK minimizedRMSD -1
REMARK  0 active torsions:
REMARK  status: ('A' for Active; 'I' for Inactive)
ROOT
ATOM      1  C   UNL d   1      -2.616   1.032   5.239  0.00  0.00     0.172 C 
ATOM      2  N   UNL d   1      -3.341  -0.010   4.550  0.00  0.00    -0.070 N 
ATOM      3  C1  UNL d   1      -4.391  -0.725   5.062  0.00  0.00    -0.004 A 
ATOM      4  C2  UNL d   1      -4.803  -1.618   4.097  0.00  0.00    -0.047 A 
ATOM      5  C3  UNL d   1      -3.972  -1.434   2.966  0.00  0.00    -0.047 A 
ATOM      6  C4  UNL d   1      -3.076  -0.433   3.274  0.00  0.00    -0.004 A 
ENDROOT
TORSDOF 0
ENDMDL
