MODEL 1
REMARK minimizedAffinity -0.925014317
REMARK minimizedRMSD -1
REMARK  0 active torsions:
REMARK  status: ('A' for Active; 'I' for Inactive)
ROOT
ATOM      1  C   UNL d   1      -1.811   5.164  -5.490  0.00  0.00     0.172 C 
ATOM      2  N   UNL d   1      -3.208   5.359  -5.180  0.00  0.00    -0.070 N 
ATOM      3  C1  UNL d   1      -3.839   4.937  -4.040  0.00  0.00    -0.004 A 
ATOM      4  C2  UNL d   1      -5.161   5.315  -4.126  0.00  0.00    -0.047 A 
ATOM      5  C3  UNL d   1      -5.331   5.987  -5.360  0.00  0.00    -0.047 A 
ATOM      6  C4  UNL d   1      -4.106   6.000  -5.992  0.00  0.00    -0.004 A 
ENDROOT
TORSDOF 0
ENDMDL
