MODEL 1
REMARK minimizedAffinity -1.62136364
REMARK minimizedRMSD -1
REMARK  0 active torsions:
REMARK  status: ('A' for Active; 'I' for Inactive)
ROOT
ATOM      1  C   UNL d   1       2.725   1.886   1.099  0.00  0.00     0.172 C 
ATOM      2  N   UNL d   1       4.000   2.551   0.977  0.00  0.00    -0.070 N 
ATOM      3  C1  UNL d   1       4.607   3.299   1.950  0.00  0.00    -0.004 A 
ATOM      4  C2  UNL d   1       5.804   3.759   1.444  0.00  0.00    -0.047 A 
ATOM      5  C3  UNL d   1       5.919   3.272   0.121  0.00  0.00    -0.047 A 
ATOM      6  C4  UNL d   1       4.789   2.527  -0.143  0.00  0.00    -0.004 A 
ENDROOT
TORSDOF 0
ENDMDL
