MODEL 1
REMARK minimizedAffinity 2.04978204
REMARK minimizedRMSD -1
REMARK  0 active torsions:
REMARK  status: ('A' for Active; 'I' for Inactive)
ROOT
ATOM      1  C   UNL d   1      -2.307   0.240   5.061  0.00  0.00     0.172 C 
ATOM      2  N   UNL d   1      -2.106  -0.165   3.689  0.00  0.00    -0.070 N 
ATOM      3  C1  UNL d   1      -1.690   0.649   2.670  0.00  0.00    -0.004 A 
ATOM      4  C2  UNL d   1      -1.622  -0.112   1.523  0.00  0.00    -0.047 A 
ATOM      5  C3  UNL d   1      -2.011  -1.429   1.865  0.00  0.00    -0.047 A 
ATOM      6  C4  UNL d   1      -2.305  -1.434   3.212  0.00  0.00    -0.004 A 
ENDROOT
TORSDOF 0
ENDMDL
