MODEL 1
REMARK minimizedAffinity 4.00033379
REMARK minimizedRMSD -1
REMARK  0 active torsions:
REMARK  status: ('A' for Active; 'I' for Inactive)
ROOT
ATOM      1  C   UNL d   1      -0.058  -0.849   1.900  0.00  0.00     0.172 C 
ATOM      2  N   UNL d   1      -1.324  -0.513   2.508  0.00  0.00    -0.070 N 
ATOM      3  C1  UNL d   1      -2.543  -1.020   2.145  0.00  0.00    -0.004 A 
ATOM      4  C2  UNL d   1      -3.496  -0.452   2.963  0.00  0.00    -0.047 A 
ATOM      5  C3  UNL d   1      -2.827   0.426   3.848  0.00  0.00    -0.047 A 
ATOM      6  C4  UNL d   1      -1.483   0.370   3.544  0.00  0.00    -0.004 A 
ENDROOT
TORSDOF 0
ENDMDL
