MODEL 1
REMARK minimizedAffinity 2.88467789
REMARK minimizedRMSD -1
REMARK  0 active torsions:
REMARK  status: ('A' for Active; 'I' for Inactive)
ROOT
ATOM      1  C   UNL d   1      -1.349   5.474  -4.901  0.00  0.00     0.172 C 
ATOM      2  N   UNL d   1      -2.781   5.658  -4.873  0.00  0.00    -0.070 N 
ATOM      3  C1  UNL d   1      -3.565   5.651  -3.749  0.00  0.00    -0.004 A 
ATOM      4  C2  UNL d   1      -4.869   5.861  -4.143  0.00  0.00    -0.047 A 
ATOM      5  C3  UNL d   1      -4.869   5.998  -5.552  0.00  0.00    -0.047 A 
ATOM      6  C4  UNL d   1      -3.564   5.868  -5.977  0.00  0.00    -0.004 A 
ENDROOT
TORSDOF 0
ENDMDL
