MODEL 1
REMARK minimizedAffinity 3.59090543
REMARK minimizedRMSD -1
REMARK  0 active torsions:
REMARK  status: ('A' for Active; 'I' for Inactive)
ROOT
ATOM      1  C   UNL d   1      -2.244   5.169  -5.880  0.00  0.00     0.172 C 
ATOM      2  N   UNL d   1      -3.585   5.333  -5.370  0.00  0.00    -0.070 N 
ATOM      3  C1  UNL d   1      -4.602   6.000  -5.999  0.00  0.00    -0.004 A 
ATOM      4  C2  UNL d   1      -5.716   5.930  -5.191  0.00  0.00    -0.047 A 
ATOM      5  C3  UNL d   1      -5.355   5.197  -4.036  0.00  0.00    -0.047 A 
ATOM      6  C4  UNL d   1      -4.030   4.839  -4.173  0.00  0.00    -0.004 A 
ENDROOT
TORSDOF 0
ENDMDL
