MODEL 1
REMARK minimizedAffinity 3.13151121
REMARK minimizedRMSD -1
REMARK  0 active torsions:
REMARK  status: ('A' for Active; 'I' for Inactive)
ROOT
ATOM      1  C   UNL d   1      -4.795  -1.657   2.951  0.00  0.00     0.172 C 
ATOM      2  N   UNL d   1      -4.095  -0.504   3.467  0.00  0.00    -0.070 N 
ATOM      3  C1  UNL d   1      -4.650   0.725   3.707  0.00  0.00    -0.004 A 
ATOM      4  C2  UNL d   1      -3.657   1.548   4.194  0.00  0.00    -0.047 A 
ATOM      5  C3  UNL d   1      -2.465   0.787   4.249  0.00  0.00    -0.047 A 
ATOM      6  C4  UNL d   1      -2.765  -0.479   3.793  0.00  0.00    -0.004 A 
ENDROOT
TORSDOF 0
ENDMDL
