MODEL 1
REMARK minimizedAffinity -3.26743293
REMARK minimizedRMSD -1
REMARK  0 active torsions:
REMARK  status: ('A' for Active; 'I' for Inactive)
ROOT
ATOM      1  C   UNL d   1      -0.447   3.786   3.681  0.00  0.00     0.020 A 
ATOM      2  C1  UNL d   1       0.634   4.524   3.202  0.00  0.00     0.020 A 
ATOM      3  C2  UNL d   1       1.286   4.129   2.032  0.00  0.00     0.034 A 
ATOM      4  C3  UNL d   1       0.857   2.992   1.337  0.00  0.00     0.017 A 
ATOM      5  C4  UNL d   1      -0.229   2.252   1.819  0.00  0.00     0.017 A 
ATOM      6  C5  UNL d   1      -0.878   2.652   2.991  0.00  0.00     0.034 A 
ATOM      7 Cl   UNL d   1      -0.816   0.838   1.016  0.00  0.00    -0.070 Cl
ATOM      8 Cl1  UNL d   1       1.709   2.561  -0.103  0.00  0.00    -0.070 Cl
ENDROOT
TORSDOF 0
ENDMDL
