MODEL 1
REMARK minimizedAffinity 6.44585133
REMARK minimizedRMSD -1
REMARK  0 active torsions:
REMARK  status: ('A' for Active; 'I' for Inactive)
ROOT
ATOM      1  C   UNL d   1       4.724   1.743  -5.461  0.00  0.00     0.020 A 
ATOM      2  C1  UNL d   1       4.212   1.498  -4.188  0.00  0.00     0.020 A 
ATOM      3  C2  UNL d   1       3.643   2.540  -3.452  0.00  0.00     0.034 A 
ATOM      4  C3  UNL d   1       3.586   3.831  -3.989  0.00  0.00     0.017 A 
ATOM      5  C4  UNL d   1       4.100   4.076  -5.268  0.00  0.00     0.017 A 
ATOM      6  C5  UNL d   1       4.668   3.029  -6.000  0.00  0.00     0.034 A 
ATOM      7 Cl   UNL d   1       4.065   5.642  -5.997  0.00  0.00    -0.070 Cl
ATOM      8 Cl1  UNL d   1       2.868   5.072  -3.024  0.00  0.00    -0.070 Cl
ENDROOT
TORSDOF 0
ENDMDL
