MODEL 1
REMARK minimizedAffinity 0.855076253
REMARK minimizedRMSD -1
REMARK  0 active torsions:
REMARK  status: ('A' for Active; 'I' for Inactive)
ROOT
ATOM      1  C   UNL d   1       0.140   1.929  -0.904  0.00  0.00     0.020 A 
ATOM      2  C1  UNL d   1      -1.191   1.754  -0.526  0.00  0.00     0.020 A 
ATOM      3  C2  UNL d   1      -1.550   1.832   0.821  0.00  0.00     0.034 A 
ATOM      4  C3  UNL d   1      -0.578   2.085   1.795  0.00  0.00     0.017 A 
ATOM      5  C4  UNL d   1       0.757   2.260   1.415  0.00  0.00     0.017 A 
ATOM      6  C5  UNL d   1       1.112   2.182   0.065  0.00  0.00     0.034 A 
ATOM      7 Cl   UNL d   1       2.013   2.576   2.560  0.00  0.00    -0.070 Cl
ATOM      8 Cl1  UNL d   1      -1.094   2.168   3.442  0.00  0.00    -0.070 Cl
ENDROOT
TORSDOF 0
ENDMDL
