MODEL 1
REMARK minimizedAffinity -0.573073983
REMARK minimizedRMSD -1
REMARK  0 active torsions:
REMARK  status: ('A' for Active; 'I' for Inactive)
ROOT
ATOM      1  C   UNL d   1      -0.297   3.315   4.184  0.00  0.00     0.020 A 
ATOM      2  C1  UNL d   1      -1.604   3.049   3.778  0.00  0.00     0.020 A 
ATOM      3  C2  UNL d   1      -1.837   2.340   2.598  0.00  0.00     0.034 A 
ATOM      4  C3  UNL d   1      -0.762   1.897   1.819  0.00  0.00     0.017 A 
ATOM      5  C4  UNL d   1       0.549   2.165   2.227  0.00  0.00     0.017 A 
ATOM      6  C5  UNL d   1       0.777   2.875   3.410  0.00  0.00     0.034 A 
ATOM      7 Cl   UNL d   1       1.927   1.650   1.319  0.00  0.00    -0.070 Cl
ATOM      8 Cl1  UNL d   1      -1.125   1.027   0.371  0.00  0.00    -0.070 Cl
ENDROOT
TORSDOF 0
ENDMDL
