MODEL 1
REMARK minimizedAffinity 1.1116842
REMARK minimizedRMSD -1
REMARK  0 active torsions:
REMARK  status: ('A' for Active; 'I' for Inactive)
ROOT
ATOM      1  C   UNL d   1      -5.217  -1.371   2.857  0.00  0.00     0.020 A 
ATOM      2  C1  UNL d   1      -4.936  -0.220   2.121  0.00  0.00     0.020 A 
ATOM      3  C2  UNL d   1      -3.628   0.045   1.711  0.00  0.00     0.034 A 
ATOM      4  C3  UNL d   1      -2.595  -0.842   2.036  0.00  0.00     0.017 A 
ATOM      5  C4  UNL d   1      -2.878  -1.998   2.774  0.00  0.00     0.017 A 
ATOM      6  C5  UNL d   1      -4.190  -2.258   3.182  0.00  0.00     0.034 A 
ATOM      7 Cl   UNL d   1      -1.657  -3.139   3.213  0.00  0.00    -0.070 Cl
ATOM      8 Cl1  UNL d   1      -1.001  -0.452   1.496  0.00  0.00    -0.070 Cl
ENDROOT
TORSDOF 0
ENDMDL
