MODEL 1
REMARK minimizedAffinity 11.1370354
REMARK minimizedRMSD -1
REMARK  0 active torsions:
REMARK  status: ('A' for Active; 'I' for Inactive)
ROOT
ATOM      1  C   UNL d   1      -2.508  -4.328  -0.693  0.00  0.00     0.020 A 
ATOM      2  C1  UNL d   1      -1.890  -3.366  -1.491  0.00  0.00     0.020 A 
ATOM      3  C2  UNL d   1      -1.156  -2.335  -0.900  0.00  0.00     0.034 A 
ATOM      4  C3  UNL d   1      -1.039  -2.264   0.493  0.00  0.00     0.017 A 
ATOM      5  C4  UNL d   1      -1.660  -3.230   1.293  0.00  0.00     0.017 A 
ATOM      6  C5  UNL d   1      -2.394  -4.260   0.696  0.00  0.00     0.034 A 
ATOM      7 Cl   UNL d   1      -1.560  -3.208   3.018  0.00  0.00    -0.070 Cl
ATOM      8 Cl1  UNL d   1      -0.115  -0.963   1.156  0.00  0.00    -0.070 Cl
ENDROOT
TORSDOF 0
ENDMDL
