MODEL 1
REMARK minimizedAffinity -0.979862392
REMARK minimizedRMSD -1
REMARK  0 active torsions:
REMARK  status: ('A' for Active; 'I' for Inactive)
ROOT
ATOM      1  C   UNL d   1      -1.434   4.180   3.982  0.00  0.00     0.020 A 
ATOM      2  C1  UNL d   1      -0.067   4.259   4.246  0.00  0.00     0.020 A 
ATOM      3  C2  UNL d   1       0.834   3.498   3.498  0.00  0.00     0.034 A 
ATOM      4  C3  UNL d   1       0.369   2.656   2.481  0.00  0.00     0.017 A 
ATOM      5  C4  UNL d   1      -1.003   2.578   2.216  0.00  0.00     0.017 A 
ATOM      6  C5  UNL d   1      -1.901   3.342   2.969  0.00  0.00     0.034 A 
ATOM      7 Cl   UNL d   1      -1.652   1.562   0.977  0.00  0.00    -0.070 Cl
ATOM      8 Cl1  UNL d   1       1.540   1.745   1.595  0.00  0.00    -0.070 Cl
ENDROOT
TORSDOF 0
ENDMDL
