MODEL 1
REMARK minimizedAffinity -3.03126597
REMARK minimizedRMSD -1
REMARK  0 active torsions:
REMARK  status: ('A' for Active; 'I' for Inactive)
ROOT
ATOM      1  C   UNL d   1      -1.609   3.322   4.191  0.00  0.00     0.020 A 
ATOM      2  C1  UNL d   1      -0.701   4.376   4.100  0.00  0.00     0.020 A 
ATOM      3  C2  UNL d   1       0.417   4.265   3.270  0.00  0.00     0.034 A 
ATOM      4  C3  UNL d   1       0.629   3.097   2.528  0.00  0.00     0.017 A 
ATOM      5  C4  UNL d   1      -0.283   2.040   2.620  0.00  0.00     0.017 A 
ATOM      6  C5  UNL d   1      -1.401   2.157   3.452  0.00  0.00     0.034 A 
ATOM      7 Cl   UNL d   1      -0.088   0.568   1.735  0.00  0.00    -0.070 Cl
ATOM      8 Cl1  UNL d   1       2.033   3.029   1.522  0.00  0.00    -0.070 Cl
ENDROOT
TORSDOF 0
ENDMDL
