MODEL 1
REMARK minimizedAffinity 4.57777548
REMARK minimizedRMSD -1
REMARK  0 active torsions:
REMARK  status: ('A' for Active; 'I' for Inactive)
ROOT
ATOM      1  C   UNL d   1      -0.180   4.531   4.401  0.00  0.00     0.020 A 
ATOM      2  C1  UNL d   1      -1.461   3.981   4.404  0.00  0.00     0.020 A 
ATOM      3  C2  UNL d   1      -1.777   2.943   3.526  0.00  0.00     0.034 A 
ATOM      4  C3  UNL d   1      -0.811   2.450   2.641  0.00  0.00     0.017 A 
ATOM      5  C4  UNL d   1       0.475   3.003   2.639  0.00  0.00     0.017 A 
ATOM      6  C5  UNL d   1       0.786   4.043   3.520  0.00  0.00     0.034 A 
ATOM      7 Cl   UNL d   1       1.720   2.448   1.577  0.00  0.00    -0.070 Cl
ATOM      8 Cl1  UNL d   1      -1.271   1.164   1.584  0.00  0.00    -0.070 Cl
ENDROOT
TORSDOF 0
ENDMDL
