MODEL 1
REMARK minimizedAffinity 6.28310061
REMARK minimizedRMSD -1
REMARK  0 active torsions:
REMARK  status: ('A' for Active; 'I' for Inactive)
ROOT
ATOM      1  C   UNL d   1      -4.251   0.068   2.659  0.00  0.00     0.020 A 
ATOM      2  C1  UNL d   1      -4.457  -1.041   3.478  0.00  0.00     0.020 A 
ATOM      3  C2  UNL d   1      -3.416  -1.944   3.706  0.00  0.00     0.034 A 
ATOM      4  C3  UNL d   1      -2.164  -1.738   3.116  0.00  0.00     0.017 A 
ATOM      5  C4  UNL d   1      -1.958  -0.624   2.294  0.00  0.00     0.017 A 
ATOM      6  C5  UNL d   1      -3.004   0.276   2.069  0.00  0.00     0.034 A 
ATOM      7 Cl   UNL d   1      -0.441  -0.303   1.531  0.00  0.00    -0.070 Cl
ATOM      8 Cl1  UNL d   1      -0.922  -2.894   3.443  0.00  0.00    -0.070 Cl
ENDROOT
TORSDOF 0
ENDMDL
