MODEL 1
REMARK minimizedAffinity 0.817116618
REMARK minimizedRMSD -1
REMARK  0 active torsions:
REMARK  status: ('A' for Active; 'I' for Inactive)
ROOT
ATOM      1  C   UNL d   1       0.872   2.032   0.966  0.00  0.00     0.020 A 
ATOM      2  C1  UNL d   1      -0.275   1.428   1.478  0.00  0.00     0.020 A 
ATOM      3  C2  UNL d   1      -0.979   2.036   2.519  0.00  0.00     0.034 A 
ATOM      4  C3  UNL d   1      -0.535   3.252   3.052  0.00  0.00     0.017 A 
ATOM      5  C4  UNL d   1       0.617   3.857   2.538  0.00  0.00     0.017 A 
ATOM      6  C5  UNL d   1       1.317   3.244   1.495  0.00  0.00     0.034 A 
ATOM      7 Cl   UNL d   1       1.226   5.357   3.144  0.00  0.00    -0.070 Cl
ATOM      8 Cl1  UNL d   1      -1.455   3.948   4.339  0.00  0.00    -0.070 Cl
ENDROOT
TORSDOF 0
ENDMDL
