MODEL 1
REMARK minimizedAffinity 4.24376011
REMARK minimizedRMSD -1
REMARK  0 active torsions:
REMARK  status: ('A' for Active; 'I' for Inactive)
ROOT
ATOM      1  C   UNL d   1       1.877   2.402   2.318  0.00  0.00     0.020 A 
ATOM      2  C1  UNL d   1       1.443   3.067   3.464  0.00  0.00     0.020 A 
ATOM      3  C2  UNL d   1       0.147   2.861   3.942  0.00  0.00     0.034 A 
ATOM      4  C3  UNL d   1      -0.719   1.988   3.274  0.00  0.00     0.017 A 
ATOM      5  C4  UNL d   1      -0.283   1.321   2.124  0.00  0.00     0.017 A 
ATOM      6  C5  UNL d   1       1.016   1.531   1.649  0.00  0.00     0.034 A 
ATOM      7 Cl   UNL d   1      -1.294   0.229   1.246  0.00  0.00    -0.070 Cl
ATOM      8 Cl1  UNL d   1      -2.308   1.780   3.922  0.00  0.00    -0.070 Cl
ENDROOT
TORSDOF 0
ENDMDL
