MODEL 1
REMARK minimizedAffinity 9.5046711
REMARK minimizedRMSD -1
REMARK  0 active torsions:
REMARK  status: ('A' for Active; 'I' for Inactive)
ROOT
ATOM      1  C   UNL d   1       0.475   3.650   3.994  0.00  0.00     0.020 A 
ATOM      2  C1  UNL d   1      -0.618   2.855   4.334  0.00  0.00     0.020 A 
ATOM      3  C2  UNL d   1      -1.118   1.926   3.419  0.00  0.00     0.034 A 
ATOM      4  C3  UNL d   1      -0.525   1.791   2.158  0.00  0.00     0.017 A 
ATOM      5  C4  UNL d   1       0.572   2.590   1.817  0.00  0.00     0.017 A 
ATOM      6  C5  UNL d   1       1.069   3.518   2.738  0.00  0.00     0.034 A 
ATOM      7 Cl   UNL d   1       1.357   2.481   0.281  0.00  0.00    -0.070 Cl
ATOM      8 Cl1  UNL d   1      -1.195   0.623   1.076  0.00  0.00    -0.070 Cl
ENDROOT
TORSDOF 0
ENDMDL
