MODEL 1
REMARK minimizedAffinity -1.19231725
REMARK minimizedRMSD -1
REMARK  0 active torsions:
REMARK  status: ('A' for Active; 'I' for Inactive)
ROOT
ATOM      1  C   UNL d   1       0.403   1.552   0.239  0.00  0.00     0.020 A 
ATOM      2  C1  UNL d   1      -0.753   1.060   0.842  0.00  0.00     0.020 A 
ATOM      3  C2  UNL d   1      -1.103   1.478   2.128  0.00  0.00     0.034 A 
ATOM      4  C3  UNL d   1      -0.295   2.392   2.815  0.00  0.00     0.017 A 
ATOM      5  C4  UNL d   1       0.866   2.886   2.209  0.00  0.00     0.017 A 
ATOM      6  C5  UNL d   1       1.211   2.463   0.921  0.00  0.00     0.034 A 
ATOM      7 Cl   UNL d   1       1.913   4.015   2.993  0.00  0.00    -0.070 Cl
ATOM      8 Cl1  UNL d   1      -0.788   2.866   4.402  0.00  0.00    -0.070 Cl
ENDROOT
TORSDOF 0
ENDMDL
