MODEL 1
REMARK minimizedAffinity 10.1042986
REMARK minimizedRMSD -1
REMARK  0 active torsions:
REMARK  status: ('A' for Active; 'I' for Inactive)
ROOT
ATOM      1  C   UNL d   1       2.823  -1.781  -0.594  0.00  0.00     0.020 A 
ATOM      2  C1  UNL d   1       1.869  -1.661   0.416  0.00  0.00     0.020 A 
ATOM      3  C2  UNL d   1       0.696  -2.416   0.362  0.00  0.00     0.034 A 
ATOM      4  C3  UNL d   1       0.472  -3.293  -0.706  0.00  0.00     0.017 A 
ATOM      5  C4  UNL d   1       1.429  -3.412  -1.720  0.00  0.00     0.017 A 
ATOM      6  C5  UNL d   1       2.603  -2.655  -1.660  0.00  0.00     0.034 A 
ATOM      7 Cl   UNL d   1       1.223  -4.474  -3.068  0.00  0.00    -0.070 Cl
ATOM      8 Cl1  UNL d   1      -1.002  -4.195  -0.709  0.00  0.00    -0.070 Cl
ENDROOT
TORSDOF 0
ENDMDL
