MODEL 1
REMARK minimizedAffinity 12.2398491
REMARK minimizedRMSD -1
REMARK  0 active torsions:
REMARK  status: ('A' for Active; 'I' for Inactive)
ROOT
ATOM      1  C   UNL d   1       0.083   2.311   1.228  0.00  0.00     0.020 A 
ATOM      2  C1  UNL d   1       0.693   3.140   2.169  0.00  0.00     0.020 A 
ATOM      3  C2  UNL d   1       0.075   3.373   3.399  0.00  0.00     0.034 A 
ATOM      4  C3  UNL d   1      -1.158   2.777   3.691  0.00  0.00     0.017 A 
ATOM      5  C4  UNL d   1      -1.769   1.946   2.746  0.00  0.00     0.017 A 
ATOM      6  C5  UNL d   1      -1.145   1.716   1.516  0.00  0.00     0.034 A 
ATOM      7 Cl   UNL d   1      -3.289   1.175   3.034  0.00  0.00    -0.070 Cl
ATOM      8 Cl1  UNL d   1      -1.865   3.109   5.232  0.00  0.00    -0.070 Cl
ENDROOT
TORSDOF 0
ENDMDL
