MODEL 1
REMARK minimizedAffinity 7.37920284
REMARK minimizedRMSD -1
REMARK  0 active torsions:
REMARK  status: ('A' for Active; 'I' for Inactive)
ROOT
ATOM      1  C   UNL d   1      -2.034   0.827   2.197  0.00  0.00     0.020 A 
ATOM      2  C1  UNL d   1      -0.782   0.925   1.591  0.00  0.00     0.020 A 
ATOM      3  C2  UNL d   1       0.171   1.813   2.097  0.00  0.00     0.034 A 
ATOM      4  C3  UNL d   1      -0.128   2.606   3.211  0.00  0.00     0.017 A 
ATOM      5  C4  UNL d   1      -1.385   2.506   3.818  0.00  0.00     0.017 A 
ATOM      6  C5  UNL d   1      -2.335   1.616   3.308  0.00  0.00     0.034 A 
ATOM      7 Cl   UNL d   1      -1.826   3.452   5.196  0.00  0.00    -0.070 Cl
ATOM      8 Cl1  UNL d   1       1.098   3.681   3.783  0.00  0.00    -0.070 Cl
ENDROOT
TORSDOF 0
ENDMDL
