MODEL 1
REMARK minimizedAffinity 7.63031816
REMARK minimizedRMSD -1
REMARK  0 active torsions:
REMARK  status: ('A' for Active; 'I' for Inactive)
ROOT
ATOM      1  C   UNL d   1      -0.719   1.595   2.192  0.00  0.00     0.020 A 
ATOM      2  C1  UNL d   1       0.468   2.043   1.615  0.00  0.00     0.020 A 
ATOM      3  C2  UNL d   1       1.288   2.936   2.308  0.00  0.00     0.034 A 
ATOM      4  C3  UNL d   1       0.922   3.384   3.582  0.00  0.00     0.017 A 
ATOM      5  C4  UNL d   1      -0.270   2.934   4.161  0.00  0.00     0.017 A 
ATOM      6  C5  UNL d   1      -1.087   2.039   3.463  0.00  0.00     0.034 A 
ATOM      7 Cl   UNL d   1      -0.789   3.442   5.730  0.00  0.00    -0.070 Cl
ATOM      8 Cl1  UNL d   1       1.984   4.488   4.382  0.00  0.00    -0.070 Cl
ENDROOT
TORSDOF 0
ENDMDL
