MODEL 1
REMARK minimizedAffinity 21.2847309
REMARK minimizedRMSD -1
REMARK  0 active torsions:
REMARK  status: ('A' for Active; 'I' for Inactive)
ROOT
ATOM      1  C   UNL d   1       2.578  -5.877  -4.745  0.00  0.00     0.124 A 
ATOM      2  C1  UNL d   1       1.857  -5.907  -3.560  0.00  0.00     0.062 A 
ATOM      3  C2  UNL d   1       2.520  -5.885  -2.336  0.00  0.00     0.162 A 
ATOM      4  C3  UNL d   1       3.913  -5.831  -2.291  0.00  0.00    -0.034 A 
ATOM      5  C4  UNL d   1       4.632  -5.802  -3.488  0.00  0.00     0.162 A 
ATOM      6  C5  UNL d   1       3.964  -5.824  -4.708  0.00  0.00     0.062 A 
ATOM      7  F   UNL d   1       4.663  -5.795  -5.852  0.00  0.00    -0.097 F 
ATOM      8  F1  UNL d   1       5.972  -5.750  -3.481  0.00  0.00    -0.096 F 
ATOM      9  I   UNL d   1       4.908  -5.797  -0.464  0.00  0.00    -0.060 I 
ATOM     10  F2  UNL d   1       1.797  -5.915  -1.206  0.00  0.00    -0.096 F 
ATOM     11  F3  UNL d   1       0.517  -5.959  -3.593  0.00  0.00    -0.097 F 
ATOM     12  F4  UNL d   1       1.938  -5.899  -5.921  0.00  0.00    -0.092 F 
ENDROOT
TORSDOF 0
ENDMDL
