MODEL 1
REMARK minimizedAffinity 9.75352001
REMARK minimizedRMSD -1
REMARK  0 active torsions:
REMARK  status: ('A' for Active; 'I' for Inactive)
ROOT
ATOM      1  C   UNL d   1       3.048  -2.670   3.593  0.00  0.00     0.124 A 
ATOM      2  C1  UNL d   1       3.442  -3.572   4.571  0.00  0.00     0.062 A 
ATOM      3  C2  UNL d   1       2.544  -4.523   5.048  0.00  0.00     0.162 A 
ATOM      4  C3  UNL d   1       1.244  -4.577   4.547  0.00  0.00    -0.034 A 
ATOM      5  C4  UNL d   1       0.855  -3.666   3.564  0.00  0.00     0.162 A 
ATOM      6  C5  UNL d   1       1.755  -2.718   3.090  0.00  0.00     0.062 A 
ATOM      7  F   UNL d   1       1.373  -1.847   2.145  0.00  0.00    -0.097 F 
ATOM      8  F1  UNL d   1      -0.388  -3.690   3.060  0.00  0.00    -0.096 F 
ATOM      9  I   UNL d   1      -0.101  -5.998   5.258  0.00  0.00    -0.060 I 
ATOM     10  F2  UNL d   1       2.952  -5.383   5.994  0.00  0.00    -0.096 F 
ATOM     11  F3  UNL d   1       4.690  -3.528   5.059  0.00  0.00    -0.097 F 
ATOM     12  F4  UNL d   1       3.913  -1.755   3.136  0.00  0.00    -0.092 F 
ENDROOT
TORSDOF 0
ENDMDL
