MODEL 1
REMARK minimizedAffinity 13.9054728
REMARK minimizedRMSD -1
REMARK  0 active torsions:
REMARK  status: ('A' for Active; 'I' for Inactive)
ROOT
ATOM      1  C   UNL d   1       2.118  -2.133   2.797  0.00  0.00     0.124 A 
ATOM      2  C1  UNL d   1       1.380  -1.044   2.352  0.00  0.00     0.062 A 
ATOM      3  C2  UNL d   1       0.395  -1.215   1.384  0.00  0.00     0.162 A 
ATOM      4  C3  UNL d   1       0.140  -2.480   0.854  0.00  0.00    -0.034 A 
ATOM      5  C4  UNL d   1       0.887  -3.570   1.306  0.00  0.00     0.162 A 
ATOM      6  C5  UNL d   1       1.870  -3.394   2.274  0.00  0.00     0.062 A 
ATOM      7  F   UNL d   1       2.582  -4.447   2.702  0.00  0.00    -0.097 F 
ATOM      8  F1  UNL d   1       0.668  -4.800   0.818  0.00  0.00    -0.096 F 
ATOM      9  I   UNL d   1      -1.332  -2.739  -0.594  0.00  0.00    -0.060 I 
ATOM     10  F2  UNL d   1      -0.302  -0.145   0.973  0.00  0.00    -0.096 F 
ATOM     11  F3  UNL d   1       1.618   0.175   2.855  0.00  0.00    -0.097 F 
ATOM     12  F4  UNL d   1       3.066  -1.966   3.728  0.00  0.00    -0.092 F 
ENDROOT
TORSDOF 0
ENDMDL
