MODEL 1
REMARK minimizedAffinity 8.67452526
REMARK minimizedRMSD -1
REMARK  0 active torsions:
REMARK  status: ('A' for Active; 'I' for Inactive)
ROOT
ATOM      1  C   UNL d   1       2.775  -5.988  -1.349  0.00  0.00     0.124 A 
ATOM      2  C1  UNL d   1       1.838  -5.994  -2.372  0.00  0.00     0.062 A 
ATOM      3  C2  UNL d   1       2.253  -5.994  -3.701  0.00  0.00     0.162 A 
ATOM      4  C3  UNL d   1       3.612  -5.990  -4.014  0.00  0.00    -0.034 A 
ATOM      5  C4  UNL d   1       4.549  -5.984  -2.979  0.00  0.00     0.162 A 
ATOM      6  C5  UNL d   1       4.129  -5.983  -1.653  0.00  0.00     0.062 A 
ATOM      7  F   UNL d   1       5.036  -5.978  -0.665  0.00  0.00    -0.097 F 
ATOM      8  F1  UNL d   1       5.863  -5.980  -3.245  0.00  0.00    -0.096 F 
ATOM      9  I   UNL d   1       4.236  -5.991  -6.000  0.00  0.00    -0.060 I 
ATOM     10  F2  UNL d   1       1.325  -6.000  -4.670  0.00  0.00    -0.096 F 
ATOM     11  F3  UNL d   1       0.529  -5.998  -2.081  0.00  0.00    -0.097 F 
ATOM     12  F4  UNL d   1       2.373  -5.987  -0.071  0.00  0.00    -0.092 F 
ENDROOT
TORSDOF 0
ENDMDL
