MODEL 1
REMARK minimizedAffinity 19.7368031
REMARK minimizedRMSD -1
REMARK  0 active torsions:
REMARK  status: ('A' for Active; 'I' for Inactive)
ROOT
ATOM      1  C   UNL d   1       1.713  -0.328   2.516  0.00  0.00     0.124 A 
ATOM      2  C1  UNL d   1       1.729  -0.312   3.904  0.00  0.00     0.062 A 
ATOM      3  C2  UNL d   1       1.805  -1.505   4.616  0.00  0.00     0.162 A 
ATOM      4  C3  UNL d   1       1.867  -2.725   3.942  0.00  0.00    -0.034 A 
ATOM      5  C4  UNL d   1       1.849  -2.733   2.546  0.00  0.00     0.162 A 
ATOM      6  C5  UNL d   1       1.773  -1.538   1.839  0.00  0.00     0.062 A 
ATOM      7  F   UNL d   1       1.758  -1.555   0.498  0.00  0.00    -0.097 F 
ATOM      8  F1  UNL d   1       1.907  -3.888   1.866  0.00  0.00    -0.096 F 
ATOM      9  I   UNL d   1       1.980  -4.511   5.004  0.00  0.00    -0.060 I 
ATOM     10  F2  UNL d   1       1.819  -1.460   5.957  0.00  0.00    -0.096 F 
ATOM     11  F3  UNL d   1       1.671   0.855   4.560  0.00  0.00    -0.097 F 
ATOM     12  F4  UNL d   1       1.639   0.822   1.833  0.00  0.00    -0.092 F 
ENDROOT
TORSDOF 0
ENDMDL
