MODEL 1
REMARK minimizedAffinity 17.0519466
REMARK minimizedRMSD -1
REMARK  0 active torsions:
REMARK  status: ('A' for Active; 'I' for Inactive)
ROOT
ATOM      1  C   UNL d   1      -1.322   0.886  -0.515  0.00  0.00     0.124 A 
ATOM      2  C1  UNL d   1      -1.444   0.258  -1.746  0.00  0.00     0.062 A 
ATOM      3  C2  UNL d   1      -2.484   0.599  -2.606  0.00  0.00     0.162 A 
ATOM      4  C3  UNL d   1      -3.411   1.573  -2.237  0.00  0.00    -0.034 A 
ATOM      5  C4  UNL d   1      -3.283   2.200  -0.996  0.00  0.00     0.162 A 
ATOM      6  C5  UNL d   1      -2.241   1.856  -0.141  0.00  0.00     0.062 A 
ATOM      7  F   UNL d   1      -2.125   2.463   1.049  0.00  0.00    -0.097 F 
ATOM      8  F1  UNL d   1      -4.157   3.141  -0.609  0.00  0.00    -0.096 F 
ATOM      9  I   UNL d   1      -4.969   2.086  -3.519  0.00  0.00    -0.060 I 
ATOM     10  F2  UNL d   1      -2.578  -0.024  -3.790  0.00  0.00    -0.096 F 
ATOM     11  F3  UNL d   1      -0.557  -0.680  -2.110  0.00  0.00    -0.097 F 
ATOM     12  F4  UNL d   1      -0.320   0.556   0.311  0.00  0.00    -0.092 F 
ENDROOT
TORSDOF 0
ENDMDL
