MODEL 1
REMARK minimizedAffinity 12.0888414
REMARK minimizedRMSD -1
REMARK  0 active torsions:
REMARK  status: ('A' for Active; 'I' for Inactive)
ROOT
ATOM      1  C   UNL d   1       2.261  -1.314   0.773  0.00  0.00     0.124 A 
ATOM      2  C1  UNL d   1       2.750  -1.576  -0.500  0.00  0.00     0.062 A 
ATOM      3  C2  UNL d   1       3.414  -2.770  -0.763  0.00  0.00     0.162 A 
ATOM      4  C3  UNL d   1       3.594  -3.713   0.249  0.00  0.00    -0.034 A 
ATOM      5  C4  UNL d   1       3.101  -3.442   1.527  0.00  0.00     0.162 A 
ATOM      6  C5  UNL d   1       2.437  -2.247   1.785  0.00  0.00     0.062 A 
ATOM      7  F   UNL d   1       1.966  -1.996   3.015  0.00  0.00    -0.097 F 
ATOM      8  F1  UNL d   1       3.256  -4.327   2.523  0.00  0.00    -0.096 F 
ATOM      9  I   UNL d   1       4.587  -5.500  -0.139  0.00  0.00    -0.060 I 
ATOM     10  F2  UNL d   1       3.876  -2.996  -2.002  0.00  0.00    -0.096 F 
ATOM     11  F3  UNL d   1       2.582  -0.675  -1.479  0.00  0.00    -0.097 F 
ATOM     12  F4  UNL d   1       1.623  -0.164   1.023  0.00  0.00    -0.092 F 
ENDROOT
TORSDOF 0
ENDMDL
