MODEL 1
REMARK minimizedAffinity 16.4338131
REMARK minimizedRMSD -1
REMARK  0 active torsions:
REMARK  status: ('A' for Active; 'I' for Inactive)
ROOT
ATOM      1  C   UNL d   1      -2.721   2.341   0.415  0.00  0.00     0.124 A 
ATOM      2  C1  UNL d   1      -3.988   1.777   0.487  0.00  0.00     0.062 A 
ATOM      3  C2  UNL d   1      -4.775   1.676  -0.656  0.00  0.00     0.162 A 
ATOM      4  C3  UNL d   1      -4.297   2.138  -1.882  0.00  0.00    -0.034 A 
ATOM      5  C4  UNL d   1      -3.023   2.704  -1.947  0.00  0.00     0.162 A 
ATOM      6  C5  UNL d   1      -2.240   2.803  -0.801  0.00  0.00     0.062 A 
ATOM      7  F   UNL d   1      -1.017   3.348  -0.873  0.00  0.00    -0.097 F 
ATOM      8  F1  UNL d   1      -2.533   3.159  -3.110  0.00  0.00    -0.096 F 
ATOM      9  I   UNL d   1      -5.471   1.989  -3.594  0.00  0.00    -0.060 I 
ATOM     10  F2  UNL d   1      -5.995   1.127  -0.557  0.00  0.00    -0.096 F 
ATOM     11  F3  UNL d   1      -4.455   1.330   1.662  0.00  0.00    -0.097 F 
ATOM     12  F4  UNL d   1      -1.966   2.438   1.517  0.00  0.00    -0.092 F 
ENDROOT
TORSDOF 0
ENDMDL
