MODEL 1
REMARK minimizedAffinity 1.85894454
REMARK minimizedRMSD -1
REMARK  2 active torsions:
REMARK  status: ('A' for Active; 'I' for Inactive)
REMARK    1  A    between atoms: C2'_3  and  C1'_4 
REMARK    2  A    between atoms: C1'_4  and  C1_5 
ROOT
ATOM      1  C1  I4B d   1       3.277  -4.875  -2.202  0.00  0.00    -0.075 A 
ATOM      2  C2  I4B d   1       3.507  -3.523  -2.247  0.00  0.00     0.003 A 
ATOM      3  C3  I4B d   1       4.755  -2.998  -1.833  0.00  0.00     0.002 A 
ATOM      4  C4  I4B d   1       5.720  -3.851  -1.338  0.00  0.00    -0.004 A 
ATOM      5  C5  I4B d   1       5.494  -5.224  -1.314  0.00  0.00     0.002 A 
ATOM      6  C6  I4B d   1       4.269  -5.741  -1.761  0.00  0.00     0.003 A 
ENDROOT
BRANCH   1   7
ATOM      7  C1' I4B d   1       1.935  -5.392  -2.615  0.00  0.00     0.060 C 
BRANCH   7   8
ATOM      8  C2' I4B d   1       1.097  -5.566  -1.365  0.00  0.00    -0.013 C 
ATOM      9  C4' I4B d   1       1.321  -4.434  -0.396  0.00  0.00     0.013 C 
ATOM     10  C3' I4B d   1      -0.342  -5.645  -1.780  0.00  0.00     0.013 C 
ENDBRANCH   7   8
ENDBRANCH   1   7
TORSDOF 2
ENDMDL
