MODEL 1
REMARK minimizedAffinity 5.15995932
REMARK minimizedRMSD -1
REMARK  2 active torsions:
REMARK  status: ('A' for Active; 'I' for Inactive)
REMARK    1  A    between atoms: C2'_3  and  C1'_4 
REMARK    2  A    between atoms: C1'_4  and  C1_5 
ROOT
ATOM      1  C1  I4B d   1       3.813  -4.160  -0.937  0.00  0.00    -0.075 A 
ATOM      2  C2  I4B d   1       3.019  -4.408   0.155  0.00  0.00     0.003 A 
ATOM      3  C3  I4B d   1       1.781  -5.077   0.000  0.00  0.00     0.002 A 
ATOM      4  C4  I4B d   1       1.355  -5.434  -1.263  0.00  0.00    -0.004 A 
ATOM      5  C5  I4B d   1       2.171  -5.202  -2.367  0.00  0.00     0.002 A 
ATOM      6  C6  I4B d   1       3.413  -4.573  -2.202  0.00  0.00     0.003 A 
ENDROOT
BRANCH   1   7
ATOM      7  C1' I4B d   1       5.099  -3.422  -0.741  0.00  0.00     0.060 C 
BRANCH   7   8
ATOM      8  C2' I4B d   1       4.831  -1.949  -0.974  0.00  0.00    -0.013 C 
ATOM      9  C4' I4B d   1       3.710  -1.747  -1.959  0.00  0.00     0.013 C 
ATOM     10  C3' I4B d   1       4.509  -1.323   0.350  0.00  0.00     0.013 C 
ENDBRANCH   7   8
ENDBRANCH   1   7
TORSDOF 2
ENDMDL
