MODEL 1
REMARK minimizedAffinity 4.42959261
REMARK minimizedRMSD -1
REMARK  2 active torsions:
REMARK  status: ('A' for Active; 'I' for Inactive)
REMARK    1  A    between atoms: C2'_3  and  C1'_4 
REMARK    2  A    between atoms: C1'_4  and  C1_5 
ROOT
ATOM      1  C1  I4B d   1      -0.417   3.507  -0.433  0.00  0.00    -0.075 A 
ATOM      2  C2  I4B d   1       0.754   3.677  -1.128  0.00  0.00     0.003 A 
ATOM      3  C3  I4B d   1       1.091   4.947  -1.656  0.00  0.00     0.002 A 
ATOM      4  C4  I4B d   1       0.211   5.999  -1.511  0.00  0.00    -0.004 A 
ATOM      5  C5  I4B d   1      -0.966   5.830  -0.787  0.00  0.00     0.002 A 
ATOM      6  C6  I4B d   1      -1.276   4.579  -0.233  0.00  0.00     0.003 A 
ENDROOT
BRANCH   1   7
ATOM      7  C1' I4B d   1      -0.757   2.144   0.083  0.00  0.00     0.060 C 
BRANCH   7   8
ATOM      8  C2' I4B d   1      -1.203   1.298  -1.092  0.00  0.00    -0.013 C 
ATOM      9  C4' I4B d   1      -2.347   0.396  -0.711  0.00  0.00     0.013 C 
ATOM     10  C3' I4B d   1      -1.590   2.222  -2.208  0.00  0.00     0.013 C 
ENDBRANCH   7   8
ENDBRANCH   1   7
TORSDOF 2
ENDMDL
