MODEL 1
REMARK minimizedAffinity 0.607489228
REMARK minimizedRMSD -1
REMARK  2 active torsions:
REMARK  status: ('A' for Active; 'I' for Inactive)
REMARK    1  A    between atoms: C2'_3  and  C1'_4 
REMARK    2  A    between atoms: C1'_4  and  C1_5 
ROOT
ATOM      1  C1  I4B d   1       4.413  -4.436  -1.128  0.00  0.00    -0.075 A 
ATOM      2  C2  I4B d   1       5.662  -3.929  -0.867  0.00  0.00     0.003 A 
ATOM      3  C3  I4B d   1       5.801  -2.666  -0.241  0.00  0.00     0.002 A 
ATOM      4  C4  I4B d   1       4.675  -1.928   0.058  0.00  0.00    -0.004 A 
ATOM      5  C5  I4B d   1       3.410  -2.453  -0.187  0.00  0.00     0.002 A 
ATOM      6  C6  I4B d   1       3.277  -3.721  -0.772  0.00  0.00     0.003 A 
ENDROOT
BRANCH   1   7
ATOM      7  C1' I4B d   1       4.303  -5.758  -1.820  0.00  0.00     0.060 C 
BRANCH   7   8
ATOM      8  C2' I4B d   1       3.827  -5.505  -3.236  0.00  0.00    -0.013 C 
ATOM      9  C4' I4B d   1       3.538  -4.044  -3.462  0.00  0.00     0.013 C 
ATOM     10  C3' I4B d   1       4.887  -5.998  -4.176  0.00  0.00     0.013 C 
ENDBRANCH   7   8
ENDBRANCH   1   7
TORSDOF 2
ENDMDL
