MODEL 1
REMARK minimizedAffinity 4.51371574
REMARK minimizedRMSD -1
REMARK  0 active torsions:
REMARK  status: ('A' for Active; 'I' for Inactive)
ROOT
ATOM      1  C   UNL d   1      -3.037  -3.014   0.275  0.00  0.00     0.172 C 
ATOM      2  N   UNL d   1      -1.751  -3.663   0.171  0.00  0.00    -0.070 N 
ATOM      3  C1  UNL d   1      -1.502  -4.986   0.420  0.00  0.00    -0.004 A 
ATOM      4  C2  UNL d   1      -0.158  -5.209   0.210  0.00  0.00    -0.047 A 
ATOM      5  C3  UNL d   1       0.420  -3.977  -0.178  0.00  0.00    -0.047 A 
ATOM      6  C4  UNL d   1      -0.588  -3.037  -0.193  0.00  0.00    -0.004 A 
ENDROOT
TORSDOF 0
ENDMDL
