MODEL 1
REMARK minimizedAffinity 1.60979533
REMARK minimizedRMSD -1
REMARK  0 active torsions:
REMARK  status: ('A' for Active; 'I' for Inactive)
ROOT
ATOM      1  C   UNL d   1      -4.041   0.832  -0.948  0.00  0.00     0.172 C 
ATOM      2  N   UNL d   1      -3.150   0.158  -1.863  0.00  0.00    -0.070 N 
ATOM      3  C1  UNL d   1      -1.805   0.386  -1.981  0.00  0.00    -0.004 A 
ATOM      4  C2  UNL d   1      -1.319  -0.454  -2.959  0.00  0.00    -0.047 A 
ATOM      5  C3  UNL d   1      -2.410  -1.213  -3.446  0.00  0.00    -0.047 A 
ATOM      6  C4  UNL d   1      -3.531  -0.814  -2.750  0.00  0.00    -0.004 A 
ENDROOT
TORSDOF 0
ENDMDL
