MODEL 1
REMARK minimizedAffinity 2.36809015
REMARK minimizedRMSD -1
REMARK  0 active torsions:
REMARK  status: ('A' for Active; 'I' for Inactive)
ROOT
ATOM      1  C   UNL d   1      -1.702  -2.837   0.239  0.00  0.00     0.172 C 
ATOM      2  N   UNL d   1      -2.455  -1.762  -0.363  0.00  0.00    -0.070 N 
ATOM      3  C1  UNL d   1      -3.775  -1.483  -0.130  0.00  0.00    -0.004 A 
ATOM      4  C2  UNL d   1      -4.116  -0.386  -0.892  0.00  0.00    -0.047 A 
ATOM      5  C3  UNL d   1      -2.961   0.007  -1.609  0.00  0.00    -0.047 A 
ATOM      6  C4  UNL d   1      -1.947  -0.862  -1.263  0.00  0.00    -0.004 A 
ENDROOT
TORSDOF 0
ENDMDL
