MODEL 1
REMARK minimizedAffinity 1.85371745
REMARK minimizedRMSD -1
REMARK  0 active torsions:
REMARK  status: ('A' for Active; 'I' for Inactive)
ROOT
ATOM      1  C   UNL d   1       0.743  -2.130   5.610  0.00  0.00     0.172 C 
ATOM      2  N   UNL d   1       1.762  -2.293   4.599  0.00  0.00    -0.070 N 
ATOM      3  C1  UNL d   1       2.989  -2.868   4.790  0.00  0.00    -0.004 A 
ATOM      4  C2  UNL d   1       3.663  -2.833   3.588  0.00  0.00    -0.047 A 
ATOM      5  C3  UNL d   1       2.811  -2.213   2.643  0.00  0.00    -0.047 A 
ATOM      6  C4  UNL d   1       1.641  -1.889   3.296  0.00  0.00    -0.004 A 
ENDROOT
TORSDOF 0
ENDMDL
