MODEL 1
REMARK minimizedAffinity 1.9674865
REMARK minimizedRMSD -1
REMARK  0 active torsions:
REMARK  status: ('A' for Active; 'I' for Inactive)
ROOT
ATOM      1  C   UNL d   1      -2.233  -2.321  -0.168  0.00  0.00     0.172 C 
ATOM      2  N   UNL d   1      -3.203  -1.541  -0.899  0.00  0.00    -0.070 N 
ATOM      3  C1  UNL d   1      -4.518  -1.874  -1.087  0.00  0.00    -0.004 A 
ATOM      4  C2  UNL d   1      -5.104  -0.874  -1.833  0.00  0.00    -0.047 A 
ATOM      5  C3  UNL d   1      -4.107   0.093  -2.104  0.00  0.00    -0.047 A 
ATOM      6  C4  UNL d   1      -2.940  -0.345  -1.514  0.00  0.00    -0.004 A 
ENDROOT
TORSDOF 0
ENDMDL
