MODEL 1
REMARK minimizedAffinity 2.2686584
REMARK minimizedRMSD -1
REMARK  0 active torsions:
REMARK  status: ('A' for Active; 'I' for Inactive)
ROOT
ATOM      1  C   UNL d   1       1.218  -6.000   0.752  0.00  0.00     0.172 C 
ATOM      2  N   UNL d   1       0.156  -5.087   0.401  0.00  0.00    -0.070 N 
ATOM      3  C1  UNL d   1      -0.025  -4.507  -0.826  0.00  0.00    -0.004 A 
ATOM      4  C2  UNL d   1      -1.145  -3.707  -0.754  0.00  0.00    -0.047 A 
ATOM      5  C3  UNL d   1      -1.654  -3.808   0.563  0.00  0.00    -0.047 A 
ATOM      6  C4  UNL d   1      -0.829  -4.669   1.256  0.00  0.00    -0.004 A 
ENDROOT
TORSDOF 0
ENDMDL
