MODEL 1
REMARK minimizedAffinity 6.09294701
REMARK minimizedRMSD -1
REMARK  0 active torsions:
REMARK  status: ('A' for Active; 'I' for Inactive)
ROOT
ATOM      1  C   UNL d   1      -0.888   0.289  -3.337  0.00  0.00     0.172 C 
ATOM      2  N   UNL d   1      -2.279   0.672  -3.386  0.00  0.00    -0.070 N 
ATOM      3  C1  UNL d   1      -3.184   0.523  -2.369  0.00  0.00    -0.004 A 
ATOM      4  C2  UNL d   1      -4.397   1.008  -2.809  0.00  0.00    -0.047 A 
ATOM      5  C3  UNL d   1      -4.215   1.463  -4.136  0.00  0.00    -0.047 A 
ATOM      6  C4  UNL d   1      -2.895   1.242  -4.469  0.00  0.00    -0.004 A 
ENDROOT
TORSDOF 0
ENDMDL
