MODEL 1
REMARK minimizedAffinity -1.94257379
REMARK minimizedRMSD -1
REMARK  0 active torsions:
REMARK  status: ('A' for Active; 'I' for Inactive)
ROOT
ATOM      1  C   UNL d   1       1.129  -0.423   2.587  0.00  0.00     0.172 C 
ATOM      2  N   UNL d   1       0.648   0.292   1.429  0.00  0.00    -0.070 N 
ATOM      3  C1  UNL d   1      -0.172   1.389   1.452  0.00  0.00    -0.004 A 
ATOM      4  C2  UNL d   1      -0.398   1.774   0.148  0.00  0.00    -0.047 A 
ATOM      5  C3  UNL d   1       0.309   0.877  -0.687  0.00  0.00    -0.047 A 
ATOM      6  C4  UNL d   1       0.948  -0.030   0.132  0.00  0.00    -0.004 A 
ENDROOT
TORSDOF 0
ENDMDL
