MODEL 1
REMARK minimizedAffinity -1.43088579
REMARK minimizedRMSD -1
REMARK  0 active torsions:
REMARK  status: ('A' for Active; 'I' for Inactive)
ROOT
ATOM      1  O1  BZF d   1       1.861  -5.446  -2.289  0.00  0.00    -0.204 OA
ATOM      2  C2  BZF d   1       0.696  -5.507  -1.548  0.00  0.00     0.174 A 
ATOM      3  C3  BZF d   1      -0.375  -5.663  -2.352  0.00  0.00    -0.012 A 
ATOM      4  C3A BZF d   1       0.162  -5.795  -3.672  0.00  0.00    -0.107 A 
ATOM      5  C4  BZF d   1      -0.403  -5.990  -4.900  0.00  0.00     0.055 A 
ATOM      6  C5  BZF d   1       0.395  -6.000  -6.000  0.00  0.00    -0.016 A 
ATOM      7  C6  BZF d   1       1.759  -5.813  -5.909  0.00  0.00     0.022 A 
ATOM      8  C7  BZF d   1       2.365  -5.621  -4.712  0.00  0.00     0.029 A 
ATOM      9  C7A BZF d   1       1.566  -5.643  -3.596  0.00  0.00     0.058 A 
ENDROOT
TORSDOF 0
ENDMDL
