MODEL 1
REMARK minimizedAffinity -0.402548015
REMARK minimizedRMSD -1
REMARK  0 active torsions:
REMARK  status: ('A' for Active; 'I' for Inactive)
ROOT
ATOM      1  O1  BZF d   1       1.270  -4.864  -2.129  0.00  0.00    -0.204 OA
ATOM      2  C2  BZF d   1      -0.086  -4.923  -1.874  0.00  0.00     0.174 A 
ATOM      3  C3  BZF d   1      -0.768  -5.265  -2.986  0.00  0.00    -0.012 A 
ATOM      4  C3A BZF d   1       0.232  -5.520  -3.977  0.00  0.00    -0.107 A 
ATOM      5  C4  BZF d   1       0.180  -5.914  -5.284  0.00  0.00     0.055 A 
ATOM      6  C5  BZF d   1       1.336  -6.000  -5.994  0.00  0.00    -0.016 A 
ATOM      7  C6  BZF d   1       2.558  -5.695  -5.432  0.00  0.00     0.022 A 
ATOM      8  C7  BZF d   1       2.660  -5.305  -4.138  0.00  0.00     0.029 A 
ATOM      9  C7A BZF d   1       1.498  -5.249  -3.408  0.00  0.00     0.058 A 
ENDROOT
TORSDOF 0
ENDMDL
