MODEL 1
REMARK minimizedAffinity -0.947138965
REMARK minimizedRMSD -1
REMARK  0 active torsions:
REMARK  status: ('A' for Active; 'I' for Inactive)
ROOT
ATOM      1  O1  BZF d   1      -2.057  -0.503   2.021  0.00  0.00    -0.204 OA
ATOM      2  C2  BZF d   1      -2.875  -1.210   2.881  0.00  0.00     0.174 A 
ATOM      3  C3  BZF d   1      -2.142  -1.909   3.771  0.00  0.00    -0.012 A 
ATOM      4  C3A BZF d   1      -0.783  -1.547   3.506  0.00  0.00    -0.107 A 
ATOM      5  C4  BZF d   1       0.410  -1.900   4.071  0.00  0.00     0.055 A 
ATOM      6  C5  BZF d   1       1.562  -1.425   3.530  0.00  0.00    -0.016 A 
ATOM      7  C6  BZF d   1       1.560  -0.602   2.423  0.00  0.00     0.022 A 
ATOM      8  C7  BZF d   1       0.402  -0.221   1.831  0.00  0.00     0.029 A 
ATOM      9  C7A BZF d   1      -0.766  -0.672   2.396  0.00  0.00     0.058 A 
ENDROOT
TORSDOF 0
ENDMDL
