MODEL 1
REMARK minimizedAffinity 2.4144671
REMARK minimizedRMSD -1
REMARK  0 active torsions:
REMARK  status: ('A' for Active; 'I' for Inactive)
ROOT
ATOM      1  O1  BZF d   1       2.712  -4.518  -5.745  0.00  0.00    -0.204 OA
ATOM      2  C2  BZF d   1       3.621  -3.841  -4.956  0.00  0.00     0.174 A 
ATOM      3  C3  BZF d   1       3.203  -3.800  -3.674  0.00  0.00    -0.012 A 
ATOM      4  C3A BZF d   1       2.000  -4.574  -3.645  0.00  0.00    -0.107 A 
ATOM      5  C4  BZF d   1       1.128  -4.917  -2.651  0.00  0.00     0.055 A 
ATOM      6  C5  BZF d   1       0.011  -5.623  -2.968  0.00  0.00    -0.016 A 
ATOM      7  C6  BZF d   1      -0.267  -5.998  -4.265  0.00  0.00     0.022 A 
ATOM      8  C7  BZF d   1       0.570  -5.686  -5.284  0.00  0.00     0.029 A 
ATOM      9  C7A BZF d   1       1.717  -5.001  -4.963  0.00  0.00     0.058 A 
ENDROOT
TORSDOF 0
ENDMDL
