MODEL 1
REMARK minimizedAffinity -3.59708285
REMARK minimizedRMSD -1
REMARK  0 active torsions:
REMARK  status: ('A' for Active; 'I' for Inactive)
ROOT
ATOM      1  O1  BZF d   1       1.810  -1.253   3.272  0.00  0.00    -0.204 OA
ATOM      2  C2  BZF d   1       1.506  -1.468   4.602  0.00  0.00     0.174 A 
ATOM      3  C3  BZF d   1       0.189  -1.283   4.827  0.00  0.00    -0.012 A 
ATOM      4  C3A BZF d   1      -0.380  -1.021   3.541  0.00  0.00    -0.107 A 
ATOM      5  C4  BZF d   1      -1.651  -0.772   3.109  0.00  0.00     0.055 A 
ATOM      6  C5  BZF d   1      -1.859  -0.483   1.798  0.00  0.00    -0.016 A 
ATOM      7  C6  BZF d   1      -0.819  -0.430   0.892  0.00  0.00     0.022 A 
ATOM      8  C7  BZF d   1       0.458  -0.675   1.272  0.00  0.00     0.029 A 
ATOM      9  C7A BZF d   1       0.667  -0.999   2.591  0.00  0.00     0.058 A 
ENDROOT
TORSDOF 0
ENDMDL
