MODEL 1
REMARK minimizedAffinity -1.3690995
REMARK minimizedRMSD -1
REMARK  0 active torsions:
REMARK  status: ('A' for Active; 'I' for Inactive)
ROOT
ATOM      1  O1  BZF d   1       1.761  -1.811   4.019  0.00  0.00    -0.204 OA
ATOM      2  C2  BZF d   1       0.853  -2.155   5.002  0.00  0.00     0.174 A 
ATOM      3  C3  BZF d   1      -0.383  -1.720   4.684  0.00  0.00    -0.012 A 
ATOM      4  C3A BZF d   1      -0.256  -1.143   3.381  0.00  0.00    -0.107 A 
ATOM      5  C4  BZF d   1      -1.142  -0.556   2.524  0.00  0.00     0.055 A 
ATOM      6  C5  BZF d   1      -0.683  -0.031   1.357  0.00  0.00    -0.016 A 
ATOM      7  C6  BZF d   1       0.654  -0.071   1.019  0.00  0.00     0.022 A 
ATOM      8  C7  BZF d   1       1.569  -0.648   1.835  0.00  0.00     0.029 A 
ATOM      9  C7A BZF d   1       1.104  -1.209   2.999  0.00  0.00     0.058 A 
ENDROOT
TORSDOF 0
ENDMDL
