MODEL 1
REMARK minimizedAffinity -2.16494393
REMARK minimizedRMSD -1
REMARK  0 active torsions:
REMARK  status: ('A' for Active; 'I' for Inactive)
ROOT
ATOM      1  O1  BZF d   1       2.586  -1.809   4.063  0.00  0.00    -0.204 OA
ATOM      2  C2  BZF d   1       2.101  -1.889   5.354  0.00  0.00     0.174 A 
ATOM      3  C3  BZF d   1       0.827  -1.452   5.415  0.00  0.00    -0.012 A 
ATOM      4  C3A BZF d   1       0.464  -1.162   4.062  0.00  0.00    -0.107 A 
ATOM      5  C4  BZF d   1      -0.682  -0.707   3.474  0.00  0.00     0.055 A 
ATOM      6  C5  BZF d   1      -0.685  -0.459   2.138  0.00  0.00    -0.016 A 
ATOM      7  C6  BZF d   1       0.439  -0.650   1.361  0.00  0.00     0.022 A 
ATOM      8  C7  BZF d   1       1.597  -1.105   1.898  0.00  0.00     0.029 A 
ATOM      9  C7A BZF d   1       1.594  -1.387   3.242  0.00  0.00     0.058 A 
ENDROOT
TORSDOF 0
ENDMDL
