MODEL 1
REMARK minimizedAffinity 8.64923096
REMARK minimizedRMSD -1
REMARK  0 active torsions:
REMARK  status: ('A' for Active; 'I' for Inactive)
ROOT
ATOM      1  O1  BZF d   1       0.341  -0.037   3.168  0.00  0.00    -0.204 OA
ATOM      2  C2  BZF d   1       0.727  -0.336   1.876  0.00  0.00     0.174 A 
ATOM      3  C3  BZF d   1       1.825  -1.120   1.874  0.00  0.00    -0.012 A 
ATOM      4  C3A BZF d   1       2.090  -1.400   3.252  0.00  0.00    -0.107 A 
ATOM      5  C4  BZF d   1       3.041  -2.140   3.894  0.00  0.00     0.055 A 
ATOM      6  C5  BZF d   1       3.066  -2.148   5.252  0.00  0.00    -0.016 A 
ATOM      7  C6  BZF d   1       2.160  -1.425   6.000  0.00  0.00     0.022 A 
ATOM      8  C7  BZF d   1       1.194  -0.680   5.408  0.00  0.00     0.029 A 
ATOM      9  C7A BZF d   1       1.146  -0.696   4.036  0.00  0.00     0.058 A 
ENDROOT
TORSDOF 0
ENDMDL
