MODEL 1
REMARK minimizedAffinity 7.84721613
REMARK minimizedRMSD -1
REMARK  0 active torsions:
REMARK  status: ('A' for Active; 'I' for Inactive)
ROOT
ATOM      1  N1  IND d   1       0.552   3.107   3.828  0.00  0.00    -0.196 N 
ATOM      2  C2  IND d   1       1.731   2.943   3.155  0.00  0.00     0.054 A 
ATOM      3  C3  IND d   1       1.495   2.651   1.857  0.00  0.00    -0.031 A 
ATOM      4  C4  IND d   1      -0.745   2.492   0.597  0.00  0.00     0.051 A 
ATOM      5  C5  IND d   1      -2.097   2.527   0.795  0.00  0.00    -0.031 A 
ATOM      6  C6  IND d   1      -2.646   2.765   2.038  0.00  0.00     0.015 A 
ATOM      7  C7  IND d   1      -1.860   2.989   3.133  0.00  0.00    -0.016 A 
ATOM      8  C8  IND d   1      -0.486   2.946   2.937  0.00  0.00    -0.047 A 
ATOM      9  C9  IND d   1       0.077   2.663   1.686  0.00  0.00    -0.096 A 
ATOM     10  HN1 IND d   1       0.473   3.281   4.666  0.00  0.00     0.298 HD
ENDROOT
TORSDOF 0
ENDMDL
