MODEL 1
REMARK minimizedAffinity -1.86705637
REMARK minimizedRMSD -1
REMARK  0 active torsions:
REMARK  status: ('A' for Active; 'I' for Inactive)
ROOT
ATOM      1  N1  IND d   1       2.811   1.884   2.003  0.00  0.00    -0.196 N 
ATOM      2  C2  IND d   1       2.765   3.044   2.724  0.00  0.00     0.054 A 
ATOM      3  C3  IND d   1       1.544   3.616   2.618  0.00  0.00    -0.031 A 
ATOM      4  C4  IND d   1      -0.559   2.768   1.399  0.00  0.00     0.051 A 
ATOM      5  C5  IND d   1      -0.996   1.772   0.571  0.00  0.00    -0.031 A 
ATOM      6  C6  IND d   1      -0.170   0.741   0.171  0.00  0.00     0.015 A 
ATOM      7  C7  IND d   1       1.125   0.660   0.597  0.00  0.00    -0.016 A 
ATOM      8  C8  IND d   1       1.575   1.673   1.432  0.00  0.00    -0.047 A 
ATOM      9  C9  IND d   1       0.754   2.745   1.807  0.00  0.00    -0.096 A 
ATOM     10  HN1 IND d   1       3.496   1.371   1.920  0.00  0.00     0.298 HD
ENDROOT
TORSDOF 0
ENDMDL
