MODEL 1
REMARK minimizedAffinity 0.417458862
REMARK minimizedRMSD -1
REMARK  0 active torsions:
REMARK  status: ('A' for Active; 'I' for Inactive)
ROOT
ATOM      1  N1  IND d   1       2.761   1.393   1.492  0.00  0.00    -0.196 N 
ATOM      2  C2  IND d   1       3.181   2.495   2.184  0.00  0.00     0.054 A 
ATOM      3  C3  IND d   1       2.163   3.370   2.338  0.00  0.00    -0.031 A 
ATOM      4  C4  IND d   1      -0.302   3.154   1.626  0.00  0.00     0.051 A 
ATOM      5  C5  IND d   1      -1.155   2.343   0.932  0.00  0.00    -0.031 A 
ATOM      6  C6  IND d   1      -0.740   1.148   0.382  0.00  0.00     0.015 A 
ATOM      7  C7  IND d   1       0.549   0.713   0.514  0.00  0.00    -0.016 A 
ATOM      8  C8  IND d   1       1.420   1.537   1.211  0.00  0.00    -0.047 A 
ATOM      9  C9  IND d   1       1.014   2.771   1.736  0.00  0.00    -0.096 A 
ATOM     10  HN1 IND d   1       3.251   0.722   1.271  0.00  0.00     0.298 HD
ENDROOT
TORSDOF 0
ENDMDL
