MODEL 1
REMARK minimizedAffinity 7.19232178
REMARK minimizedRMSD -1
REMARK  0 active torsions:
REMARK  status: ('A' for Active; 'I' for Inactive)
ROOT
ATOM      1  N1  IND d   1       1.552   0.042  -1.288  0.00  0.00    -0.196 N 
ATOM      2  C2  IND d   1       2.567  -0.450  -2.061  0.00  0.00     0.054 A 
ATOM      3  C3  IND d   1       3.760   0.007  -1.618  0.00  0.00    -0.031 A 
ATOM      4  C4  IND d   1       4.289   1.490   0.419  0.00  0.00     0.051 A 
ATOM      5  C5  IND d   1       3.687   2.217   1.408  0.00  0.00    -0.031 A 
ATOM      6  C6  IND d   1       2.315   2.254   1.553  0.00  0.00     0.015 A 
ATOM      7  C7  IND d   1       1.491   1.554   0.718  0.00  0.00    -0.016 A 
ATOM      8  C8  IND d   1       2.098   0.821  -0.292  0.00  0.00    -0.047 A 
ATOM      9  C9  IND d   1       3.488   0.813  -0.470  0.00  0.00    -0.096 A 
ATOM     10  HN1 IND d   1       0.714  -0.109  -1.405  0.00  0.00     0.298 HD
ENDROOT
TORSDOF 0
ENDMDL
