MODEL 1
REMARK minimizedAffinity 8.05310917
REMARK minimizedRMSD -1
REMARK  0 active torsions:
REMARK  status: ('A' for Active; 'I' for Inactive)
ROOT
ATOM      1  N1  IND d   1       0.973   1.330   0.517  0.00  0.00    -0.196 N 
ATOM      2  C2  IND d   1       1.111   0.034   0.106  0.00  0.00     0.054 A 
ATOM      3  C3  IND d   1      -0.054  -0.634   0.256  0.00  0.00    -0.031 A 
ATOM      4  C4  IND d   1      -2.342   0.229   1.062  0.00  0.00     0.051 A 
ATOM      5  C5  IND d   1      -2.954   1.335   1.581  0.00  0.00    -0.031 A 
ATOM      6  C6  IND d   1      -2.275   2.521   1.774  0.00  0.00     0.015 A 
ATOM      7  C7  IND d   1      -0.956   2.649   1.442  0.00  0.00    -0.016 A 
ATOM      8  C8  IND d   1      -0.329   1.525   0.921  0.00  0.00    -0.047 A 
ATOM      9  C9  IND d   1      -1.002   0.307   0.763  0.00  0.00    -0.096 A 
ATOM     10  HN1 IND d   1       1.595   1.924   0.523  0.00  0.00     0.298 HD
ENDROOT
TORSDOF 0
ENDMDL
