MODEL 1
REMARK minimizedAffinity -2.32704258
REMARK minimizedRMSD -1
REMARK  0 active torsions:
REMARK  status: ('A' for Active; 'I' for Inactive)
ROOT
ATOM      1  N1  IND d   1      -1.040   1.970   0.815  0.00  0.00    -0.196 N 
ATOM      2  C2  IND d   1      -1.867   2.654   1.662  0.00  0.00     0.054 A 
ATOM      3  C3  IND d   1      -1.162   3.172   2.692  0.00  0.00    -0.031 A 
ATOM      4  C4  IND d   1       1.374   3.108   3.134  0.00  0.00     0.051 A 
ATOM      5  C5  IND d   1       2.537   2.570   2.660  0.00  0.00    -0.031 A 
ATOM      6  C6  IND d   1       2.568   1.791   1.521  0.00  0.00     0.015 A 
ATOM      7  C7  IND d   1       1.434   1.529   0.806  0.00  0.00    -0.016 A 
ATOM      8  C8  IND d   1       0.250   2.068   1.289  0.00  0.00    -0.047 A 
ATOM      9  C9  IND d   1       0.206   2.824   2.467  0.00  0.00    -0.096 A 
ATOM     10  HN1 IND d   1      -1.284   1.549   0.106  0.00  0.00     0.298 HD
ENDROOT
TORSDOF 0
ENDMDL
