MODEL 1
REMARK minimizedAffinity 0.512238443
REMARK minimizedRMSD -1
REMARK  0 active torsions:
REMARK  status: ('A' for Active; 'I' for Inactive)
ROOT
ATOM      1  N1  IND d   1      -1.363   3.742  -5.995  0.00  0.00    -0.196 N 
ATOM      2  C2  IND d   1      -1.476   2.380  -5.978  0.00  0.00     0.054 A 
ATOM      3  C3  IND d   1      -2.778   2.017  -5.939  0.00  0.00    -0.031 A 
ATOM      4  C4  IND d   1      -4.890   3.488  -5.999  0.00  0.00     0.051 A 
ATOM      5  C5  IND d   1      -5.294   4.793  -5.980  0.00  0.00    -0.031 A 
ATOM      6  C6  IND d   1      -4.390   5.836  -5.967  0.00  0.00     0.015 A 
ATOM      7  C7  IND d   1      -3.043   5.612  -5.985  0.00  0.00    -0.016 A 
ATOM      8  C8  IND d   1      -2.629   4.287  -5.997  0.00  0.00    -0.047 A 
ATOM      9  C9  IND d   1      -3.541   3.224  -5.968  0.00  0.00    -0.096 A 
ATOM     10  HN1 IND d   1      -0.626   4.185  -6.003  0.00  0.00     0.298 HD
ENDROOT
TORSDOF 0
ENDMDL
