MODEL 1
REMARK minimizedAffinity 2.397609
REMARK minimizedRMSD -1
REMARK  0 active torsions:
REMARK  status: ('A' for Active; 'I' for Inactive)
ROOT
ATOM      1  N1  IND d   1       3.163   1.897   1.545  0.00  0.00    -0.196 N 
ATOM      2  C2  IND d   1       3.211   3.055   2.270  0.00  0.00     0.054 A 
ATOM      3  C3  IND d   1       1.995   3.645   2.295  0.00  0.00    -0.031 A 
ATOM      4  C4  IND d   1      -0.237   2.834   1.301  0.00  0.00     0.051 A 
ATOM      5  C5  IND d   1      -0.774   1.849   0.521  0.00  0.00    -0.031 A 
ATOM      6  C6  IND d   1      -0.011   0.807   0.034  0.00  0.00     0.015 A 
ATOM      7  C7  IND d   1       1.320   0.705   0.321  0.00  0.00    -0.016 A 
ATOM      8  C8  IND d   1       1.871   1.707   1.107  0.00  0.00    -0.047 A 
ATOM      9  C9  IND d   1       1.111   2.790   1.569  0.00  0.00    -0.096 A 
ATOM     10  HN1 IND d   1       3.828   1.375   1.389  0.00  0.00     0.298 HD
ENDROOT
TORSDOF 0
ENDMDL
