MODEL 1
REMARK minimizedAffinity 6.35794353
REMARK minimizedRMSD -1
REMARK  0 active torsions:
REMARK  status: ('A' for Active; 'I' for Inactive)
ROOT
ATOM      1  N1  IND d   1      -2.398   1.539   0.361  0.00  0.00    -0.196 N 
ATOM      2  C2  IND d   1      -1.658   1.323  -0.768  0.00  0.00     0.054 A 
ATOM      3  C3  IND d   1      -0.466   1.954  -0.676  0.00  0.00    -0.031 A 
ATOM      4  C4  IND d   1       0.521   3.311   1.277  0.00  0.00     0.051 A 
ATOM      5  C5  IND d   1       0.205   3.813   2.508  0.00  0.00    -0.031 A 
ATOM      6  C6  IND d   1      -1.019   3.576   3.099  0.00  0.00     0.015 A 
ATOM      7  C7  IND d   1      -1.972   2.814   2.484  0.00  0.00    -0.016 A 
ATOM      8  C8  IND d   1      -1.657   2.309   1.231  0.00  0.00    -0.047 A 
ATOM      9  C9  IND d   1      -0.433   2.582   0.607  0.00  0.00    -0.096 A 
ATOM     10  HN1 IND d   1      -3.193   1.243   0.504  0.00  0.00     0.298 HD
ENDROOT
TORSDOF 0
ENDMDL
