MODEL 1
REMARK minimizedAffinity 9.58430576
REMARK minimizedRMSD -1
REMARK  0 active torsions:
REMARK  status: ('A' for Active; 'I' for Inactive)
ROOT
ATOM      1  N1  IND d   1      -3.505  -5.810  -1.517  0.00  0.00    -0.196 N 
ATOM      2  C2  IND d   1      -4.131  -5.844  -0.302  0.00  0.00     0.054 A 
ATOM      3  C3  IND d   1      -3.577  -4.941   0.539  0.00  0.00    -0.031 A 
ATOM      4  C4  IND d   1      -1.703  -3.232   0.098  0.00  0.00     0.051 A 
ATOM      5  C5  IND d   1      -0.799  -2.846  -0.851  0.00  0.00    -0.031 A 
ATOM      6  C6  IND d   1      -0.751  -3.438  -2.097  0.00  0.00     0.015 A 
ATOM      7  C7  IND d   1      -1.618  -4.435  -2.445  0.00  0.00    -0.016 A 
ATOM      8  C8  IND d   1      -2.533  -4.835  -1.481  0.00  0.00    -0.047 A 
ATOM      9  C9  IND d   1      -2.558  -4.267  -0.201  0.00  0.00    -0.096 A 
ATOM     10  HN1 IND d   1      -3.688  -6.312  -2.190  0.00  0.00     0.298 HD
ENDROOT
TORSDOF 0
ENDMDL
