MODEL 1
REMARK minimizedAffinity 8.2835865
REMARK minimizedRMSD -1
REMARK  0 active torsions:
REMARK  status: ('A' for Active; 'I' for Inactive)
ROOT
ATOM      1  N1  IND d   1       1.613   3.797   4.494  0.00  0.00    -0.196 N 
ATOM      2  C2  IND d   1       2.697   3.750   3.661  0.00  0.00     0.054 A 
ATOM      3  C3  IND d   1       2.314   3.412   2.410  0.00  0.00    -0.031 A 
ATOM      4  C4  IND d   1      -0.049   2.991   1.479  0.00  0.00     0.051 A 
ATOM      5  C5  IND d   1      -1.355   2.884   1.866  0.00  0.00    -0.031 A 
ATOM      6  C6  IND d   1      -1.747   3.082   3.174  0.00  0.00     0.015 A 
ATOM      7  C7  IND d   1      -0.845   3.408   4.146  0.00  0.00    -0.016 A 
ATOM      8  C8  IND d   1       0.484   3.511   3.759  0.00  0.00    -0.047 A 
ATOM      9  C9  IND d   1       0.893   3.269   2.441  0.00  0.00    -0.096 A 
ATOM     10  HN1 IND d   1       1.634   3.976   5.334  0.00  0.00     0.298 HD
ENDROOT
TORSDOF 0
ENDMDL
