MODEL 1
REMARK minimizedAffinity 8.64056492
REMARK minimizedRMSD -1
REMARK  0 active torsions:
REMARK  status: ('A' for Active; 'I' for Inactive)
ROOT
ATOM      1  N1  IND d   1       1.544   3.027   1.449  0.00  0.00    -0.196 N 
ATOM      2  C2  IND d   1       2.635   3.756   1.831  0.00  0.00     0.054 A 
ATOM      3  C3  IND d   1       3.732   3.352   1.152  0.00  0.00    -0.031 A 
ATOM      4  C4  IND d   1       3.946   1.581  -0.705  0.00  0.00     0.051 A 
ATOM      5  C5  IND d   1       3.230   0.626  -1.370  0.00  0.00    -0.031 A 
ATOM      6  C6  IND d   1       1.887   0.419  -1.126  0.00  0.00     0.015 A 
ATOM      7  C7  IND d   1       1.205   1.172  -0.213  0.00  0.00    -0.016 A 
ATOM      8  C8  IND d   1       1.931   2.138   0.470  0.00  0.00    -0.047 A 
ATOM      9  C9  IND d   1       3.303   2.323   0.257  0.00  0.00    -0.096 A 
ATOM     10  HN1 IND d   1       0.749   3.109   1.767  0.00  0.00     0.298 HD
ENDROOT
TORSDOF 0
ENDMDL
