MODEL 1
REMARK minimizedAffinity 9.74785042
REMARK minimizedRMSD -1
REMARK  0 active torsions:
REMARK  status: ('A' for Active; 'I' for Inactive)
ROOT
ATOM      1  N1  IND d   1       0.410   2.377   1.342  0.00  0.00    -0.196 N 
ATOM      2  C2  IND d   1      -0.323   3.450   1.767  0.00  0.00     0.054 A 
ATOM      3  C3  IND d   1      -1.645   3.182   1.678  0.00  0.00    -0.031 A 
ATOM      4  C4  IND d   1      -2.828   1.012   0.958  0.00  0.00     0.051 A 
ATOM      5  C5  IND d   1      -2.581  -0.232   0.448  0.00  0.00    -0.031 A 
ATOM      6  C6  IND d   1      -1.298  -0.679   0.207  0.00  0.00     0.015 A 
ATOM      7  C7  IND d   1      -0.209   0.100   0.480  0.00  0.00    -0.016 A 
ATOM      8  C8  IND d   1      -0.457   1.366   0.991  0.00  0.00    -0.047 A 
ATOM      9  C9  IND d   1      -1.758   1.841   1.198  0.00  0.00    -0.096 A 
ATOM     10  HN1 IND d   1       1.268   2.341   1.300  0.00  0.00     0.298 HD
ENDROOT
TORSDOF 0
ENDMDL
