MODEL 1
REMARK minimizedAffinity 2.92278528
REMARK minimizedRMSD -1
REMARK  0 active torsions:
REMARK  status: ('A' for Active; 'I' for Inactive)
ROOT
ATOM      1  N1  IND d   1       0.479   1.182   1.235  0.00  0.00    -0.196 N 
ATOM      2  C2  IND d   1       0.516   2.542   1.105  0.00  0.00     0.054 A 
ATOM      3  C3  IND d   1      -0.711   3.019   0.798  0.00  0.00    -0.031 A 
ATOM      4  C4  IND d   1      -2.943   1.758   0.560  0.00  0.00     0.051 A 
ATOM      5  C5  IND d   1      -3.473   0.499   0.552  0.00  0.00    -0.031 A 
ATOM      6  C6  IND d   1      -2.698  -0.620   0.779  0.00  0.00     0.015 A 
ATOM      7  C7  IND d   1      -1.360  -0.519   1.034  0.00  0.00    -0.016 A 
ATOM      8  C8  IND d   1      -0.817   0.758   1.036  0.00  0.00    -0.047 A 
ATOM      9  C9  IND d   1      -1.590   1.893   0.764  0.00  0.00    -0.096 A 
ATOM     10  HN1 IND d   1       1.152   0.676   1.411  0.00  0.00     0.298 HD
ENDROOT
TORSDOF 0
ENDMDL
