MODEL 1
REMARK minimizedAffinity 6.09288931
REMARK minimizedRMSD -1
REMARK  0 active torsions:
REMARK  status: ('A' for Active; 'I' for Inactive)
ROOT
ATOM      1  N1  IND d   1      -3.922  -4.342   0.416  0.00  0.00    -0.196 N 
ATOM      2  C2  IND d   1      -4.313  -5.596   0.035  0.00  0.00     0.054 A 
ATOM      3  C3  IND d   1      -3.632  -5.986  -1.065  0.00  0.00    -0.031 A 
ATOM      4  C4  IND d   1      -1.758  -4.772  -2.346  0.00  0.00     0.051 A 
ATOM      5  C5  IND d   1      -1.082  -3.585  -2.397  0.00  0.00    -0.031 A 
ATOM      6  C6  IND d   1      -1.321  -2.570  -1.493  0.00  0.00     0.015 A 
ATOM      7  C7  IND d   1      -2.241  -2.710  -0.492  0.00  0.00    -0.016 A 
ATOM      8  C8  IND d   1      -2.934  -3.911  -0.442  0.00  0.00    -0.047 A 
ATOM      9  C9  IND d   1      -2.726  -4.928  -1.383  0.00  0.00    -0.096 A 
ATOM     10  HN1 IND d   1      -4.239  -3.898   1.080  0.00  0.00     0.298 HD
ENDROOT
TORSDOF 0
ENDMDL
