MODEL 1
REMARK minimizedAffinity 13.2506456
REMARK minimizedRMSD -1
REMARK  0 active torsions:
REMARK  status: ('A' for Active; 'I' for Inactive)
ROOT
ATOM      1  N1  IND d   1       2.153  -1.107  -1.924  0.00  0.00    -0.196 N 
ATOM      2  C2  IND d   1       2.567  -0.155  -2.814  0.00  0.00     0.054 A 
ATOM      3  C3  IND d   1       2.535   1.069  -2.241  0.00  0.00    -0.031 A 
ATOM      4  C4  IND d   1       1.936   1.732   0.173  0.00  0.00     0.051 A 
ATOM      5  C5  IND d   1       1.462   1.214   1.346  0.00  0.00    -0.031 A 
ATOM      6  C6  IND d   1       1.190  -0.131   1.492  0.00  0.00     0.015 A 
ATOM      7  C7  IND d   1       1.395  -1.014   0.471  0.00  0.00    -0.016 A 
ATOM      8  C8  IND d   1       1.870  -0.491  -0.724  0.00  0.00    -0.047 A 
ATOM      9  C9  IND d   1       2.107   0.879  -0.892  0.00  0.00    -0.096 A 
ATOM     10  HN1 IND d   1       2.081  -1.948  -2.086  0.00  0.00     0.298 HD
ENDROOT
TORSDOF 0
ENDMDL
