MODEL 1
REMARK minimizedAffinity 4.17326498
REMARK minimizedRMSD -1
REMARK  0 active torsions:
REMARK  status: ('A' for Active; 'I' for Inactive)
ROOT
ATOM      1  N1  IND d   1       1.556   0.126   0.666  0.00  0.00    -0.196 N 
ATOM      2  C2  IND d   1       2.437   1.085   1.082  0.00  0.00     0.054 A 
ATOM      3  C3  IND d   1       1.770   2.162   1.556  0.00  0.00    -0.031 A 
ATOM      4  C4  IND d   1      -0.763   2.524   1.836  0.00  0.00     0.051 A 
ATOM      5  C5  IND d   1      -1.971   1.945   1.563  0.00  0.00    -0.031 A 
ATOM      6  C6  IND d   1      -2.066   0.704   0.967  0.00  0.00     0.015 A 
ATOM      7  C7  IND d   1      -0.952  -0.013   0.631  0.00  0.00    -0.016 A 
ATOM      8  C8  IND d   1       0.275   0.575   0.901  0.00  0.00    -0.047 A 
ATOM      9  C9  IND d   1       0.378   1.853   1.466  0.00  0.00    -0.096 A 
ATOM     10  HN1 IND d   1       1.767  -0.631   0.316  0.00  0.00     0.298 HD
ENDROOT
TORSDOF 0
ENDMDL
