MODEL 1
REMARK minimizedAffinity -1.43664479
REMARK minimizedRMSD -1
REMARK  0 active torsions:
REMARK  status: ('A' for Active; 'I' for Inactive)
ROOT
ATOM      1  C   UNL d   1      -2.610   0.717   4.292  0.00  0.00    -0.002 A 
ATOM      2  C1  UNL d   1      -2.996   1.883   3.646  0.00  0.00     0.010 A 
ATOM      3  C2  UNL d   1      -2.695   2.080   2.297  0.00  0.00     0.041 A 
ATOM      4  C3  UNL d   1      -1.994   1.075   1.601  0.00  0.00    -0.075 A 
ATOM      5  S   UNL d   1      -1.518   1.098  -0.056  0.00  0.00     0.015 SA
ATOM      6  C4  UNL d   1      -0.792  -0.440   0.055  0.00  0.00     0.022 A 
ATOM      7  C5  UNL d   1      -0.901  -0.972   1.318  0.00  0.00     0.026 A 
ATOM      8  C6  UNL d   1      -1.596  -0.108   2.230  0.00  0.00    -0.082 A 
ATOM      9  C7  UNL d   1      -1.916  -0.278   3.598  0.00  0.00     0.045 A 
ENDROOT
TORSDOF 0
ENDMDL
