MODEL 1
REMARK minimizedAffinity 9.1387558
REMARK minimizedRMSD -1
REMARK  0 active torsions:
REMARK  status: ('A' for Active; 'I' for Inactive)
ROOT
ATOM      1  C   UNL d   1       0.104  -0.628  -0.626  0.00  0.00    -0.002 A 
ATOM      2  C1  UNL d   1       0.014   0.757  -0.638  0.00  0.00     0.010 A 
ATOM      3  C2  UNL d   1       0.288   1.476  -1.804  0.00  0.00     0.041 A 
ATOM      4  C3  UNL d   1       0.654   0.772  -2.968  0.00  0.00    -0.075 A 
ATOM      5  S   UNL d   1       1.033   1.442  -4.511  0.00  0.00     0.015 SA
ATOM      6  C4  UNL d   1       1.322  -0.095  -5.190  0.00  0.00     0.022 A 
ATOM      7  C5  UNL d   1       1.138  -1.105  -4.276  0.00  0.00     0.026 A 
ATOM      8  C6  UNL d   1       0.750  -0.622  -2.981  0.00  0.00    -0.082 A 
ATOM      9  C7  UNL d   1       0.467  -1.322  -1.783  0.00  0.00     0.045 A 
ENDROOT
TORSDOF 0
ENDMDL
