MODEL 1
REMARK minimizedAffinity 4.39070988
REMARK minimizedRMSD -1
REMARK  0 active torsions:
REMARK  status: ('A' for Active; 'I' for Inactive)
ROOT
ATOM      1  C   UNL d   1       1.107   0.778  -3.543  0.00  0.00    -0.002 A 
ATOM      2  C1  UNL d   1       1.191  -0.539  -3.971  0.00  0.00     0.010 A 
ATOM      3  C2  UNL d   1       0.854  -1.588  -3.113  0.00  0.00     0.041 A 
ATOM      4  C3  UNL d   1       0.424  -1.288  -1.806  0.00  0.00    -0.075 A 
ATOM      5  S   UNL d   1      -0.042  -2.409  -0.582  0.00  0.00     0.015 SA
ATOM      6  C4  UNL d   1      -0.365  -1.165   0.538  0.00  0.00     0.022 A 
ATOM      7  C5  UNL d   1      -0.128   0.081   0.008  0.00  0.00     0.026 A 
ATOM      8  C6  UNL d   1       0.330   0.031  -1.352  0.00  0.00    -0.082 A 
ATOM      9  C7  UNL d   1       0.680   1.072  -2.245  0.00  0.00     0.045 A 
ENDROOT
TORSDOF 0
ENDMDL
