MODEL 1
REMARK minimizedAffinity -3.82102346
REMARK minimizedRMSD -1
REMARK  0 active torsions:
REMARK  status: ('A' for Active; 'I' for Inactive)
ROOT
ATOM      1  C   UNL d   1      -3.756   5.924   3.893  0.00  0.00    -0.002 A 
ATOM      2  C1  UNL d   1      -3.596   5.965   5.270  0.00  0.00     0.010 A 
ATOM      3  C2  UNL d   1      -3.418   4.788   6.000  0.00  0.00     0.041 A 
ATOM      4  C3  UNL d   1      -3.401   3.557   5.315  0.00  0.00    -0.075 A 
ATOM      5  S   UNL d   1      -3.196   1.989   6.000  0.00  0.00     0.015 SA
ATOM      6  C4  UNL d   1      -3.315   1.227   4.480  0.00  0.00     0.022 A 
ATOM      7  C5  UNL d   1      -3.507   2.133   3.463  0.00  0.00     0.026 A 
ATOM      8  C6  UNL d   1      -3.559   3.491   3.927  0.00  0.00    -0.082 A 
ATOM      9  C7  UNL d   1      -3.739   4.701   3.216  0.00  0.00     0.045 A 
ENDROOT
TORSDOF 0
ENDMDL
