MODEL 1
REMARK minimizedAffinity 16.0506115
REMARK minimizedRMSD -1
REMARK  0 active torsions:
REMARK  status: ('A' for Active; 'I' for Inactive)
ROOT
ATOM      1  C   UNL d   1       0.269  -1.921   0.835  0.00  0.00    -0.002 A 
ATOM      2  C1  UNL d   1      -0.838  -2.606   0.355  0.00  0.00     0.010 A 
ATOM      3  C2  UNL d   1      -2.053  -2.563   1.041  0.00  0.00     0.041 A 
ATOM      4  C3  UNL d   1      -2.138  -1.811   2.229  0.00  0.00    -0.075 A 
ATOM      5  S   UNL d   1      -3.523  -1.613   3.237  0.00  0.00     0.015 SA
ATOM      6  C4  UNL d   1      -2.679  -0.613   4.329  0.00  0.00     0.022 A 
ATOM      7  C5  UNL d   1      -1.371  -0.425   3.949  0.00  0.00     0.026 A 
ATOM      8  C6  UNL d   1      -1.038  -1.112   2.733  0.00  0.00    -0.082 A 
ATOM      9  C7  UNL d   1       0.180  -1.176   2.014  0.00  0.00     0.045 A 
ENDROOT
TORSDOF 0
ENDMDL
