MODEL 1
REMARK minimizedAffinity 6.82442331
REMARK minimizedRMSD -1
REMARK  0 active torsions:
REMARK  status: ('A' for Active; 'I' for Inactive)
ROOT
ATOM      1  C   UNL d   1       3.186   1.228   1.358  0.00  0.00    -0.002 A 
ATOM      2  C1  UNL d   1       3.604   2.448   1.871  0.00  0.00     0.010 A 
ATOM      3  C2  UNL d   1       4.476   2.500   2.960  0.00  0.00     0.041 A 
ATOM      4  C3  UNL d   1       4.927   1.293   3.530  0.00  0.00    -0.075 A 
ATOM      5  S   UNL d   1       5.999   1.112   4.868  0.00  0.00     0.015 SA
ATOM      6  C4  UNL d   1       5.927  -0.589   4.791  0.00  0.00     0.022 A 
ATOM      7  C5  UNL d   1       5.110  -1.025   3.775  0.00  0.00     0.026 A 
ATOM      8  C6  UNL d   1       4.521   0.052   3.031  0.00  0.00    -0.082 A 
ATOM      9  C7  UNL d   1       3.635   0.033   1.927  0.00  0.00     0.045 A 
ENDROOT
TORSDOF 0
ENDMDL
