MODEL 1
REMARK minimizedAffinity 12.2654819
REMARK minimizedRMSD -1
REMARK  0 active torsions:
REMARK  status: ('A' for Active; 'I' for Inactive)
ROOT
ATOM      1  C   UNL d   1       1.280  -1.130  -4.380  0.00  0.00    -0.002 A 
ATOM      2  C1  UNL d   1       0.996  -2.444  -4.035  0.00  0.00     0.010 A 
ATOM      3  C2  UNL d   1       0.519  -2.757  -2.761  0.00  0.00     0.041 A 
ATOM      4  C3  UNL d   1       0.328  -1.716  -1.830  0.00  0.00    -0.075 A 
ATOM      5  S   UNL d   1      -0.248  -1.862  -0.212  0.00  0.00     0.015 SA
ATOM      6  C4  UNL d   1      -0.132  -0.183   0.060  0.00  0.00     0.022 A 
ATOM      7  C5  UNL d   1       0.333   0.487  -1.046  0.00  0.00     0.026 A 
ATOM      8  C6  UNL d   1       0.606  -0.385  -2.154  0.00  0.00    -0.082 A 
ATOM      9  C7  UNL d   1       1.089  -0.101  -3.454  0.00  0.00     0.045 A 
ENDROOT
TORSDOF 0
ENDMDL
