MODEL 1
REMARK minimizedAffinity 17.7242374
REMARK minimizedRMSD -1
REMARK  0 active torsions:
REMARK  status: ('A' for Active; 'I' for Inactive)
ROOT
ATOM      1  C   UNL d   1      -0.386  -2.615  -0.026  0.00  0.00    -0.002 A 
ATOM      2  C1  UNL d   1       0.728  -2.036   0.564  0.00  0.00     0.010 A 
ATOM      3  C2  UNL d   1       0.654  -1.502   1.852  0.00  0.00     0.041 A 
ATOM      4  C3  UNL d   1      -0.572  -1.562   2.544  0.00  0.00    -0.075 A 
ATOM      5  S   UNL d   1      -0.898  -0.973   4.131  0.00  0.00     0.015 SA
ATOM      6  C4  UNL d   1      -2.525  -1.477   4.064  0.00  0.00     0.022 A 
ATOM      7  C5  UNL d   1      -2.829  -2.082   2.867  0.00  0.00     0.026 A 
ATOM      8  C6  UNL d   1      -1.708  -2.141   1.972  0.00  0.00    -0.082 A 
ATOM      9  C7  UNL d   1      -1.600  -2.673   0.664  0.00  0.00     0.045 A 
ENDROOT
TORSDOF 0
ENDMDL
