MODEL 1
REMARK minimizedAffinity 11.9353285
REMARK minimizedRMSD -1
REMARK  0 active torsions:
REMARK  status: ('A' for Active; 'I' for Inactive)
ROOT
ATOM      1  C   UNL d   1       3.396   3.189  -0.833  0.00  0.00    -0.002 A 
ATOM      2  C1  UNL d   1       2.880   2.718   0.366  0.00  0.00     0.010 A 
ATOM      3  C2  UNL d   1       2.024   1.616   0.387  0.00  0.00     0.041 A 
ATOM      4  C3  UNL d   1       1.692   0.987  -0.829  0.00  0.00    -0.075 A 
ATOM      5  S   UNL d   1       0.663  -0.379  -1.047  0.00  0.00     0.015 SA
ATOM      6  C4  UNL d   1       0.884  -0.370  -2.737  0.00  0.00     0.022 A 
ATOM      7  C5  UNL d   1       1.720   0.644  -3.142  0.00  0.00     0.026 A 
ATOM      8  C6  UNL d   1       2.200   1.443  -2.050  0.00  0.00    -0.082 A 
ATOM      9  C7  UNL d   1       3.065   2.563  -2.038  0.00  0.00     0.045 A 
ENDROOT
TORSDOF 0
ENDMDL
