MODEL 1
REMARK minimizedAffinity 4.81973076
REMARK minimizedRMSD -1
REMARK  0 active torsions:
REMARK  status: ('A' for Active; 'I' for Inactive)
ROOT
ATOM      1  C   UNL d   1       5.575   0.493  -5.106  0.00  0.00    -0.002 A 
ATOM      2  C1  UNL d   1       4.435   0.545  -5.896  0.00  0.00     0.010 A 
ATOM      3  C2  UNL d   1       3.696   1.725  -5.998  0.00  0.00     0.041 A 
ATOM      4  C3  UNL d   1       4.127   2.863  -5.289  0.00  0.00    -0.075 A 
ATOM      5  S   UNL d   1       3.381   4.417  -5.264  0.00  0.00     0.015 SA
ATOM      6  C4  UNL d   1       4.558   5.049  -4.206  0.00  0.00     0.022 A 
ATOM      7  C5  UNL d   1       5.505   4.110  -3.869  0.00  0.00     0.026 A 
ATOM      8  C6  UNL d   1       5.272   2.836  -4.488  0.00  0.00    -0.082 A 
ATOM      9  C7  UNL d   1       6.000   1.624  -4.404  0.00  0.00     0.045 A 
ENDROOT
TORSDOF 0
ENDMDL
