MODEL 1
REMARK minimizedAffinity 14.1120405
REMARK minimizedRMSD -1
REMARK  0 active torsions:
REMARK  status: ('A' for Active; 'I' for Inactive)
ROOT
ATOM      1  C   UNL d   1       1.975   4.853  -5.391  0.00  0.00    -0.002 A 
ATOM      2  C1  UNL d   1       2.618   5.521  -4.359  0.00  0.00     0.010 A 
ATOM      3  C2  UNL d   1       3.863   5.087  -3.899  0.00  0.00     0.041 A 
ATOM      4  C3  UNL d   1       4.457   3.960  -4.500  0.00  0.00    -0.075 A 
ATOM      5  S   UNL d   1       5.976   3.249  -4.102  0.00  0.00     0.015 SA
ATOM      6  C4  UNL d   1       5.807   2.041  -5.292  0.00  0.00     0.022 A 
ATOM      7  C5  UNL d   1       4.626   2.162  -5.986  0.00  0.00     0.026 A 
ATOM      8  C6  UNL d   1       3.829   3.271  -5.541  0.00  0.00    -0.082 A 
ATOM      9  C7  UNL d   1       2.567   3.735  -5.985  0.00  0.00     0.045 A 
ENDROOT
TORSDOF 0
ENDMDL
