MODEL 1
REMARK minimizedAffinity 16.2684517
REMARK minimizedRMSD -1
REMARK  0 active torsions:
REMARK  status: ('A' for Active; 'I' for Inactive)
ROOT
ATOM      1  C   UNL d   1       4.063   2.561  -5.993  0.00  0.00    -0.002 A 
ATOM      2  C1  UNL d   1       5.390   2.354  -5.643  0.00  0.00     0.010 A 
ATOM      3  C2  UNL d   1       5.997   3.140  -4.662  0.00  0.00     0.041 A 
ATOM      4  C3  UNL d   1       5.240   4.146  -4.030  0.00  0.00    -0.075 A 
ATOM      5  S   UNL d   1       5.773   5.230  -2.800  0.00  0.00     0.015 SA
ATOM      6  C4  UNL d   1       4.251   5.993  -2.709  0.00  0.00     0.022 A 
ATOM      7  C5  UNL d   1       3.347   5.448  -3.589  0.00  0.00     0.026 A 
ATOM      8  C6  UNL d   1       3.902   4.374  -4.365  0.00  0.00    -0.082 A 
ATOM      9  C7  UNL d   1       3.316   3.561  -5.364  0.00  0.00     0.045 A 
ENDROOT
TORSDOF 0
ENDMDL
