MODEL 1
REMARK minimizedAffinity 13.5976295
REMARK minimizedRMSD -1
REMARK  0 active torsions:
REMARK  status: ('A' for Active; 'I' for Inactive)
ROOT
ATOM      1  C   UNL d   1       1.797   4.585  -5.446  0.00  0.00    -0.002 A 
ATOM      2  C1  UNL d   1       2.400   5.377  -4.480  0.00  0.00     0.010 A 
ATOM      3  C2  UNL d   1       3.696   5.098  -4.041  0.00  0.00     0.041 A 
ATOM      4  C3  UNL d   1       4.382   4.001  -4.597  0.00  0.00    -0.075 A 
ATOM      5  S   UNL d   1       5.977   3.470  -4.214  0.00  0.00     0.015 SA
ATOM      6  C4  UNL d   1       5.896   2.181  -5.325  0.00  0.00     0.022 A 
ATOM      7  C5  UNL d   1       4.688   2.141  -5.981  0.00  0.00     0.026 A 
ATOM      8  C6  UNL d   1       3.796   3.190  -5.572  0.00  0.00    -0.082 A 
ATOM      9  C7  UNL d   1       2.481   3.498  -5.996  0.00  0.00     0.045 A 
ENDROOT
TORSDOF 0
ENDMDL
