MODEL 1
REMARK minimizedAffinity 2.15887141
REMARK minimizedRMSD -1
REMARK  0 active torsions:
REMARK  status: ('A' for Active; 'I' for Inactive)
ROOT
ATOM      1  C   UNL d   1       1.487   2.719  -1.045  0.00  0.00    -0.002 A 
ATOM      2  C1  UNL d   1       2.437   2.318  -0.116  0.00  0.00     0.010 A 
ATOM      3  C2  UNL d   1       2.461   1.003   0.353  0.00  0.00     0.041 A 
ATOM      4  C3  UNL d   1       1.506   0.088  -0.133  0.00  0.00    -0.075 A 
ATOM      5  S   UNL d   1       1.344  -1.573   0.298  0.00  0.00     0.015 SA
ATOM      6  C4  UNL d   1       0.010  -1.790  -0.742  0.00  0.00     0.022 A 
ATOM      7  C5  UNL d   1      -0.317  -0.633  -1.409  0.00  0.00     0.026 A 
ATOM      8  C6  UNL d   1       0.540   0.468  -1.070  0.00  0.00    -0.082 A 
ATOM      9  C7  UNL d   1       0.542   1.809  -1.525  0.00  0.00     0.045 A 
ENDROOT
TORSDOF 0
ENDMDL
