MODEL 1
REMARK minimizedAffinity -5.31791258
REMARK minimizedRMSD -1
REMARK  0 active torsions:
REMARK  status: ('A' for Active; 'I' for Inactive)
ROOT
ATOM      1  C4' PXY d   1       1.869   0.406   0.463  0.00  0.00     0.077 C 
ATOM      2  C1' PXY d   1      -3.608  -1.253  -0.351  0.00  0.00     0.077 C 
ATOM      3  C1  PXY d   1      -2.170  -0.817  -0.151  0.00  0.00    -0.082 A 
ATOM      4  C2  PXY d   1      -1.534  -1.151   0.960  0.00  0.00     0.003 A 
ATOM      5  C3  PXY d   1      -0.244  -0.738   1.172  0.00  0.00     0.003 A 
ATOM      6  C4  PXY d   1       0.419  -0.020   0.214  0.00  0.00    -0.082 A 
ATOM      7  C5  PXY d   1      -0.219   0.316  -0.927  0.00  0.00     0.003 A 
ATOM      8  C6  PXY d   1      -1.542  -0.078  -1.105  0.00  0.00     0.003 A 
ENDROOT
TORSDOF 0
ENDMDL
