MODEL 1
REMARK minimizedAffinity -5.09731627
REMARK minimizedRMSD -1
REMARK  0 active torsions:
REMARK  status: ('A' for Active; 'I' for Inactive)
ROOT
ATOM      1  C4' PXY d   1       2.288   0.258  -0.067  0.00  0.00     0.077 C 
ATOM      2  C1' PXY d   1      -3.310  -1.178   0.069  0.00  0.00     0.077 C 
ATOM      3  C1  PXY d   1      -1.842  -0.801   0.020  0.00  0.00    -0.082 A 
ATOM      4  C2  PXY d   1      -1.056  -1.101   1.041  0.00  0.00     0.003 A 
ATOM      5  C3  PXY d   1       0.267  -0.739   1.028  0.00  0.00     0.003 A 
ATOM      6  C4  PXY d   1       0.802  -0.111  -0.065  0.00  0.00    -0.082 A 
ATOM      7  C5  PXY d   1       0.009   0.189  -1.115  0.00  0.00     0.003 A 
ATOM      8  C6  PXY d   1      -1.340  -0.150  -1.064  0.00  0.00     0.003 A 
ENDROOT
TORSDOF 0
ENDMDL
