MODEL 1
REMARK minimizedAffinity -4.96864748
REMARK minimizedRMSD -1
REMARK  0 active torsions:
REMARK  status: ('A' for Active; 'I' for Inactive)
ROOT
ATOM      1  C4' PXY d   1      -3.256  -0.934  -0.346  0.00  0.00     0.077 C 
ATOM      2  C1' PXY d   1       2.141   1.030   0.308  0.00  0.00     0.077 C 
ATOM      3  C1  PXY d   1       0.724   0.523   0.127  0.00  0.00    -0.082 A 
ATOM      4  C2  PXY d   1       0.102  -0.057   1.141  0.00  0.00     0.003 A 
ATOM      5  C3  PXY d   1      -1.168  -0.550   0.985  0.00  0.00     0.003 A 
ATOM      6  C4  PXY d   1      -1.828  -0.399  -0.205  0.00  0.00    -0.082 A 
ATOM      7  C5  PXY d   1      -1.205   0.202  -1.241  0.00  0.00     0.003 A 
ATOM      8  C6  PXY d   1       0.100   0.658  -1.075  0.00  0.00     0.003 A 
ENDROOT
TORSDOF 0
ENDMDL
