MODEL 1
REMARK minimizedAffinity -5.53662539
REMARK minimizedRMSD -1
REMARK  0 active torsions:
REMARK  status: ('A' for Active; 'I' for Inactive)
ROOT
ATOM      1  C4' PXY d   1       2.221   0.680  -0.043  0.00  0.00     0.077 C 
ATOM      2  C1' PXY d   1      -3.350  -0.631  -0.858  0.00  0.00     0.077 C 
ATOM      3  C1  PXY d   1      -1.890  -0.291  -0.632  0.00  0.00    -0.082 A 
ATOM      4  C2  PXY d   1      -1.301   0.609  -1.403  0.00  0.00     0.003 A 
ATOM      5  C3  PXY d   1       0.027   0.905  -1.233  0.00  0.00     0.003 A 
ATOM      6  C4  PXY d   1       0.746   0.313  -0.229  0.00  0.00    -0.082 A 
ATOM      7  C5  PXY d   1       0.149  -0.598   0.569  0.00  0.00     0.003 A 
ATOM      8  C6  PXY d   1      -1.189  -0.915   0.353  0.00  0.00     0.003 A 
ENDROOT
TORSDOF 0
ENDMDL
