MODEL 1
REMARK minimizedAffinity -1.62992787
REMARK minimizedRMSD -1
REMARK  0 active torsions:
REMARK  status: ('A' for Active; 'I' for Inactive)
ROOT
ATOM      1  C4' PXY d   1      -2.773  -1.680  -0.806  0.00  0.00     0.077 C 
ATOM      2  C1' PXY d   1       2.278   0.850   0.422  0.00  0.00     0.077 C 
ATOM      3  C1  PXY d   1       0.956   0.177   0.109  0.00  0.00    -0.082 A 
ATOM      4  C2  PXY d   1       0.403   0.343  -1.082  0.00  0.00     0.003 A 
ATOM      5  C3  PXY d   1      -0.808  -0.232  -1.371  0.00  0.00     0.003 A 
ATOM      6  C4  PXY d   1      -1.434  -1.028  -0.449  0.00  0.00    -0.082 A 
ATOM      7  C5  PXY d   1      -0.872  -1.210   0.764  0.00  0.00     0.003 A 
ATOM      8  C6  PXY d   1       0.338  -0.584   1.052  0.00  0.00     0.003 A 
ENDROOT
TORSDOF 0
ENDMDL
