MODEL 1
REMARK minimizedAffinity -5.358953
REMARK minimizedRMSD -1
REMARK  0 active torsions:
REMARK  status: ('A' for Active; 'I' for Inactive)
ROOT
ATOM      1  C4' PXY d   1       2.174   0.242  -0.283  0.00  0.00     0.077 C 
ATOM      2  C1' PXY d   1      -3.512  -0.798  -0.224  0.00  0.00     0.077 C 
ATOM      3  C1  PXY d   1      -2.021  -0.525  -0.253  0.00  0.00    -0.082 A 
ATOM      4  C2  PXY d   1      -1.267  -0.905   0.766  0.00  0.00     0.003 A 
ATOM      5  C3  PXY d   1       0.078  -0.638   0.771  0.00  0.00     0.003 A 
ATOM      6  C4  PXY d   1       0.666  -0.022  -0.301  0.00  0.00    -0.082 A 
ATOM      7  C5  PXY d   1      -0.095   0.360  -1.349  0.00  0.00     0.003 A 
ATOM      8  C6  PXY d   1      -1.465   0.116  -1.317  0.00  0.00     0.003 A 
ENDROOT
TORSDOF 0
ENDMDL
