MODEL 1
REMARK minimizedAffinity -2.47924829
REMARK minimizedRMSD -1
REMARK  0 active torsions:
REMARK  status: ('A' for Active; 'I' for Inactive)
ROOT
ATOM      1  C4' PXY d   1       2.420   1.535   0.711  0.00  0.00     0.077 C 
ATOM      2  C1' PXY d   1      -2.495  -1.159  -0.705  0.00  0.00     0.077 C 
ATOM      3  C1  PXY d   1      -1.205  -0.460  -0.323  0.00  0.00    -0.082 A 
ATOM      4  C2  PXY d   1      -0.994   0.785  -0.717  0.00  0.00     0.003 A 
ATOM      5  C3  PXY d   1       0.181   1.421  -0.408  0.00  0.00     0.003 A 
ATOM      6  C4  PXY d   1       1.128   0.794   0.357  0.00  0.00    -0.082 A 
ATOM      7  C5  PXY d   1       0.915  -0.473   0.772  0.00  0.00     0.003 A 
ATOM      8  C6  PXY d   1      -0.266  -1.115   0.413  0.00  0.00     0.003 A 
ENDROOT
TORSDOF 0
ENDMDL
