MODEL 1
REMARK minimizedAffinity -5.05298853
REMARK minimizedRMSD -1
REMARK  0 active torsions:
REMARK  status: ('A' for Active; 'I' for Inactive)
ROOT
ATOM      1  C4' PXY d   1       2.350   1.283   0.193  0.00  0.00     0.077 C 
ATOM      2  C1' PXY d   1      -2.841  -0.911  -1.095  0.00  0.00     0.077 C 
ATOM      3  C1  PXY d   1      -1.481  -0.339  -0.745  0.00  0.00    -0.082 A 
ATOM      4  C2  PXY d   1      -0.938   0.580  -1.526  0.00  0.00     0.003 A 
ATOM      5  C3  PXY d   1       0.305   1.085  -1.241  0.00  0.00     0.003 A 
ATOM      6  C4  PXY d   1       0.975   0.684  -0.117  0.00  0.00    -0.082 A 
ATOM      7  C5  PXY d   1       0.422  -0.246   0.691  0.00  0.00     0.003 A 
ATOM      8  C6  PXY d   1      -0.822  -0.776   0.362  0.00  0.00     0.003 A 
ENDROOT
TORSDOF 0
ENDMDL
