MODEL 1
REMARK minimizedAffinity -3.39250541
REMARK minimizedRMSD -1
REMARK  0 active torsions:
REMARK  status: ('A' for Active; 'I' for Inactive)
ROOT
ATOM      1  C4' PXY d   1      -3.425  -0.832  -0.667  0.00  0.00     0.077 C 
ATOM      2  C1' PXY d   1       2.072   0.713   0.230  0.00  0.00     0.077 C 
ATOM      3  C1  PXY d   1       0.629   0.318  -0.013  0.00  0.00    -0.082 A 
ATOM      4  C2  PXY d   1       0.003  -0.446   0.867  0.00  0.00     0.003 A 
ATOM      5  C3  PXY d   1      -1.292  -0.839   0.648  0.00  0.00     0.003 A 
ATOM      6  C4  PXY d   1      -1.971  -0.401  -0.458  0.00  0.00    -0.082 A 
ATOM      7  C5  PXY d   1      -1.343   0.387  -1.355  0.00  0.00     0.003 A 
ATOM      8  C6  PXY d   1      -0.015   0.741  -1.135  0.00  0.00     0.003 A 
ENDROOT
TORSDOF 0
ENDMDL
