MODEL 1
REMARK minimizedAffinity -3.68713427
REMARK minimizedRMSD -1
REMARK  0 active torsions:
REMARK  status: ('A' for Active; 'I' for Inactive)
ROOT
ATOM      1  C4' PXY d   1       2.020   0.449   0.310  0.00  0.00     0.077 C 
ATOM      2  C1' PXY d   1      -3.402  -1.383  -0.504  0.00  0.00     0.077 C 
ATOM      3  C1  PXY d   1      -1.980  -0.906  -0.278  0.00  0.00    -0.082 A 
ATOM      4  C2  PXY d   1      -1.471   0.029  -1.063  0.00  0.00     0.003 A 
ATOM      5  C3  PXY d   1      -0.177   0.448  -0.893  0.00  0.00     0.003 A 
ATOM      6  C4  PXY d   1       0.587  -0.056   0.125  0.00  0.00    -0.082 A 
ATOM      7  C5  PXY d   1       0.071  -1.003   0.937  0.00  0.00     0.003 A 
ATOM      8  C6  PXY d   1      -1.231  -1.445   0.722  0.00  0.00     0.003 A 
ENDROOT
TORSDOF 0
ENDMDL
