MODEL 1
REMARK minimizedAffinity -2.26754212
REMARK minimizedRMSD -1
REMARK  0 active torsions:
REMARK  status: ('A' for Active; 'I' for Inactive)
ROOT
ATOM      1  C4' PXY d   1      -0.335   1.104  -2.455  0.00  0.00     0.077 C 
ATOM      2  C1' PXY d   1      -1.595  -1.720   2.428  0.00  0.00     0.077 C 
ATOM      3  C1  PXY d   1      -1.254  -0.975   1.153  0.00  0.00    -0.082 A 
ATOM      4  C2  PXY d   1      -2.217  -0.661   0.301  0.00  0.00     0.003 A 
ATOM      5  C3  PXY d   1      -1.921  -0.015  -0.872  0.00  0.00     0.003 A 
ATOM      6  C4  PXY d   1      -0.634   0.360  -1.151  0.00  0.00    -0.082 A 
ATOM      7  C5  PXY d   1       0.352   0.052  -0.282  0.00  0.00     0.003 A 
ATOM      8  C6  PXY d   1       0.037  -0.640   0.884  0.00  0.00     0.003 A 
ENDROOT
TORSDOF 0
ENDMDL
