MODEL 1
REMARK minimizedAffinity -5.34462023
REMARK minimizedRMSD -1
REMARK  0 active torsions:
REMARK  status: ('A' for Active; 'I' for Inactive)
ROOT
ATOM      1  C4' PXY d   1       2.050   0.778   0.404  0.00  0.00     0.077 C 
ATOM      2  C1' PXY d   1      -3.351  -1.142  -0.348  0.00  0.00     0.077 C 
ATOM      3  C1  PXY d   1      -1.933  -0.638  -0.164  0.00  0.00    -0.082 A 
ATOM      4  C2  PXY d   1      -1.298  -0.873   0.973  0.00  0.00     0.003 A 
ATOM      5  C3  PXY d   1      -0.027  -0.397   1.168  0.00  0.00     0.003 A 
ATOM      6  C4  PXY d   1       0.621   0.280   0.170  0.00  0.00    -0.082 A 
ATOM      7  C5  PXY d   1      -0.017   0.515  -0.997  0.00  0.00     0.003 A 
ATOM      8  C6  PXY d   1      -1.322   0.059  -1.160  0.00  0.00     0.003 A 
ENDROOT
TORSDOF 0
ENDMDL
