MODEL 1
REMARK minimizedAffinity -3.0240078
REMARK minimizedRMSD -1
REMARK  0 active torsions:
REMARK  status: ('A' for Active; 'I' for Inactive)
ROOT
ATOM      1  C4' PXY d   1       0.384   1.168  -2.220  0.00  0.00     0.077 C 
ATOM      2  C1' PXY d   1      -0.653  -2.458   2.161  0.00  0.00     0.077 C 
ATOM      3  C1  PXY d   1      -0.372  -1.501   1.019  0.00  0.00    -0.082 A 
ATOM      4  C2  PXY d   1      -1.308  -1.270   0.114  0.00  0.00     0.003 A 
ATOM      5  C3  PXY d   1      -1.060  -0.432  -0.943  0.00  0.00     0.003 A 
ATOM      6  C4  PXY d   1       0.141   0.217  -1.045  0.00  0.00    -0.082 A 
ATOM      7  C5  PXY d   1       1.098  -0.005  -0.119  0.00  0.00     0.003 A 
ATOM      8  C6  PXY d   1       0.841  -0.891   0.923  0.00  0.00     0.003 A 
ENDROOT
TORSDOF 0
ENDMDL
