MODEL 1
REMARK minimizedAffinity -2.22256708
REMARK minimizedRMSD -1
REMARK  0 active torsions:
REMARK  status: ('A' for Active; 'I' for Inactive)
ROOT
ATOM      1  C4' PXY d   1      -2.941  -0.802  -0.150  0.00  0.00     0.077 C 
ATOM      2  C1' PXY d   1       2.713   0.237   0.462  0.00  0.00     0.077 C 
ATOM      3  C1  PXY d   1       1.231  -0.046   0.308  0.00  0.00    -0.082 A 
ATOM      4  C2  PXY d   1       0.562   0.496  -0.696  0.00  0.00     0.003 A 
ATOM      5  C3  PXY d   1      -0.784   0.276  -0.832  0.00  0.00     0.003 A 
ATOM      6  C4  PXY d   1      -1.442  -0.551   0.039  0.00  0.00    -0.082 A 
ATOM      7  C5  PXY d   1      -0.764  -1.116   1.060  0.00  0.00     0.003 A 
ATOM      8  C6  PXY d   1       0.594  -0.847   1.204  0.00  0.00     0.003 A 
ENDROOT
TORSDOF 0
ENDMDL
