MODEL 1
REMARK minimizedAffinity -4.83448696
REMARK minimizedRMSD -1
REMARK  0 active torsions:
REMARK  status: ('A' for Active; 'I' for Inactive)
ROOT
ATOM      1  C4' PXY d   1       2.179   0.974   0.262  0.00  0.00     0.077 C 
ATOM      2  C1' PXY d   1      -3.186  -1.105  -0.289  0.00  0.00     0.077 C 
ATOM      3  C1  PXY d   1      -1.778  -0.560  -0.157  0.00  0.00    -0.082 A 
ATOM      4  C2  PXY d   1      -1.105  -0.750   0.966  0.00  0.00     0.003 A 
ATOM      5  C3  PXY d   1       0.158  -0.236   1.114  0.00  0.00     0.003 A 
ATOM      6  C4  PXY d   1       0.758   0.433   0.081  0.00  0.00    -0.082 A 
ATOM      7  C5  PXY d   1       0.082   0.622  -1.072  0.00  0.00     0.003 A 
ATOM      8  C6  PXY d   1      -1.214   0.128  -1.187  0.00  0.00     0.003 A 
ENDROOT
TORSDOF 0
ENDMDL
