MODEL 1
REMARK minimizedAffinity -4.5497117
REMARK minimizedRMSD -1
REMARK  0 active torsions:
REMARK  status: ('A' for Active; 'I' for Inactive)
ROOT
ATOM      1  C4' PXY d   1       1.783   0.909   1.120  0.00  0.00     0.077 C 
ATOM      2  C1' PXY d   1      -3.406  -1.076  -0.477  0.00  0.00     0.077 C 
ATOM      3  C1  PXY d   1      -2.048  -0.559  -0.046  0.00  0.00    -0.082 A 
ATOM      4  C2  PXY d   1      -1.445   0.374  -0.765  0.00  0.00     0.003 A 
ATOM      5  C3  PXY d   1      -0.202   0.830  -0.407  0.00  0.00     0.003 A 
ATOM      6  C4  PXY d   1       0.407   0.364   0.728  0.00  0.00    -0.082 A 
ATOM      7  C5  PXY d   1      -0.207  -0.580   1.472  0.00  0.00     0.003 A 
ATOM      8  C6  PXY d   1      -1.450  -1.059   1.069  0.00  0.00     0.003 A 
ENDROOT
TORSDOF 0
ENDMDL
