MODEL 1
REMARK minimizedAffinity -5.38878202
REMARK minimizedRMSD -1
REMARK  0 active torsions:
REMARK  status: ('A' for Active; 'I' for Inactive)
ROOT
ATOM      1  C4' PXY d   1      -3.013  -1.308  -0.008  0.00  0.00     0.077 C 
ATOM      2  C1' PXY d   1       2.179   1.231   0.111  0.00  0.00     0.077 C 
ATOM      3  C1  PXY d   1       0.821   0.557   0.090  0.00  0.00    -0.082 A 
ATOM      4  C2  PXY d   1       0.091   0.592  -1.013  0.00  0.00     0.003 A 
ATOM      5  C3  PXY d   1      -1.153   0.015  -1.040  0.00  0.00     0.003 A 
ATOM      6  C4  PXY d   1      -1.632  -0.650   0.057  0.00  0.00    -0.082 A 
ATOM      7  C5  PXY d   1      -0.889  -0.699   1.182  0.00  0.00     0.003 A 
ATOM      8  C6  PXY d   1       0.354  -0.072   1.202  0.00  0.00     0.003 A 
ENDROOT
TORSDOF 0
ENDMDL
