MODEL 1
REMARK minimizedAffinity -2.08750176
REMARK minimizedRMSD -1
REMARK  0 active torsions:
REMARK  status: ('A' for Active; 'I' for Inactive)
ROOT
ATOM      1  C4' PXY d   1      -2.848  -1.051  -0.742  0.00  0.00     0.077 C 
ATOM      2  C1' PXY d   1       2.320   1.034   0.793  0.00  0.00     0.077 C 
ATOM      3  C1  PXY d   1       0.966   0.478   0.399  0.00  0.00    -0.082 A 
ATOM      4  C2  PXY d   1       0.455   0.778  -0.784  0.00  0.00     0.003 A 
ATOM      5  C3  PXY d   1      -0.782   0.309  -1.144  0.00  0.00     0.003 A 
ATOM      6  C4  PXY d   1      -1.480  -0.519  -0.306  0.00  0.00    -0.082 A 
ATOM      7  C5  PXY d   1      -0.960  -0.839   0.898  0.00  0.00     0.003 A 
ATOM      8  C6  PXY d   1       0.279  -0.319   1.261  0.00  0.00     0.003 A 
ENDROOT
TORSDOF 0
ENDMDL
