MODEL 1
REMARK minimizedAffinity -1.94259131
REMARK minimizedRMSD -1
REMARK  0 active torsions:
REMARK  status: ('A' for Active; 'I' for Inactive)
ROOT
ATOM      1  C4' PXY d   1      -1.207  -0.517  -0.068  0.00  0.00     0.077 C 
ATOM      2  C1' PXY d   1       3.392   2.804   1.045  0.00  0.00     0.077 C 
ATOM      3  C1  PXY d   1       2.193   1.926   0.744  0.00  0.00    -0.082 A 
ATOM      4  C2  PXY d   1       0.974   2.374   1.000  0.00  0.00     0.003 A 
ATOM      5  C3  PXY d   1      -0.120   1.581   0.764  0.00  0.00     0.003 A 
ATOM      6  C4  PXY d   1       0.032   0.338   0.211  0.00  0.00    -0.082 A 
ATOM      7  C5  PXY d   1       1.271  -0.122  -0.063  0.00  0.00     0.003 A 
ATOM      8  C6  PXY d   1       2.371   0.682   0.222  0.00  0.00     0.003 A 
ENDROOT
TORSDOF 0
ENDMDL
