MODEL 1
REMARK minimizedAffinity 3.84796047
REMARK minimizedRMSD -1
REMARK  1 active torsions:
REMARK  status: ('A' for Active; 'I' for Inactive)
REMARK    1  A    between atoms: C1_2  and  C2_3 
ROOT
ATOM      1  C2  UNL d   1       2.931  -3.018  -0.119  0.00  0.00    -0.077 A 
ATOM      2  C3  UNL d   1       2.005  -3.442   0.845  0.00  0.00     0.002 A 
ATOM      3  C4  UNL d   1       2.234  -4.607   1.580  0.00  0.00     0.002 A 
ATOM      4  C5  UNL d   1       3.390  -5.354   1.361  0.00  0.00    -0.004 A 
ATOM      5  C6  UNL d   1       4.315  -4.942   0.403  0.00  0.00     0.002 A 
ATOM      6  C7  UNL d   1       4.087  -3.779  -0.333  0.00  0.00     0.002 A 
ENDROOT
BRANCH   1   7
ATOM      7  C1  UNL d   1       2.709  -1.736  -0.878  0.00  0.00     0.055 C 
ATOM      8  C   UNL d   1       1.457  -1.017  -0.398  0.00  0.00     0.019 C 
ENDBRANCH   1   7
TORSDOF 1
ENDMDL
