MODEL 1
REMARK minimizedAffinity 1.42263782
REMARK minimizedRMSD -1
REMARK  1 active torsions:
REMARK  status: ('A' for Active; 'I' for Inactive)
REMARK    1  A    between atoms: C1_2  and  C2_3 
ROOT
ATOM      1  C2  UNL d   1      -1.599  -0.284   1.255  0.00  0.00    -0.077 A 
ATOM      2  C3  UNL d   1      -0.570  -0.169   2.200  0.00  0.00     0.002 A 
ATOM      3  C4  UNL d   1      -0.271  -1.235   3.051  0.00  0.00     0.002 A 
ATOM      4  C5  UNL d   1      -0.994  -2.423   2.962  0.00  0.00    -0.004 A 
ATOM      5  C6  UNL d   1      -2.020  -2.546   2.027  0.00  0.00     0.002 A 
ATOM      6  C7  UNL d   1      -2.321  -1.481   1.176  0.00  0.00     0.002 A 
ENDROOT
BRANCH   1   7
ATOM      7  C1  UNL d   1      -1.891   0.847   0.303  0.00  0.00     0.055 C 
ATOM      8  C   UNL d   1      -1.787   0.392  -1.146  0.00  0.00     0.019 C 
ENDBRANCH   1   7
TORSDOF 1
ENDMDL
