MODEL 1
REMARK minimizedAffinity -0.552117646
REMARK minimizedRMSD -1
REMARK  1 active torsions:
REMARK  status: ('A' for Active; 'I' for Inactive)
REMARK    1  A    between atoms: C1_2  and  C2_3 
ROOT
ATOM      1  C2  UNL d   1       0.893  -2.612   1.493  0.00  0.00    -0.077 A 
ATOM      2  C3  UNL d   1       0.004  -2.405   2.556  0.00  0.00     0.002 A 
ATOM      3  C4  UNL d   1      -0.929  -1.367   2.506  0.00  0.00     0.002 A 
ATOM      4  C5  UNL d   1      -0.983  -0.531   1.392  0.00  0.00    -0.004 A 
ATOM      5  C6  UNL d   1      -0.102  -0.728   0.330  0.00  0.00     0.002 A 
ATOM      6  C7  UNL d   1       0.831  -1.764   0.379  0.00  0.00     0.002 A 
ENDROOT
BRANCH   1   7
ATOM      7  C1  UNL d   1       1.866  -3.762   1.524  0.00  0.00     0.055 C 
ATOM      8  C   UNL d   1       2.696  -3.819   0.250  0.00  0.00     0.019 C 
ENDBRANCH   1   7
TORSDOF 1
ENDMDL
