MODEL 1
REMARK minimizedAffinity 1.86161005
REMARK minimizedRMSD -1
REMARK  1 active torsions:
REMARK  status: ('A' for Active; 'I' for Inactive)
REMARK    1  A    between atoms: C1_2  and  C2_3 
ROOT
ATOM      1  C2  UNL d   1       0.781  -1.523   0.857  0.00  0.00    -0.077 A 
ATOM      2  C3  UNL d   1      -0.143  -0.645   0.273  0.00  0.00     0.002 A 
ATOM      3  C4  UNL d   1      -1.170  -0.089   1.038  0.00  0.00     0.002 A 
ATOM      4  C5  UNL d   1      -1.280  -0.400   2.392  0.00  0.00    -0.004 A 
ATOM      5  C6  UNL d   1      -0.367  -1.274   2.981  0.00  0.00     0.002 A 
ATOM      6  C7  UNL d   1       0.659  -1.832   2.218  0.00  0.00     0.002 A 
ENDROOT
BRANCH   1   7
ATOM      7  C1  UNL d   1       1.918  -2.086   0.045  0.00  0.00     0.055 C 
ATOM      8  C   UNL d   1       2.361  -3.440   0.577  0.00  0.00     0.019 C 
ENDBRANCH   1   7
TORSDOF 1
ENDMDL
