MODEL 1
REMARK minimizedAffinity 2.84518099
REMARK minimizedRMSD -1
REMARK  1 active torsions:
REMARK  status: ('A' for Active; 'I' for Inactive)
REMARK    1  A    between atoms: C1_2  and  C2_3 
ROOT
ATOM      1  C2  UNL d   1      -1.727  -0.900   1.647  0.00  0.00    -0.077 A 
ATOM      2  C3  UNL d   1      -0.639  -0.718   2.513  0.00  0.00     0.002 A 
ATOM      3  C4  UNL d   1      -0.343  -1.675   3.485  0.00  0.00     0.002 A 
ATOM      4  C5  UNL d   1      -1.127  -2.821   3.599  0.00  0.00    -0.004 A 
ATOM      5  C6  UNL d   1      -2.212  -3.010   2.744  0.00  0.00     0.002 A 
ATOM      6  C7  UNL d   1      -2.511  -2.054   1.772  0.00  0.00     0.002 A 
ENDROOT
BRANCH   1   7
ATOM      7  C1  UNL d   1      -2.018   0.108   0.565  0.00  0.00     0.055 C 
ATOM      8  C   UNL d   1      -1.143  -0.124  -0.657  0.00  0.00     0.019 C 
ENDBRANCH   1   7
TORSDOF 1
ENDMDL
