MODEL 1
REMARK minimizedAffinity 5.06318092
REMARK minimizedRMSD -1
REMARK  1 active torsions:
REMARK  status: ('A' for Active; 'I' for Inactive)
REMARK    1  A    between atoms: C1_2  and  C2_3 
ROOT
ATOM      1  C2  UNL d   1      -2.645  -0.375   0.864  0.00  0.00    -0.077 A 
ATOM      2  C3  UNL d   1      -2.133  -0.240  -0.434  0.00  0.00     0.002 A 
ATOM      3  C4  UNL d   1      -0.771  -0.424  -0.678  0.00  0.00     0.002 A 
ATOM      4  C5  UNL d   1       0.089  -0.749   0.369  0.00  0.00    -0.004 A 
ATOM      5  C6  UNL d   1      -0.411  -0.884   1.664  0.00  0.00     0.002 A 
ATOM      6  C7  UNL d   1      -1.772  -0.698   1.910  0.00  0.00     0.002 A 
ENDROOT
BRANCH   1   7
ATOM      7  C1  UNL d   1      -4.122  -0.225   1.121  0.00  0.00     0.055 C 
ATOM      8  C   UNL d   1      -4.390   0.768   2.242  0.00  0.00     0.019 C 
ENDBRANCH   1   7
TORSDOF 1
ENDMDL
