MODEL 1
REMARK minimizedAffinity 0.738857687
REMARK minimizedRMSD -1
REMARK  1 active torsions:
REMARK  status: ('A' for Active; 'I' for Inactive)
REMARK    1  A    between atoms: C1_2  and  C2_3 
ROOT
ATOM      1  C2  UNL d   1       1.960  -4.964   1.419  0.00  0.00    -0.077 A 
ATOM      2  C3  UNL d   1       1.939  -3.691   0.832  0.00  0.00     0.002 A 
ATOM      3  C4  UNL d   1       2.951  -3.301  -0.047  0.00  0.00     0.002 A 
ATOM      4  C5  UNL d   1       3.988  -4.180  -0.351  0.00  0.00    -0.004 A 
ATOM      5  C6  UNL d   1       4.019  -5.448   0.229  0.00  0.00     0.002 A 
ATOM      6  C7  UNL d   1       3.009  -5.838   1.109  0.00  0.00     0.002 A 
ENDROOT
BRANCH   1   7
ATOM      7  C1  UNL d   1       0.843  -5.404   2.329  0.00  0.00     0.055 C 
ATOM      8  C   UNL d   1      -0.184  -4.297   2.520  0.00  0.00     0.019 C 
ENDBRANCH   1   7
TORSDOF 1
ENDMDL
