MODEL 1
REMARK minimizedAffinity -3.90174484
REMARK minimizedRMSD -1
REMARK  1 active torsions:
REMARK  status: ('A' for Active; 'I' for Inactive)
REMARK    1  A    between atoms: C1_2  and  C2_3 
ROOT
ATOM      1  C2  UNL d   1      -1.147   0.782   0.983  0.00  0.00    -0.073 A 
ATOM      2  C3  UNL d   1      -1.581   2.111   1.042  0.00  0.00    -0.002 A 
ATOM      3  C4  UNL d   1      -2.930   2.403   1.250  0.00  0.00     0.004 A 
ATOM      4  C5  UNL d   1      -3.855   1.372   1.410  0.00  0.00    -0.004 A 
ATOM      5  C6  UNL d   1      -3.439   0.038   1.367  0.00  0.00    -0.075 A 
ATOM      6  C7  UNL d   1      -4.422  -1.083   1.535  0.00  0.00     0.076 C 
ATOM      7  C8  UNL d   1      -2.084  -0.248   1.154  0.00  0.00     0.001 A 
ENDROOT
BRANCH   1   8
ATOM      8  C1  UNL d   1       0.309   0.461   0.764  0.00  0.00     0.053 C 
ATOM      9  C   UNL d   1       0.809   0.970  -0.578  0.00  0.00     0.018 C 
ENDBRANCH   1   8
TORSDOF 1
ENDMDL
