MODEL 1
REMARK minimizedAffinity -4.77604437
REMARK minimizedRMSD -1
REMARK  1 active torsions:
REMARK  status: ('A' for Active; 'I' for Inactive)
REMARK    1  A    between atoms: C1_2  and  C2_3 
ROOT
ATOM      1  C2  UNL d   1      -0.139  -0.194   0.321  0.00  0.00    -0.073 A 
ATOM      2  C3  UNL d   1       0.014  -1.548   0.641  0.00  0.00    -0.002 A 
ATOM      3  C4  UNL d   1       0.636  -2.419  -0.254  0.00  0.00     0.004 A 
ATOM      4  C5  UNL d   1       1.118  -1.944  -1.474  0.00  0.00    -0.004 A 
ATOM      5  C6  UNL d   1       0.985  -0.592  -1.807  0.00  0.00    -0.075 A 
ATOM      6  C7  UNL d   1       1.496  -0.067  -3.117  0.00  0.00     0.076 C 
ATOM      7  C8  UNL d   1       0.356   0.275  -0.904  0.00  0.00     0.001 A 
ENDROOT
BRANCH   1   8
ATOM      8  C1  UNL d   1      -0.805   0.750   1.288  0.00  0.00     0.053 C 
ATOM      9  C   UNL d   1      -2.320   0.626   1.254  0.00  0.00     0.018 C 
ENDBRANCH   1   8
TORSDOF 1
ENDMDL
