MODEL 1
REMARK minimizedAffinity 0.951346934
REMARK minimizedRMSD -1
REMARK  1 active torsions:
REMARK  status: ('A' for Active; 'I' for Inactive)
REMARK    1  A    between atoms: C1_2  and  C2_3 
ROOT
ATOM      1  C2  UNL d   1      -2.165   2.994   2.883  0.00  0.00    -0.073 A 
ATOM      2  C3  UNL d   1      -3.389   2.317   2.929  0.00  0.00    -0.002 A 
ATOM      3  C4  UNL d   1      -3.537   1.085   2.292  0.00  0.00     0.004 A 
ATOM      4  C5  UNL d   1      -2.463   0.514   1.610  0.00  0.00    -0.004 A 
ATOM      5  C6  UNL d   1      -1.228   1.169   1.563  0.00  0.00    -0.075 A 
ATOM      6  C7  UNL d   1      -0.064   0.569   0.831  0.00  0.00     0.076 C 
ATOM      7  C8  UNL d   1      -1.088   2.408   2.203  0.00  0.00     0.001 A 
ENDROOT
BRANCH   1   8
ATOM      8  C1  UNL d   1      -1.998   4.323   3.575  0.00  0.00     0.053 C 
ATOM      9  C   UNL d   1      -2.409   4.259   5.038  0.00  0.00     0.018 C 
ENDBRANCH   1   8
TORSDOF 1
ENDMDL
