MODEL 1
REMARK minimizedAffinity -1.14168525
REMARK minimizedRMSD -1
REMARK  1 active torsions:
REMARK  status: ('A' for Active; 'I' for Inactive)
REMARK    1  A    between atoms: C1_2  and  C2_3 
ROOT
ATOM      1  C2  UNL d   1       0.120  -1.614  -0.217  0.00  0.00    -0.073 A 
ATOM      2  C3  UNL d   1      -0.093  -1.291  -1.562  0.00  0.00    -0.002 A 
ATOM      3  C4  UNL d   1       0.132   0.008  -2.019  0.00  0.00     0.004 A 
ATOM      4  C5  UNL d   1       0.578   0.995  -1.140  0.00  0.00    -0.004 A 
ATOM      5  C6  UNL d   1       0.808   0.689   0.205  0.00  0.00    -0.075 A 
ATOM      6  C7  UNL d   1       1.285   1.739   1.165  0.00  0.00     0.076 C 
ATOM      7  C8  UNL d   1       0.577  -0.618   0.657  0.00  0.00     0.001 A 
ENDROOT
BRANCH   1   8
ATOM      8  C1  UNL d   1      -0.116  -3.017   0.280  0.00  0.00     0.053 C 
ATOM      9  C   UNL d   1       0.194  -4.058  -0.785  0.00  0.00     0.018 C 
ENDBRANCH   1   8
TORSDOF 1
ENDMDL
