MODEL 1
REMARK minimizedAffinity -3.87458587
REMARK minimizedRMSD -1
REMARK  1 active torsions:
REMARK  status: ('A' for Active; 'I' for Inactive)
REMARK    1  A    between atoms: C1_2  and  C2_3 
ROOT
ATOM      1  C2  UNL d   1       2.382   0.853  -1.039  0.00  0.00    -0.073 A 
ATOM      2  C3  UNL d   1       1.930   0.236  -2.211  0.00  0.00    -0.002 A 
ATOM      3  C4  UNL d   1       0.718  -0.456  -2.220  0.00  0.00     0.004 A 
ATOM      4  C5  UNL d   1      -0.056  -0.532  -1.063  0.00  0.00    -0.004 A 
ATOM      5  C6  UNL d   1       0.373   0.089   0.115  0.00  0.00    -0.075 A 
ATOM      6  C7  UNL d   1      -0.447   0.015   1.369  0.00  0.00     0.076 C 
ATOM      7  C8  UNL d   1       1.592   0.779   0.117  0.00  0.00     0.001 A 
ENDROOT
BRANCH   1   8
ATOM      8  C1  UNL d   1       3.687   1.607  -1.026  0.00  0.00     0.053 C 
ATOM      9  C   UNL d   1       4.886   0.671  -1.036  0.00  0.00     0.018 C 
ENDBRANCH   1   8
TORSDOF 1
ENDMDL
