MODEL 1
REMARK minimizedAffinity -2.18271589
REMARK minimizedRMSD -1
REMARK  1 active torsions:
REMARK  status: ('A' for Active; 'I' for Inactive)
REMARK    1  A    between atoms: C1_2  and  C2_3 
ROOT
ATOM      1  C2  UNL d   1       1.141   0.589  -0.168  0.00  0.00    -0.073 A 
ATOM      2  C3  UNL d   1       0.789  -0.175  -1.287  0.00  0.00    -0.002 A 
ATOM      3  C4  UNL d   1       1.729  -0.442  -2.282  0.00  0.00     0.004 A 
ATOM      4  C5  UNL d   1       3.032   0.044  -2.166  0.00  0.00    -0.004 A 
ATOM      5  C6  UNL d   1       3.406   0.799  -1.050  0.00  0.00    -0.075 A 
ATOM      6  C7  UNL d   1       4.802   1.331  -0.911  0.00  0.00     0.076 C 
ATOM      7  C8  UNL d   1       2.455   1.066  -0.056  0.00  0.00     0.001 A 
ENDROOT
BRANCH   1   8
ATOM      8  C1  UNL d   1       0.130   0.875   0.913  0.00  0.00     0.053 C 
ATOM      9  C   UNL d   1      -0.763  -0.324   1.189  0.00  0.00     0.018 C 
ENDBRANCH   1   8
TORSDOF 1
ENDMDL
