MODEL 1
REMARK minimizedAffinity -3.38680553
REMARK minimizedRMSD -1
REMARK  1 active torsions:
REMARK  status: ('A' for Active; 'I' for Inactive)
REMARK    1  A    between atoms: C1_2  and  C2_3 
ROOT
ATOM      1  C2  UNL d   1      -0.220  -0.472   0.411  0.00  0.00    -0.073 A 
ATOM      2  C3  UNL d   1      -0.388  -1.846   0.616  0.00  0.00    -0.002 A 
ATOM      3  C4  UNL d   1      -0.213  -2.742  -0.440  0.00  0.00     0.004 A 
ATOM      4  C5  UNL d   1       0.138  -2.275  -1.707  0.00  0.00    -0.004 A 
ATOM      5  C6  UNL d   1       0.322  -0.906  -1.928  0.00  0.00    -0.075 A 
ATOM      6  C7  UNL d   1       0.697  -0.388  -3.285  0.00  0.00     0.076 C 
ATOM      7  C8  UNL d   1       0.142  -0.013  -0.863  0.00  0.00     0.001 A 
ENDROOT
BRANCH   1   8
ATOM      8  C1  UNL d   1      -0.401   0.499   1.549  0.00  0.00     0.053 C 
ATOM      9  C   UNL d   1      -1.866   0.688   1.909  0.00  0.00     0.018 C 
ENDBRANCH   1   8
TORSDOF 1
ENDMDL
