MODEL 1
REMARK minimizedAffinity -5.56587362
REMARK minimizedRMSD -1
REMARK  1 active torsions:
REMARK  status: ('A' for Active; 'I' for Inactive)
REMARK    1  A    between atoms: C1_2  and  C2_3 
ROOT
ATOM      1  C2  UNL d   1       0.160   0.075  -0.177  0.00  0.00    -0.073 A 
ATOM      2  C3  UNL d   1       0.494   1.129  -1.036  0.00  0.00    -0.002 A 
ATOM      3  C4  UNL d   1       1.277   0.895  -2.166  0.00  0.00     0.004 A 
ATOM      4  C5  UNL d   1       1.728  -0.394  -2.454  0.00  0.00    -0.004 A 
ATOM      5  C6  UNL d   1       1.395  -1.461  -1.614  0.00  0.00    -0.075 A 
ATOM      6  C7  UNL d   1       1.873  -2.853  -1.908  0.00  0.00     0.076 C 
ATOM      7  C8  UNL d   1       0.610  -1.218  -0.479  0.00  0.00     0.001 A 
ENDROOT
BRANCH   1   8
ATOM      8  C1  UNL d   1      -0.691   0.322   1.042  0.00  0.00     0.053 C 
ATOM      9  C   UNL d   1      -2.157   0.007   0.787  0.00  0.00     0.018 C 
ENDBRANCH   1   8
TORSDOF 1
ENDMDL
