MODEL 1
REMARK minimizedAffinity 13.2004223
REMARK minimizedRMSD -1
REMARK  0 active torsions:
REMARK  status: ('A' for Active; 'I' for Inactive)
ROOT
ATOM      1  C1  DEN d   1       2.253  -0.286   3.313  0.00  0.00     0.130 A 
ATOM      2  C2  DEN d   1       1.676  -1.057   4.411  0.00  0.00    -0.031 A 
ATOM      3  C3  DEN d   1       0.267  -0.642   4.569  0.00  0.00     0.027 A 
ATOM      4  C4  DEN d   1      -1.070   1.107   3.226  0.00  0.00     0.027 A 
ATOM      5  C5  DEN d   1      -1.003   2.028   2.204  0.00  0.00    -0.003 A 
ATOM      6  C6  DEN d   1       0.153   2.265   1.508  0.00  0.00     0.001 A 
ATOM      7  C7  DEN d   1       1.279   1.539   1.796  0.00  0.00     0.017 A 
ATOM      8  C8  DEN d   1       1.221   0.614   2.830  0.00  0.00    -0.094 A 
ATOM      9  C9  DEN d   1       0.040   0.381   3.513  0.00  0.00    -0.072 A 
ENDROOT
TORSDOF 0
ENDMDL
