MODEL 1
REMARK minimizedAffinity 4.29225779
REMARK minimizedRMSD -1
REMARK  0 active torsions:
REMARK  status: ('A' for Active; 'I' for Inactive)
ROOT
ATOM      1  C1  DEN d   1       0.797   2.769  -0.004  0.00  0.00     0.130 A 
ATOM      2  C2  DEN d   1      -0.228   3.723   0.411  0.00  0.00    -0.031 A 
ATOM      3  C3  DEN d   1      -1.547   3.145   0.087  0.00  0.00     0.027 A 
ATOM      4  C4  DEN d   1      -2.100   0.875  -1.006  0.00  0.00     0.027 A 
ATOM      5  C5  DEN d   1      -1.561  -0.274  -1.543  0.00  0.00    -0.003 A 
ATOM      6  C6  DEN d   1      -0.208  -0.472  -1.634  0.00  0.00     0.001 A 
ATOM      7  C7  DEN d   1       0.651   0.474  -1.141  0.00  0.00     0.017 A 
ATOM      8  C8  DEN d   1       0.115   1.638  -0.605  0.00  0.00    -0.094 A 
ATOM      9  C9  DEN d   1      -1.255   1.814  -0.510  0.00  0.00    -0.072 A 
ENDROOT
TORSDOF 0
ENDMDL
