MODEL 1
REMARK minimizedAffinity 10.7284813
REMARK minimizedRMSD -1
REMARK  0 active torsions:
REMARK  status: ('A' for Active; 'I' for Inactive)
ROOT
ATOM      1  C1  DEN d   1      -2.493   0.719  -5.258  0.00  0.00     0.130 A 
ATOM      2  C2  DEN d   1      -3.327   1.889  -4.999  0.00  0.00    -0.031 A 
ATOM      3  C3  DEN d   1      -3.430   2.062  -3.536  0.00  0.00     0.027 A 
ATOM      4  C4  DEN d   1      -2.381   0.641  -1.657  0.00  0.00     0.027 A 
ATOM      5  C5  DEN d   1      -1.601  -0.462  -1.385  0.00  0.00    -0.003 A 
ATOM      6  C6  DEN d   1      -1.097  -1.261  -2.376  0.00  0.00     0.001 A 
ATOM      7  C7  DEN d   1      -1.329  -0.944  -3.689  0.00  0.00     0.017 A 
ATOM      8  C8  DEN d   1      -2.120   0.162  -3.970  0.00  0.00    -0.094 A 
ATOM      9  C9  DEN d   1      -2.610   0.965  -2.954  0.00  0.00    -0.072 A 
ENDROOT
TORSDOF 0
ENDMDL
