MODEL 1
REMARK minimizedAffinity 16.1144962
REMARK minimizedRMSD -1
REMARK  0 active torsions:
REMARK  status: ('A' for Active; 'I' for Inactive)
ROOT
ATOM      1  C1  DEN d   1      -2.638   4.889  -0.666  0.00  0.00     0.130 A 
ATOM      2  C2  DEN d   1      -3.283   3.645  -0.255  0.00  0.00    -0.031 A 
ATOM      3  C3  DEN d   1      -2.245   2.752   0.296  0.00  0.00     0.027 A 
ATOM      4  C4  DEN d   1       0.286   3.174   0.558  0.00  0.00     0.027 A 
ATOM      5  C5  DEN d   1       1.302   4.079   0.341  0.00  0.00    -0.003 A 
ATOM      6  C6  DEN d   1       1.083   5.293  -0.253  0.00  0.00     0.001 A 
ATOM      7  C7  DEN d   1      -0.190   5.655  -0.610  0.00  0.00     0.017 A 
ATOM      8  C8  DEN d   1      -1.217   4.745  -0.401  0.00  0.00    -0.094 A 
ATOM      9  C9  DEN d   1      -0.978   3.527   0.212  0.00  0.00    -0.072 A 
ENDROOT
TORSDOF 0
ENDMDL
