MODEL 1
REMARK minimizedAffinity 13.8396997
REMARK minimizedRMSD -1
REMARK  0 active torsions:
REMARK  status: ('A' for Active; 'I' for Inactive)
ROOT
ATOM      1  C1  DEN d   1       2.271  -2.984   0.295  0.00  0.00     0.130 A 
ATOM      2  C2  DEN d   1       1.621  -1.683   0.421  0.00  0.00    -0.031 A 
ATOM      3  C3  DEN d   1       2.562  -0.653  -0.063  0.00  0.00     0.027 A 
ATOM      4  C4  DEN d   1       4.948  -0.946  -0.997  0.00  0.00     0.027 A 
ATOM      5  C5  DEN d   1       5.935  -1.861  -1.287  0.00  0.00    -0.003 A 
ATOM      6  C6  DEN d   1       5.785  -3.200  -1.041  0.00  0.00     0.001 A 
ATOM      7  C7  DEN d   1       4.603  -3.668  -0.530  0.00  0.00     0.017 A 
ATOM      8  C8  DEN d   1       3.606  -2.750  -0.228  0.00  0.00    -0.094 A 
ATOM      9  C9  DEN d   1       3.772  -1.402  -0.496  0.00  0.00    -0.072 A 
ENDROOT
TORSDOF 0
ENDMDL
