MODEL 1
REMARK minimizedAffinity 13.5076904
REMARK minimizedRMSD -1
REMARK  0 active torsions:
REMARK  status: ('A' for Active; 'I' for Inactive)
ROOT
ATOM      1  C1  DEN d   1       0.639  -0.165   4.252  0.00  0.00     0.130 A 
ATOM      2  C2  DEN d   1       1.411  -1.002   5.167  0.00  0.00    -0.031 A 
ATOM      3  C3  DEN d   1       2.757  -0.410   5.302  0.00  0.00     0.027 A 
ATOM      4  C4  DEN d   1       3.715   1.713   4.193  0.00  0.00     0.027 A 
ATOM      5  C5  DEN d   1       3.440   2.750   3.329  0.00  0.00    -0.003 A 
ATOM      6  C6  DEN d   1       2.234   2.867   2.690  0.00  0.00     0.001 A 
ATOM      7  C7  DEN d   1       1.241   1.958   2.942  0.00  0.00     0.017 A 
ATOM      8  C8  DEN d   1       1.513   0.906   3.807  0.00  0.00    -0.094 A 
ATOM      9  C9  DEN d   1       2.734   0.811   4.452  0.00  0.00    -0.072 A 
ENDROOT
TORSDOF 0
ENDMDL
