MODEL 1
REMARK minimizedAffinity 11.7119589
REMARK minimizedRMSD -1
REMARK  0 active torsions:
REMARK  status: ('A' for Active; 'I' for Inactive)
ROOT
ATOM      1  C1  DEN d   1       1.892   5.999   0.384  0.00  0.00     0.130 A 
ATOM      2  C2  DEN d   1       3.050   5.463   1.094  0.00  0.00    -0.031 A 
ATOM      3  C3  DEN d   1       2.774   4.048   1.414  0.00  0.00     0.027 A 
ATOM      4  C4  DEN d   1       0.680   2.642   0.877  0.00  0.00     0.027 A 
ATOM      5  C5  DEN d   1      -0.570   2.665   0.299  0.00  0.00    -0.003 A 
ATOM      6  C6  DEN d   1      -1.097   3.801  -0.257  0.00  0.00     0.001 A 
ATOM      7  C7  DEN d   1      -0.351   4.950  -0.286  0.00  0.00     0.017 A 
ATOM      8  C8  DEN d   1       0.907   4.936   0.301  0.00  0.00    -0.094 A 
ATOM      9  C9  DEN d   1       1.426   3.775   0.847  0.00  0.00    -0.072 A 
ENDROOT
TORSDOF 0
ENDMDL
