MODEL 1
REMARK minimizedAffinity 0.0236042477
REMARK minimizedRMSD -1
REMARK  0 active torsions:
REMARK  status: ('A' for Active; 'I' for Inactive)
ROOT
ATOM      1  C   UNL d   1       3.621  -0.816   0.420  0.00  0.00     0.172 C 
ATOM      2  N   UNL d   1       2.215  -0.915   0.104  0.00  0.00    -0.070 N 
ATOM      3  C1  UNL d   1       1.315   0.116   0.141  0.00  0.00    -0.004 A 
ATOM      4  C2  UNL d   1       0.085  -0.385  -0.226  0.00  0.00    -0.047 A 
ATOM      5  C3  UNL d   1       0.252  -1.765  -0.492  0.00  0.00    -0.047 A 
ATOM      6  C4  UNL d   1       1.580  -2.066  -0.280  0.00  0.00    -0.004 A 
ENDROOT
TORSDOF 0
ENDMDL
