MODEL 1
REMARK minimizedAffinity -3.85053635
REMARK minimizedRMSD -1
REMARK  0 active torsions:
REMARK  status: ('A' for Active; 'I' for Inactive)
ROOT
ATOM      1  C   UNL d   1      -0.517   0.700  -0.387  0.00  0.00     0.172 C 
ATOM      2  N   UNL d   1       0.780   0.167  -0.042  0.00  0.00    -0.070 N 
ATOM      3  C1  UNL d   1       1.190  -1.125  -0.237  0.00  0.00    -0.004 A 
ATOM      4  C2  UNL d   1       2.485  -1.230   0.223  0.00  0.00    -0.047 A 
ATOM      5  C3  UNL d   1       2.866   0.042   0.712  0.00  0.00    -0.047 A 
ATOM      6  C4  UNL d   1       1.791   0.888   0.536  0.00  0.00    -0.004 A 
ENDROOT
TORSDOF 0
ENDMDL
