MODEL 1
REMARK minimizedAffinity -0.586964786
REMARK minimizedRMSD -1
REMARK  0 active torsions:
REMARK  status: ('A' for Active; 'I' for Inactive)
ROOT
ATOM      1  C   UNL d   1      -2.035   0.361   1.136  0.00  0.00     0.172 C 
ATOM      2  N   UNL d   1      -0.998  -0.317   0.394  0.00  0.00    -0.070 N 
ATOM      3  C1  UNL d   1      -0.061   0.287  -0.400  0.00  0.00    -0.004 A 
ATOM      4  C2  UNL d   1       0.744  -0.700  -0.928  0.00  0.00    -0.047 A 
ATOM      5  C3  UNL d   1       0.272  -1.940  -0.435  0.00  0.00    -0.047 A 
ATOM      6  C4  UNL d   1      -0.807  -1.673   0.381  0.00  0.00    -0.004 A 
ENDROOT
TORSDOF 0
ENDMDL
