MODEL 1
REMARK minimizedAffinity 0.0298284125
REMARK minimizedRMSD -1
REMARK  0 active torsions:
REMARK  status: ('A' for Active; 'I' for Inactive)
ROOT
ATOM      1  C   UNL d   1       0.836   1.869   0.127  0.00  0.00     0.172 C 
ATOM      2  N   UNL d   1       0.594   0.475  -0.160  0.00  0.00    -0.070 N 
ATOM      3  C1  UNL d   1      -0.610  -0.068  -0.523  0.00  0.00    -0.004 A 
ATOM      4  C2  UNL d   1      -0.424  -1.421  -0.707  0.00  0.00    -0.047 A 
ATOM      5  C3  UNL d   1       0.939  -1.701  -0.445  0.00  0.00    -0.047 A 
ATOM      6  C4  UNL d   1       1.545  -0.509  -0.108  0.00  0.00    -0.004 A 
ENDROOT
TORSDOF 0
ENDMDL
