MODEL 1
REMARK minimizedAffinity -2.32469511
REMARK minimizedRMSD -1
REMARK  0 active torsions:
REMARK  status: ('A' for Active; 'I' for Inactive)
ROOT
ATOM      1  C   UNL d   1       3.133  -1.306   0.588  0.00  0.00     0.172 C 
ATOM      2  N   UNL d   1       1.774  -0.897   0.321  0.00  0.00    -0.070 N 
ATOM      3  C1  UNL d   1       1.140   0.178   0.884  0.00  0.00    -0.004 A 
ATOM      4  C2  UNL d   1      -0.139   0.229   0.373  0.00  0.00    -0.047 A 
ATOM      5  C3  UNL d   1      -0.278  -0.854  -0.528  0.00  0.00    -0.047 A 
ATOM      6  C4  UNL d   1       0.921  -1.534  -0.540  0.00  0.00    -0.004 A 
ENDROOT
TORSDOF 0
ENDMDL
