MODEL 1
REMARK minimizedAffinity 0.105694562
REMARK minimizedRMSD -1
REMARK  0 active torsions:
REMARK  status: ('A' for Active; 'I' for Inactive)
ROOT
ATOM      1  C   UNL d   1       1.125   1.628  -0.152  0.00  0.00     0.172 C 
ATOM      2  N   UNL d   1       0.880   0.226  -0.397  0.00  0.00    -0.070 N 
ATOM      3  C1  UNL d   1       1.840  -0.742  -0.523  0.00  0.00    -0.004 A 
ATOM      4  C2  UNL d   1       1.201  -1.942  -0.749  0.00  0.00    -0.047 A 
ATOM      5  C3  UNL d   1      -0.191  -1.686  -0.760  0.00  0.00    -0.047 A 
ATOM      6  C4  UNL d   1      -0.361  -0.335  -0.540  0.00  0.00    -0.004 A 
ENDROOT
TORSDOF 0
ENDMDL
