MODEL 1
REMARK minimizedAffinity -3.91730714
REMARK minimizedRMSD -1
REMARK  0 active torsions:
REMARK  status: ('A' for Active; 'I' for Inactive)
ROOT
ATOM      1  C   UNL d   1      -0.417   1.109   0.030  0.00  0.00     0.172 C 
ATOM      2  N   UNL d   1       0.839   0.396   0.034  0.00  0.00    -0.070 N 
ATOM      3  C1  UNL d   1       2.079   0.964   0.165  0.00  0.00    -0.004 A 
ATOM      4  C2  UNL d   1       3.013  -0.048   0.121  0.00  0.00    -0.047 A 
ATOM      5  C3  UNL d   1       2.311  -1.266  -0.044  0.00  0.00    -0.047 A 
ATOM      6  C4  UNL d   1       0.967  -0.961  -0.095  0.00  0.00    -0.004 A 
ENDROOT
TORSDOF 0
ENDMDL
