MODEL 1
REMARK minimizedAffinity -3.85492635
REMARK minimizedRMSD -1
REMARK  0 active torsions:
REMARK  status: ('A' for Active; 'I' for Inactive)
ROOT
ATOM      1  C   UNL d   1      -1.043   0.592  -0.376  0.00  0.00     0.172 C 
ATOM      2  N   UNL d   1       0.207  -0.046  -0.034  0.00  0.00    -0.070 N 
ATOM      3  C1  UNL d   1       1.244   0.539   0.642  0.00  0.00    -0.004 A 
ATOM      4  C2  UNL d   1       2.248  -0.397   0.768  0.00  0.00    -0.047 A 
ATOM      5  C3  UNL d   1       1.799  -1.585   0.144  0.00  0.00    -0.047 A 
ATOM      6  C4  UNL d   1       0.533  -1.340  -0.344  0.00  0.00    -0.004 A 
ENDROOT
TORSDOF 0
ENDMDL
