MODEL 1
REMARK minimizedAffinity -5.19083786
REMARK minimizedRMSD -1
REMARK  1 active torsions:
REMARK  status: ('A' for Active; 'I' for Inactive)
REMARK    1  A    between atoms: N_2  and  C1_3 
ROOT
ATOM      1  C1  UNL d   1       0.095  -0.138  -0.250  0.00  0.00     0.143 A 
ATOM      2  C2  UNL d   1      -0.849  -0.047   0.778  0.00  0.00    -0.057 A 
ATOM      3  C3  UNL d   1      -0.499  -0.299   2.110  0.00  0.00     0.033 A 
ATOM      4  C4  UNL d   1       0.800  -0.676   2.435  0.00  0.00    -0.042 A 
ATOM      5  C5  UNL d   1       1.749  -0.797   1.426  0.00  0.00     0.033 A 
ATOM      6  C6  UNL d   1       1.395  -0.538   0.099  0.00  0.00    -0.057 A 
ENDROOT
BRANCH   1   7
ATOM      7  N   UNL d   1      -0.214   0.004  -1.605  0.00  0.00    -0.732 N 
ATOM      8  C   UNL d   1      -0.997   1.129  -2.068  0.00  0.00     0.284 C 
ATOM      9  H3  UNL d   1       0.569  -0.235  -2.209  0.00  0.00     0.395 HD
ENDBRANCH   1   7
TORSDOF 1
ENDMDL
