MODEL 1
REMARK minimizedAffinity -4.56506157
REMARK minimizedRMSD -1
REMARK  1 active torsions:
REMARK  status: ('A' for Active; 'I' for Inactive)
REMARK    1  A    between atoms: N_2  and  C1_3 
ROOT
ATOM      1  C1  UNL d   1      -0.034  -0.020   0.222  0.00  0.00     0.143 A 
ATOM      2  C2  UNL d   1      -1.107  -0.211   1.099  0.00  0.00    -0.057 A 
ATOM      3  C3  UNL d   1      -0.900  -0.613   2.424  0.00  0.00     0.033 A 
ATOM      4  C4  UNL d   1       0.388  -0.861   2.888  0.00  0.00    -0.042 A 
ATOM      5  C5  UNL d   1       1.468  -0.702   2.027  0.00  0.00     0.033 A 
ATOM      6  C6  UNL d   1       1.255  -0.293   0.707  0.00  0.00    -0.057 A 
ENDROOT
BRANCH   1   7
ATOM      7  N   UNL d   1      -0.182   0.283  -1.134  0.00  0.00    -0.732 N 
ATOM      8  C   UNL d   1      -0.513   1.626  -1.557  0.00  0.00     0.284 C 
ATOM      9  H3  UNL d   1       0.520  -0.174  -1.713  0.00  0.00     0.395 HD
ENDBRANCH   1   7
TORSDOF 1
ENDMDL
