MODEL 1
REMARK minimizedAffinity -4.35194159
REMARK minimizedRMSD -1
REMARK  1 active torsions:
REMARK  status: ('A' for Active; 'I' for Inactive)
REMARK    1  A    between atoms: N_2  and  C1_3 
ROOT
ATOM      1  C1  UNL d   1      -0.218  -0.017  -0.353  0.00  0.00     0.143 A 
ATOM      2  C2  UNL d   1      -1.203  -0.028   0.641  0.00  0.00    -0.057 A 
ATOM      3  C3  UNL d   1      -0.888  -0.324   1.972  0.00  0.00     0.033 A 
ATOM      4  C4  UNL d   1       0.418  -0.644   2.329  0.00  0.00    -0.042 A 
ATOM      5  C5  UNL d   1       1.408  -0.664   1.354  0.00  0.00     0.033 A 
ATOM      6  C6  UNL d   1       1.089  -0.361   0.027  0.00  0.00    -0.057 A 
ENDROOT
BRANCH   1   7
ATOM      7  N   UNL d   1      -0.486   0.173  -1.711  0.00  0.00    -0.732 N 
ATOM      8  C   UNL d   1      -1.055   1.417  -2.183  0.00  0.00     0.284 C 
ATOM      9  H3  UNL d   1       0.249  -0.201  -2.307  0.00  0.00     0.395 HD
ENDBRANCH   1   7
TORSDOF 1
ENDMDL
