MODEL 1
REMARK minimizedAffinity -4.76990175
REMARK minimizedRMSD -1
REMARK  1 active torsions:
REMARK  status: ('A' for Active; 'I' for Inactive)
REMARK    1  A    between atoms: N_2  and  C1_3 
ROOT
ATOM      1  C1  UNL d   1      -0.721   0.478  -1.185  0.00  0.00     0.143 A 
ATOM      2  C2  UNL d   1      -0.243  -0.827  -1.348  0.00  0.00    -0.057 A 
ATOM      3  C3  UNL d   1       0.654  -1.391  -0.433  0.00  0.00     0.033 A 
ATOM      4  C4  UNL d   1       1.114  -0.647   0.649  0.00  0.00    -0.042 A 
ATOM      5  C5  UNL d   1       0.672   0.661   0.816  0.00  0.00     0.033 A 
ATOM      6  C6  UNL d   1      -0.229   1.216  -0.097  0.00  0.00    -0.057 A 
ENDROOT
BRANCH   1   7
ATOM      7  N   UNL d   1      -1.537   1.129  -2.114  0.00  0.00    -0.732 N 
ATOM      8  C   UNL d   1      -1.102   2.357  -2.744  0.00  0.00     0.284 C 
ATOM      9  H3  UNL d   1      -2.002   0.479  -2.744  0.00  0.00     0.395 HD
ENDBRANCH   1   7
TORSDOF 1
ENDMDL
