MODEL 1
REMARK minimizedAffinity -4.31062794
REMARK minimizedRMSD -1
REMARK  1 active torsions:
REMARK  status: ('A' for Active; 'I' for Inactive)
REMARK    1  A    between atoms: N_2  and  C1_3 
ROOT
ATOM      1  C1  UNL d   1       0.607  -0.400   0.045  0.00  0.00     0.143 A 
ATOM      2  C2  UNL d   1       0.021  -0.393   1.316  0.00  0.00    -0.057 A 
ATOM      3  C3  UNL d   1       0.538  -1.171   2.358  0.00  0.00     0.033 A 
ATOM      4  C4  UNL d   1       1.637  -1.996   2.139  0.00  0.00    -0.042 A 
ATOM      5  C5  UNL d   1       2.220  -2.038   0.878  0.00  0.00     0.033 A 
ATOM      6  C6  UNL d   1       1.703  -1.253  -0.157  0.00  0.00    -0.057 A 
ENDROOT
BRANCH   1   7
ATOM      7  N   UNL d   1       0.080   0.276  -1.058  0.00  0.00    -0.732 N 
ATOM      8  C   UNL d   1      -1.315   0.129  -1.415  0.00  0.00     0.284 C 
ATOM      9  H3  UNL d   1       0.430   1.228  -1.134  0.00  0.00     0.395 HD
ENDBRANCH   1   7
TORSDOF 1
ENDMDL
