MODEL 1
REMARK minimizedAffinity -4.65968275
REMARK minimizedRMSD -1
REMARK  1 active torsions:
REMARK  status: ('A' for Active; 'I' for Inactive)
REMARK    1  A    between atoms: N_2  and  C1_3 
ROOT
ATOM      1  C1  UNL d   1       0.414  -0.695   1.053  0.00  0.00     0.143 A 
ATOM      2  C2  UNL d   1       0.405  -1.087   2.396  0.00  0.00    -0.057 A 
ATOM      3  C3  UNL d   1       1.505  -1.737   2.969  0.00  0.00     0.033 A 
ATOM      4  C4  UNL d   1       2.625  -2.033   2.199  0.00  0.00    -0.042 A 
ATOM      5  C5  UNL d   1       2.645  -1.675   0.856  0.00  0.00     0.033 A 
ATOM      6  C6  UNL d   1       1.547  -1.020   0.291  0.00  0.00    -0.057 A 
ENDROOT
BRANCH   1   7
ATOM      7  N   UNL d   1      -0.686  -0.133   0.400  0.00  0.00    -0.732 N 
ATOM      8  C   UNL d   1      -0.639   0.143  -1.020  0.00  0.00     0.284 C 
ATOM      9  H3  UNL d   1      -1.569  -0.528   0.717  0.00  0.00     0.395 HD
ENDBRANCH   1   7
TORSDOF 1
ENDMDL
