MODEL 1
REMARK minimizedAffinity -3.23816895
REMARK minimizedRMSD -1
REMARK  1 active torsions:
REMARK  status: ('A' for Active; 'I' for Inactive)
REMARK    1  A    between atoms: N_2  and  C1_3 
ROOT
ATOM      1  C1  UNL d   1      -0.612   0.672  -1.162  0.00  0.00     0.143 A 
ATOM      2  C2  UNL d   1       0.702   0.194  -1.104  0.00  0.00    -0.057 A 
ATOM      3  C3  UNL d   1       1.170  -0.511   0.012  0.00  0.00     0.033 A 
ATOM      4  C4  UNL d   1       0.337  -0.726   1.105  0.00  0.00    -0.042 A 
ATOM      5  C5  UNL d   1      -0.964  -0.239   1.080  0.00  0.00     0.033 A 
ATOM      6  C6  UNL d   1      -1.428   0.459  -0.039  0.00  0.00    -0.057 A 
ENDROOT
BRANCH   1   7
ATOM      7  N   UNL d   1      -1.106   1.465  -2.200  0.00  0.00    -0.732 N 
ATOM      8  C   UNL d   1      -0.321   2.559  -2.730  0.00  0.00     0.284 C 
ATOM      9  H3  UNL d   1      -1.590   0.918  -2.909  0.00  0.00     0.395 HD
ENDBRANCH   1   7
TORSDOF 1
ENDMDL
