MODEL 1
REMARK minimizedAffinity 4.32780218
REMARK minimizedRMSD -1
REMARK  0 active torsions:
REMARK  status: ('A' for Active; 'I' for Inactive)
ROOT
ATOM      1  C2' OXE d   1       2.088  -0.103   1.489  0.00  0.00     0.078 C 
ATOM      2  C1' OXE d   1      -0.123  -1.796   1.135  0.00  0.00     0.078 C 
ATOM      3  C1  OXE d   1      -0.385  -0.317   1.272  0.00  0.00    -0.078 A 
ATOM      4  C2  OXE d   1       0.699   0.499   1.492  0.00  0.00    -0.078 A 
ATOM      5  C3  OXE d   1       0.520   1.877   1.572  0.00  0.00     0.003 A 
ATOM      6  C4  OXE d   1      -0.768   2.425   1.583  0.00  0.00    -0.002 A 
ATOM      7  C5  OXE d   1      -1.889   1.607   1.401  0.00  0.00    -0.002 A 
ATOM      8  C6  OXE d   1      -1.712   0.242   1.202  0.00  0.00     0.003 A 
ENDROOT
TORSDOF 0
ENDMDL
