MODEL 1
REMARK minimizedAffinity -1.85531628
REMARK minimizedRMSD -1
REMARK  0 active torsions:
REMARK  status: ('A' for Active; 'I' for Inactive)
ROOT
ATOM      1  C2' OXE d   1      -3.855   1.215   3.699  0.00  0.00     0.078 C 
ATOM      2  C1' OXE d   1      -2.370  -1.016   2.864  0.00  0.00     0.078 C 
ATOM      3  C1  OXE d   1      -1.884   0.349   2.446  0.00  0.00    -0.078 A 
ATOM      4  C2  OXE d   1      -2.643   1.432   2.819  0.00  0.00    -0.078 A 
ATOM      5  C3  OXE d   1      -2.210   2.718   2.506  0.00  0.00     0.003 A 
ATOM      6  C4  OXE d   1      -1.093   2.909   1.684  0.00  0.00    -0.002 A 
ATOM      7  C5  OXE d   1      -0.329   1.818   1.259  0.00  0.00    -0.002 A 
ATOM      8  C6  OXE d   1      -0.686   0.537   1.666  0.00  0.00     0.003 A 
ENDROOT
TORSDOF 0
ENDMDL
