MODEL 1
REMARK minimizedAffinity -1.97876608
REMARK minimizedRMSD -1
REMARK  0 active torsions:
REMARK  status: ('A' for Active; 'I' for Inactive)
ROOT
ATOM      1  C2' OXE d   1      -3.307   1.953   3.493  0.00  0.00     0.078 C 
ATOM      2  C1' OXE d   1      -3.104  -0.792   2.941  0.00  0.00     0.078 C 
ATOM      3  C1  OXE d   1      -2.025   0.115   2.404  0.00  0.00    -0.078 A 
ATOM      4  C2  OXE d   1      -2.158   1.463   2.639  0.00  0.00    -0.078 A 
ATOM      5  C3  OXE d   1      -1.162   2.338   2.213  0.00  0.00     0.003 A 
ATOM      6  C4  OXE d   1      -0.108   1.877   1.415  0.00  0.00    -0.002 A 
ATOM      7  C5  OXE d   1       0.024   0.514   1.130  0.00  0.00    -0.002 A 
ATOM      8  C6  OXE d   1      -0.901  -0.384   1.652  0.00  0.00     0.003 A 
ENDROOT
TORSDOF 0
ENDMDL
