MODEL 1
REMARK minimizedAffinity -6.09997749
REMARK minimizedRMSD -1
REMARK  0 active torsions:
REMARK  status: ('A' for Active; 'I' for Inactive)
ROOT
ATOM      1  C2' OXE d   1      -3.398   1.415   3.340  0.00  0.00     0.078 C 
ATOM      2  C1' OXE d   1      -2.774  -1.188   2.496  0.00  0.00     0.078 C 
ATOM      3  C1  OXE d   1      -1.831  -0.078   2.106  0.00  0.00    -0.078 A 
ATOM      4  C2  OXE d   1      -2.168   1.200   2.484  0.00  0.00    -0.078 A 
ATOM      5  C3  OXE d   1      -1.305   2.254   2.198  0.00  0.00     0.003 A 
ATOM      6  C4  OXE d   1      -0.175   2.047   1.397  0.00  0.00    -0.002 A 
ATOM      7  C5  OXE d   1       0.166   0.760   0.969  0.00  0.00    -0.002 A 
ATOM      8  C6  OXE d   1      -0.627  -0.317   1.350  0.00  0.00     0.003 A 
ENDROOT
TORSDOF 0
ENDMDL
