MODEL 1
REMARK minimizedAffinity -0.27248168
REMARK minimizedRMSD -1
REMARK  0 active torsions:
REMARK  status: ('A' for Active; 'I' for Inactive)
ROOT
ATOM      1  C2' OXE d   1      -2.601   2.664   3.336  0.00  0.00     0.078 C 
ATOM      2  C1' OXE d   1      -1.317   4.322   1.469  0.00  0.00     0.078 C 
ATOM      3  C1  OXE d   1      -0.825   2.902   1.605  0.00  0.00    -0.078 A 
ATOM      4  C2  OXE d   1      -1.428   2.113   2.554  0.00  0.00    -0.078 A 
ATOM      5  C3  OXE d   1      -1.049   0.779   2.683  0.00  0.00     0.003 A 
ATOM      6  C4  OXE d   1       0.043   0.280   1.964  0.00  0.00    -0.002 A 
ATOM      7  C5  OXE d   1       0.697   1.079   1.020  0.00  0.00    -0.002 A 
ATOM      8  C6  OXE d   1       0.249   2.377   0.799  0.00  0.00     0.003 A 
ENDROOT
TORSDOF 0
ENDMDL
