MODEL 1
REMARK minimizedAffinity 0.427256316
REMARK minimizedRMSD -1
REMARK  0 active torsions:
REMARK  status: ('A' for Active; 'I' for Inactive)
ROOT
ATOM      1  C2' OXE d   1       1.179   2.382   1.324  0.00  0.00     0.078 C 
ATOM      2  C1' OXE d   1       1.759   0.288   3.101  0.00  0.00     0.078 C 
ATOM      3  C1  OXE d   1       0.349   0.395   2.575  0.00  0.00    -0.078 A 
ATOM      4  C2  OXE d   1       0.063   1.450   1.743  0.00  0.00    -0.078 A 
ATOM      5  C3  OXE d   1      -1.208   1.564   1.186  0.00  0.00     0.003 A 
ATOM      6  C4  OXE d   1      -2.237   0.703   1.587  0.00  0.00    -0.002 A 
ATOM      7  C5  OXE d   1      -1.977  -0.354   2.465  0.00  0.00    -0.002 A 
ATOM      8  C6  OXE d   1      -0.682  -0.548   2.933  0.00  0.00     0.003 A 
ENDROOT
TORSDOF 0
ENDMDL
