MODEL 1
REMARK minimizedAffinity -1.76356673
REMARK minimizedRMSD -1
REMARK  0 active torsions:
REMARK  status: ('A' for Active; 'I' for Inactive)
ROOT
ATOM      1  C2' OXE d   1      -2.805   2.328   2.042  0.00  0.00     0.078 C 
ATOM      2  C1' OXE d   1      -3.074  -0.393   2.675  0.00  0.00     0.078 C 
ATOM      3  C1  OXE d   1      -1.736   0.082   2.167  0.00  0.00    -0.078 A 
ATOM      4  C2  OXE d   1      -1.627   1.406   1.816  0.00  0.00    -0.078 A 
ATOM      5  C3  OXE d   1      -0.399   1.908   1.394  0.00  0.00     0.003 A 
ATOM      6  C4  OXE d   1       0.683   1.046   1.177  0.00  0.00    -0.002 A 
ATOM      7  C5  OXE d   1       0.581  -0.313   1.491  0.00  0.00    -0.002 A 
ATOM      8  C6  OXE d   1      -0.606  -0.802   2.026  0.00  0.00     0.003 A 
ENDROOT
TORSDOF 0
ENDMDL
