MODEL 1
REMARK minimizedAffinity 1.14670408
REMARK minimizedRMSD -1
REMARK  0 active torsions:
REMARK  status: ('A' for Active; 'I' for Inactive)
ROOT
ATOM      1  C2' OXE d   1      -1.133   1.632   1.116  0.00  0.00     0.078 C 
ATOM      2  C1' OXE d   1       1.337   0.340   1.445  0.00  0.00     0.078 C 
ATOM      3  C1  OXE d   1       0.134  -0.256   2.133  0.00  0.00    -0.078 A 
ATOM      4  C2  OXE d   1      -1.061   0.410   2.005  0.00  0.00    -0.078 A 
ATOM      5  C3  OXE d   1      -2.213  -0.126   2.575  0.00  0.00     0.003 A 
ATOM      6  C4  OXE d   1      -2.136  -1.252   3.404  0.00  0.00    -0.002 A 
ATOM      7  C5  OXE d   1      -0.921  -1.922   3.580  0.00  0.00    -0.002 A 
ATOM      8  C6  OXE d   1       0.213  -1.462   2.919  0.00  0.00     0.003 A 
ENDROOT
TORSDOF 0
ENDMDL
