MODEL 1
REMARK minimizedAffinity 1.6181258
REMARK minimizedRMSD -1
REMARK  0 active torsions:
REMARK  status: ('A' for Active; 'I' for Inactive)
ROOT
ATOM      1  C2' OXE d   1       2.395  -0.018   0.944  0.00  0.00     0.078 C 
ATOM      2  C1' OXE d   1       0.524  -0.784   2.892  0.00  0.00     0.078 C 
ATOM      3  C1  OXE d   1       0.240   0.465   2.096  0.00  0.00    -0.078 A 
ATOM      4  C2  OXE d   1       1.184   0.858   1.177  0.00  0.00    -0.078 A 
ATOM      5  C3  OXE d   1       0.946   1.972   0.378  0.00  0.00     0.003 A 
ATOM      6  C4  OXE d   1      -0.173   2.783   0.607  0.00  0.00    -0.002 A 
ATOM      7  C5  OXE d   1      -1.127   2.423   1.565  0.00  0.00    -0.002 A 
ATOM      8  C6  OXE d   1      -0.957   1.247   2.286  0.00  0.00     0.003 A 
ENDROOT
TORSDOF 0
ENDMDL
