MODEL 1
REMARK minimizedAffinity 5.09711981
REMARK minimizedRMSD -1
REMARK  0 active torsions:
REMARK  status: ('A' for Active; 'I' for Inactive)
ROOT
ATOM      1  C2' OXE d   1      -1.848   3.901   0.847  0.00  0.00     0.078 C 
ATOM      2  C1' OXE d   1      -2.742   2.094   2.801  0.00  0.00     0.078 C 
ATOM      3  C1  OXE d   1      -1.398   1.836   2.167  0.00  0.00    -0.078 A 
ATOM      4  C2  OXE d   1      -0.989   2.699   1.179  0.00  0.00    -0.078 A 
ATOM      5  C3  OXE d   1       0.266   2.538   0.599  0.00  0.00     0.003 A 
ATOM      6  C4  OXE d   1       1.050   1.419   0.904  0.00  0.00    -0.002 A 
ATOM      7  C5  OXE d   1       0.634   0.506   1.879  0.00  0.00    -0.002 A 
ATOM      8  C6  OXE d   1      -0.565   0.723   2.549  0.00  0.00     0.003 A 
ENDROOT
TORSDOF 0
ENDMDL
