MODEL 1
REMARK minimizedAffinity 1.9590826
REMARK minimizedRMSD -1
REMARK  0 active torsions:
REMARK  status: ('A' for Active; 'I' for Inactive)
ROOT
ATOM      1  C2' OXE d   1      -4.393   3.020   6.000  0.00  0.00     0.078 C 
ATOM      2  C1' OXE d   1      -5.993   1.001   4.885  0.00  0.00     0.078 C 
ATOM      3  C1  OXE d   1      -4.589   1.156   4.359  0.00  0.00    -0.078 A 
ATOM      4  C2  OXE d   1      -3.829   2.177   4.877  0.00  0.00    -0.078 A 
ATOM      5  C3  OXE d   1      -2.508   2.330   4.465  0.00  0.00     0.003 A 
ATOM      6  C4  OXE d   1      -1.996   1.553   3.419  0.00  0.00    -0.002 A 
ATOM      7  C5  OXE d   1      -2.767   0.534   2.850  0.00  0.00    -0.002 A 
ATOM      8  C6  OXE d   1      -4.048   0.295   3.336  0.00  0.00     0.003 A 
ENDROOT
TORSDOF 0
ENDMDL
