MODEL 1
REMARK minimizedAffinity -0.65052098
REMARK minimizedRMSD -1
REMARK  0 active torsions:
REMARK  status: ('A' for Active; 'I' for Inactive)
ROOT
ATOM      1  C2' OXE d   1      -3.192   1.469   3.388  0.00  0.00     0.078 C 
ATOM      2  C1' OXE d   1      -2.018  -0.821   2.265  0.00  0.00     0.078 C 
ATOM      3  C1  OXE d   1      -1.393   0.516   1.953  0.00  0.00    -0.078 A 
ATOM      4  C2  OXE d   1      -2.001   1.635   2.468  0.00  0.00    -0.078 A 
ATOM      5  C3  OXE d   1      -1.434   2.888   2.256  0.00  0.00     0.003 A 
ATOM      6  C4  OXE d   1      -0.339   3.033   1.396  0.00  0.00    -0.002 A 
ATOM      7  C5  OXE d   1       0.272   1.910   0.828  0.00  0.00    -0.002 A 
ATOM      8  C6  OXE d   1      -0.215   0.643   1.130  0.00  0.00     0.003 A 
ENDROOT
TORSDOF 0
ENDMDL
