MODEL 1
REMARK minimizedAffinity -1.90724647
REMARK minimizedRMSD -1
REMARK  0 active torsions:
REMARK  status: ('A' for Active; 'I' for Inactive)
ROOT
ATOM      1  C2' OXE d   1      -2.749   1.533   3.258  0.00  0.00     0.078 C 
ATOM      2  C1' OXE d   1      -1.076  -0.661   2.740  0.00  0.00     0.078 C 
ATOM      3  C1  OXE d   1      -0.746   0.649   2.069  0.00  0.00    -0.078 A 
ATOM      4  C2  OXE d   1      -1.597   1.705   2.292  0.00  0.00    -0.078 A 
ATOM      5  C3  OXE d   1      -1.309   2.950   1.741  0.00  0.00     0.003 A 
ATOM      6  C4  OXE d   1      -0.248   3.098   0.839  0.00  0.00    -0.002 A 
ATOM      7  C5  OXE d   1       0.608   2.026   0.568  0.00  0.00    -0.002 A 
ATOM      8  C6  OXE d   1       0.398   0.808   1.206  0.00  0.00     0.003 A 
ENDROOT
TORSDOF 0
ENDMDL
