MODEL 1
REMARK minimizedAffinity -3.86888981
REMARK minimizedRMSD -1
REMARK  0 active torsions:
REMARK  status: ('A' for Active; 'I' for Inactive)
ROOT
ATOM      1  C2' OXE d   1      -2.757   1.685   2.985  0.00  0.00     0.078 C 
ATOM      2  C1' OXE d   1      -0.774   3.218   1.721  0.00  0.00     0.078 C 
ATOM      3  C1  OXE d   1      -0.703   1.718   1.576  0.00  0.00    -0.078 A 
ATOM      4  C2  OXE d   1      -1.650   0.974   2.237  0.00  0.00    -0.078 A 
ATOM      5  C3  OXE d   1      -1.662  -0.411   2.093  0.00  0.00     0.003 A 
ATOM      6  C4  OXE d   1      -0.629  -1.061   1.408  0.00  0.00    -0.002 A 
ATOM      7  C5  OXE d   1       0.368  -0.324   0.761  0.00  0.00    -0.002 A 
ATOM      8  C6  OXE d   1       0.322   1.065   0.800  0.00  0.00     0.003 A 
ENDROOT
TORSDOF 0
ENDMDL
