MODEL 1
REMARK minimizedAffinity -1.9733572
REMARK minimizedRMSD -1
REMARK  0 active torsions:
REMARK  status: ('A' for Active; 'I' for Inactive)
ROOT
ATOM      1  C2' OXE d   1       0.865   0.711   1.009  0.00  0.00     0.078 C 
ATOM      2  C1' OXE d   1      -0.587   2.875   2.054  0.00  0.00     0.078 C 
ATOM      3  C1  OXE d   1      -1.175   1.494   2.206  0.00  0.00    -0.078 A 
ATOM      4  C2  OXE d   1      -0.480   0.446   1.651  0.00  0.00    -0.078 A 
ATOM      5  C3  OXE d   1      -0.950  -0.854   1.810  0.00  0.00     0.003 A 
ATOM      6  C4  OXE d   1      -2.200  -1.089   2.397  0.00  0.00    -0.002 A 
ATOM      7  C5  OXE d   1      -2.943  -0.032   2.933  0.00  0.00    -0.002 A 
ATOM      8  C6  OXE d   1      -2.426   1.258   2.884  0.00  0.00     0.003 A 
ENDROOT
TORSDOF 0
ENDMDL
