MODEL 1
REMARK minimizedAffinity -3.18911982
REMARK minimizedRMSD -1
REMARK  0 active torsions:
REMARK  status: ('A' for Active; 'I' for Inactive)
ROOT
ATOM      1  C2' OXE d   1       0.601   0.392   1.021  0.00  0.00     0.078 C 
ATOM      2  C1' OXE d   1      -1.082  -1.547   2.157  0.00  0.00     0.078 C 
ATOM      3  C1  OXE d   1      -1.475  -0.098   2.307  0.00  0.00    -0.078 A 
ATOM      4  C2  OXE d   1      -0.622   0.846   1.789  0.00  0.00    -0.078 A 
ATOM      5  C3  OXE d   1      -0.965   2.193   1.852  0.00  0.00     0.003 A 
ATOM      6  C4  OXE d   1      -2.093   2.605   2.572  0.00  0.00    -0.002 A 
ATOM      7  C5  OXE d   1      -2.954   1.662   3.142  0.00  0.00    -0.002 A 
ATOM      8  C6  OXE d   1      -2.683   0.307   2.983  0.00  0.00     0.003 A 
ENDROOT
TORSDOF 0
ENDMDL
