MODEL 1
REMARK minimizedAffinity 2.12732291
REMARK minimizedRMSD -1
REMARK  0 active torsions:
REMARK  status: ('A' for Active; 'I' for Inactive)
ROOT
ATOM      1  C2' OXE d   1      -2.955   1.827   3.719  0.00  0.00     0.078 C 
ATOM      2  C1' OXE d   1      -1.784  -0.541   2.769  0.00  0.00     0.078 C 
ATOM      3  C1  OXE d   1      -1.246   0.769   2.248  0.00  0.00    -0.078 A 
ATOM      4  C2  OXE d   1      -1.856   1.921   2.682  0.00  0.00    -0.078 A 
ATOM      5  C3  OXE d   1      -1.364   3.157   2.275  0.00  0.00     0.003 A 
ATOM      6  C4  OXE d   1      -0.355   3.235   1.308  0.00  0.00    -0.002 A 
ATOM      7  C5  OXE d   1       0.254   2.073   0.822  0.00  0.00    -0.002 A 
ATOM      8  C6  OXE d   1      -0.151   0.836   1.312  0.00  0.00     0.003 A 
ENDROOT
TORSDOF 0
ENDMDL
