MODEL 1
REMARK minimizedAffinity 5.60952187
REMARK minimizedRMSD -1
REMARK  0 active torsions:
REMARK  status: ('A' for Active; 'I' for Inactive)
ROOT
ATOM      1  C2' OXE d   1      -4.341   1.547   4.265  0.00  0.00     0.078 C 
ATOM      2  C1' OXE d   1      -3.134  -0.812   3.340  0.00  0.00     0.078 C 
ATOM      3  C1  OXE d   1      -2.491   0.500   2.967  0.00  0.00    -0.078 A 
ATOM      4  C2  OXE d   1      -3.114   1.651   3.384  0.00  0.00    -0.078 A 
ATOM      5  C3  OXE d   1      -2.533   2.887   3.114  0.00  0.00     0.003 A 
ATOM      6  C4  OXE d   1      -1.404   2.974   2.291  0.00  0.00    -0.002 A 
ATOM      7  C5  OXE d   1      -0.776   1.816   1.822  0.00  0.00    -0.002 A 
ATOM      8  C6  OXE d   1      -1.281   0.572   2.185  0.00  0.00     0.003 A 
ENDROOT
TORSDOF 0
ENDMDL
