MODEL 1
REMARK minimizedAffinity 1.71217322
REMARK minimizedRMSD -1
REMARK  0 active torsions:
REMARK  status: ('A' for Active; 'I' for Inactive)
ROOT
ATOM      1  C2' OXE d   1      -3.322  -0.837  -2.087  0.00  0.00     0.078 C 
ATOM      2  C1' OXE d   1      -2.622  -2.423  -4.295  0.00  0.00     0.078 C 
ATOM      3  C1  OXE d   1      -2.848  -3.116  -2.974  0.00  0.00    -0.078 A 
ATOM      4  C2  OXE d   1      -3.144  -2.327  -1.889  0.00  0.00    -0.078 A 
ATOM      5  C3  OXE d   1      -3.415  -2.921  -0.659  0.00  0.00     0.003 A 
ATOM      6  C4  OXE d   1      -3.238  -4.298  -0.482  0.00  0.00    -0.002 A 
ATOM      7  C5  OXE d   1      -2.898  -5.115  -1.566  0.00  0.00    -0.002 A 
ATOM      8  C6  OXE d   1      -2.741  -4.546  -2.825  0.00  0.00     0.003 A 
ENDROOT
TORSDOF 0
ENDMDL
