MODEL 1
REMARK minimizedAffinity -1.2287662
REMARK minimizedRMSD -1
REMARK  1 active torsions:
REMARK  status: ('A' for Active; 'I' for Inactive)
REMARK    1  A    between atoms: N_2  and  C1_3 
ROOT
ATOM      1  C1  UNL d   1       3.261   4.875  -6.000  0.00  0.00     0.143 A 
ATOM      2  C2  UNL d   1       4.354   5.745  -5.935  0.00  0.00    -0.057 A 
ATOM      3  C3  UNL d   1       5.663   5.260  -5.835  0.00  0.00     0.033 A 
ATOM      4  C4  UNL d   1       5.901   3.891  -5.769  0.00  0.00    -0.042 A 
ATOM      5  C5  UNL d   1       4.828   3.008  -5.806  0.00  0.00     0.033 A 
ATOM      6  C6  UNL d   1       3.523   3.499  -5.912  0.00  0.00    -0.057 A 
ENDROOT
BRANCH   1   7
ATOM      7  N   UNL d   1       1.929   5.298  -6.000  0.00  0.00    -0.732 N 
ATOM      8  C   UNL d   1       0.850   4.334  -5.992  0.00  0.00     0.284 C 
ATOM      9  H3  UNL d   1       1.775   6.099  -5.392  0.00  0.00     0.395 HD
ENDBRANCH   1   7
TORSDOF 1
ENDMDL
