MODEL 1
REMARK minimizedAffinity 1.94853663
REMARK minimizedRMSD -1
REMARK  1 active torsions:
REMARK  status: ('A' for Active; 'I' for Inactive)
REMARK    1  A    between atoms: N_2  and  C1_3 
ROOT
ATOM      1  C1  UNL d   1      -0.373   4.688  -5.783  0.00  0.00     0.143 A 
ATOM      2  C2  UNL d   1       1.023   4.718  -5.877  0.00  0.00    -0.057 A 
ATOM      3  C3  UNL d   1       1.767   3.538  -5.999  0.00  0.00     0.033 A 
ATOM      4  C4  UNL d   1       1.129   2.302  -6.000  0.00  0.00    -0.042 A 
ATOM      5  C5  UNL d   1      -0.256   2.248  -5.881  0.00  0.00     0.033 A 
ATOM      6  C6  UNL d   1      -0.994   3.430  -5.767  0.00  0.00    -0.057 A 
ENDROOT
BRANCH   1   7
ATOM      7  N   UNL d   1      -1.161   5.820  -5.560  0.00  0.00    -0.732 N 
ATOM      8  C   UNL d   1      -1.862   5.996  -4.306  0.00  0.00     0.284 C 
ATOM      9  H3  UNL d   1      -0.731   6.669  -5.919  0.00  0.00     0.395 HD
ENDBRANCH   1   7
TORSDOF 1
ENDMDL
