MODEL 1
REMARK minimizedAffinity -1.63038504
REMARK minimizedRMSD -1
REMARK  1 active torsions:
REMARK  status: ('A' for Active; 'I' for Inactive)
REMARK    1  A    between atoms: N_2  and  C1_3 
ROOT
ATOM      1  C1  UNL d   1      -1.460   3.689  -5.909  0.00  0.00     0.143 A 
ATOM      2  C2  UNL d   1      -1.319   5.080  -5.894  0.00  0.00    -0.057 A 
ATOM      3  C3  UNL d   1      -2.437   5.923  -5.904  0.00  0.00     0.033 A 
ATOM      4  C4  UNL d   1      -3.719   5.387  -5.959  0.00  0.00    -0.042 A 
ATOM      5  C5  UNL d   1      -3.882   4.007  -6.000  0.00  0.00     0.033 A 
ATOM      6  C6  UNL d   1      -2.762   3.171  -5.983  0.00  0.00    -0.057 A 
ENDROOT
BRANCH   1   7
ATOM      7  N   UNL d   1      -0.386   2.799  -6.000  0.00  0.00    -0.732 N 
ATOM      8  C   UNL d   1       0.977   3.286  -5.998  0.00  0.00     0.284 C 
ATOM      9  H3  UNL d   1      -0.528   1.960  -5.442  0.00  0.00     0.395 HD
ENDBRANCH   1   7
TORSDOF 1
ENDMDL
