MODEL 1
REMARK minimizedAffinity -3.44547486
REMARK minimizedRMSD -1
REMARK  1 active torsions:
REMARK  status: ('A' for Active; 'I' for Inactive)
REMARK    1  A    between atoms: N_2  and  C1_3 
ROOT
ATOM      1  C1  UNL d   1       1.672   3.039  -5.997  0.00  0.00     0.143 A 
ATOM      2  C2  UNL d   1       0.568   2.181  -5.955  0.00  0.00    -0.057 A 
ATOM      3  C3  UNL d   1      -0.741   2.679  -5.961  0.00  0.00     0.033 A 
ATOM      4  C4  UNL d   1      -0.968   4.052  -5.982  0.00  0.00    -0.042 A 
ATOM      5  C5  UNL d   1       0.114   4.924  -5.999  0.00  0.00     0.033 A 
ATOM      6  C6  UNL d   1       1.418   4.420  -5.999  0.00  0.00    -0.057 A 
ENDROOT
BRANCH   1   7
ATOM      7  N   UNL d   1       2.997   2.608  -5.894  0.00  0.00    -0.732 N 
ATOM      8  C   UNL d   1       4.064   3.557  -5.660  0.00  0.00     0.284 C 
ATOM      9  H3  UNL d   1       3.084   1.745  -5.362  0.00  0.00     0.395 HD
ENDBRANCH   1   7
TORSDOF 1
ENDMDL
