MODEL 1
REMARK minimizedAffinity -1.17270899
REMARK minimizedRMSD -1
REMARK  1 active torsions:
REMARK  status: ('A' for Active; 'I' for Inactive)
REMARK    1  A    between atoms: N_2  and  C1_3 
ROOT
ATOM      1  C1  UNL d   1      -2.561   4.305  -5.924  0.00  0.00     0.143 A 
ATOM      2  C2  UNL d   1      -2.063   2.998  -5.958  0.00  0.00    -0.057 A 
ATOM      3  C3  UNL d   1      -0.685   2.747  -5.982  0.00  0.00     0.033 A 
ATOM      4  C4  UNL d   1       0.220   3.802  -6.000  0.00  0.00    -0.042 A 
ATOM      5  C5  UNL d   1      -0.253   5.109  -5.991  0.00  0.00     0.033 A 
ATOM      6  C6  UNL d   1      -1.629   5.354  -5.962  0.00  0.00    -0.057 A 
ENDROOT
BRANCH   1   7
ATOM      7  N   UNL d   1      -3.920   4.621  -6.000  0.00  0.00    -0.732 N 
ATOM      8  C   UNL d   1      -4.360   5.998  -5.943  0.00  0.00     0.284 C 
ATOM      9  H3  UNL d   1      -4.413   4.055  -6.686  0.00  0.00     0.395 HD
ENDBRANCH   1   7
TORSDOF 1
ENDMDL
