MODEL 1
REMARK minimizedAffinity 1.15705919
REMARK minimizedRMSD -1
REMARK  1 active torsions:
REMARK  status: ('A' for Active; 'I' for Inactive)
REMARK    1  A    between atoms: N_2  and  C1_3 
ROOT
ATOM      1  C1  UNL d   1       0.535   2.879  -5.986  0.00  0.00     0.143 A 
ATOM      2  C2  UNL d   1      -0.720   2.260  -5.977  0.00  0.00    -0.057 A 
ATOM      3  C3  UNL d   1      -1.901   3.011  -5.998  0.00  0.00     0.033 A 
ATOM      4  C4  UNL d   1      -1.848   4.401  -5.999  0.00  0.00    -0.042 A 
ATOM      5  C5  UNL d   1      -0.612   5.039  -5.983  0.00  0.00     0.033 A 
ATOM      6  C6  UNL d   1       0.564   4.282  -5.968  0.00  0.00    -0.057 A 
ENDROOT
BRANCH   1   7
ATOM      7  N   UNL d   1       1.744   2.189  -5.866  0.00  0.00    -0.732 N 
ATOM      8  C   UNL d   1       3.005   2.885  -5.999  0.00  0.00     0.284 C 
ATOM      9  H3  UNL d   1       1.725   1.501  -5.117  0.00  0.00     0.395 HD
ENDBRANCH   1   7
TORSDOF 1
ENDMDL
