MODEL 1
REMARK minimizedAffinity 1.04950047
REMARK minimizedRMSD -1
REMARK  1 active torsions:
REMARK  status: ('A' for Active; 'I' for Inactive)
REMARK    1  A    between atoms: N_2  and  C1_3 
ROOT
ATOM      1  C1  UNL d   1      -2.083   3.421  -6.000  0.00  0.00     0.143 A 
ATOM      2  C2  UNL d   1      -3.476   3.552  -5.961  0.00  0.00    -0.057 A 
ATOM      3  C3  UNL d   1      -4.087   4.811  -5.968  0.00  0.00     0.033 A 
ATOM      4  C4  UNL d   1      -3.313   5.967  -5.985  0.00  0.00    -0.042 A 
ATOM      5  C5  UNL d   1      -1.927   5.861  -5.999  0.00  0.00     0.033 A 
ATOM      6  C6  UNL d   1      -1.322   4.601  -5.998  0.00  0.00    -0.057 A 
ENDROOT
BRANCH   1   7
ATOM      7  N   UNL d   1      -1.414   2.200  -5.895  0.00  0.00    -0.732 N 
ATOM      8  C   UNL d   1       0.029   2.138  -6.000  0.00  0.00     0.284 C 
ATOM      9  H3  UNL d   1      -1.803   1.604  -5.169  0.00  0.00     0.395 HD
ENDBRANCH   1   7
TORSDOF 1
ENDMDL
