MODEL 1
REMARK minimizedAffinity -0.111152776
REMARK minimizedRMSD -1
REMARK  1 active torsions:
REMARK  status: ('A' for Active; 'I' for Inactive)
REMARK    1  A    between atoms: N_2  and  C1_3 
ROOT
ATOM      1  C1  UNL d   1      -2.174   1.211   0.543  0.00  0.00     0.143 A 
ATOM      2  C2  UNL d   1      -1.783  -0.081   0.911  0.00  0.00    -0.057 A 
ATOM      3  C3  UNL d   1      -0.435  -0.402   1.113  0.00  0.00     0.033 A 
ATOM      4  C4  UNL d   1       0.552   0.560   0.921  0.00  0.00    -0.042 A 
ATOM      5  C5  UNL d   1       0.188   1.844   0.531  0.00  0.00     0.033 A 
ATOM      6  C6  UNL d   1      -1.160   2.160   0.337  0.00  0.00    -0.057 A 
ENDROOT
BRANCH   1   7
ATOM      7  N   UNL d   1      -3.488   1.567   0.232  0.00  0.00    -0.732 N 
ATOM      8  C   UNL d   1      -4.412   1.961   1.274  0.00  0.00     0.284 C 
ATOM      9  H3  UNL d   1      -3.548   2.132  -0.612  0.00  0.00     0.395 HD
ENDBRANCH   1   7
TORSDOF 1
ENDMDL
