MODEL 1
REMARK minimizedAffinity 1.57356155
REMARK minimizedRMSD -1
REMARK  1 active torsions:
REMARK  status: ('A' for Active; 'I' for Inactive)
REMARK    1  A    between atoms: N_2  and  C1_3 
ROOT
ATOM      1  C1  UNL d   1       0.034   4.617  -5.691  0.00  0.00     0.143 A 
ATOM      2  C2  UNL d   1      -0.635   3.427  -5.999  0.00  0.00    -0.057 A 
ATOM      3  C3  UNL d   1      -1.952   3.205  -5.580  0.00  0.00     0.033 A 
ATOM      4  C4  UNL d   1      -2.616   4.160  -4.817  0.00  0.00    -0.042 A 
ATOM      5  C5  UNL d   1      -1.962   5.339  -4.477  0.00  0.00     0.033 A 
ATOM      6  C6  UNL d   1      -0.649   5.558  -4.905  0.00  0.00    -0.057 A 
ENDROOT
BRANCH   1   7
ATOM      7  N   UNL d   1       1.377   4.855  -5.995  0.00  0.00    -0.732 N 
ATOM      8  C   UNL d   1       2.336   3.771  -5.999  0.00  0.00     0.284 C 
ATOM      9  H3  UNL d   1       1.490   5.513  -6.762  0.00  0.00     0.395 HD
ENDBRANCH   1   7
TORSDOF 1
ENDMDL
