MODEL 1
REMARK minimizedAffinity 2.48557019
REMARK minimizedRMSD -1
REMARK  1 active torsions:
REMARK  status: ('A' for Active; 'I' for Inactive)
REMARK    1  A    between atoms: N_2  and  C1_3 
ROOT
ATOM      1  C1  UNL d   1      -0.397   3.126  -5.999  0.00  0.00     0.143 A 
ATOM      2  C2  UNL d   1      -1.790   2.997  -5.974  0.00  0.00    -0.057 A 
ATOM      3  C3  UNL d   1      -2.624   4.121  -5.981  0.00  0.00     0.033 A 
ATOM      4  C4  UNL d   1      -2.077   5.400  -5.984  0.00  0.00    -0.042 A 
ATOM      5  C5  UNL d   1      -0.695   5.553  -5.984  0.00  0.00     0.033 A 
ATOM      6  C6  UNL d   1       0.132   4.426  -5.984  0.00  0.00    -0.057 A 
ENDROOT
BRANCH   1   7
ATOM      7  N   UNL d   1       0.486   2.049  -5.894  0.00  0.00    -0.732 N 
ATOM      8  C   UNL d   1       1.915   2.255  -6.000  0.00  0.00     0.284 C 
ATOM      9  H3  UNL d   1       0.213   1.392  -5.167  0.00  0.00     0.395 HD
ENDBRANCH   1   7
TORSDOF 1
ENDMDL
