MODEL 1
REMARK minimizedAffinity -0.950686932
REMARK minimizedRMSD -1
REMARK  1 active torsions:
REMARK  status: ('A' for Active; 'I' for Inactive)
REMARK    1  A    between atoms: N_2  and  C1_3 
ROOT
ATOM      1  C1  UNL d   1      -1.582   4.150  -5.918  0.00  0.00     0.143 A 
ATOM      2  C2  UNL d   1      -1.196   2.806  -5.947  0.00  0.00    -0.057 A 
ATOM      3  C3  UNL d   1       0.155   2.439  -5.972  0.00  0.00     0.033 A 
ATOM      4  C4  UNL d   1       1.146   3.415  -5.999  0.00  0.00    -0.042 A 
ATOM      5  C5  UNL d   1       0.785   4.757  -5.997  0.00  0.00     0.033 A 
ATOM      6  C6  UNL d   1      -0.566   5.117  -5.965  0.00  0.00    -0.057 A 
ENDROOT
BRANCH   1   7
ATOM      7  N   UNL d   1      -2.910   4.579  -5.991  0.00  0.00    -0.732 N 
ATOM      8  C   UNL d   1      -3.236   5.986  -5.897  0.00  0.00     0.284 C 
ATOM      9  H3  UNL d   1      -3.443   4.075  -6.697  0.00  0.00     0.395 HD
ENDBRANCH   1   7
TORSDOF 1
ENDMDL
