MODEL 1
REMARK minimizedAffinity 3.34986043
REMARK minimizedRMSD -1
REMARK  1 active torsions:
REMARK  status: ('A' for Active; 'I' for Inactive)
REMARK    1  A    between atoms: N_2  and  C1_3 
ROOT
ATOM      1  C1  UNL d   1       0.208   3.703  -5.999  0.00  0.00     0.143 A 
ATOM      2  C2  UNL d   1      -1.106   3.235  -5.897  0.00  0.00    -0.057 A 
ATOM      3  C3  UNL d   1      -2.190   4.120  -5.839  0.00  0.00     0.033 A 
ATOM      4  C4  UNL d   1      -1.974   5.495  -5.853  0.00  0.00    -0.042 A 
ATOM      5  C5  UNL d   1      -0.674   5.982  -5.929  0.00  0.00     0.033 A 
ATOM      6  C6  UNL d   1       0.403   5.093  -5.993  0.00  0.00    -0.057 A 
ENDROOT
BRANCH   1   7
ATOM      7  N   UNL d   1       1.333   2.876  -5.961  0.00  0.00    -0.732 N 
ATOM      8  C   UNL d   1       2.665   3.441  -5.996  0.00  0.00     0.284 C 
ATOM      9  H3  UNL d   1       1.226   2.104  -5.307  0.00  0.00     0.395 HD
ENDBRANCH   1   7
TORSDOF 1
ENDMDL
