MODEL 1
REMARK minimizedAffinity -1.46945202
REMARK minimizedRMSD -1
REMARK  1 active torsions:
REMARK  status: ('A' for Active; 'I' for Inactive)
REMARK    1  A    between atoms: N_2  and  C1_3 
ROOT
ATOM      1  C1  UNL d   1      -0.166   2.787  -5.924  0.00  0.00     0.143 A 
ATOM      2  C2  UNL d   1       0.252   4.121  -5.959  0.00  0.00    -0.057 A 
ATOM      3  C3  UNL d   1      -0.674   5.172  -5.981  0.00  0.00     0.033 A 
ATOM      4  C4  UNL d   1      -2.039   4.903  -5.999  0.00  0.00    -0.042 A 
ATOM      5  C5  UNL d   1      -2.476   3.584  -5.990  0.00  0.00     0.033 A 
ATOM      6  C6  UNL d   1      -1.547   2.540  -5.961  0.00  0.00    -0.057 A 
ENDROOT
BRANCH   1   7
ATOM      7  N   UNL d   1       0.705   1.697  -6.000  0.00  0.00    -0.732 N 
ATOM      8  C   UNL d   1       2.138   1.896  -5.985  0.00  0.00     0.284 C 
ATOM      9  H3  UNL d   1       0.389   0.908  -5.441  0.00  0.00     0.395 HD
ENDBRANCH   1   7
TORSDOF 1
ENDMDL
