MODEL 1
REMARK minimizedAffinity -3.05374479
REMARK minimizedRMSD -1
REMARK  1 active torsions:
REMARK  status: ('A' for Active; 'I' for Inactive)
REMARK    1  A    between atoms: N_2  and  C1_3 
ROOT
ATOM      1  C1  UNL d   1      -2.024   3.563  -5.315  0.00  0.00     0.143 A 
ATOM      2  C2  UNL d   1      -1.083   2.585  -5.654  0.00  0.00    -0.057 A 
ATOM      3  C3  UNL d   1       0.235   2.928  -5.980  0.00  0.00     0.033 A 
ATOM      4  C4  UNL d   1       0.628   4.262  -6.000  0.00  0.00    -0.042 A 
ATOM      5  C5  UNL d   1      -0.297   5.253  -5.691  0.00  0.00     0.033 A 
ATOM      6  C6  UNL d   1      -1.610   4.903  -5.360  0.00  0.00    -0.057 A 
ENDROOT
BRANCH   1   7
ATOM      7  N   UNL d   1      -3.374   3.293  -5.078  0.00  0.00    -0.732 N 
ATOM      8  C   UNL d   1      -4.392   3.766  -5.992  0.00  0.00     0.284 C 
ATOM      9  H3  UNL d   1      -3.528   2.346  -4.738  0.00  0.00     0.395 HD
ENDBRANCH   1   7
TORSDOF 1
ENDMDL
