MODEL 1
REMARK minimizedAffinity 4.50143766
REMARK minimizedRMSD -1
REMARK  0 active torsions:
REMARK  status: ('A' for Active; 'I' for Inactive)
ROOT
ATOM      1  N1  IND d   1       1.942  -4.965  -2.009  0.00  0.00    -0.196 N 
ATOM      2  C2  IND d   1       1.525  -4.885  -0.710  0.00  0.00     0.054 A 
ATOM      3  C3  IND d   1       1.999  -3.758  -0.133  0.00  0.00    -0.031 A 
ATOM      4  C4  IND d   1       3.392  -1.854  -1.162  0.00  0.00     0.051 A 
ATOM      5  C5  IND d   1       4.046  -1.496  -2.308  0.00  0.00    -0.031 A 
ATOM      6  C6  IND d   1       4.029  -2.290  -3.436  0.00  0.00     0.015 A 
ATOM      7  C7  IND d   1       3.346  -3.473  -3.464  0.00  0.00    -0.016 A 
ATOM      8  C8  IND d   1       2.686  -3.843  -2.301  0.00  0.00    -0.047 A 
ATOM      9  C9  IND d   1       2.735  -3.062  -1.139  0.00  0.00    -0.096 A 
ATOM     10  HN1 IND d   1       1.769  -5.608  -2.553  0.00  0.00     0.298 HD
ENDROOT
TORSDOF 0
ENDMDL
