MODEL 1
REMARK minimizedAffinity 6.69044065
REMARK minimizedRMSD -1
REMARK  0 active torsions:
REMARK  status: ('A' for Active; 'I' for Inactive)
ROOT
ATOM      1  N1  IND d   1      -1.757   4.720  -2.580  0.00  0.00    -0.196 N 
ATOM      2  C2  IND d   1      -1.505   6.000  -2.173  0.00  0.00     0.054 A 
ATOM      3  C3  IND d   1      -0.769   5.996  -1.039  0.00  0.00    -0.031 A 
ATOM      4  C4  IND d   1       0.217   4.008   0.265  0.00  0.00     0.051 A 
ATOM      5  C5  IND d   1       0.227   2.641   0.300  0.00  0.00    -0.031 A 
ATOM      6  C6  IND d   1      -0.436   1.883  -0.643  0.00  0.00     0.015 A 
ATOM      7  C7  IND d   1      -1.126   2.465  -1.668  0.00  0.00    -0.016 A 
ATOM      8  C8  IND d   1      -1.144   3.852  -1.703  0.00  0.00    -0.047 A 
ATOM      9  C9  IND d   1      -0.509   4.627  -0.725  0.00  0.00    -0.096 A 
ATOM     10  HN1 IND d   1      -2.221   4.494  -3.268  0.00  0.00     0.298 HD
ENDROOT
TORSDOF 0
ENDMDL
