MODEL 1
REMARK minimizedAffinity 16.173811
REMARK minimizedRMSD -1
REMARK  0 active torsions:
REMARK  status: ('A' for Active; 'I' for Inactive)
ROOT
ATOM      1  N1  IND d   1       4.181  -2.057  -3.901  0.00  0.00    -0.196 N 
ATOM      2  C2  IND d   1       3.537  -1.310  -2.954  0.00  0.00     0.054 A 
ATOM      3  C3  IND d   1       3.121  -2.098  -1.937  0.00  0.00    -0.031 A 
ATOM      4  C4  IND d   1       3.478  -4.621  -1.571  0.00  0.00     0.051 A 
ATOM      5  C5  IND d   1       3.977  -5.738  -2.181  0.00  0.00    -0.031 A 
ATOM      6  C6  IND d   1       4.584  -5.683  -3.419  0.00  0.00     0.015 A 
ATOM      7  C7  IND d   1       4.726  -4.502  -4.091  0.00  0.00    -0.016 A 
ATOM      8  C8  IND d   1       4.214  -3.368  -3.478  0.00  0.00    -0.047 A 
ATOM      9  C9  IND d   1       3.559  -3.424  -2.241  0.00  0.00    -0.096 A 
ATOM     10  HN1 IND d   1       4.509  -1.758  -4.637  0.00  0.00     0.298 HD
ENDROOT
TORSDOF 0
ENDMDL
