MODEL 1
REMARK minimizedAffinity 1.86174917
REMARK minimizedRMSD -1
REMARK  0 active torsions:
REMARK  status: ('A' for Active; 'I' for Inactive)
ROOT
ATOM      1  N1  IND d   1       4.274  -2.000  -2.135  0.00  0.00    -0.196 N 
ATOM      2  C2  IND d   1       3.733  -1.926  -3.388  0.00  0.00     0.054 A 
ATOM      3  C3  IND d   1       3.702  -3.151  -3.960  0.00  0.00    -0.031 A 
ATOM      4  C4  IND d   1       4.392  -5.430  -2.983  0.00  0.00     0.051 A 
ATOM      5  C5  IND d   1       4.977  -6.000  -1.887  0.00  0.00    -0.031 A 
ATOM      6  C6  IND d   1       5.362  -5.251  -0.794  0.00  0.00     0.015 A 
ATOM      7  C7  IND d   1       5.166  -3.899  -0.752  0.00  0.00    -0.016 A 
ATOM      8  C8  IND d   1       4.579  -3.317  -1.866  0.00  0.00    -0.047 A 
ATOM      9  C9  IND d   1       4.225  -4.066  -2.996  0.00  0.00    -0.096 A 
ATOM     10  HN1 IND d   1       4.402  -1.336  -1.604  0.00  0.00     0.298 HD
ENDROOT
TORSDOF 0
ENDMDL
