MODEL 1
REMARK minimizedAffinity 7.26909399
REMARK minimizedRMSD -1
REMARK  0 active torsions:
REMARK  status: ('A' for Active; 'I' for Inactive)
ROOT
ATOM      1  N1  IND d   1       4.445  -3.374  -2.258  0.00  0.00    -0.196 N 
ATOM      2  C2  IND d   1       4.533  -2.612  -1.127  0.00  0.00     0.054 A 
ATOM      3  C3  IND d   1       3.581  -2.978  -0.239  0.00  0.00    -0.031 A 
ATOM      4  C4  IND d   1       1.842  -4.869  -0.392  0.00  0.00     0.051 A 
ATOM      5  C5  IND d   1       1.351  -5.814  -1.249  0.00  0.00    -0.031 A 
ATOM      6  C6  IND d   1       1.879  -6.000  -2.510  0.00  0.00     0.015 A 
ATOM      7  C7  IND d   1       2.930  -5.251  -2.959  0.00  0.00    -0.016 A 
ATOM      8  C8  IND d   1       3.426  -4.286  -2.095  0.00  0.00    -0.047 A 
ATOM      9  C9  IND d   1       2.867  -4.064  -0.830  0.00  0.00    -0.096 A 
ATOM     10  HN1 IND d   1       4.943  -3.296  -2.955  0.00  0.00     0.298 HD
ENDROOT
TORSDOF 0
ENDMDL
