MODEL 1
REMARK minimizedAffinity 2.96583486
REMARK minimizedRMSD -1
REMARK  0 active torsions:
REMARK  status: ('A' for Active; 'I' for Inactive)
ROOT
ATOM      1  N1  IND d   1       5.383  -2.794  -1.066  0.00  0.00    -0.196 N 
ATOM      2  C2  IND d   1       4.736  -1.817  -0.363  0.00  0.00     0.054 A 
ATOM      3  C3  IND d   1       3.437  -2.146  -0.186  0.00  0.00    -0.031 A 
ATOM      4  C4  IND d   1       2.183  -4.284  -0.879  0.00  0.00     0.051 A 
ATOM      5  C5  IND d   1       2.342  -5.448  -1.577  0.00  0.00    -0.031 A 
ATOM      6  C6  IND d   1       3.549  -5.796  -2.150  0.00  0.00     0.015 A 
ATOM      7  C7  IND d   1       4.649  -4.993  -2.035  0.00  0.00    -0.016 A 
ATOM      8  C8  IND d   1       4.488  -3.807  -1.333  0.00  0.00    -0.047 A 
ATOM      9  C9  IND d   1       3.255  -3.429  -0.787  0.00  0.00    -0.096 A 
ATOM     10  HN1 IND d   1       6.210  -2.779  -1.303  0.00  0.00     0.298 HD
ENDROOT
TORSDOF 0
ENDMDL
