MODEL 1
REMARK minimizedAffinity 5.32296324
REMARK minimizedRMSD -1
REMARK  0 active torsions:
REMARK  status: ('A' for Active; 'I' for Inactive)
ROOT
ATOM      1  N1  IND d   1       3.552  -2.191  -3.566  0.00  0.00    -0.196 N 
ATOM      2  C2  IND d   1       3.396  -1.511  -2.391  0.00  0.00     0.054 A 
ATOM      3  C3  IND d   1       3.663  -2.320  -1.341  0.00  0.00    -0.031 A 
ATOM      4  C4  IND d   1       4.471  -4.764  -1.323  0.00  0.00     0.051 A 
ATOM      5  C5  IND d   1       4.724  -5.821  -2.152  0.00  0.00    -0.031 A 
ATOM      6  C6  IND d   1       4.599  -5.719  -3.522  0.00  0.00     0.015 A 
ATOM      7  C7  IND d   1       4.226  -4.548  -4.118  0.00  0.00    -0.016 A 
ATOM      8  C8  IND d   1       3.961  -3.474  -3.280  0.00  0.00    -0.047 A 
ATOM      9  C9  IND d   1       4.045  -3.584  -1.886  0.00  0.00    -0.096 A 
ATOM     10  HN1 IND d   1       3.416  -1.870  -4.353  0.00  0.00     0.298 HD
ENDROOT
TORSDOF 0
ENDMDL
