MODEL 1
REMARK minimizedAffinity 4.42904472
REMARK minimizedRMSD -1
REMARK  0 active torsions:
REMARK  status: ('A' for Active; 'I' for Inactive)
ROOT
ATOM      1  N1  IND d   1      -1.648   4.126  -2.258  0.00  0.00    -0.196 N 
ATOM      2  C2  IND d   1      -0.616   4.354  -1.392  0.00  0.00     0.054 A 
ATOM      3  C3  IND d   1      -0.385   3.257  -0.637  0.00  0.00    -0.031 A 
ATOM      4  C4  IND d   1      -1.511   0.943  -0.726  0.00  0.00     0.051 A 
ATOM      5  C5  IND d   1      -2.531   0.265  -1.330  0.00  0.00    -0.031 A 
ATOM      6  C6  IND d   1      -3.325   0.849  -2.296  0.00  0.00     0.015 A 
ATOM      7  C7  IND d   1      -3.118   2.137  -2.704  0.00  0.00    -0.016 A 
ATOM      8  C8  IND d   1      -2.087   2.831  -2.087  0.00  0.00    -0.047 A 
ATOM      9  C9  IND d   1      -1.306   2.257  -1.076  0.00  0.00    -0.096 A 
ATOM     10  HN1 IND d   1      -1.970   4.696  -2.817  0.00  0.00     0.298 HD
ENDROOT
TORSDOF 0
ENDMDL
