MODEL 1
REMARK minimizedAffinity 0.126879394
REMARK minimizedRMSD -1
REMARK  0 active torsions:
REMARK  status: ('A' for Active; 'I' for Inactive)
ROOT
ATOM      1  N1  IND d   1       4.873  -5.539  -2.811  0.00  0.00    -0.196 N 
ATOM      2  C2  IND d   1       3.947  -5.387  -3.805  0.00  0.00     0.054 A 
ATOM      3  C3  IND d   1       3.220  -4.265  -3.602  0.00  0.00    -0.031 A 
ATOM      4  C4  IND d   1       3.446  -2.479  -1.762  0.00  0.00     0.051 A 
ATOM      5  C5  IND d   1       4.126  -2.201  -0.609  0.00  0.00    -0.031 A 
ATOM      6  C6  IND d   1       5.111  -3.036  -0.123  0.00  0.00     0.015 A 
ATOM      7  C7  IND d   1       5.463  -4.180  -0.781  0.00  0.00    -0.016 A 
ATOM      8  C8  IND d   1       4.770  -4.470  -1.948  0.00  0.00    -0.047 A 
ATOM      9  C9  IND d   1       3.740  -3.648  -2.423  0.00  0.00    -0.096 A 
ATOM     10  HN1 IND d   1       5.428  -6.192  -2.738  0.00  0.00     0.298 HD
ENDROOT
TORSDOF 0
ENDMDL
