MODEL 1
REMARK minimizedAffinity -0.798433006
REMARK minimizedRMSD -1
REMARK  0 active torsions:
REMARK  status: ('A' for Active; 'I' for Inactive)
ROOT
ATOM      1  C   UNL d   1      -1.072   0.899   2.228  0.00  0.00     0.023 A 
ATOM      2  C1  UNL d   1      -0.921  -0.487   2.273  0.00  0.00     0.003 A 
ATOM      3  C2  UNL d   1      -0.366  -1.166   1.186  0.00  0.00     0.048 A 
ATOM      4  C3  UNL d   1       0.037  -0.452   0.058  0.00  0.00     0.023 A 
ATOM      5  C4  UNL d   1      -0.111   0.935   0.009  0.00  0.00     0.048 A 
ATOM      6  C5  UNL d   1      -0.668   1.609   1.097  0.00  0.00     0.003 A 
ATOM      7  I   UNL d   1       0.864  -1.460  -1.561  0.00  0.00    -0.146 I 
ENDROOT
TORSDOF 0
ENDMDL
