MODEL 1
REMARK minimizedAffinity -5.5935173
REMARK minimizedRMSD -1
REMARK  0 active torsions:
REMARK  status: ('A' for Active; 'I' for Inactive)
ROOT
ATOM      1  C   UNL d   1      -2.213   3.093   0.516  0.00  0.00     0.023 A 
ATOM      2  C1  UNL d   1      -1.413   3.232  -0.618  0.00  0.00     0.003 A 
ATOM      3  C2  UNL d   1      -0.551   2.201  -0.998  0.00  0.00     0.048 A 
ATOM      4  C3  UNL d   1      -0.495   1.032  -0.240  0.00  0.00     0.023 A 
ATOM      5  C4  UNL d   1      -1.295   0.888   0.895  0.00  0.00     0.048 A 
ATOM      6  C5  UNL d   1      -2.154   1.922   1.272  0.00  0.00     0.003 A 
ATOM      7  I   UNL d   1       0.786  -0.504  -0.804  0.00  0.00    -0.146 I 
ENDROOT
TORSDOF 0
ENDMDL
