MODEL 1
REMARK minimizedAffinity -5.55147505
REMARK minimizedRMSD -1
REMARK  0 active torsions:
REMARK  status: ('A' for Active; 'I' for Inactive)
ROOT
ATOM      1  C   UNL d   1      -2.117   2.924   1.189  0.00  0.00     0.023 A 
ATOM      2  C1  UNL d   1      -1.670   3.350  -0.062  0.00  0.00     0.003 A 
ATOM      3  C2  UNL d   1      -0.894   2.501  -0.854  0.00  0.00     0.048 A 
ATOM      4  C3  UNL d   1      -0.570   1.227  -0.389  0.00  0.00     0.023 A 
ATOM      5  C4  UNL d   1      -1.015   0.796   0.861  0.00  0.00     0.048 A 
ATOM      6  C5  UNL d   1      -1.790   1.649   1.650  0.00  0.00     0.003 A 
ATOM      7  I   UNL d   1       0.585  -0.038  -1.566  0.00  0.00    -0.146 I 
ENDROOT
TORSDOF 0
ENDMDL
