MODEL 1
REMARK minimizedAffinity -5.0289011
REMARK minimizedRMSD -1
REMARK  0 active torsions:
REMARK  status: ('A' for Active; 'I' for Inactive)
ROOT
ATOM      1  C   UNL d   1      -0.811   2.291  -0.041  0.00  0.00     0.023 A 
ATOM      2  C1  UNL d   1       0.002   2.405  -1.169  0.00  0.00     0.003 A 
ATOM      3  C2  UNL d   1       0.526   1.260  -1.772  0.00  0.00     0.048 A 
ATOM      4  C3  UNL d   1       0.232   0.004  -1.243  0.00  0.00     0.023 A 
ATOM      5  C4  UNL d   1      -0.582  -0.116  -0.115  0.00  0.00     0.048 A 
ATOM      6  C5  UNL d   1      -1.103   1.032   0.485  0.00  0.00     0.003 A 
ATOM      7  I   UNL d   1       1.011  -1.702  -2.139  0.00  0.00    -0.146 I 
ENDROOT
TORSDOF 0
ENDMDL
