MODEL 1
REMARK minimizedAffinity -4.43642187
REMARK minimizedRMSD -1
REMARK  0 active torsions:
REMARK  status: ('A' for Active; 'I' for Inactive)
ROOT
ATOM      1  C   UNL d   1      -1.963   2.692   0.952  0.00  0.00     0.023 A 
ATOM      2  C1  UNL d   1      -2.230   1.365   1.287  0.00  0.00     0.003 A 
ATOM      3  C2  UNL d   1      -1.540   0.331   0.651  0.00  0.00     0.048 A 
ATOM      4  C3  UNL d   1      -0.583   0.631  -0.317  0.00  0.00     0.023 A 
ATOM      5  C4  UNL d   1      -0.312   1.958  -0.655  0.00  0.00     0.048 A 
ATOM      6  C5  UNL d   1      -1.006   2.989  -0.018  0.00  0.00     0.003 A 
ATOM      7  I   UNL d   1       0.446  -0.907  -1.265  0.00  0.00    -0.146 I 
ENDROOT
TORSDOF 0
ENDMDL
