MODEL 1
REMARK minimizedAffinity -4.61935806
REMARK minimizedRMSD -1
REMARK  0 active torsions:
REMARK  status: ('A' for Active; 'I' for Inactive)
ROOT
ATOM      1  C   UNL d   1      -1.920   3.193   0.112  0.00  0.00     0.023 A 
ATOM      2  C1  UNL d   1      -2.105   2.001   0.812  0.00  0.00     0.003 A 
ATOM      3  C2  UNL d   1      -1.222   0.936   0.625  0.00  0.00     0.048 A 
ATOM      4  C3  UNL d   1      -0.155   1.070  -0.263  0.00  0.00     0.023 A 
ATOM      5  C4  UNL d   1       0.035   2.261  -0.964  0.00  0.00     0.048 A 
ATOM      6  C5  UNL d   1      -0.851   3.323  -0.775  0.00  0.00     0.003 A 
ATOM      7  I   UNL d   1       1.161  -0.515  -0.542  0.00  0.00    -0.146 I 
ENDROOT
TORSDOF 0
ENDMDL
