MODEL 1
REMARK minimizedAffinity 0.352421701
REMARK minimizedRMSD -1
REMARK  0 active torsions:
REMARK  status: ('A' for Active; 'I' for Inactive)
ROOT
ATOM      1  C   UNL d   1      -0.849  -0.419   2.169  0.00  0.00     0.023 A 
ATOM      2  C1  UNL d   1      -0.252  -0.993   1.047  0.00  0.00     0.003 A 
ATOM      3  C2  UNL d   1       0.132  -0.191  -0.030  0.00  0.00     0.048 A 
ATOM      4  C3  UNL d   1      -0.084   1.186   0.023  0.00  0.00     0.023 A 
ATOM      5  C4  UNL d   1      -0.680   1.765   1.144  0.00  0.00     0.048 A 
ATOM      6  C5  UNL d   1      -1.063   0.959   2.217  0.00  0.00     0.003 A 
ATOM      7  I   UNL d   1       0.487   2.382  -1.578  0.00  0.00    -0.146 I 
ENDROOT
TORSDOF 0
ENDMDL
