MODEL 1
REMARK minimizedAffinity -1.97130346
REMARK minimizedRMSD -1
REMARK  0 active torsions:
REMARK  status: ('A' for Active; 'I' for Inactive)
ROOT
ATOM      1  C   UNL d   1       0.222   0.744  -0.721  0.00  0.00     0.023 A 
ATOM      2  C1  UNL d   1      -0.405   0.201   0.401  0.00  0.00     0.003 A 
ATOM      3  C2  UNL d   1      -1.055   1.036   1.311  0.00  0.00     0.048 A 
ATOM      4  C3  UNL d   1      -1.077   2.413   1.093  0.00  0.00     0.023 A 
ATOM      5  C4  UNL d   1      -0.452   2.961  -0.029  0.00  0.00     0.048 A 
ATOM      6  C5  UNL d   1       0.198   2.122  -0.936  0.00  0.00     0.003 A 
ATOM      7  I   UNL d   1      -2.045   3.658   2.447  0.00  0.00    -0.146 I 
ENDROOT
TORSDOF 0
ENDMDL
