MODEL 1
REMARK minimizedAffinity -4.04391813
REMARK minimizedRMSD -1
REMARK  0 active torsions:
REMARK  status: ('A' for Active; 'I' for Inactive)
ROOT
ATOM      1  C   UNL d   1      -2.240   2.514   1.133  0.00  0.00     0.023 A 
ATOM      2  C1  UNL d   1      -1.958   2.513  -0.233  0.00  0.00     0.003 A 
ATOM      3  C2  UNL d   1      -1.168   1.502  -0.783  0.00  0.00     0.048 A 
ATOM      4  C3  UNL d   1      -0.664   0.494   0.038  0.00  0.00     0.023 A 
ATOM      5  C4  UNL d   1      -0.944   0.490   1.405  0.00  0.00     0.048 A 
ATOM      6  C5  UNL d   1      -1.734   1.504   1.951  0.00  0.00     0.003 A 
ATOM      7  I   UNL d   1       0.512  -1.012  -0.780  0.00  0.00    -0.146 I 
ENDROOT
TORSDOF 0
ENDMDL
