MODEL 1
REMARK minimizedAffinity -4.82887888
REMARK minimizedRMSD -1
REMARK  0 active torsions:
REMARK  status: ('A' for Active; 'I' for Inactive)
ROOT
ATOM      1  C   UNL d   1      -1.856   3.995   0.684  0.00  0.00     0.023 A 
ATOM      2  C1  UNL d   1      -0.764   3.769  -0.154  0.00  0.00     0.003 A 
ATOM      3  C2  UNL d   1      -0.246   2.480  -0.296  0.00  0.00     0.048 A 
ATOM      4  C3  UNL d   1      -0.825   1.421   0.403  0.00  0.00     0.023 A 
ATOM      5  C4  UNL d   1      -1.919   1.643   1.242  0.00  0.00     0.048 A 
ATOM      6  C5  UNL d   1      -2.433   2.933   1.381  0.00  0.00     0.003 A 
ATOM      7  I   UNL d   1      -0.056  -0.498   0.194  0.00  0.00    -0.146 I 
ENDROOT
TORSDOF 0
ENDMDL
