MODEL 1
REMARK minimizedAffinity -5.33976078
REMARK minimizedRMSD -1
REMARK  0 active torsions:
REMARK  status: ('A' for Active; 'I' for Inactive)
ROOT
ATOM      1  C   UNL d   1      -1.645   3.894   0.385  0.00  0.00     0.023 A 
ATOM      2  C1  UNL d   1      -2.026   2.870   1.251  0.00  0.00     0.003 A 
ATOM      3  C2  UNL d   1      -1.436   1.609   1.147  0.00  0.00     0.048 A 
ATOM      4  C3  UNL d   1      -0.464   1.379   0.174  0.00  0.00     0.023 A 
ATOM      5  C4  UNL d   1      -0.078   2.401  -0.695  0.00  0.00     0.048 A 
ATOM      6  C5  UNL d   1      -0.672   3.660  -0.587  0.00  0.00     0.003 A 
ATOM      7  I   UNL d   1       0.417  -0.497   0.016  0.00  0.00    -0.146 I 
ENDROOT
TORSDOF 0
ENDMDL
