MODEL 1
REMARK minimizedAffinity -4.83408546
REMARK minimizedRMSD -1
REMARK  0 active torsions:
REMARK  status: ('A' for Active; 'I' for Inactive)
ROOT
ATOM      1  C   UNL d   1      -1.775   2.370   0.847  0.00  0.00     0.023 A 
ATOM      2  C1  UNL d   1      -1.540   1.174   1.526  0.00  0.00     0.003 A 
ATOM      3  C2  UNL d   1      -0.705   0.205   0.968  0.00  0.00     0.048 A 
ATOM      4  C3  UNL d   1      -0.106   0.438  -0.269  0.00  0.00     0.023 A 
ATOM      5  C4  UNL d   1      -0.337   1.633  -0.953  0.00  0.00     0.048 A 
ATOM      6  C5  UNL d   1      -1.174   2.599  -0.391  0.00  0.00     0.003 A 
ATOM      7  I   UNL d   1       1.138  -1.004  -1.102  0.00  0.00    -0.146 I 
ENDROOT
TORSDOF 0
ENDMDL
