MODEL 1
REMARK minimizedAffinity -3.7269733
REMARK minimizedRMSD -1
REMARK  0 active torsions:
REMARK  status: ('A' for Active; 'I' for Inactive)
ROOT
ATOM      1  C   UNL d   1      -1.084  -0.319   1.230  0.00  0.00     0.023 A 
ATOM      2  C1  UNL d   1      -1.690   0.786   1.827  0.00  0.00     0.003 A 
ATOM      3  C2  UNL d   1      -1.443   2.070   1.336  0.00  0.00     0.048 A 
ATOM      4  C3  UNL d   1      -0.590   2.241   0.246  0.00  0.00     0.023 A 
ATOM      5  C4  UNL d   1       0.017   1.137  -0.356  0.00  0.00     0.048 A 
ATOM      6  C5  UNL d   1      -0.232  -0.144   0.140  0.00  0.00     0.003 A 
ATOM      7  I   UNL d   1      -0.221   4.150  -0.488  0.00  0.00    -0.146 I 
ENDROOT
TORSDOF 0
ENDMDL
