MODEL 1
REMARK minimizedAffinity -4.35081244
REMARK minimizedRMSD -1
REMARK  0 active torsions:
REMARK  status: ('A' for Active; 'I' for Inactive)
ROOT
ATOM      1  C   UNL d   1      -1.769   3.537   0.653  0.00  0.00     0.023 A 
ATOM      2  C1  UNL d   1      -1.986   2.390   1.417  0.00  0.00     0.003 A 
ATOM      3  C2  UNL d   1      -1.301   1.211   1.118  0.00  0.00     0.048 A 
ATOM      4  C3  UNL d   1      -0.400   1.185   0.054  0.00  0.00     0.023 A 
ATOM      5  C4  UNL d   1      -0.179   2.330  -0.712  0.00  0.00     0.048 A 
ATOM      6  C5  UNL d   1      -0.867   3.507  -0.410  0.00  0.00     0.003 A 
ATOM      7  I   UNL d   1       0.620  -0.570  -0.392  0.00  0.00    -0.146 I 
ENDROOT
TORSDOF 0
ENDMDL
