MODEL 1
REMARK minimizedAffinity -3.74571276
REMARK minimizedRMSD -1
REMARK  0 active torsions:
REMARK  status: ('A' for Active; 'I' for Inactive)
ROOT
ATOM      1  C   UNL d   1      -0.704   2.792   1.192  0.00  0.00     0.023 A 
ATOM      2  C1  UNL d   1      -0.061   2.836  -0.045  0.00  0.00     0.003 A 
ATOM      3  C2  UNL d   1       0.424   1.661  -0.623  0.00  0.00     0.048 A 
ATOM      4  C3  UNL d   1       0.263   0.446   0.041  0.00  0.00     0.023 A 
ATOM      5  C4  UNL d   1      -0.381   0.397   1.278  0.00  0.00     0.048 A 
ATOM      6  C5  UNL d   1      -0.864   1.574   1.853  0.00  0.00     0.003 A 
ATOM      7  I   UNL d   1       0.985  -1.304  -0.818  0.00  0.00    -0.146 I 
ENDROOT
TORSDOF 0
ENDMDL
