MODEL 1
REMARK minimizedAffinity -2.96837783
REMARK minimizedRMSD -1
REMARK  2 active torsions:
REMARK  status: ('A' for Active; 'I' for Inactive)
REMARK    1  A    between atoms: C1_2  and  C2_3 
REMARK    2  A    between atoms: C2_3  and  C3_4 
ROOT
ATOM      1  C3  UNL d   1       5.244   2.309  -0.629  0.00  0.00    -0.075 A 
ATOM      2  C4  UNL d   1       5.626   2.396   0.718  0.00  0.00     0.002 A 
ATOM      3  C5  UNL d   1       5.988   3.623   1.273  0.00  0.00     0.002 A 
ATOM      4  C6  UNL d   1       5.983   4.775   0.489  0.00  0.00    -0.004 A 
ATOM      5  C7  UNL d   1       5.621   4.697  -0.854  0.00  0.00     0.002 A 
ATOM      6  C8  UNL d   1       5.254   3.471  -1.411  0.00  0.00     0.002 A 
ENDROOT
BRANCH   1   7
ATOM      7  C2  UNL d   1       4.823   0.989  -1.229  0.00  0.00     0.056 C 
BRANCH   7   8
ATOM      8  C1  UNL d   1       3.554   0.397  -0.606  0.00  0.00     0.007 C 
ATOM      9  C   UNL d   1       3.683  -1.084  -0.274  0.00  0.00     0.009 C 
ENDBRANCH   7   8
ENDBRANCH   1   7
TORSDOF 2
ENDMDL
