MODEL 1
REMARK minimizedAffinity 0.713618577
REMARK minimizedRMSD -1
REMARK  2 active torsions:
REMARK  status: ('A' for Active; 'I' for Inactive)
REMARK    1  A    between atoms: C1_2  and  C2_3 
REMARK    2  A    between atoms: C2_3  and  C3_4 
ROOT
ATOM      1  C3  UNL d   1      -1.652   3.458   1.085  0.00  0.00    -0.075 A 
ATOM      2  C4  UNL d   1      -1.069   4.541   1.757  0.00  0.00     0.002 A 
ATOM      3  C5  UNL d   1      -1.816   5.301   2.658  0.00  0.00     0.002 A 
ATOM      4  C6  UNL d   1      -3.155   4.994   2.889  0.00  0.00    -0.004 A 
ATOM      5  C7  UNL d   1      -3.749   3.930   2.214  0.00  0.00     0.002 A 
ATOM      6  C8  UNL d   1      -3.003   3.166   1.315  0.00  0.00     0.002 A 
ENDROOT
BRANCH   1   7
ATOM      7  C2  UNL d   1      -0.840   2.613   0.131  0.00  0.00     0.056 C 
BRANCH   7   8
ATOM      8  C1  UNL d   1      -0.059   1.483   0.809  0.00  0.00     0.007 C 
ATOM      9  C   UNL d   1       1.169   1.045   0.022  0.00  0.00     0.009 C 
ENDBRANCH   7   8
ENDBRANCH   1   7
TORSDOF 2
ENDMDL
