MODEL 1
REMARK minimizedAffinity 4.60156107
REMARK minimizedRMSD -1
REMARK  2 active torsions:
REMARK  status: ('A' for Active; 'I' for Inactive)
REMARK    1  A    between atoms: C1_2  and  C2_3 
REMARK    2  A    between atoms: C2_3  and  C3_4 
ROOT
ATOM      1  C3  UNL d   1       3.818  -0.040  -1.162  0.00  0.00    -0.075 A 
ATOM      2  C4  UNL d   1       3.796   1.090  -0.332  0.00  0.00     0.002 A 
ATOM      3  C5  UNL d   1       4.847   2.008  -0.357  0.00  0.00     0.002 A 
ATOM      4  C6  UNL d   1       5.935   1.803  -1.202  0.00  0.00    -0.004 A 
ATOM      5  C7  UNL d   1       5.975   0.675  -2.019  0.00  0.00     0.002 A 
ATOM      6  C8  UNL d   1       4.923  -0.243  -1.999  0.00  0.00     0.002 A 
ENDROOT
BRANCH   1   7
ATOM      7  C2  UNL d   1       2.670  -1.021  -1.161  0.00  0.00     0.056 C 
BRANCH   7   8
ATOM      8  C1  UNL d   1       3.020  -2.389  -0.565  0.00  0.00     0.007 C 
ATOM      9  C   UNL d   1       1.937  -3.436  -0.790  0.00  0.00     0.009 C 
ENDBRANCH   7   8
ENDBRANCH   1   7
TORSDOF 2
ENDMDL
