MODEL 1
REMARK minimizedAffinity 5.32981157
REMARK minimizedRMSD -1
REMARK  2 active torsions:
REMARK  status: ('A' for Active; 'I' for Inactive)
REMARK    1  A    between atoms: C1_2  and  C2_3 
REMARK    2  A    between atoms: C2_3  and  C3_4 
ROOT
ATOM      1  C3  UNL d   1       5.138   3.378  -0.962  0.00  0.00    -0.075 A 
ATOM      2  C4  UNL d   1       5.491   4.415  -1.839  0.00  0.00     0.002 A 
ATOM      3  C5  UNL d   1       5.890   5.657  -1.343  0.00  0.00     0.002 A 
ATOM      4  C6  UNL d   1       5.930   5.881   0.031  0.00  0.00    -0.004 A 
ATOM      5  C7  UNL d   1       5.566   4.864   0.911  0.00  0.00     0.002 A 
ATOM      6  C8  UNL d   1       5.171   3.619   0.418  0.00  0.00     0.002 A 
ENDROOT
BRANCH   1   7
ATOM      7  C2  UNL d   1       4.735   2.023  -1.491  0.00  0.00     0.056 C 
BRANCH   7   8
ATOM      8  C1  UNL d   1       4.444   0.988  -0.399  0.00  0.00     0.007 C 
ATOM      9  C   UNL d   1       3.223   0.128  -0.696  0.00  0.00     0.009 C 
ENDBRANCH   7   8
ENDBRANCH   1   7
TORSDOF 2
ENDMDL
