MODEL 1
REMARK minimizedAffinity 9.17409706
REMARK minimizedRMSD -1
REMARK  2 active torsions:
REMARK  status: ('A' for Active; 'I' for Inactive)
REMARK    1  A    between atoms: C1_2  and  C2_3 
REMARK    2  A    between atoms: C2_3  and  C3_4 
ROOT
ATOM      1  C3  UNL d   1      -5.665   3.123   3.706  0.00  0.00    -0.075 A 
ATOM      2  C4  UNL d   1      -5.662   4.460   3.280  0.00  0.00     0.002 A 
ATOM      3  C5  UNL d   1      -5.812   5.497   4.201  0.00  0.00     0.002 A 
ATOM      4  C6  UNL d   1      -5.978   5.212   5.555  0.00  0.00    -0.004 A 
ATOM      5  C7  UNL d   1      -6.000   3.888   5.987  0.00  0.00     0.002 A 
ATOM      6  C8  UNL d   1      -5.845   2.848   5.068  0.00  0.00     0.002 A 
ENDROOT
BRANCH   1   7
ATOM      7  C2  UNL d   1      -5.474   1.997   2.719  0.00  0.00     0.056 C 
BRANCH   7   8
ATOM      8  C1  UNL d   1      -4.193   2.110   1.885  0.00  0.00     0.007 C 
ATOM      9  C   UNL d   1      -4.142   1.123   0.727  0.00  0.00     0.009 C 
ENDBRANCH   7   8
ENDBRANCH   1   7
TORSDOF 2
ENDMDL
