MODEL 1
REMARK minimizedAffinity 8.80205631
REMARK minimizedRMSD -1
REMARK  2 active torsions:
REMARK  status: ('A' for Active; 'I' for Inactive)
REMARK    1  A    between atoms: C1_2  and  C2_3 
REMARK    2  A    between atoms: C2_3  and  C3_4 
ROOT
ATOM      1  C3  UNL d   1      -4.555   1.016  -3.351  0.00  0.00    -0.075 A 
ATOM      2  C4  UNL d   1      -4.498   1.754  -4.543  0.00  0.00     0.002 A 
ATOM      3  C5  UNL d   1      -3.511   1.490  -5.493  0.00  0.00     0.002 A 
ATOM      4  C6  UNL d   1      -2.564   0.496  -5.260  0.00  0.00    -0.004 A 
ATOM      5  C7  UNL d   1      -2.601  -0.232  -4.073  0.00  0.00     0.002 A 
ATOM      6  C8  UNL d   1      -3.590   0.026  -3.122  0.00  0.00     0.002 A 
ENDROOT
BRANCH   1   7
ATOM      7  C2  UNL d   1      -5.639   1.277  -2.332  0.00  0.00     0.056 C 
BRANCH   7   8
ATOM      8  C1  UNL d   1      -6.000   0.056  -1.480  0.00  0.00     0.007 C 
ATOM      9  C   UNL d   1      -5.995   0.345   0.015  0.00  0.00     0.009 C 
ENDBRANCH   7   8
ENDBRANCH   1   7
TORSDOF 2
ENDMDL
