MODEL 1
REMARK minimizedAffinity 1.80034375
REMARK minimizedRMSD -1
REMARK  2 active torsions:
REMARK  status: ('A' for Active; 'I' for Inactive)
REMARK    1  A    between atoms: C1_2  and  C2_3 
REMARK    2  A    between atoms: C2_3  and  C3_4 
ROOT
ATOM      1  C3  UNL d   1       0.839  -3.828   4.311  0.00  0.00    -0.075 A 
ATOM      2  C4  UNL d   1       1.762  -4.874   4.454  0.00  0.00     0.002 A 
ATOM      3  C5  UNL d   1       1.483  -5.955   5.290  0.00  0.00     0.002 A 
ATOM      4  C6  UNL d   1       0.285  -6.000   6.000  0.00  0.00    -0.004 A 
ATOM      5  C7  UNL d   1      -0.632  -4.958   5.878  0.00  0.00     0.002 A 
ATOM      6  C8  UNL d   1      -0.357  -3.877   5.039  0.00  0.00     0.002 A 
ENDROOT
BRANCH   1   7
ATOM      7  C2  UNL d   1       1.122  -2.669   3.385  0.00  0.00     0.056 C 
BRANCH   7   8
ATOM      8  C1  UNL d   1       0.366  -1.385   3.744  0.00  0.00     0.007 C 
ATOM      9  C   UNL d   1       1.288  -0.227   4.105  0.00  0.00     0.009 C 
ENDBRANCH   7   8
ENDBRANCH   1   7
TORSDOF 2
ENDMDL
