MODEL 1
REMARK minimizedAffinity 4.46372461
REMARK minimizedRMSD -1
REMARK  2 active torsions:
REMARK  status: ('A' for Active; 'I' for Inactive)
REMARK    1  A    between atoms: C1_2  and  C2_3 
REMARK    2  A    between atoms: C2_3  and  C3_4 
ROOT
ATOM      1  C3  UNL d   1       1.789  -2.389  -1.296  0.00  0.00    -0.075 A 
ATOM      2  C4  UNL d   1       2.166  -1.127  -1.778  0.00  0.00     0.002 A 
ATOM      3  C5  UNL d   1       3.189  -0.408  -1.157  0.00  0.00     0.002 A 
ATOM      4  C6  UNL d   1       3.839  -0.936  -0.044  0.00  0.00    -0.004 A 
ATOM      5  C7  UNL d   1       3.461  -2.182   0.453  0.00  0.00     0.002 A 
ATOM      6  C8  UNL d   1       2.442  -2.905  -0.168  0.00  0.00     0.002 A 
ENDROOT
BRANCH   1   7
ATOM      7  C2  UNL d   1       0.704  -3.185  -1.981  0.00  0.00     0.056 C 
BRANCH   7   8
ATOM      8  C1  UNL d   1       0.136  -4.326  -1.130  0.00  0.00     0.007 C 
ATOM      9  C   UNL d   1      -1.292  -4.701  -1.504  0.00  0.00     0.009 C 
ENDBRANCH   7   8
ENDBRANCH   1   7
TORSDOF 2
ENDMDL
