MODEL 1
REMARK minimizedAffinity 12.7203388
REMARK minimizedRMSD -1
REMARK  2 active torsions:
REMARK  status: ('A' for Active; 'I' for Inactive)
REMARK    1  A    between atoms: C1_2  and  C2_3 
REMARK    2  A    between atoms: C2_3  and  C3_4 
ROOT
ATOM      1  C3  UNL d   1      -2.558  -0.390  -4.083  0.00  0.00    -0.075 A 
ATOM      2  C4  UNL d   1      -1.789   0.284  -5.043  0.00  0.00     0.002 A 
ATOM      3  C5  UNL d   1      -2.401   1.107  -5.990  0.00  0.00     0.002 A 
ATOM      4  C6  UNL d   1      -3.785   1.258  -5.996  0.00  0.00    -0.004 A 
ATOM      5  C7  UNL d   1      -4.560   0.580  -5.057  0.00  0.00     0.002 A 
ATOM      6  C8  UNL d   1      -3.951  -0.240  -4.105  0.00  0.00     0.002 A 
ENDROOT
BRANCH   1   7
ATOM      7  C2  UNL d   1      -1.899  -1.258  -3.037  0.00  0.00     0.056 C 
BRANCH   7   8
ATOM      8  C1  UNL d   1      -2.875  -2.150  -2.263  0.00  0.00     0.007 C 
ATOM      9  C   UNL d   1      -2.417  -3.599  -2.166  0.00  0.00     0.009 C 
ENDBRANCH   7   8
ENDBRANCH   1   7
TORSDOF 2
ENDMDL
