MODEL 1
REMARK minimizedAffinity 2.44909382
REMARK minimizedRMSD -1
REMARK  2 active torsions:
REMARK  status: ('A' for Active; 'I' for Inactive)
REMARK    1  A    between atoms: C1_2  and  C2_3 
REMARK    2  A    between atoms: C2_3  and  C3_4 
ROOT
ATOM      1  C3  UNL d   1       5.087   2.010  -0.069  0.00  0.00    -0.075 A 
ATOM      2  C4  UNL d   1       4.678   1.426   1.139  0.00  0.00     0.002 A 
ATOM      3  C5  UNL d   1       3.862   0.294   1.137  0.00  0.00     0.002 A 
ATOM      4  C6  UNL d   1       3.439  -0.262  -0.068  0.00  0.00    -0.004 A 
ATOM      5  C7  UNL d   1       3.826   0.320  -1.273  0.00  0.00     0.002 A 
ATOM      6  C8  UNL d   1       4.645   1.450  -1.275  0.00  0.00     0.002 A 
ENDROOT
BRANCH   1   7
ATOM      7  C2  UNL d   1       5.994   3.218  -0.074  0.00  0.00     0.056 C 
BRANCH   7   8
ATOM      8  C1  UNL d   1       5.250   4.555  -0.144  0.00  0.00     0.007 C 
ATOM      9  C   UNL d   1       5.999   5.618  -0.938  0.00  0.00     0.009 C 
ENDBRANCH   7   8
ENDBRANCH   1   7
TORSDOF 2
ENDMDL
