MODEL 1
REMARK minimizedAffinity 14.0521212
REMARK minimizedRMSD -1
REMARK  0 active torsions:
REMARK  status: ('A' for Active; 'I' for Inactive)
ROOT
ATOM      1  N1  IND d   1       3.307   3.181   2.555  0.00  0.00    -0.196 N 
ATOM      2  C2  IND d   1       2.117   2.713   3.037  0.00  0.00     0.054 A 
ATOM      3  C3  IND d   1       1.660   1.704   2.263  0.00  0.00    -0.031 A 
ATOM      4  C4  IND d   1       2.751   0.591   0.214  0.00  0.00     0.051 A 
ATOM      5  C5  IND d   1       3.825   0.697  -0.625  0.00  0.00    -0.031 A 
ATOM      6  C6  IND d   1       4.801   1.655  -0.442  0.00  0.00     0.015 A 
ATOM      7  C7  IND d   1       4.747   2.538   0.598  0.00  0.00    -0.016 A 
ATOM      8  C8  IND d   1       3.655   2.438   1.449  0.00  0.00    -0.047 A 
ATOM      9  C9  IND d   1       2.638   1.496   1.243  0.00  0.00    -0.096 A 
ATOM     10  HN1 IND d   1       3.762   3.831   2.886  0.00  0.00     0.298 HD
ENDROOT
TORSDOF 0
ENDMDL
