MODEL 1
REMARK minimizedAffinity 1.66445732
REMARK minimizedRMSD -1
REMARK  0 active torsions:
REMARK  status: ('A' for Active; 'I' for Inactive)
ROOT
ATOM      1  N1  IND d   1      -4.912  -5.987  -2.346  0.00  0.00    -0.196 N 
ATOM      2  C2  IND d   1      -5.460  -5.095  -1.467  0.00  0.00     0.054 A 
ATOM      3  C3  IND d   1      -5.931  -4.013  -2.127  0.00  0.00    -0.031 A 
ATOM      4  C4  IND d   1      -5.997  -3.542  -4.657  0.00  0.00     0.051 A 
ATOM      5  C5  IND d   1      -5.583  -4.045  -5.858  0.00  0.00    -0.031 A 
ATOM      6  C6  IND d   1      -4.912  -5.248  -5.952  0.00  0.00     0.015 A 
ATOM      7  C7  IND d   1      -4.640  -6.000  -4.844  0.00  0.00    -0.016 A 
ATOM      8  C8  IND d   1      -5.053  -5.488  -3.622  0.00  0.00    -0.047 A 
ATOM      9  C9  IND d   1      -5.697  -4.248  -3.517  0.00  0.00    -0.096 A 
ATOM     10  HN1 IND d   1      -4.540  -6.734  -2.137  0.00  0.00     0.298 HD
ENDROOT
TORSDOF 0
ENDMDL
