MODEL 1
REMARK minimizedAffinity 7.08510399
REMARK minimizedRMSD -1
REMARK  0 active torsions:
REMARK  status: ('A' for Active; 'I' for Inactive)
ROOT
ATOM      1  N1  IND d   1      -4.425  -4.154  -2.138  0.00  0.00    -0.196 N 
ATOM      2  C2  IND d   1      -4.837  -5.403  -1.767  0.00  0.00     0.054 A 
ATOM      3  C3  IND d   1      -5.521  -5.991  -2.775  0.00  0.00    -0.031 A 
ATOM      4  C4  IND d   1      -5.993  -5.126  -5.153  0.00  0.00     0.051 A 
ATOM      5  C5  IND d   1      -5.847  -4.023  -5.947  0.00  0.00    -0.031 A 
ATOM      6  C6  IND d   1      -5.205  -2.885  -5.503  0.00  0.00     0.015 A 
ATOM      7  C7  IND d   1      -4.672  -2.812  -4.248  0.00  0.00    -0.016 A 
ATOM      8  C8  IND d   1      -4.824  -3.927  -3.437  0.00  0.00    -0.047 A 
ATOM      9  C9  IND d   1      -5.512  -5.069  -3.867  0.00  0.00    -0.096 A 
ATOM     10  HN1 IND d   1      -3.990  -3.602  -1.642  0.00  0.00     0.298 HD
ENDROOT
TORSDOF 0
ENDMDL
