MODEL 1
REMARK minimizedAffinity 5.47740173
REMARK minimizedRMSD -1
REMARK  0 active torsions:
REMARK  status: ('A' for Active; 'I' for Inactive)
ROOT
ATOM      1  N1  IND d   1      -4.333  -2.310  -4.503  0.00  0.00    -0.196 N 
ATOM      2  C2  IND d   1      -4.994  -2.217  -5.696  0.00  0.00     0.054 A 
ATOM      3  C3  IND d   1      -5.701  -3.345  -5.931  0.00  0.00    -0.031 A 
ATOM      4  C4  IND d   1      -5.999  -5.427  -4.447  0.00  0.00     0.051 A 
ATOM      5  C5  IND d   1      -5.563  -5.990  -3.280  0.00  0.00    -0.031 A 
ATOM      6  C6  IND d   1      -4.679  -5.341  -2.443  0.00  0.00     0.015 A 
ATOM      7  C7  IND d   1      -4.204  -4.094  -2.738  0.00  0.00    -0.016 A 
ATOM      8  C8  IND d   1      -4.640  -3.522  -3.925  0.00  0.00    -0.047 A 
ATOM      9  C9  IND d   1      -5.504  -4.194  -4.799  0.00  0.00    -0.096 A 
ATOM     10  HN1 IND d   1      -3.813  -1.712  -4.169  0.00  0.00     0.298 HD
ENDROOT
TORSDOF 0
ENDMDL
