MODEL 1
REMARK minimizedAffinity 9.93588924
REMARK minimizedRMSD -1
REMARK  0 active torsions:
REMARK  status: ('A' for Active; 'I' for Inactive)
ROOT
ATOM      1  N1  IND d   1      -5.465  -1.105   1.593  0.00  0.00    -0.196 N 
ATOM      2  C2  IND d   1      -6.000  -1.660   2.722  0.00  0.00     0.054 A 
ATOM      3  C3  IND d   1      -5.141  -1.537   3.759  0.00  0.00    -0.031 A 
ATOM      4  C4  IND d   1      -2.848  -0.372   3.854  0.00  0.00     0.051 A 
ATOM      5  C5  IND d   1      -1.921   0.250   3.064  0.00  0.00    -0.031 A 
ATOM      6  C6  IND d   1      -2.134   0.457   1.716  0.00  0.00     0.015 A 
ATOM      7  C7  IND d   1      -3.292   0.060   1.108  0.00  0.00    -0.016 A 
ATOM      8  C8  IND d   1      -4.231  -0.577   1.906  0.00  0.00    -0.047 A 
ATOM      9  C9  IND d   1      -4.003  -0.829   3.265  0.00  0.00    -0.096 A 
ATOM     10  HN1 IND d   1      -5.836  -1.089   0.817  0.00  0.00     0.298 HD
ENDROOT
TORSDOF 0
ENDMDL
