MODEL 1
REMARK minimizedAffinity 3.21114039
REMARK minimizedRMSD -1
REMARK  0 active torsions:
REMARK  status: ('A' for Active; 'I' for Inactive)
ROOT
ATOM      1  N1  IND d   1      -4.034  -4.733  -2.675  0.00  0.00    -0.196 N 
ATOM      2  C2  IND d   1      -4.692  -5.931  -2.662  0.00  0.00     0.054 A 
ATOM      3  C3  IND d   1      -5.564  -6.000  -3.693  0.00  0.00    -0.031 A 
ATOM      4  C4  IND d   1      -6.000  -4.306  -5.582  0.00  0.00     0.051 A 
ATOM      5  C5  IND d   1      -5.666  -3.048  -5.999  0.00  0.00    -0.031 A 
ATOM      6  C6  IND d   1      -4.750  -2.273  -5.317  0.00  0.00     0.015 A 
ATOM      7  C7  IND d   1      -4.123  -2.733  -4.194  0.00  0.00    -0.016 A 
ATOM      8  C8  IND d   1      -4.465  -4.007  -3.764  0.00  0.00    -0.047 A 
ATOM      9  C9  IND d   1      -5.425  -4.782  -4.427  0.00  0.00    -0.096 A 
ATOM     10  HN1 IND d   1      -3.449  -4.475  -2.099  0.00  0.00     0.298 HD
ENDROOT
TORSDOF 0
ENDMDL
