MODEL 1
REMARK minimizedAffinity 4.33831835
REMARK minimizedRMSD -1
REMARK  0 active torsions:
REMARK  status: ('A' for Active; 'I' for Inactive)
ROOT
ATOM      1  N1  IND d   1      -4.435  -2.287  -4.789  0.00  0.00    -0.196 N 
ATOM      2  C2  IND d   1      -5.258  -2.255  -5.880  0.00  0.00     0.054 A 
ATOM      3  C3  IND d   1      -5.928  -3.423  -5.999  0.00  0.00    -0.031 A 
ATOM      4  C4  IND d   1      -5.904  -5.486  -4.459  0.00  0.00     0.051 A 
ATOM      5  C5  IND d   1      -5.281  -6.000  -3.356  0.00  0.00    -0.031 A 
ATOM      6  C6  IND d   1      -4.327  -5.287  -2.659  0.00  0.00     0.015 A 
ATOM      7  C7  IND d   1      -3.967  -4.023  -3.034  0.00  0.00    -0.016 A 
ATOM      8  C8  IND d   1      -4.592  -3.501  -4.157  0.00  0.00    -0.047 A 
ATOM      9  C9  IND d   1      -5.530  -4.236  -4.894  0.00  0.00    -0.096 A 
ATOM     10  HN1 IND d   1      -3.908  -1.655  -4.539  0.00  0.00     0.298 HD
ENDROOT
TORSDOF 0
ENDMDL
