MODEL 1
REMARK minimizedAffinity 7.79514122
REMARK minimizedRMSD -1
REMARK  0 active torsions:
REMARK  status: ('A' for Active; 'I' for Inactive)
ROOT
ATOM      1  N1  IND d   1       1.011  -4.704  -2.476  0.00  0.00    -0.196 N 
ATOM      2  C2  IND d   1       0.265  -4.455  -3.595  0.00  0.00     0.054 A 
ATOM      3  C3  IND d   1       0.358  -3.152  -3.942  0.00  0.00    -0.031 A 
ATOM      4  C4  IND d   1       1.757  -1.272  -2.877  0.00  0.00     0.051 A 
ATOM      5  C5  IND d   1       2.571  -1.006  -1.812  0.00  0.00    -0.031 A 
ATOM      6  C6  IND d   1       2.916  -1.980  -0.897  0.00  0.00     0.015 A 
ATOM      7  C7  IND d   1       2.467  -3.264  -1.020  0.00  0.00    -0.016 A 
ATOM      8  C8  IND d   1       1.634  -3.536  -2.096  0.00  0.00    -0.047 A 
ATOM      9  C9  IND d   1       1.246  -2.542  -3.004  0.00  0.00    -0.096 A 
ATOM     10  HN1 IND d   1       1.079  -5.462  -2.077  0.00  0.00     0.298 HD
ENDROOT
TORSDOF 0
ENDMDL
