MODEL 1
REMARK minimizedAffinity 12.9702787
REMARK minimizedRMSD -1
REMARK  0 active torsions:
REMARK  status: ('A' for Active; 'I' for Inactive)
ROOT
ATOM      1  N1  IND d   1      -5.689  -2.388  -4.417  0.00  0.00    -0.196 N 
ATOM      2  C2  IND d   1      -6.000  -2.792  -5.686  0.00  0.00     0.054 A 
ATOM      3  C3  IND d   1      -5.983  -4.141  -5.767  0.00  0.00    -0.031 A 
ATOM      4  C4  IND d   1      -5.573  -5.886  -3.919  0.00  0.00     0.051 A 
ATOM      5  C5  IND d   1      -5.214  -6.000  -2.605  0.00  0.00    -0.031 A 
ATOM      6  C6  IND d   1      -4.993  -4.893  -1.812  0.00  0.00     0.015 A 
ATOM      7  C7  IND d   1      -5.135  -3.625  -2.301  0.00  0.00    -0.016 A 
ATOM      8  C8  IND d   1      -5.493  -3.506  -3.637  0.00  0.00    -0.047 A 
ATOM      9  C9  IND d   1      -5.676  -4.626  -4.459  0.00  0.00    -0.096 A 
ATOM     10  HN1 IND d   1      -5.627  -1.573  -4.151  0.00  0.00     0.298 HD
ENDROOT
TORSDOF 0
ENDMDL
