MODEL 1
REMARK minimizedAffinity 11.2844963
REMARK minimizedRMSD -1
REMARK  0 active torsions:
REMARK  status: ('A' for Active; 'I' for Inactive)
ROOT
ATOM      1  N1  IND d   1      -4.650  -3.807  -2.142  0.00  0.00    -0.196 N 
ATOM      2  C2  IND d   1      -4.299  -5.031  -1.647  0.00  0.00     0.054 A 
ATOM      3  C3  IND d   1      -4.535  -5.995  -2.565  0.00  0.00    -0.031 A 
ATOM      4  C4  IND d   1      -5.398  -5.777  -4.981  0.00  0.00     0.051 A 
ATOM      5  C5  IND d   1      -5.888  -4.863  -5.871  0.00  0.00    -0.031 A 
ATOM      6  C6  IND d   1      -5.990  -3.523  -5.559  0.00  0.00     0.015 A 
ATOM      7  C7  IND d   1      -5.593  -3.043  -4.343  0.00  0.00    -0.016 A 
ATOM      8  C8  IND d   1      -5.102  -3.969  -3.434  0.00  0.00    -0.047 A 
ATOM      9  C9  IND d   1      -5.036  -5.337  -3.730  0.00  0.00    -0.096 A 
ATOM     10  HN1 IND d   1      -4.598  -3.060  -1.718  0.00  0.00     0.298 HD
ENDROOT
TORSDOF 0
ENDMDL
