MODEL 1
REMARK minimizedAffinity 13.2908306
REMARK minimizedRMSD -1
REMARK  0 active torsions:
REMARK  status: ('A' for Active; 'I' for Inactive)
ROOT
ATOM      1  N1  IND d   1      -4.556  -5.959  -2.718  0.00  0.00    -0.196 N 
ATOM      2  C2  IND d   1      -4.121  -4.982  -1.867  0.00  0.00     0.054 A 
ATOM      3  C3  IND d   1      -4.297  -3.762  -2.423  0.00  0.00    -0.031 A 
ATOM      4  C4  IND d   1      -5.375  -3.130  -4.674  0.00  0.00     0.051 A 
ATOM      5  C5  IND d   1      -5.891  -3.681  -5.813  0.00  0.00    -0.031 A 
ATOM      6  C6  IND d   1      -5.992  -5.047  -5.982  0.00  0.00     0.015 A 
ATOM      7  C7  IND d   1      -5.590  -5.916  -5.008  0.00  0.00    -0.016 A 
ATOM      8  C8  IND d   1      -5.060  -5.361  -3.852  0.00  0.00    -0.047 A 
ATOM      9  C9  IND d   1      -4.916  -3.977  -3.693  0.00  0.00    -0.096 A 
ATOM     10  HN1 IND d   1      -4.521  -6.805  -2.570  0.00  0.00     0.298 HD
ENDROOT
TORSDOF 0
ENDMDL
