MODEL 1
REMARK minimizedAffinity 2.39125299
REMARK minimizedRMSD -1
REMARK  0 active torsions:
REMARK  status: ('A' for Active; 'I' for Inactive)
ROOT
ATOM      1  N1  IND d   1      -4.894  -5.927  -2.535  0.00  0.00    -0.196 N 
ATOM      2  C2  IND d   1      -4.716  -4.908  -1.642  0.00  0.00     0.054 A 
ATOM      3  C3  IND d   1      -4.950  -3.716  -2.236  0.00  0.00    -0.031 A 
ATOM      4  C4  IND d   1      -5.735  -3.210  -4.635  0.00  0.00     0.051 A 
ATOM      5  C5  IND d   1      -5.998  -3.814  -5.832  0.00  0.00    -0.031 A 
ATOM      6  C6  IND d   1      -5.907  -5.181  -5.994  0.00  0.00     0.015 A 
ATOM      7  C7  IND d   1      -5.559  -6.000  -4.957  0.00  0.00    -0.016 A 
ATOM      8  C8  IND d   1      -5.285  -5.389  -3.742  0.00  0.00    -0.047 A 
ATOM      9  C9  IND d   1      -5.334  -3.998  -3.582  0.00  0.00    -0.096 A 
ATOM     10  HN1 IND d   1      -4.781  -6.763  -2.371  0.00  0.00     0.298 HD
ENDROOT
TORSDOF 0
ENDMDL
