MODEL 1
REMARK minimizedAffinity 8.60850906
REMARK minimizedRMSD -1
REMARK  0 active torsions:
REMARK  status: ('A' for Active; 'I' for Inactive)
ROOT
ATOM      1  N1  IND d   1      -4.479   2.887   3.885  0.00  0.00    -0.196 N 
ATOM      2  C2  IND d   1      -3.725   3.800   4.567  0.00  0.00     0.054 A 
ATOM      3  C3  IND d   1      -2.409   3.533   4.413  0.00  0.00    -0.031 A 
ATOM      4  C4  IND d   1      -1.265   1.708   3.002  0.00  0.00     0.051 A 
ATOM      5  C5  IND d   1      -1.538   0.614   2.231  0.00  0.00    -0.031 A 
ATOM      6  C6  IND d   1      -2.832   0.215   1.963  0.00  0.00     0.015 A 
ATOM      7  C7  IND d   1      -3.905   0.905   2.451  0.00  0.00    -0.016 A 
ATOM      8  C8  IND d   1      -3.632   2.013   3.240  0.00  0.00    -0.047 A 
ATOM      9  C9  IND d   1      -2.321   2.398   3.550  0.00  0.00    -0.096 A 
ATOM     10  HN1 IND d   1      -5.339   2.862   3.862  0.00  0.00     0.298 HD
ENDROOT
TORSDOF 0
ENDMDL
