MODEL 1
REMARK minimizedAffinity 9.20869637
REMARK minimizedRMSD -1
REMARK  0 active torsions:
REMARK  status: ('A' for Active; 'I' for Inactive)
ROOT
ATOM      1  N1  IND d   1      -4.595  -3.707  -2.350  0.00  0.00    -0.196 N 
ATOM      2  C2  IND d   1      -4.331  -4.912  -1.762  0.00  0.00     0.054 A 
ATOM      3  C3  IND d   1      -4.657  -5.925  -2.596  0.00  0.00    -0.031 A 
ATOM      4  C4  IND d   1      -5.542  -5.832  -5.012  0.00  0.00     0.051 A 
ATOM      5  C5  IND d   1      -5.975  -4.956  -5.968  0.00  0.00    -0.031 A 
ATOM      6  C6  IND d   1      -5.967  -3.591  -5.763  0.00  0.00     0.015 A 
ATOM      7  C7  IND d   1      -5.514  -3.049  -4.594  0.00  0.00    -0.016 A 
ATOM      8  C8  IND d   1      -5.080  -3.935  -3.619  0.00  0.00    -0.047 A 
ATOM      9  C9  IND d   1      -5.125  -5.323  -3.805  0.00  0.00    -0.096 A 
ATOM     10  HN1 IND d   1      -4.477  -2.936  -1.988  0.00  0.00     0.298 HD
ENDROOT
TORSDOF 0
ENDMDL
