MODEL 1
REMARK minimizedAffinity 3.28771043
REMARK minimizedRMSD -1
REMARK  0 active torsions:
REMARK  status: ('A' for Active; 'I' for Inactive)
ROOT
ATOM      1  N1  IND d   1      -3.447  -4.234  -2.832  0.00  0.00    -0.196 N 
ATOM      2  C2  IND d   1      -3.828  -5.406  -2.240  0.00  0.00     0.054 A 
ATOM      3  C3  IND d   1      -4.848  -5.970  -2.926  0.00  0.00    -0.031 A 
ATOM      4  C4  IND d   1      -5.979  -5.194  -5.105  0.00  0.00     0.051 A 
ATOM      5  C5  IND d   1      -5.999  -4.161  -6.000  0.00  0.00    -0.031 A 
ATOM      6  C6  IND d   1      -5.150  -3.080  -5.884  0.00  0.00     0.015 A 
ATOM      7  C7  IND d   1      -4.238  -2.996  -4.870  0.00  0.00    -0.016 A 
ATOM      8  C8  IND d   1      -4.220  -4.039  -3.955  0.00  0.00    -0.047 A 
ATOM      9  C9  IND d   1      -5.108  -5.119  -4.044  0.00  0.00    -0.096 A 
ATOM     10  HN1 IND d   1      -2.829  -3.708  -2.550  0.00  0.00     0.298 HD
ENDROOT
TORSDOF 0
ENDMDL
