MODEL 1
REMARK minimizedAffinity 0.848406136
REMARK minimizedRMSD -1
REMARK  0 active torsions:
REMARK  status: ('A' for Active; 'I' for Inactive)
ROOT
ATOM      1  N1  IND d   1       2.178  -2.517  -0.659  0.00  0.00    -0.196 N 
ATOM      2  C2  IND d   1       1.588  -3.331  -1.584  0.00  0.00     0.054 A 
ATOM      3  C3  IND d   1       1.310  -2.639  -2.711  0.00  0.00    -0.031 A 
ATOM      4  C4  IND d   1       1.829  -0.185  -3.293  0.00  0.00     0.051 A 
ATOM      5  C5  IND d   1       2.327   0.968  -2.753  0.00  0.00    -0.031 A 
ATOM      6  C6  IND d   1       2.812   1.018  -1.463  0.00  0.00     0.015 A 
ATOM      7  C7  IND d   1       2.829  -0.090  -0.664  0.00  0.00    -0.016 A 
ATOM      8  C8  IND d   1       2.318  -1.261  -1.206  0.00  0.00    -0.047 A 
ATOM      9  C9  IND d   1       1.785  -1.308  -2.501  0.00  0.00    -0.096 A 
ATOM     10  HN1 IND d   1       2.421  -2.750   0.133  0.00  0.00     0.298 HD
ENDROOT
TORSDOF 0
ENDMDL
