MODEL 1
REMARK minimizedAffinity -4.51010418
REMARK minimizedRMSD -1
REMARK  2 active torsions:
REMARK  status: ('A' for Active; 'I' for Inactive)
REMARK    1  A    between atoms: C1_2  and  C2_3 
REMARK    2  A    between atoms: C2_3  and  C3_4 
ROOT
ATOM      1  C3  UNL d   1       0.125  -0.660  -2.576  0.00  0.00    -0.075 A 
ATOM      2  C4  UNL d   1       1.241   0.164  -2.371  0.00  0.00     0.002 A 
ATOM      3  C5  UNL d   1       1.884   0.768  -3.451  0.00  0.00     0.002 A 
ATOM      4  C6  UNL d   1       1.427   0.549  -4.749  0.00  0.00    -0.004 A 
ATOM      5  C7  UNL d   1       0.329  -0.281  -4.966  0.00  0.00     0.002 A 
ATOM      6  C8  UNL d   1      -0.319  -0.883  -3.887  0.00  0.00     0.002 A 
ENDROOT
BRANCH   1   7
ATOM      7  C2  UNL d   1      -0.594  -1.293  -1.409  0.00  0.00     0.056 C 
BRANCH   7   8
ATOM      8  C1  UNL d   1      -1.040  -2.738  -1.660  0.00  0.00     0.007 C 
ATOM      9  C   UNL d   1      -2.303  -3.117  -0.899  0.00  0.00     0.009 C 
ENDBRANCH   7   8
ENDBRANCH   1   7
TORSDOF 2
ENDMDL
