MODEL 1
REMARK minimizedAffinity -4.55417776
REMARK minimizedRMSD -1
REMARK  2 active torsions:
REMARK  status: ('A' for Active; 'I' for Inactive)
REMARK    1  A    between atoms: C1_2  and  C2_3 
REMARK    2  A    between atoms: C2_3  and  C3_4 
ROOT
ATOM      1  C3  UNL d   1      -1.052  -1.590  -0.437  0.00  0.00    -0.075 A 
ATOM      2  C4  UNL d   1       0.321  -1.329  -0.321  0.00  0.00     0.002 A 
ATOM      3  C5  UNL d   1       0.779  -0.298   0.500  0.00  0.00     0.002 A 
ATOM      4  C6  UNL d   1      -0.128   0.491   1.204  0.00  0.00    -0.004 A 
ATOM      5  C7  UNL d   1      -1.495   0.251   1.083  0.00  0.00     0.002 A 
ATOM      6  C8  UNL d   1      -1.956  -0.782   0.266  0.00  0.00     0.002 A 
ENDROOT
BRANCH   1   7
ATOM      7  C2  UNL d   1      -1.553  -2.723  -1.301  0.00  0.00     0.056 C 
BRANCH   7   8
ATOM      8  C1  UNL d   1      -2.799  -3.424  -0.748  0.00  0.00     0.007 C 
ATOM      9  C   UNL d   1      -4.092  -2.954  -1.402  0.00  0.00     0.009 C 
ENDBRANCH   7   8
ENDBRANCH   1   7
TORSDOF 2
ENDMDL
