MODEL 1
REMARK minimizedAffinity -3.76147771
REMARK minimizedRMSD -1
REMARK  2 active torsions:
REMARK  status: ('A' for Active; 'I' for Inactive)
REMARK    1  A    between atoms: C1_2  and  C2_3 
REMARK    2  A    between atoms: C2_3  and  C3_4 
ROOT
ATOM      1  C3  UNL d   1       0.814  -0.140  -3.258  0.00  0.00    -0.075 A 
ATOM      2  C4  UNL d   1      -0.030  -0.935  -4.046  0.00  0.00     0.002 A 
ATOM      3  C5  UNL d   1      -0.234  -0.632  -5.393  0.00  0.00     0.002 A 
ATOM      4  C6  UNL d   1       0.394   0.472  -5.965  0.00  0.00    -0.004 A 
ATOM      5  C7  UNL d   1       1.222   1.278  -5.187  0.00  0.00     0.002 A 
ATOM      6  C8  UNL d   1       1.431   0.976  -3.840  0.00  0.00     0.002 A 
ENDROOT
BRANCH   1   7
ATOM      7  C2  UNL d   1       1.062  -0.478  -1.807  0.00  0.00     0.056 C 
BRANCH   7   8
ATOM      8  C1  UNL d   1       0.009   0.084  -0.847  0.00  0.00     0.007 C 
ATOM      9  C   UNL d   1       0.416  -0.020   0.617  0.00  0.00     0.009 C 
ENDBRANCH   7   8
ENDBRANCH   1   7
TORSDOF 2
ENDMDL
