MODEL 1
REMARK minimizedAffinity -2.11207652
REMARK minimizedRMSD -1
REMARK  2 active torsions:
REMARK  status: ('A' for Active; 'I' for Inactive)
REMARK    1  A    between atoms: C1_2  and  C2_3 
REMARK    2  A    between atoms: C2_3  and  C3_4 
ROOT
ATOM      1  C3  UNL d   1      -0.370  -0.829  -0.168  0.00  0.00    -0.075 A 
ATOM      2  C4  UNL d   1      -1.031   0.301   0.334  0.00  0.00     0.002 A 
ATOM      3  C5  UNL d   1      -0.386   1.163   1.222  0.00  0.00     0.002 A 
ATOM      4  C6  UNL d   1       0.922   0.900   1.626  0.00  0.00    -0.004 A 
ATOM      5  C7  UNL d   1       1.582  -0.229   1.146  0.00  0.00     0.002 A 
ATOM      6  C8  UNL d   1       0.940  -1.090   0.254  0.00  0.00     0.002 A 
ENDROOT
BRANCH   1   7
ATOM      7  C2  UNL d   1      -1.052  -1.749  -1.152  0.00  0.00     0.056 C 
BRANCH   7   8
ATOM      8  C1  UNL d   1      -2.551  -1.939  -0.893  0.00  0.00     0.007 C 
ATOM      9  C   UNL d   1      -3.048  -3.336  -1.239  0.00  0.00     0.009 C 
ENDBRANCH   7   8
ENDBRANCH   1   7
TORSDOF 2
ENDMDL
