MODEL 1
REMARK minimizedAffinity 1.11688352
REMARK minimizedRMSD -1
REMARK  2 active torsions:
REMARK  status: ('A' for Active; 'I' for Inactive)
REMARK    1  A    between atoms: C1_2  and  C2_3 
REMARK    2  A    between atoms: C2_3  and  C3_4 
ROOT
ATOM      1  C3  UNL d   1       0.794  -0.055  -1.199  0.00  0.00    -0.075 A 
ATOM      2  C4  UNL d   1      -0.045   0.947  -0.690  0.00  0.00     0.002 A 
ATOM      3  C5  UNL d   1      -0.025   1.265   0.668  0.00  0.00     0.002 A 
ATOM      4  C6  UNL d   1       0.824   0.582   1.535  0.00  0.00    -0.004 A 
ATOM      5  C7  UNL d   1       1.650  -0.427   1.044  0.00  0.00     0.002 A 
ATOM      6  C8  UNL d   1       1.636  -0.745  -0.316  0.00  0.00     0.002 A 
ENDROOT
BRANCH   1   7
ATOM      7  C2  UNL d   1       0.799  -0.385  -2.672  0.00  0.00     0.056 C 
BRANCH   7   8
ATOM      8  C1  UNL d   1       1.702   0.525  -3.512  0.00  0.00     0.007 C 
ATOM      9  C   UNL d   1       0.955   1.255  -4.619  0.00  0.00     0.009 C 
ENDBRANCH   7   8
ENDBRANCH   1   7
TORSDOF 2
ENDMDL
