MODEL 1
REMARK minimizedAffinity -3.97738028
REMARK minimizedRMSD -1
REMARK  2 active torsions:
REMARK  status: ('A' for Active; 'I' for Inactive)
REMARK    1  A    between atoms: C1_2  and  C2_3 
REMARK    2  A    between atoms: C2_3  and  C3_4 
ROOT
ATOM      1  C3  UNL d   1      -1.395  -0.397   0.469  0.00  0.00    -0.075 A 
ATOM      2  C4  UNL d   1      -0.038  -0.520   0.138  0.00  0.00     0.002 A 
ATOM      3  C5  UNL d   1       0.937   0.136   0.891  0.00  0.00     0.002 A 
ATOM      4  C6  UNL d   1       0.568   0.929   1.975  0.00  0.00    -0.004 A 
ATOM      5  C7  UNL d   1      -0.779   1.071   2.303  0.00  0.00     0.002 A 
ATOM      6  C8  UNL d   1      -1.756   0.413   1.554  0.00  0.00     0.002 A 
ENDROOT
BRANCH   1   7
ATOM      7  C2  UNL d   1      -2.452  -1.128  -0.323  0.00  0.00     0.056 C 
BRANCH   7   8
ATOM      8  C1  UNL d   1      -1.998  -2.487  -0.865  0.00  0.00     0.007 C 
ATOM      9  C   UNL d   1      -3.082  -3.555  -0.792  0.00  0.00     0.009 C 
ENDBRANCH   7   8
ENDBRANCH   1   7
TORSDOF 2
ENDMDL
