MODEL 1
REMARK minimizedAffinity 15.7706356
REMARK minimizedRMSD -1
REMARK  0 active torsions:
REMARK  status: ('A' for Active; 'I' for Inactive)
ROOT
ATOM      1  C   UNL d   1       3.407  -0.018  -2.460  0.00  0.00     0.124 A 
ATOM      2  C1  UNL d   1       3.409   0.803  -1.341  0.00  0.00     0.062 A 
ATOM      3  C2  UNL d   1       3.005   0.304  -0.106  0.00  0.00     0.162 A 
ATOM      4  C3  UNL d   1       2.596  -1.023   0.017  0.00  0.00    -0.034 A 
ATOM      5  C4  UNL d   1       2.596  -1.843  -1.113  0.00  0.00     0.162 A 
ATOM      6  C5  UNL d   1       3.001  -1.340  -2.345  0.00  0.00     0.062 A 
ATOM      7  F   UNL d   1       2.999  -2.135  -3.425  0.00  0.00    -0.097 F 
ATOM      8  F1  UNL d   1       2.209  -3.125  -1.030  0.00  0.00    -0.096 F 
ATOM      9  I   UNL d   1       1.991  -1.773   1.862  0.00  0.00    -0.060 I 
ATOM     10  F2  UNL d   1       3.017   1.121   0.958  0.00  0.00    -0.096 F 
ATOM     11  F3  UNL d   1       3.801   2.081  -1.450  0.00  0.00    -0.097 F 
ATOM     12  F4  UNL d   1       3.796   0.465  -3.647  0.00  0.00    -0.092 F 
ENDROOT
TORSDOF 0
ENDMDL
