MODEL 1
REMARK minimizedAffinity 10.4130182
REMARK minimizedRMSD -1
REMARK  0 active torsions:
REMARK  status: ('A' for Active; 'I' for Inactive)
ROOT
ATOM      1  C   UNL d   1      -2.800   0.350  -0.545  0.00  0.00     0.124 A 
ATOM      2  C1  UNL d   1      -2.074  -0.002  -1.675  0.00  0.00     0.062 A 
ATOM      3  C2  UNL d   1      -2.669   0.046  -2.932  0.00  0.00     0.162 A 
ATOM      4  C3  UNL d   1      -3.997   0.450  -3.067  0.00  0.00    -0.034 A 
ATOM      5  C4  UNL d   1      -4.721   0.802  -1.926  0.00  0.00     0.162 A 
ATOM      6  C5  UNL d   1      -4.122   0.752  -0.672  0.00  0.00     0.062 A 
ATOM      7  F   UNL d   1      -4.824   1.093   0.418  0.00  0.00    -0.097 F 
ATOM      8  F1  UNL d   1      -6.000   1.195  -2.020  0.00  0.00    -0.096 F 
ATOM      9  I   UNL d   1      -4.890   0.524  -4.946  0.00  0.00    -0.060 I 
ATOM     10  F2  UNL d   1      -1.944  -0.300  -4.006  0.00  0.00    -0.096 F 
ATOM     11  F3  UNL d   1      -0.797  -0.392  -1.555  0.00  0.00    -0.097 F 
ATOM     12  F4  UNL d   1      -2.225   0.301   0.664  0.00  0.00    -0.092 F 
ENDROOT
TORSDOF 0
ENDMDL
