MODEL 1
REMARK minimizedAffinity 19.2538548
REMARK minimizedRMSD -1
REMARK  0 active torsions:
REMARK  status: ('A' for Active; 'I' for Inactive)
ROOT
ATOM      1  C   UNL d   1       2.180  -2.532  -0.903  0.00  0.00     0.124 A 
ATOM      2  C1  UNL d   1       2.325  -1.813   0.276  0.00  0.00     0.062 A 
ATOM      3  C2  UNL d   1       2.836  -0.519   0.247  0.00  0.00     0.162 A 
ATOM      4  C3  UNL d   1       3.206   0.066  -0.964  0.00  0.00    -0.034 A 
ATOM      5  C4  UNL d   1       3.058  -0.664  -2.145  0.00  0.00     0.162 A 
ATOM      6  C5  UNL d   1       2.546  -1.957  -2.111  0.00  0.00     0.062 A 
ATOM      7  F   UNL d   1       2.407  -2.651  -3.251  0.00  0.00    -0.097 F 
ATOM      8  F1  UNL d   1       3.403  -0.132  -3.327  0.00  0.00    -0.096 F 
ATOM      9  I   UNL d   1       3.970   2.001  -1.011  0.00  0.00    -0.060 I 
ATOM     10  F2  UNL d   1       2.966   0.153   1.401  0.00  0.00    -0.096 F 
ATOM     11  F3  UNL d   1       1.973  -2.367   1.445  0.00  0.00    -0.097 F 
ATOM     12  F4  UNL d   1       1.689  -3.778  -0.873  0.00  0.00    -0.092 F 
ENDROOT
TORSDOF 0
ENDMDL
