MODEL 1
REMARK minimizedAffinity 19.5017891
REMARK minimizedRMSD -1
REMARK  0 active torsions:
REMARK  status: ('A' for Active; 'I' for Inactive)
ROOT
ATOM      1  C   UNL d   1       2.916   1.234  -0.245  0.00  0.00     0.124 A 
ATOM      2  C1  UNL d   1       2.243   0.066   0.086  0.00  0.00     0.062 A 
ATOM      3  C2  UNL d   1       2.221  -1.005  -0.803  0.00  0.00     0.162 A 
ATOM      4  C3  UNL d   1       2.875  -0.913  -2.032  0.00  0.00    -0.034 A 
ATOM      5  C4  UNL d   1       3.548   0.266  -2.358  0.00  0.00     0.162 A 
ATOM      6  C5  UNL d   1       3.567   1.333  -1.466  0.00  0.00     0.062 A 
ATOM      7  F   UNL d   1       4.218   2.461  -1.788  0.00  0.00    -0.097 F 
ATOM      8  F1  UNL d   1       4.187   0.388  -3.531  0.00  0.00    -0.096 F 
ATOM      9  I   UNL d   1       2.844  -2.512  -3.364  0.00  0.00    -0.060 I 
ATOM     10  F2  UNL d   1       1.563  -2.121  -0.457  0.00  0.00    -0.096 F 
ATOM     11  F3  UNL d   1       1.612  -0.031   1.265  0.00  0.00    -0.097 F 
ATOM     12  F4  UNL d   1       2.935   2.264   0.612  0.00  0.00    -0.092 F 
ENDROOT
TORSDOF 0
ENDMDL
