MODEL 1
REMARK minimizedAffinity 26.5318813
REMARK minimizedRMSD -1
REMARK  0 active torsions:
REMARK  status: ('A' for Active; 'I' for Inactive)
ROOT
ATOM      1  C   UNL d   1       2.293  -1.426  -0.312  0.00  0.00     0.124 A 
ATOM      2  C1  UNL d   1       3.176  -1.527   0.754  0.00  0.00     0.062 A 
ATOM      3  C2  UNL d   1       3.838  -0.397   1.224  0.00  0.00     0.162 A 
ATOM      4  C3  UNL d   1       3.619   0.845   0.628  0.00  0.00    -0.034 A 
ATOM      5  C4  UNL d   1       2.730   0.939  -0.444  0.00  0.00     0.162 A 
ATOM      6  C5  UNL d   1       2.071  -0.194  -0.910  0.00  0.00     0.062 A 
ATOM      7  F   UNL d   1       1.218  -0.094  -1.940  0.00  0.00    -0.097 F 
ATOM      8  F1  UNL d   1       2.496   2.118  -1.040  0.00  0.00    -0.096 F 
ATOM      9  I   UNL d   1       4.607   2.538   1.328  0.00  0.00    -0.060 I 
ATOM     10  F2  UNL d   1       4.686  -0.524   2.255  0.00  0.00    -0.096 F 
ATOM     11  F3  UNL d   1       3.392  -2.717   1.332  0.00  0.00    -0.097 F 
ATOM     12  F4  UNL d   1       1.658  -2.516  -0.763  0.00  0.00    -0.092 F 
ENDROOT
TORSDOF 0
ENDMDL
