MODEL 1
REMARK minimizedAffinity 21.226038
REMARK minimizedRMSD -1
REMARK  0 active torsions:
REMARK  status: ('A' for Active; 'I' for Inactive)
ROOT
ATOM      1  C   UNL d   1       1.827   0.138  -0.857  0.00  0.00     0.124 A 
ATOM      2  C1  UNL d   1       2.115  -1.134  -0.381  0.00  0.00     0.062 A 
ATOM      3  C2  UNL d   1       3.306  -1.374   0.298  0.00  0.00     0.162 A 
ATOM      4  C3  UNL d   1       4.218  -0.340   0.506  0.00  0.00    -0.034 A 
ATOM      5  C4  UNL d   1       3.922   0.936   0.025  0.00  0.00     0.162 A 
ATOM      6  C5  UNL d   1       2.730   1.172  -0.653  0.00  0.00     0.062 A 
ATOM      7  F   UNL d   1       2.454   2.401  -1.112  0.00  0.00    -0.097 F 
ATOM      8  F1  UNL d   1       4.777   1.954   0.208  0.00  0.00    -0.096 F 
ATOM      9  I   UNL d   1       6.000  -0.695   1.521  0.00  0.00    -0.060 I 
ATOM     10  F2  UNL d   1       3.558  -2.613   0.746  0.00  0.00    -0.096 F 
ATOM     11  F3  UNL d   1       1.244  -2.134  -0.577  0.00  0.00    -0.097 F 
ATOM     12  F4  UNL d   1       0.680   0.366  -1.510  0.00  0.00    -0.092 F 
ENDROOT
TORSDOF 0
ENDMDL
