MODEL 1
REMARK minimizedAffinity 31.569685
REMARK minimizedRMSD -1
REMARK  0 active torsions:
REMARK  status: ('A' for Active; 'I' for Inactive)
ROOT
ATOM      1  C   UNL d   1      -4.246   2.839   0.114  0.00  0.00     0.124 A 
ATOM      2  C1  UNL d   1      -4.446   1.469   0.202  0.00  0.00     0.062 A 
ATOM      3  C2  UNL d   1      -4.944   0.763  -0.889  0.00  0.00     0.162 A 
ATOM      4  C3  UNL d   1      -5.246   1.426  -2.078  0.00  0.00    -0.034 A 
ATOM      5  C4  UNL d   1      -5.043   2.805  -2.159  0.00  0.00     0.162 A 
ATOM      6  C5  UNL d   1      -4.545   3.506  -1.066  0.00  0.00     0.062 A 
ATOM      7  F   UNL d   1      -4.352   4.830  -1.153  0.00  0.00    -0.097 F 
ATOM      8  F1  UNL d   1      -5.323   3.474  -3.287  0.00  0.00    -0.096 F 
ATOM      9  I   UNL d   1      -5.992   0.374  -3.712  0.00  0.00    -0.060 I 
ATOM     10  F2  UNL d   1      -5.128  -0.561  -0.776  0.00  0.00    -0.096 F 
ATOM     11  F3  UNL d   1      -4.159   0.822   1.341  0.00  0.00    -0.097 F 
ATOM     12  F4  UNL d   1      -3.767   3.516   1.166  0.00  0.00    -0.092 F 
ENDROOT
TORSDOF 0
ENDMDL
