MODEL 1
REMARK minimizedAffinity 25.1800938
REMARK minimizedRMSD -1
REMARK  0 active torsions:
REMARK  status: ('A' for Active; 'I' for Inactive)
ROOT
ATOM      1  C   UNL d   1      -4.886   2.121  -0.726  0.00  0.00     0.124 A 
ATOM      2  C1  UNL d   1      -5.441   3.384  -0.571  0.00  0.00     0.062 A 
ATOM      3  C2  UNL d   1      -5.457   3.993   0.681  0.00  0.00     0.162 A 
ATOM      4  C3  UNL d   1      -4.913   3.341   1.788  0.00  0.00    -0.034 A 
ATOM      5  C4  UNL d   1      -4.357   2.071   1.624  0.00  0.00     0.162 A 
ATOM      6  C5  UNL d   1      -4.344   1.466   0.371  0.00  0.00     0.062 A 
ATOM      7  F   UNL d   1      -3.807   0.246   0.223  0.00  0.00    -0.097 F 
ATOM      8  F1  UNL d   1      -3.826   1.415   2.667  0.00  0.00    -0.096 F 
ATOM      9  I   UNL d   1      -4.934   4.248   3.660  0.00  0.00    -0.060 I 
ATOM     10  F2  UNL d   1      -6.000   5.213   0.802  0.00  0.00    -0.096 F 
ATOM     11  F3  UNL d   1      -5.966   4.019  -1.629  0.00  0.00    -0.097 F 
ATOM     12  F4  UNL d   1      -4.873   1.537  -1.931  0.00  0.00    -0.092 F 
ENDROOT
TORSDOF 0
ENDMDL
