MODEL 1
REMARK minimizedAffinity 11.9644547
REMARK minimizedRMSD -1
REMARK  1 active torsions:
REMARK  status: ('A' for Active; 'I' for Inactive)
REMARK    1  A    between atoms: C3_4  and  O_7 
ROOT
ATOM      1  C   UNL d   1       2.059  -5.789   4.199  0.00  0.00    -0.033 A 
ATOM      2  C1  UNL d   1       3.081  -5.945   3.260  0.00  0.00     0.039 A 
ATOM      3  C2  UNL d   1       4.412  -5.999   3.676  0.00  0.00    -0.080 A 
ATOM      4  C3  UNL d   1       4.708  -5.899   5.033  0.00  0.00     0.150 A 
ATOM      5  C4  UNL d   1       3.696  -5.747   5.974  0.00  0.00    -0.007 A 
ATOM      6  C5  UNL d   1       2.367  -5.692   5.556  0.00  0.00     0.039 A 
ENDROOT
BRANCH   4   7
ATOM      7  O   UNL d   1       5.993  -5.942   5.487  0.00  0.00    -0.526 OA
ATOM      8  H5  UNL d   1       6.587  -6.020   4.722  0.00  0.00     0.418 HD
ENDBRANCH   4   7
TORSDOF 1
ENDMDL
