MODEL 1
REMARK minimizedAffinity 2.6530869
REMARK minimizedRMSD -1
REMARK  1 active torsions:
REMARK  status: ('A' for Active; 'I' for Inactive)
REMARK    1  A    between atoms: C3_4  and  O_7 
ROOT
ATOM      1  C   UNL d   1       0.228  -2.351   2.022  0.00  0.00    -0.033 A 
ATOM      2  C1  UNL d   1      -1.072  -2.444   2.522  0.00  0.00     0.039 A 
ATOM      3  C2  UNL d   1      -1.437  -1.722   3.660  0.00  0.00    -0.080 A 
ATOM      4  C3  UNL d   1      -0.495  -0.910   4.286  0.00  0.00     0.150 A 
ATOM      5  C4  UNL d   1       0.800  -0.809   3.790  0.00  0.00    -0.007 A 
ATOM      6  C5  UNL d   1       1.164  -1.532   2.655  0.00  0.00     0.039 A 
ENDROOT
BRANCH   4   7
ATOM      7  O   UNL d   1      -0.804  -0.190   5.401  0.00  0.00    -0.526 OA
ATOM      8  H5  UNL d   1      -1.725  -0.380   5.645  0.00  0.00     0.418 HD
ENDBRANCH   4   7
TORSDOF 1
ENDMDL
