MODEL 1
REMARK minimizedAffinity 4.4755435
REMARK minimizedRMSD -1
REMARK  1 active torsions:
REMARK  status: ('A' for Active; 'I' for Inactive)
REMARK    1  A    between atoms: C3_4  and  O_7 
ROOT
ATOM      1  C   UNL d   1      -0.885  -2.424   2.601  0.00  0.00    -0.033 A 
ATOM      2  C1  UNL d   1      -1.081  -3.196   3.748  0.00  0.00     0.039 A 
ATOM      3  C2  UNL d   1      -0.365  -4.381   3.924  0.00  0.00    -0.080 A 
ATOM      4  C3  UNL d   1       0.543  -4.783   2.948  0.00  0.00     0.150 A 
ATOM      5  C4  UNL d   1       0.745  -4.017   1.805  0.00  0.00    -0.007 A 
ATOM      6  C5  UNL d   1       0.029  -2.834   1.630  0.00  0.00     0.039 A 
ENDROOT
BRANCH   4   7
ATOM      7  O   UNL d   1       1.261  -5.935   3.073  0.00  0.00    -0.526 OA
ATOM      8  H5  UNL d   1       0.996  -6.375   3.899  0.00  0.00     0.418 HD
ENDBRANCH   4   7
TORSDOF 1
ENDMDL
