MODEL 1
REMARK minimizedAffinity 9.56804848
REMARK minimizedRMSD -1
REMARK  1 active torsions:
REMARK  status: ('A' for Active; 'I' for Inactive)
REMARK    1  A    between atoms: C3_4  and  O_7 
ROOT
ATOM      1  C   UNL d   1      -4.058  -4.006   1.652  0.00  0.00    -0.033 A 
ATOM      2  C1  UNL d   1      -5.439  -4.198   1.584  0.00  0.00     0.039 A 
ATOM      3  C2  UNL d   1      -5.999  -4.869   0.494  0.00  0.00    -0.080 A 
ATOM      4  C3  UNL d   1      -5.168  -5.342  -0.517  0.00  0.00     0.150 A 
ATOM      5  C4  UNL d   1      -3.791  -5.158  -0.453  0.00  0.00    -0.007 A 
ATOM      6  C5  UNL d   1      -3.234  -4.487   0.635  0.00  0.00     0.039 A 
ENDROOT
BRANCH   4   7
ATOM      7  O   UNL d   1      -5.669  -5.999  -1.602  0.00  0.00    -0.526 OA
ATOM      8  H5  UNL d   1      -6.637  -6.027  -1.525  0.00  0.00     0.418 HD
ENDBRANCH   4   7
TORSDOF 1
ENDMDL
