MODEL 1
REMARK minimizedAffinity 3.64312363
REMARK minimizedRMSD -1
REMARK  1 active torsions:
REMARK  status: ('A' for Active; 'I' for Inactive)
REMARK    1  A    between atoms: C3_4  and  O_7 
ROOT
ATOM      1  C   UNL d   1      -0.355   2.134  -0.723  0.00  0.00    -0.033 A 
ATOM      2  C1  UNL d   1      -1.648   1.899  -1.195  0.00  0.00     0.039 A 
ATOM      3  C2  UNL d   1      -2.118   2.583  -2.318  0.00  0.00    -0.080 A 
ATOM      4  C3  UNL d   1      -1.286   3.497  -2.959  0.00  0.00     0.150 A 
ATOM      5  C4  UNL d   1       0.004   3.733  -2.496  0.00  0.00    -0.007 A 
ATOM      6  C5  UNL d   1       0.471   3.050  -1.374  0.00  0.00     0.039 A 
ENDROOT
BRANCH   4   7
ATOM      7  O   UNL d   1      -1.703   4.192  -4.055  0.00  0.00    -0.526 OA
ATOM      8  H5  UNL d   1      -2.624   3.947  -4.243  0.00  0.00     0.418 HD
ENDBRANCH   4   7
TORSDOF 1
ENDMDL
