MODEL 1
REMARK minimizedAffinity 5.19072962
REMARK minimizedRMSD -1
REMARK  1 active torsions:
REMARK  status: ('A' for Active; 'I' for Inactive)
REMARK    1  A    between atoms: C3_4  and  O_7 
ROOT
ATOM      1  C   UNL d   1       0.732  -2.090   1.535  0.00  0.00    -0.033 A 
ATOM      2  C1  UNL d   1      -0.186  -2.766   2.341  0.00  0.00     0.039 A 
ATOM      3  C2  UNL d   1      -0.571  -2.226   3.569  0.00  0.00    -0.080 A 
ATOM      4  C3  UNL d   1      -0.031  -1.010   3.980  0.00  0.00     0.150 A 
ATOM      5  C4  UNL d   1       0.881  -0.329   3.181  0.00  0.00    -0.007 A 
ATOM      6  C5  UNL d   1       1.264  -0.870   1.955  0.00  0.00     0.039 A 
ENDROOT
BRANCH   4   7
ATOM      7  O   UNL d   1      -0.373  -0.446   5.173  0.00  0.00    -0.526 OA
ATOM      8  H5  UNL d   1      -0.989  -1.042   5.630  0.00  0.00     0.418 HD
ENDBRANCH   4   7
TORSDOF 1
ENDMDL
