MODEL 1
REMARK minimizedAffinity -0.0747810453
REMARK minimizedRMSD -1
REMARK  1 active torsions:
REMARK  status: ('A' for Active; 'I' for Inactive)
REMARK    1  A    between atoms: C3_4  and  O_7 
ROOT
ATOM      1  C   UNL d   1       0.603  -2.298   1.618  0.00  0.00    -0.033 A 
ATOM      2  C1  UNL d   1      -0.062  -2.883   2.698  0.00  0.00     0.039 A 
ATOM      3  C2  UNL d   1      -0.340  -2.129   3.840  0.00  0.00    -0.080 A 
ATOM      4  C3  UNL d   1       0.051  -0.794   3.889  0.00  0.00     0.150 A 
ATOM      5  C4  UNL d   1       0.710  -0.204   2.815  0.00  0.00    -0.007 A 
ATOM      6  C5  UNL d   1       0.988  -0.958   1.676  0.00  0.00     0.039 A 
ENDROOT
BRANCH   4   7
ATOM      7  O   UNL d   1      -0.194  -0.019   4.984  0.00  0.00    -0.526 OA
ATOM      8  H5  UNL d   1      -0.630  -0.568   5.657  0.00  0.00     0.418 HD
ENDBRANCH   4   7
TORSDOF 1
ENDMDL
