MODEL 1
REMARK minimizedAffinity 8.17120457
REMARK minimizedRMSD -1
REMARK  1 active torsions:
REMARK  status: ('A' for Active; 'I' for Inactive)
REMARK    1  A    between atoms: C3_4  and  O_7 
ROOT
ATOM      1  C   UNL d   1       0.423  -0.466   3.973  0.00  0.00    -0.033 A 
ATOM      2  C1  UNL d   1       1.013  -0.453   2.708  0.00  0.00     0.039 A 
ATOM      3  C2  UNL d   1       2.308   0.042   2.544  0.00  0.00    -0.080 A 
ATOM      4  C3  UNL d   1       3.002   0.521   3.653  0.00  0.00     0.150 A 
ATOM      5  C4  UNL d   1       2.422   0.508   4.917  0.00  0.00    -0.007 A 
ATOM      6  C5  UNL d   1       1.128   0.013   5.078  0.00  0.00     0.039 A 
ENDROOT
BRANCH   4   7
ATOM      7  O   UNL d   1       4.266   1.019   3.542  0.00  0.00    -0.526 OA
ATOM      8  H5  UNL d   1       4.526   0.992   2.606  0.00  0.00     0.418 HD
ENDBRANCH   4   7
TORSDOF 1
ENDMDL
