MODEL 1
REMARK minimizedAffinity 9.67106438
REMARK minimizedRMSD -1
REMARK  1 active torsions:
REMARK  status: ('A' for Active; 'I' for Inactive)
REMARK    1  A    between atoms: C3_4  and  O_7 
ROOT
ATOM      1  C   UNL d   1       0.682  -0.592   2.258  0.00  0.00    -0.033 A 
ATOM      2  C1  UNL d   1      -0.148  -0.205   3.312  0.00  0.00     0.039 A 
ATOM      3  C2  UNL d   1      -1.146  -1.068   3.770  0.00  0.00    -0.080 A 
ATOM      4  C3  UNL d   1      -1.303  -2.312   3.166  0.00  0.00     0.150 A 
ATOM      5  C4  UNL d   1      -0.478  -2.706   2.118  0.00  0.00    -0.007 A 
ATOM      6  C5  UNL d   1       0.518  -1.843   1.662  0.00  0.00     0.039 A 
ENDROOT
BRANCH   4   7
ATOM      7  O   UNL d   1      -2.266  -3.186   3.575  0.00  0.00    -0.526 OA
ATOM      8  H5  UNL d   1      -2.779  -2.768   4.287  0.00  0.00     0.418 HD
ENDBRANCH   4   7
TORSDOF 1
ENDMDL
