MODEL 1
REMARK minimizedAffinity 9.69738293
REMARK minimizedRMSD -1
REMARK  1 active torsions:
REMARK  status: ('A' for Active; 'I' for Inactive)
REMARK    1  A    between atoms: C3_4  and  O_7 
ROOT
ATOM      1  C   UNL d   1      -3.364  -3.663   2.704  0.00  0.00    -0.033 A 
ATOM      2  C1  UNL d   1      -3.604  -3.062   1.466  0.00  0.00     0.039 A 
ATOM      3  C2  UNL d   1      -4.040  -3.834   0.387  0.00  0.00    -0.080 A 
ATOM      4  C3  UNL d   1      -4.234  -5.202   0.558  0.00  0.00     0.150 A 
ATOM      5  C4  UNL d   1      -4.000  -5.805   1.790  0.00  0.00    -0.007 A 
ATOM      6  C5  UNL d   1      -3.564  -5.034   2.866  0.00  0.00     0.039 A 
ENDROOT
BRANCH   4   7
ATOM      7  O   UNL d   1      -4.654  -5.996  -0.467  0.00  0.00    -0.526 OA
ATOM      8  H5  UNL d   1      -4.746  -5.447  -1.263  0.00  0.00     0.418 HD
ENDBRANCH   4   7
TORSDOF 1
ENDMDL
