MODEL 1
REMARK minimizedAffinity 1.07925534
REMARK minimizedRMSD -1
REMARK  1 active torsions:
REMARK  status: ('A' for Active; 'I' for Inactive)
REMARK    1  A    between atoms: C3_4  and  O_7 
ROOT
ATOM      1  C   UNL d   1      -4.141  -4.463   2.997  0.00  0.00    -0.033 A 
ATOM      2  C1  UNL d   1      -4.032  -3.410   2.086  0.00  0.00     0.039 A 
ATOM      3  C2  UNL d   1      -4.171  -3.651   0.718  0.00  0.00    -0.080 A 
ATOM      4  C3  UNL d   1      -4.419  -4.947   0.274  0.00  0.00     0.150 A 
ATOM      5  C4  UNL d   1      -4.533  -6.000   1.176  0.00  0.00    -0.007 A 
ATOM      6  C5  UNL d   1      -4.393  -5.757   2.542  0.00  0.00     0.039 A 
ENDROOT
BRANCH   4   7
ATOM      7  O   UNL d   1      -4.557  -5.232  -1.052  0.00  0.00    -0.526 OA
ATOM      8  H5  UNL d   1      -4.425  -4.413  -1.558  0.00  0.00     0.418 HD
ENDBRANCH   4   7
TORSDOF 1
ENDMDL
