MODEL 1
REMARK minimizedAffinity 15.5675335
REMARK minimizedRMSD -1
REMARK  1 active torsions:
REMARK  status: ('A' for Active; 'I' for Inactive)
REMARK    1  A    between atoms: C3_4  and  O_7 
ROOT
ATOM      1  C   UNL d   1      -1.463   5.741  -4.930  0.00  0.00    -0.033 A 
ATOM      2  C1  UNL d   1      -1.825   4.576  -5.611  0.00  0.00     0.039 A 
ATOM      3  C2  UNL d   1      -2.018   3.386  -4.907  0.00  0.00    -0.080 A 
ATOM      4  C3  UNL d   1      -1.846   3.373  -3.526  0.00  0.00     0.150 A 
ATOM      5  C4  UNL d   1      -1.489   4.530  -2.841  0.00  0.00    -0.007 A 
ATOM      6  C5  UNL d   1      -1.297   5.718  -3.545  0.00  0.00     0.039 A 
ENDROOT
BRANCH   4   7
ATOM      7  O   UNL d   1      -2.018   2.234  -2.797  0.00  0.00    -0.526 OA
ATOM      8  H5  UNL d   1      -2.235   1.508  -3.406  0.00  0.00     0.418 HD
ENDBRANCH   4   7
TORSDOF 1
ENDMDL
