MODEL 1
REMARK minimizedAffinity 8.02398491
REMARK minimizedRMSD -1
REMARK  1 active torsions:
REMARK  status: ('A' for Active; 'I' for Inactive)
REMARK    1  A    between atoms: C3_4  and  O_7 
ROOT
ATOM      1  C   UNL d   1       0.133  -1.484   1.528  0.00  0.00    -0.033 A 
ATOM      2  C1  UNL d   1      -0.862  -2.461   1.461  0.00  0.00     0.039 A 
ATOM      3  C2  UNL d   1      -0.534  -3.807   1.627  0.00  0.00    -0.080 A 
ATOM      4  C3  UNL d   1       0.792  -4.163   1.862  0.00  0.00     0.150 A 
ATOM      5  C4  UNL d   1       1.788  -3.195   1.934  0.00  0.00    -0.007 A 
ATOM      6  C5  UNL d   1       1.458  -1.851   1.766  0.00  0.00     0.039 A 
ENDROOT
BRANCH   4   7
ATOM      7  O   UNL d   1       1.162  -5.465   2.026  0.00  0.00    -0.526 OA
ATOM      8  H5  UNL d   1       0.374  -6.024   1.922  0.00  0.00     0.418 HD
ENDBRANCH   4   7
TORSDOF 1
ENDMDL
