MODEL 1
REMARK minimizedAffinity -1.79761291
REMARK minimizedRMSD -1
REMARK  1 active torsions:
REMARK  status: ('A' for Active; 'I' for Inactive)
REMARK    1  A    between atoms: C3_4  and  O_7 
ROOT
ATOM      1  C   UNL d   1       1.357  -6.000  -5.490  0.00  0.00    -0.033 A 
ATOM      2  C1  UNL d   1       2.684  -5.993  -5.924  0.00  0.00     0.039 A 
ATOM      3  C2  UNL d   1       3.390  -4.791  -5.999  0.00  0.00    -0.080 A 
ATOM      4  C3  UNL d   1       2.759  -3.604  -5.637  0.00  0.00     0.150 A 
ATOM      5  C4  UNL d   1       1.438  -3.604  -5.200  0.00  0.00    -0.007 A 
ATOM      6  C5  UNL d   1       0.734  -4.805  -5.126  0.00  0.00     0.039 A 
ENDROOT
BRANCH   4   7
ATOM      7  O   UNL d   1       3.405  -2.406  -5.698  0.00  0.00    -0.526 OA
ATOM      8  H5  UNL d   1       4.301  -2.556  -6.044  0.00  0.00     0.418 HD
ENDBRANCH   4   7
TORSDOF 1
ENDMDL
