MODEL 1
REMARK minimizedAffinity 10.3944893
REMARK minimizedRMSD -1
REMARK  1 active torsions:
REMARK  status: ('A' for Active; 'I' for Inactive)
REMARK    1  A    between atoms: C3_4  and  O_7 
ROOT
ATOM      1  C   UNL d   1      -2.631   4.890  -1.865  0.00  0.00    -0.033 A 
ATOM      2  C1  UNL d   1      -2.505   3.601  -2.387  0.00  0.00     0.039 A 
ATOM      3  C2  UNL d   1      -2.087   3.418  -3.706  0.00  0.00    -0.080 A 
ATOM      4  C3  UNL d   1      -1.797   4.530  -4.492  0.00  0.00     0.150 A 
ATOM      5  C4  UNL d   1      -1.916   5.817  -3.978  0.00  0.00    -0.007 A 
ATOM      6  C5  UNL d   1      -2.335   5.998  -2.660  0.00  0.00     0.039 A 
ENDROOT
BRANCH   4   7
ATOM      7  O   UNL d   1      -1.390   4.401  -5.787  0.00  0.00    -0.526 OA
ATOM      8  H5  UNL d   1      -1.381   3.456  -6.014  0.00  0.00     0.418 HD
ENDBRANCH   4   7
TORSDOF 1
ENDMDL
