MODEL 1
REMARK minimizedAffinity 2.34790182
REMARK minimizedRMSD -1
REMARK  1 active torsions:
REMARK  status: ('A' for Active; 'I' for Inactive)
REMARK    1  A    between atoms: C3_4  and  O_7 
ROOT
ATOM      1  C   UNL d   1      -3.732  -4.571   2.535  0.00  0.00    -0.033 A 
ATOM      2  C1  UNL d   1      -4.157  -3.495   1.754  0.00  0.00     0.039 A 
ATOM      3  C2  UNL d   1      -4.384  -3.669   0.387  0.00  0.00    -0.080 A 
ATOM      4  C3  UNL d   1      -4.182  -4.922  -0.185  0.00  0.00     0.150 A 
ATOM      5  C4  UNL d   1      -3.762  -5.999   0.588  0.00  0.00    -0.007 A 
ATOM      6  C5  UNL d   1      -3.536  -5.824   1.952  0.00  0.00     0.039 A 
ENDROOT
BRANCH   4   7
ATOM      7  O   UNL d   1      -4.386  -5.138  -1.516  0.00  0.00    -0.526 OA
ATOM      8  H5  UNL d   1      -4.646  -4.298  -1.928  0.00  0.00     0.418 HD
ENDBRANCH   4   7
TORSDOF 1
ENDMDL
