MODEL 1
REMARK minimizedAffinity 8.99775219
REMARK minimizedRMSD -1
REMARK  1 active torsions:
REMARK  status: ('A' for Active; 'I' for Inactive)
REMARK    1  A    between atoms: C3_4  and  O_7 
ROOT
ATOM      1  C   UNL d   1       1.990  -0.928   1.304  0.00  0.00    -0.033 A 
ATOM      2  C1  UNL d   1       2.956  -0.104   1.886  0.00  0.00     0.039 A 
ATOM      3  C2  UNL d   1       2.804   0.327   3.206  0.00  0.00    -0.080 A 
ATOM      4  C3  UNL d   1       1.685  -0.073   3.931  0.00  0.00     0.150 A 
ATOM      5  C4  UNL d   1       0.721  -0.896   3.358  0.00  0.00    -0.007 A 
ATOM      6  C5  UNL d   1       0.874  -1.325   2.040  0.00  0.00     0.039 A 
ENDROOT
BRANCH   4   7
ATOM      7  O   UNL d   1       1.491   0.326   5.220  0.00  0.00    -0.526 OA
ATOM      8  H5  UNL d   1       2.222   0.914   5.473  0.00  0.00     0.418 HD
ENDBRANCH   4   7
TORSDOF 1
ENDMDL
