MODEL 1
REMARK minimizedAffinity 9.69551468
REMARK minimizedRMSD -1
REMARK  1 active torsions:
REMARK  status: ('A' for Active; 'I' for Inactive)
REMARK    1  A    between atoms: C3_4  and  O_7 
ROOT
ATOM      1  C   UNL d   1      -2.396   5.522  -5.255  0.00  0.00    -0.033 A 
ATOM      2  C1  UNL d   1      -2.282   5.598  -3.866  0.00  0.00     0.039 A 
ATOM      3  C2  UNL d   1      -2.220   4.431  -3.103  0.00  0.00    -0.080 A 
ATOM      4  C3  UNL d   1      -2.271   3.194  -3.741  0.00  0.00     0.150 A 
ATOM      5  C4  UNL d   1      -2.381   3.110  -5.125  0.00  0.00    -0.007 A 
ATOM      6  C5  UNL d   1      -2.444   4.278  -5.885  0.00  0.00     0.039 A 
ENDROOT
BRANCH   4   7
ATOM      7  O   UNL d   1      -2.219   2.027  -3.038  0.00  0.00    -0.526 OA
ATOM      8  H5  UNL d   1      -2.173   2.240  -2.091  0.00  0.00     0.418 HD
ENDBRANCH   4   7
TORSDOF 1
ENDMDL
