MODEL 1
REMARK minimizedAffinity 11.7174673
REMARK minimizedRMSD -1
REMARK  1 active torsions:
REMARK  status: ('A' for Active; 'I' for Inactive)
REMARK    1  A    between atoms: C3_4  and  O_7 
ROOT
ATOM      1  C   UNL d   1      -2.256   4.594  -2.672  0.00  0.00    -0.033 A 
ATOM      2  C1  UNL d   1      -3.435   4.741  -1.939  0.00  0.00     0.039 A 
ATOM      3  C2  UNL d   1      -4.357   3.695  -1.879  0.00  0.00    -0.080 A 
ATOM      4  C3  UNL d   1      -4.088   2.508  -2.555  0.00  0.00     0.150 A 
ATOM      5  C4  UNL d   1      -2.914   2.353  -3.284  0.00  0.00    -0.007 A 
ATOM      6  C5  UNL d   1      -1.995   3.399  -3.343  0.00  0.00     0.039 A 
ENDROOT
BRANCH   4   7
ATOM      7  O   UNL d   1      -4.960   1.460  -2.530  0.00  0.00    -0.526 OA
ATOM      8  H5  UNL d   1      -5.740   1.721  -2.012  0.00  0.00     0.418 HD
ENDBRANCH   4   7
TORSDOF 1
ENDMDL
