MODEL 1
REMARK minimizedAffinity -0.342052162
REMARK minimizedRMSD -1
REMARK  0 active torsions:
REMARK  status: ('A' for Active; 'I' for Inactive)
ROOT
ATOM      1  C   UNL d   1       0.724   2.255  -0.675  0.00  0.00     0.124 A 
ATOM      2  C1  UNL d   1       1.119   1.161   0.082  0.00  0.00     0.062 A 
ATOM      3  C2  UNL d   1       0.526  -0.082  -0.121  0.00  0.00     0.162 A 
ATOM      4  C3  UNL d   1      -0.469  -0.237  -1.086  0.00  0.00    -0.034 A 
ATOM      5  C4  UNL d   1      -0.862   0.868  -1.843  0.00  0.00     0.162 A 
ATOM      6  C5  UNL d   1      -0.266   2.108  -1.636  0.00  0.00     0.062 A 
ATOM      7  F   UNL d   1      -0.649   3.164  -2.369  0.00  0.00    -0.097 F 
ATOM      8  F1  UNL d   1      -1.816   0.754  -2.779  0.00  0.00    -0.096 F 
ATOM      9  I   UNL d   1      -1.360  -2.094  -1.392  0.00  0.00    -0.060 I 
ATOM     10  F2  UNL d   1       0.927  -1.122   0.625  0.00  0.00    -0.096 F 
ATOM     11  F3  UNL d   1       2.075   1.300   1.012  0.00  0.00    -0.097 F 
ATOM     12  F4  UNL d   1       1.296   3.449  -0.477  0.00  0.00    -0.092 F 
ENDROOT
TORSDOF 0
ENDMDL
