MODEL 1
REMARK minimizedAffinity -4.53961706
REMARK minimizedRMSD -1
REMARK  0 active torsions:
REMARK  status: ('A' for Active; 'I' for Inactive)
ROOT
ATOM      1  C   UNL d   1       0.899   2.897   0.356  0.00  0.00     0.124 A 
ATOM      2  C1  UNL d   1       1.951   1.993   0.301  0.00  0.00     0.062 A 
ATOM      3  C2  UNL d   1       1.701   0.640   0.092  0.00  0.00     0.162 A 
ATOM      4  C3  UNL d   1       0.393   0.182  -0.066  0.00  0.00    -0.034 A 
ATOM      5  C4  UNL d   1      -0.660   1.097  -0.008  0.00  0.00     0.162 A 
ATOM      6  C5  UNL d   1      -0.405   2.448   0.202  0.00  0.00     0.062 A 
ATOM      7  F   UNL d   1      -1.423   3.320   0.255  0.00  0.00    -0.097 F 
ATOM      8  F1  UNL d   1      -1.930   0.691  -0.155  0.00  0.00    -0.096 F 
ATOM      9  I   UNL d   1       0.016  -1.840  -0.379  0.00  0.00    -0.060 I 
ATOM     10  F2  UNL d   1       2.737  -0.210   0.043  0.00  0.00    -0.096 F 
ATOM     11  F3  UNL d   1       3.212   2.424   0.451  0.00  0.00    -0.097 F 
ATOM     12  F4  UNL d   1       1.142   4.198   0.559  0.00  0.00    -0.092 F 
ENDROOT
TORSDOF 0
ENDMDL
