MODEL 1
REMARK minimizedAffinity -0.370418191
REMARK minimizedRMSD -1
REMARK  0 active torsions:
REMARK  status: ('A' for Active; 'I' for Inactive)
ROOT
ATOM      1  C   UNL d   1      -0.905  -0.534   0.451  0.00  0.00     0.124 A 
ATOM      2  C1  UNL d   1       0.190  -0.223  -0.344  0.00  0.00     0.062 A 
ATOM      3  C2  UNL d   1       0.519   1.106  -0.593  0.00  0.00     0.162 A 
ATOM      4  C3  UNL d   1      -0.248   2.136  -0.047  0.00  0.00    -0.034 A 
ATOM      5  C4  UNL d   1      -1.348   1.815   0.750  0.00  0.00     0.162 A 
ATOM      6  C5  UNL d   1      -1.673   0.485   0.997  0.00  0.00     0.062 A 
ATOM      7  F   UNL d   1      -2.731   0.187   1.764  0.00  0.00    -0.097 F 
ATOM      8  F1  UNL d   1      -2.107   2.780   1.291  0.00  0.00    -0.096 F 
ATOM      9  I   UNL d   1       0.241   4.124  -0.418  0.00  0.00    -0.060 I 
ATOM     10  F2  UNL d   1       1.582   1.377  -1.364  0.00  0.00    -0.096 F 
ATOM     11  F3  UNL d   1       0.933  -1.206  -0.873  0.00  0.00    -0.097 F 
ATOM     12  F4  UNL d   1      -1.220  -1.813   0.688  0.00  0.00    -0.092 F 
ENDROOT
TORSDOF 0
ENDMDL
