MODEL 1
REMARK minimizedAffinity 3.15448689
REMARK minimizedRMSD -1
REMARK  0 active torsions:
REMARK  status: ('A' for Active; 'I' for Inactive)
ROOT
ATOM      1  C   UNL d   1       0.334   2.865   0.275  0.00  0.00     0.124 A 
ATOM      2  C1  UNL d   1       1.226   2.055  -0.414  0.00  0.00     0.062 A 
ATOM      3  C2  UNL d   1       0.935   0.709  -0.617  0.00  0.00     0.162 A 
ATOM      4  C3  UNL d   1      -0.253   0.164  -0.131  0.00  0.00    -0.034 A 
ATOM      5  C4  UNL d   1      -1.145   0.985   0.562  0.00  0.00     0.162 A 
ATOM      6  C5  UNL d   1      -0.850   2.330   0.762  0.00  0.00     0.062 A 
ATOM      7  F   UNL d   1      -1.713   3.111   1.428  0.00  0.00    -0.097 F 
ATOM      8  F1  UNL d   1      -2.297   0.494   1.042  0.00  0.00    -0.096 F 
ATOM      9  I   UNL d   1      -0.691  -1.848  -0.433  0.00  0.00    -0.060 I 
ATOM     10  F2  UNL d   1       1.815  -0.051  -1.287  0.00  0.00    -0.096 F 
ATOM     11  F3  UNL d   1       2.371   2.570  -0.885  0.00  0.00    -0.097 F 
ATOM     12  F4  UNL d   1       0.616   4.160   0.469  0.00  0.00    -0.092 F 
ENDROOT
TORSDOF 0
ENDMDL
