MODEL 1
REMARK minimizedAffinity -1.47325528
REMARK minimizedRMSD -1
REMARK  0 active torsions:
REMARK  status: ('A' for Active; 'I' for Inactive)
ROOT
ATOM      1  C   UNL d   1       1.150   2.199   1.030  0.00  0.00     0.124 A 
ATOM      2  C1  UNL d   1      -0.175   1.974   0.684  0.00  0.00     0.062 A 
ATOM      3  C2  UNL d   1      -0.601   0.695   0.339  0.00  0.00     0.162 A 
ATOM      4  C3  UNL d   1       0.299  -0.371   0.340  0.00  0.00    -0.034 A 
ATOM      5  C4  UNL d   1       1.630  -0.137   0.688  0.00  0.00     0.162 A 
ATOM      6  C5  UNL d   1       2.051   1.144   1.031  0.00  0.00     0.062 A 
ATOM      7  F   UNL d   1       3.332   1.359   1.365  0.00  0.00    -0.097 F 
ATOM      8  F1  UNL d   1       2.522  -1.138   0.699  0.00  0.00    -0.096 F 
ATOM      9  I   UNL d   1      -0.335  -2.285  -0.175  0.00  0.00    -0.060 I 
ATOM     10  F2  UNL d   1      -1.888   0.507   0.009  0.00  0.00    -0.096 F 
ATOM     11  F3  UNL d   1      -1.048   2.993   0.680  0.00  0.00    -0.097 F 
ATOM     12  F4  UNL d   1       1.558   3.431   1.360  0.00  0.00    -0.092 F 
ENDROOT
TORSDOF 0
ENDMDL
