MODEL 1
REMARK minimizedAffinity 3.24867225
REMARK minimizedRMSD -1
REMARK  0 active torsions:
REMARK  status: ('A' for Active; 'I' for Inactive)
ROOT
ATOM      1  C   UNL d   1      -2.157   1.247   0.881  0.00  0.00     0.124 A 
ATOM      2  C1  UNL d   1      -1.766   0.045   1.455  0.00  0.00     0.062 A 
ATOM      3  C2  UNL d   1      -0.436  -0.361   1.390  0.00  0.00     0.162 A 
ATOM      4  C3  UNL d   1       0.513   0.435   0.750  0.00  0.00    -0.034 A 
ATOM      5  C4  UNL d   1       0.112   1.642   0.174  0.00  0.00     0.162 A 
ATOM      6  C5  UNL d   1      -1.218   2.044   0.242  0.00  0.00     0.062 A 
ATOM      7  F   UNL d   1      -1.594   3.206  -0.313  0.00  0.00    -0.097 F 
ATOM      8  F1  UNL d   1       0.999   2.433  -0.449  0.00  0.00    -0.096 F 
ATOM      9  I   UNL d   1       2.502  -0.169   0.651  0.00  0.00    -0.060 I 
ATOM     10  F2  UNL d   1      -0.086  -1.527   1.953  0.00  0.00    -0.096 F 
ATOM     11  F3  UNL d   1      -2.671  -0.728   2.072  0.00  0.00    -0.097 F 
ATOM     12  F4  UNL d   1      -3.437   1.635   0.944  0.00  0.00    -0.092 F 
ENDROOT
TORSDOF 0
ENDMDL
