MODEL 1
REMARK minimizedAffinity -1.27511144
REMARK minimizedRMSD -1
REMARK  0 active torsions:
REMARK  status: ('A' for Active; 'I' for Inactive)
ROOT
ATOM      1  C   UNL d   1      -1.023  -3.492  -1.317  0.00  0.00     0.124 A 
ATOM      2  C1  UNL d   1      -0.570  -2.633  -2.309  0.00  0.00     0.062 A 
ATOM      3  C2  UNL d   1      -0.074  -1.376  -1.974  0.00  0.00     0.162 A 
ATOM      4  C3  UNL d   1      -0.029  -0.970  -0.640  0.00  0.00    -0.034 A 
ATOM      5  C4  UNL d   1      -0.487  -1.839   0.352  0.00  0.00     0.162 A 
ATOM      6  C5  UNL d   1      -0.981  -3.094   0.011  0.00  0.00     0.062 A 
ATOM      7  F   UNL d   1      -1.419  -3.923   0.971  0.00  0.00    -0.097 F 
ATOM      8  F1  UNL d   1      -0.458  -1.481   1.644  0.00  0.00    -0.096 F 
ATOM      9  I   UNL d   1       0.711   0.908  -0.135  0.00  0.00    -0.060 I 
ATOM     10  F2  UNL d   1       0.357  -0.567  -2.953  0.00  0.00    -0.096 F 
ATOM     11  F3  UNL d   1      -0.610  -3.014  -3.594  0.00  0.00    -0.097 F 
ATOM     12  F4  UNL d   1      -1.500  -4.700  -1.643  0.00  0.00    -0.092 F 
ENDROOT
TORSDOF 0
ENDMDL
