MODEL 1
REMARK minimizedAffinity -1.89207757
REMARK minimizedRMSD -1
REMARK  0 active torsions:
REMARK  status: ('A' for Active; 'I' for Inactive)
ROOT
ATOM      1  C   UNL d   1       1.337   1.200  -0.618  0.00  0.00     0.124 A 
ATOM      2  C1  UNL d   1       1.022  -0.102  -0.253  0.00  0.00     0.062 A 
ATOM      3  C2  UNL d   1      -0.149  -0.369   0.451  0.00  0.00     0.162 A 
ATOM      4  C3  UNL d   1      -1.016   0.669   0.793  0.00  0.00    -0.034 A 
ATOM      5  C4  UNL d   1      -0.692   1.976   0.424  0.00  0.00     0.162 A 
ATOM      6  C5  UNL d   1       0.479   2.237  -0.279  0.00  0.00     0.062 A 
ATOM      7  F   UNL d   1       0.781   3.495  -0.631  0.00  0.00    -0.097 F 
ATOM      8  F1  UNL d   1      -1.503   2.997   0.737  0.00  0.00    -0.096 F 
ATOM      9  I   UNL d   1      -2.768   0.275   1.845  0.00  0.00    -0.060 I 
ATOM     10  F2  UNL d   1      -0.427  -1.636   0.790  0.00  0.00    -0.096 F 
ATOM     11  F3  UNL d   1       1.849  -1.106  -0.578  0.00  0.00    -0.097 F 
ATOM     12  F4  UNL d   1       2.464   1.453  -1.294  0.00  0.00    -0.092 F 
ENDROOT
TORSDOF 0
ENDMDL
