MODEL 1
REMARK minimizedAffinity -3.44847751
REMARK minimizedRMSD -1
REMARK  0 active torsions:
REMARK  status: ('A' for Active; 'I' for Inactive)
ROOT
ATOM      1  C   UNL d   1      -0.855  -3.289  -2.676  0.00  0.00     0.124 A 
ATOM      2  C1  UNL d   1      -0.922  -3.243  -1.290  0.00  0.00     0.062 A 
ATOM      3  C2  UNL d   1      -0.500  -2.107  -0.607  0.00  0.00     0.162 A 
ATOM      4  C3  UNL d   1      -0.008  -1.006  -1.307  0.00  0.00    -0.034 A 
ATOM      5  C4  UNL d   1       0.058  -1.060  -2.701  0.00  0.00     0.162 A 
ATOM      6  C5  UNL d   1      -0.365  -2.198  -3.380  0.00  0.00     0.062 A 
ATOM      7  F   UNL d   1      -0.299  -2.241  -4.718  0.00  0.00    -0.097 F 
ATOM      8  F1  UNL d   1       0.526  -0.019  -3.406  0.00  0.00    -0.096 F 
ATOM      9  I   UNL d   1       0.625   0.695  -0.288  0.00  0.00    -0.060 I 
ATOM     10  F2  UNL d   1      -0.577  -2.090   0.733  0.00  0.00    -0.096 F 
ATOM     11  F3  UNL d   1      -1.395  -4.296  -0.608  0.00  0.00    -0.097 F 
ATOM     12  F4  UNL d   1      -1.261  -4.384  -3.331  0.00  0.00    -0.092 F 
ENDROOT
TORSDOF 0
ENDMDL
