MODEL 1
REMARK minimizedAffinity -4.02094555
REMARK minimizedRMSD -1
REMARK  0 active torsions:
REMARK  status: ('A' for Active; 'I' for Inactive)
ROOT
ATOM      1  C   UNL d   1       0.560   2.154   0.338  0.00  0.00     0.124 A 
ATOM      2  C1  UNL d   1       1.461   1.188  -0.090  0.00  0.00     0.062 A 
ATOM      3  C2  UNL d   1       1.011  -0.078  -0.452  0.00  0.00     0.162 A 
ATOM      4  C3  UNL d   1      -0.348  -0.387  -0.388  0.00  0.00    -0.034 A 
ATOM      5  C4  UNL d   1      -1.248   0.589   0.045  0.00  0.00     0.162 A 
ATOM      6  C5  UNL d   1      -0.793   1.853   0.405  0.00  0.00     0.062 A 
ATOM      7  F   UNL d   1      -1.665   2.784   0.819  0.00  0.00    -0.097 F 
ATOM      8  F1  UNL d   1      -2.561   0.326   0.118  0.00  0.00    -0.096 F 
ATOM      9  I   UNL d   1      -1.026  -2.279  -0.928  0.00  0.00    -0.060 I 
ATOM     10  F2  UNL d   1       1.904  -0.991  -0.862  0.00  0.00    -0.096 F 
ATOM     11  F3  UNL d   1       2.769   1.476  -0.155  0.00  0.00    -0.097 F 
ATOM     12  F4  UNL d   1       0.996   3.371   0.687  0.00  0.00    -0.092 F 
ENDROOT
TORSDOF 0
ENDMDL
