MODEL 1
REMARK minimizedAffinity 6.09810591
REMARK minimizedRMSD -1
REMARK  0 active torsions:
REMARK  status: ('A' for Active; 'I' for Inactive)
ROOT
ATOM      1  C   UNL d   1      -1.274   0.578   0.419  0.00  0.00     0.124 A 
ATOM      2  C1  UNL d   1      -0.320  -0.426   0.329  0.00  0.00     0.062 A 
ATOM      3  C2  UNL d   1       1.033  -0.118   0.438  0.00  0.00     0.162 A 
ATOM      4  C3  UNL d   1       1.441   1.200   0.639  0.00  0.00    -0.034 A 
ATOM      5  C4  UNL d   1       0.476   2.205   0.729  0.00  0.00     0.162 A 
ATOM      6  C5  UNL d   1      -0.875   1.893   0.619  0.00  0.00     0.062 A 
ATOM      7  F   UNL d   1      -1.795   2.864   0.707  0.00  0.00    -0.097 F 
ATOM      8  F1  UNL d   1       0.833   3.483   0.922  0.00  0.00    -0.096 F 
ATOM      9  I   UNL d   1       3.463   1.664   0.803  0.00  0.00    -0.060 I 
ATOM     10  F2  UNL d   1       1.933  -1.109   0.347  0.00  0.00    -0.096 F 
ATOM     11  F3  UNL d   1      -0.703  -1.696   0.135  0.00  0.00    -0.097 F 
ATOM     12  F4  UNL d   1      -2.575   0.280   0.313  0.00  0.00    -0.092 F 
ENDROOT
TORSDOF 0
ENDMDL
