MODEL 1
REMARK minimizedAffinity -5.08306503
REMARK minimizedRMSD -1
REMARK  0 active torsions:
REMARK  status: ('A' for Active; 'I' for Inactive)
ROOT
ATOM      1  C   UNL d   1      -0.013  -1.221   1.130  0.00  0.00     0.124 A 
ATOM      2  C1  UNL d   1       1.200  -0.644   0.780  0.00  0.00     0.062 A 
ATOM      3  C2  UNL d   1       1.249   0.685   0.367  0.00  0.00     0.162 A 
ATOM      4  C3  UNL d   1       0.081   1.445   0.304  0.00  0.00    -0.034 A 
ATOM      5  C4  UNL d   1      -1.134   0.857   0.656  0.00  0.00     0.162 A 
ATOM      6  C5  UNL d   1      -1.178  -0.471   1.068  0.00  0.00     0.062 A 
ATOM      7  F   UNL d   1      -2.350  -1.028   1.406  0.00  0.00    -0.097 F 
ATOM      8  F1  UNL d   1      -2.276   1.560   0.606  0.00  0.00    -0.096 F 
ATOM      9  I   UNL d   1       0.151   3.432  -0.313  0.00  0.00    -0.060 I 
ATOM     10  F2  UNL d   1       2.434   1.217   0.035  0.00  0.00    -0.096 F 
ATOM     11  F3  UNL d   1       2.327  -1.367   0.838  0.00  0.00    -0.097 F 
ATOM     12  F4  UNL d   1      -0.057  -2.500   1.526  0.00  0.00    -0.092 F 
ENDROOT
TORSDOF 0
ENDMDL
