MODEL 1
REMARK minimizedAffinity -6.46554375
REMARK minimizedRMSD -1
REMARK  0 active torsions:
REMARK  status: ('A' for Active; 'I' for Inactive)
ROOT
ATOM      1  C   UNL d   1       1.761   3.181   0.301  0.00  0.00     0.124 A 
ATOM      2  C1  UNL d   1       0.455   2.903  -0.079  0.00  0.00     0.062 A 
ATOM      3  C2  UNL d   1       0.056   1.588  -0.302  0.00  0.00     0.162 A 
ATOM      4  C3  UNL d   1       0.964   0.541  -0.144  0.00  0.00    -0.034 A 
ATOM      5  C4  UNL d   1       2.276   0.828   0.237  0.00  0.00     0.162 A 
ATOM      6  C5  UNL d   1       2.670   2.144   0.458  0.00  0.00     0.062 A 
ATOM      7  F   UNL d   1       3.932   2.411   0.825  0.00  0.00    -0.097 F 
ATOM      8  F1  UNL d   1       3.174  -0.154   0.397  0.00  0.00    -0.096 F 
ATOM      9  I   UNL d   1       0.371  -1.427  -0.477  0.00  0.00    -0.060 I 
ATOM     10  F2  UNL d   1      -1.212   1.348  -0.668  0.00  0.00    -0.096 F 
ATOM     11  F3  UNL d   1      -0.425   3.903  -0.232  0.00  0.00    -0.097 F 
ATOM     12  F4  UNL d   1       2.142   4.447   0.514  0.00  0.00    -0.092 F 
ENDROOT
TORSDOF 0
ENDMDL
