MODEL 1
REMARK minimizedAffinity -1.98626518
REMARK minimizedRMSD -1
REMARK  0 active torsions:
REMARK  status: ('A' for Active; 'I' for Inactive)
ROOT
ATOM      1  C   UNL d   1       0.728   1.875   0.910  0.00  0.00     0.124 A 
ATOM      2  C1  UNL d   1       1.653   0.841   0.897  0.00  0.00     0.062 A 
ATOM      3  C2  UNL d   1       1.282  -0.425   0.453  0.00  0.00     0.162 A 
ATOM      4  C3  UNL d   1      -0.022  -0.664   0.018  0.00  0.00    -0.034 A 
ATOM      5  C4  UNL d   1      -0.947   0.382   0.036  0.00  0.00     0.162 A 
ATOM      6  C5  UNL d   1      -0.571   1.645   0.480  0.00  0.00     0.062 A 
ATOM      7  F   UNL d   1      -1.466   2.643   0.492  0.00  0.00    -0.097 F 
ATOM      8  F1  UNL d   1      -2.209   0.187  -0.375  0.00  0.00    -0.096 F 
ATOM      9  I   UNL d   1      -0.582  -2.555  -0.645  0.00  0.00    -0.060 I 
ATOM     10  F2  UNL d   1       2.196  -1.406   0.451  0.00  0.00    -0.096 F 
ATOM     11  F3  UNL d   1       2.909   1.061   1.313  0.00  0.00    -0.097 F 
ATOM     12  F4  UNL d   1       1.088   3.092   1.338  0.00  0.00    -0.092 F 
ENDROOT
TORSDOF 0
ENDMDL
