MODEL 1
REMARK minimizedAffinity -4.27127266
REMARK minimizedRMSD -1
REMARK  0 active torsions:
REMARK  status: ('A' for Active; 'I' for Inactive)
ROOT
ATOM      1  C   UNL d   1      -4.142  -1.064   2.575  0.00  0.00     0.077 C 
ATOM      2  C1  UNL d   1      -3.140   0.036   2.389  0.00  0.00    -0.074 A 
ATOM      3  C2  UNL d   1      -2.938   1.001   3.381  0.00  0.00    -0.005 A 
ATOM      4  C3  UNL d   1      -1.996   2.012   3.198  0.00  0.00     0.006 A 
ATOM      5  C4  UNL d   1      -1.246   2.070   2.022  0.00  0.00    -0.005 A 
ATOM      6  C5  UNL d   1      -1.433   1.114   1.019  0.00  0.00    -0.074 A 
ATOM      7  C6  UNL d   1      -0.630   1.155  -0.247  0.00  0.00     0.077 C 
ATOM      8  C7  UNL d   1      -2.377   0.096   1.213  0.00  0.00    -0.001 A 
ENDROOT
TORSDOF 0
ENDMDL
