MODEL 1
REMARK minimizedAffinity -5.18763447
REMARK minimizedRMSD -1
REMARK  0 active torsions:
REMARK  status: ('A' for Active; 'I' for Inactive)
ROOT
ATOM      1  C   UNL d   1      -1.159   1.529   2.609  0.00  0.00     0.077 C 
ATOM      2  C1  UNL d   1      -0.801   0.671   1.432  0.00  0.00    -0.074 A 
ATOM      3  C2  UNL d   1      -1.788  -0.005   0.708  0.00  0.00    -0.005 A 
ATOM      4  C3  UNL d   1      -1.440  -0.792  -0.390  0.00  0.00     0.006 A 
ATOM      5  C4  UNL d   1      -0.104  -0.910  -0.774  0.00  0.00    -0.005 A 
ATOM      6  C5  UNL d   1       0.897  -0.241  -0.063  0.00  0.00    -0.074 A 
ATOM      7  C6  UNL d   1       2.337  -0.350  -0.468  0.00  0.00     0.077 C 
ATOM      8  C7  UNL d   1       0.539   0.553   1.035  0.00  0.00    -0.001 A 
ENDROOT
TORSDOF 0
ENDMDL
