MODEL 1
REMARK minimizedAffinity -4.78984642
REMARK minimizedRMSD -1
REMARK  0 active torsions:
REMARK  status: ('A' for Active; 'I' for Inactive)
ROOT
ATOM      1  C   UNL d   1       1.535   1.526  -3.075  0.00  0.00     0.077 C 
ATOM      2  C1  UNL d   1       1.074   0.654  -1.945  0.00  0.00    -0.074 A 
ATOM      3  C2  UNL d   1       1.632  -0.612  -1.741  0.00  0.00    -0.005 A 
ATOM      4  C3  UNL d   1       1.200  -1.408  -0.680  0.00  0.00     0.006 A 
ATOM      5  C4  UNL d   1       0.207  -0.947   0.185  0.00  0.00    -0.005 A 
ATOM      6  C5  UNL d   1      -0.362   0.316  -0.003  0.00  0.00    -0.074 A 
ATOM      7  C6  UNL d   1      -1.423   0.831   0.924  0.00  0.00     0.077 C 
ATOM      8  C7  UNL d   1       0.083   1.113  -1.067  0.00  0.00    -0.001 A 
ENDROOT
TORSDOF 0
ENDMDL
