MODEL 1
REMARK minimizedAffinity -3.64588404
REMARK minimizedRMSD -1
REMARK  0 active torsions:
REMARK  status: ('A' for Active; 'I' for Inactive)
ROOT
ATOM      1  C   UNL d   1       1.342   1.405  -3.027  0.00  0.00     0.077 C 
ATOM      2  C1  UNL d   1       1.050   0.411  -1.942  0.00  0.00    -0.074 A 
ATOM      3  C2  UNL d   1       1.797  -0.765  -1.823  0.00  0.00    -0.005 A 
ATOM      4  C3  UNL d   1       1.520  -1.675  -0.803  0.00  0.00     0.006 A 
ATOM      5  C4  UNL d   1       0.494  -1.418   0.107  0.00  0.00    -0.005 A 
ATOM      6  C5  UNL d   1      -0.263  -0.247   0.005  0.00  0.00    -0.074 A 
ATOM      7  C6  UNL d   1      -1.363   0.048   0.982  0.00  0.00     0.077 C 
ATOM      8  C7  UNL d   1       0.026   0.665  -1.018  0.00  0.00    -0.001 A 
ENDROOT
TORSDOF 0
ENDMDL
