MODEL 1
REMARK minimizedAffinity -4.28201389
REMARK minimizedRMSD -1
REMARK  0 active torsions:
REMARK  status: ('A' for Active; 'I' for Inactive)
ROOT
ATOM      1  C   UNL d   1       2.636   0.041  -2.585  0.00  0.00     0.077 C 
ATOM      2  C1  UNL d   1       1.732  -0.509  -1.522  0.00  0.00    -0.074 A 
ATOM      3  C2  UNL d   1       1.879  -1.822  -1.063  0.00  0.00    -0.005 A 
ATOM      4  C3  UNL d   1       1.037  -2.318  -0.067  0.00  0.00     0.006 A 
ATOM      5  C4  UNL d   1       0.041  -1.506   0.478  0.00  0.00    -0.005 A 
ATOM      6  C5  UNL d   1      -0.120  -0.190   0.033  0.00  0.00    -0.074 A 
ATOM      7  C6  UNL d   1      -1.178   0.698   0.616  0.00  0.00     0.077 C 
ATOM      8  C7  UNL d   1       0.735   0.302  -0.963  0.00  0.00    -0.001 A 
ENDROOT
TORSDOF 0
ENDMDL
