MODEL 1
REMARK minimizedAffinity -3.92176127
REMARK minimizedRMSD -1
REMARK  0 active torsions:
REMARK  status: ('A' for Active; 'I' for Inactive)
ROOT
ATOM      1  C   UNL d   1      -3.782  -1.146   2.966  0.00  0.00     0.077 C 
ATOM      2  C1  UNL d   1      -2.687  -0.163   2.673  0.00  0.00    -0.074 A 
ATOM      3  C2  UNL d   1      -2.359   0.841   3.590  0.00  0.00    -0.005 A 
ATOM      4  C3  UNL d   1      -1.332   1.742   3.308  0.00  0.00     0.006 A 
ATOM      5  C4  UNL d   1      -0.624   1.648   2.109  0.00  0.00    -0.005 A 
ATOM      6  C5  UNL d   1      -0.938   0.649   1.181  0.00  0.00    -0.074 A 
ATOM      7  C6  UNL d   1      -0.180   0.528  -0.108  0.00  0.00     0.077 C 
ATOM      8  C7  UNL d   1      -1.966  -0.256   1.475  0.00  0.00    -0.001 A 
ENDROOT
TORSDOF 0
ENDMDL
