MODEL 1
REMARK minimizedAffinity -3.71523976
REMARK minimizedRMSD -1
REMARK  0 active torsions:
REMARK  status: ('A' for Active; 'I' for Inactive)
ROOT
ATOM      1  C   UNL d   1       2.960  -0.231  -1.900  0.00  0.00     0.077 C 
ATOM      2  C1  UNL d   1       1.816  -0.510  -0.972  0.00  0.00    -0.074 A 
ATOM      3  C2  UNL d   1       1.826  -1.630  -0.135  0.00  0.00    -0.005 A 
ATOM      4  C3  UNL d   1       0.759  -1.872   0.730  0.00  0.00     0.006 A 
ATOM      5  C4  UNL d   1      -0.327  -0.998   0.767  0.00  0.00    -0.005 A 
ATOM      6  C5  UNL d   1      -0.355   0.128  -0.062  0.00  0.00    -0.074 A 
ATOM      7  C6  UNL d   1      -1.511   1.084  -0.028  0.00  0.00     0.077 C 
ATOM      8  C7  UNL d   1       0.724   0.368  -0.924  0.00  0.00    -0.001 A 
ENDROOT
TORSDOF 0
ENDMDL
