MODEL 1
REMARK minimizedAffinity -3.90074921
REMARK minimizedRMSD -1
REMARK  0 active torsions:
REMARK  status: ('A' for Active; 'I' for Inactive)
ROOT
ATOM      1  C   UNL d   1      -1.017  -0.104   1.004  0.00  0.00     0.077 C 
ATOM      2  C1  UNL d   1       0.174  -0.005   0.098  0.00  0.00    -0.074 A 
ATOM      3  C2  UNL d   1       1.072  -1.070  -0.027  0.00  0.00    -0.005 A 
ATOM      4  C3  UNL d   1       2.170  -0.968  -0.881  0.00  0.00     0.006 A 
ATOM      5  C4  UNL d   1       2.381   0.198  -1.617  0.00  0.00    -0.005 A 
ATOM      6  C5  UNL d   1       1.494   1.274  -1.506  0.00  0.00    -0.074 A 
ATOM      7  C6  UNL d   1       1.701   2.531  -2.297  0.00  0.00     0.077 C 
ATOM      8  C7  UNL d   1       0.389   1.160  -0.651  0.00  0.00    -0.001 A 
ENDROOT
TORSDOF 0
ENDMDL
