MODEL 1
REMARK minimizedAffinity -1.03336322
REMARK minimizedRMSD -1
REMARK  0 active torsions:
REMARK  status: ('A' for Active; 'I' for Inactive)
ROOT
ATOM      1  C   UNL d   1      -1.882   0.580   3.963  0.00  0.00     0.077 C 
ATOM      2  C1  UNL d   1      -1.125   0.903   2.709  0.00  0.00    -0.074 A 
ATOM      3  C2  UNL d   1      -0.467   2.128   2.562  0.00  0.00    -0.005 A 
ATOM      4  C3  UNL d   1       0.241   2.410   1.394  0.00  0.00     0.006 A 
ATOM      5  C4  UNL d   1       0.300   1.471   0.363  0.00  0.00    -0.005 A 
ATOM      6  C5  UNL d   1      -0.351   0.240   0.493  0.00  0.00    -0.074 A 
ATOM      7  C6  UNL d   1      -0.290  -0.785  -0.601  0.00  0.00     0.077 C 
ATOM      8  C7  UNL d   1      -1.055  -0.039   1.673  0.00  0.00    -0.001 A 
ENDROOT
TORSDOF 0
ENDMDL
