MODEL 1
REMARK minimizedAffinity -4.51615191
REMARK minimizedRMSD -1
REMARK  0 active torsions:
REMARK  status: ('A' for Active; 'I' for Inactive)
ROOT
ATOM      1  C   UNL d   1       1.412   3.069  -2.922  0.00  0.00     0.077 C 
ATOM      2  C1  UNL d   1       1.698   1.744  -2.278  0.00  0.00    -0.074 A 
ATOM      3  C2  UNL d   1       2.746   0.936  -2.731  0.00  0.00    -0.005 A 
ATOM      4  C3  UNL d   1       3.006  -0.288  -2.116  0.00  0.00     0.006 A 
ATOM      5  C4  UNL d   1       2.222  -0.717  -1.044  0.00  0.00    -0.005 A 
ATOM      6  C5  UNL d   1       1.170   0.078  -0.577  0.00  0.00    -0.074 A 
ATOM      7  C6  UNL d   1       0.325  -0.363   0.580  0.00  0.00     0.077 C 
ATOM      8  C7  UNL d   1       0.920   1.311  -1.195  0.00  0.00    -0.001 A 
ENDROOT
TORSDOF 0
ENDMDL
