MODEL 1
REMARK minimizedAffinity -4.09201336
REMARK minimizedRMSD -1
REMARK  0 active torsions:
REMARK  status: ('A' for Active; 'I' for Inactive)
ROOT
ATOM      1  C   UNL d   1       1.394   1.485  -2.981  0.00  0.00     0.077 C 
ATOM      2  C1  UNL d   1       1.075   0.515  -1.883  0.00  0.00    -0.074 A 
ATOM      3  C2  UNL d   1       1.780  -0.687  -1.758  0.00  0.00    -0.005 A 
ATOM      4  C3  UNL d   1       1.478  -1.575  -0.725  0.00  0.00     0.006 A 
ATOM      5  C4  UNL d   1       0.471  -1.270   0.192  0.00  0.00    -0.005 A 
ATOM      6  C5  UNL d   1      -0.243  -0.073   0.083  0.00  0.00    -0.074 A 
ATOM      7  C6  UNL d   1      -1.322   0.274   1.066  0.00  0.00     0.077 C 
ATOM      8  C7  UNL d   1       0.070   0.817  -0.953  0.00  0.00    -0.001 A 
ENDROOT
TORSDOF 0
ENDMDL
