MODEL 1
REMARK minimizedAffinity -1.2712059
REMARK minimizedRMSD -1
REMARK  0 active torsions:
REMARK  status: ('A' for Active; 'I' for Inactive)
ROOT
ATOM      1  C   UNL d   1       1.084  -2.464  -0.056  0.00  0.00     0.077 C 
ATOM      2  C1  UNL d   1       0.309  -1.190   0.105  0.00  0.00    -0.074 A 
ATOM      3  C2  UNL d   1      -0.032  -0.411  -1.005  0.00  0.00    -0.005 A 
ATOM      4  C3  UNL d   1      -0.762   0.766  -0.840  0.00  0.00     0.006 A 
ATOM      5  C4  UNL d   1      -1.157   1.176   0.434  0.00  0.00    -0.005 A 
ATOM      6  C5  UNL d   1      -0.826   0.409   1.556  0.00  0.00    -0.074 A 
ATOM      7  C6  UNL d   1      -1.251   0.830   2.931  0.00  0.00     0.077 C 
ATOM      8  C7  UNL d   1      -0.099  -0.777   1.381  0.00  0.00    -0.001 A 
ENDROOT
TORSDOF 0
ENDMDL
