MODEL 1
REMARK minimizedAffinity -4.88712215
REMARK minimizedRMSD -1
REMARK  0 active torsions:
REMARK  status: ('A' for Active; 'I' for Inactive)
ROOT
ATOM      1  C   UNL d   1       3.117   0.393  -1.834  0.00  0.00     0.077 C 
ATOM      2  C1  UNL d   1       1.922  -0.194  -1.143  0.00  0.00    -0.074 A 
ATOM      3  C2  UNL d   1       1.603  -1.548  -1.284  0.00  0.00    -0.005 A 
ATOM      4  C3  UNL d   1       0.494  -2.082  -0.627  0.00  0.00     0.006 A 
ATOM      5  C4  UNL d   1      -0.306  -1.267   0.176  0.00  0.00    -0.005 A 
ATOM      6  C5  UNL d   1      -0.002   0.089   0.329  0.00  0.00    -0.074 A 
ATOM      7  C6  UNL d   1      -0.846   0.976   1.196  0.00  0.00     0.077 C 
ATOM      8  C7  UNL d   1       1.118   0.616  -0.329  0.00  0.00    -0.001 A 
ENDROOT
TORSDOF 0
ENDMDL
