MODEL 1
REMARK minimizedAffinity -5.70536661
REMARK minimizedRMSD -1
REMARK  0 active torsions:
REMARK  status: ('A' for Active; 'I' for Inactive)
ROOT
ATOM      1  C   UNL d   1       0.716   2.455  -2.042  0.00  0.00     0.077 C 
ATOM      2  C1  UNL d   1       1.277   1.119  -1.655  0.00  0.00    -0.074 A 
ATOM      3  C2  UNL d   1       2.597   0.776  -1.966  0.00  0.00    -0.005 A 
ATOM      4  C3  UNL d   1       3.107  -0.467  -1.591  0.00  0.00     0.006 A 
ATOM      5  C4  UNL d   1       2.304  -1.377  -0.902  0.00  0.00    -0.005 A 
ATOM      6  C5  UNL d   1       0.983  -1.051  -0.581  0.00  0.00    -0.074 A 
ATOM      7  C6  UNL d   1       0.110  -2.014   0.167  0.00  0.00     0.077 C 
ATOM      8  C7  UNL d   1       0.479   0.202  -0.956  0.00  0.00    -0.001 A 
ENDROOT
TORSDOF 0
ENDMDL
