MODEL 1
REMARK minimizedAffinity -0.0825252384
REMARK minimizedRMSD -1
REMARK  0 active torsions:
REMARK  status: ('A' for Active; 'I' for Inactive)
ROOT
ATOM      1  C   UNL d   1       0.816   2.139  -2.544  0.00  0.00     0.077 C 
ATOM      2  C1  UNL d   1       0.392   2.351  -1.122  0.00  0.00    -0.074 A 
ATOM      3  C2  UNL d   1      -0.962   2.377  -0.771  0.00  0.00    -0.005 A 
ATOM      4  C3  UNL d   1      -1.341   2.565   0.558  0.00  0.00     0.006 A 
ATOM      5  C4  UNL d   1      -0.372   2.730   1.548  0.00  0.00    -0.005 A 
ATOM      6  C5  UNL d   1       0.986   2.707   1.217  0.00  0.00    -0.074 A 
ATOM      7  C6  UNL d   1       2.041   2.873   2.271  0.00  0.00     0.077 C 
ATOM      8  C7  UNL d   1       1.360   2.510  -0.120  0.00  0.00    -0.001 A 
ENDROOT
TORSDOF 0
ENDMDL
