MODEL 1
REMARK minimizedAffinity -4.70882559
REMARK minimizedRMSD -1
REMARK  0 active torsions:
REMARK  status: ('A' for Active; 'I' for Inactive)
ROOT
ATOM      1  C   UNL d   1       5.991  -1.400   5.697  0.00  0.00     0.077 C 
ATOM      2  C1  UNL d   1       5.109  -2.315   4.901  0.00  0.00    -0.074 A 
ATOM      3  C2  UNL d   1       4.370  -1.836   3.815  0.00  0.00    -0.005 A 
ATOM      4  C3  UNL d   1       3.562  -2.701   3.078  0.00  0.00     0.006 A 
ATOM      5  C4  UNL d   1       3.484  -4.052   3.419  0.00  0.00    -0.005 A 
ATOM      6  C5  UNL d   1       4.216  -4.549   4.502  0.00  0.00    -0.074 A 
ATOM      7  C6  UNL d   1       4.151  -6.000   4.876  0.00  0.00     0.077 C 
ATOM      8  C7  UNL d   1       5.032  -3.675   5.233  0.00  0.00    -0.001 A 
ENDROOT
TORSDOF 0
ENDMDL
