MODEL 1
REMARK minimizedAffinity -2.75566554
REMARK minimizedRMSD -1
REMARK  0 active torsions:
REMARK  status: ('A' for Active; 'I' for Inactive)
ROOT
ATOM      1  C   UNL d   1       4.845   0.305   5.261  0.00  0.00     0.077 C 
ATOM      2  C1  UNL d   1       4.878  -1.106   4.754  0.00  0.00    -0.074 A 
ATOM      3  C2  UNL d   1       4.422  -1.419   3.470  0.00  0.00    -0.005 A 
ATOM      4  C3  UNL d   1       4.468  -2.735   3.008  0.00  0.00     0.006 A 
ATOM      5  C4  UNL d   1       4.969  -3.749   3.825  0.00  0.00    -0.005 A 
ATOM      6  C5  UNL d   1       5.431  -3.454   5.112  0.00  0.00    -0.074 A 
ATOM      7  C6  UNL d   1       5.982  -4.531   6.000  0.00  0.00     0.077 C 
ATOM      8  C7  UNL d   1       5.388  -2.129   5.566  0.00  0.00    -0.001 A 
ENDROOT
TORSDOF 0
ENDMDL
