MODEL 1
REMARK minimizedAffinity -4.9435029
REMARK minimizedRMSD -1
REMARK  0 active torsions:
REMARK  status: ('A' for Active; 'I' for Inactive)
ROOT
ATOM      1  C   UNL d   1       2.766  -0.858  -2.203  0.00  0.00     0.077 C 
ATOM      2  C1  UNL d   1       1.510  -0.464  -1.483  0.00  0.00    -0.074 A 
ATOM      3  C2  UNL d   1       0.819  -1.383  -0.688  0.00  0.00    -0.005 A 
ATOM      4  C3  UNL d   1      -0.342  -1.000  -0.017  0.00  0.00     0.006 A 
ATOM      5  C4  UNL d   1      -0.823   0.305  -0.134  0.00  0.00    -0.005 A 
ATOM      6  C5  UNL d   1      -0.144   1.238  -0.924  0.00  0.00    -0.074 A 
ATOM      7  C6  UNL d   1      -0.642   2.648  -1.052  0.00  0.00     0.077 C 
ATOM      8  C7  UNL d   1       1.025   0.847  -1.589  0.00  0.00    -0.001 A 
ENDROOT
TORSDOF 0
ENDMDL
