MODEL 1
REMARK minimizedAffinity -5.39060497
REMARK minimizedRMSD -1
REMARK  0 active torsions:
REMARK  status: ('A' for Active; 'I' for Inactive)
ROOT
ATOM      1  C   UNL d   1       0.654   1.958  -2.675  0.00  0.00     0.077 C 
ATOM      2  C1  UNL d   1       0.616   0.933  -1.581  0.00  0.00    -0.074 A 
ATOM      3  C2  UNL d   1       1.342  -0.258  -1.685  0.00  0.00    -0.005 A 
ATOM      4  C3  UNL d   1       1.304  -1.198  -0.656  0.00  0.00     0.006 A 
ATOM      5  C4  UNL d   1       0.541  -0.957   0.487  0.00  0.00    -0.005 A 
ATOM      6  C5  UNL d   1      -0.192   0.228   0.610  0.00  0.00    -0.074 A 
ATOM      7  C6  UNL d   1      -1.010   0.506   1.836  0.00  0.00     0.077 C 
ATOM      8  C7  UNL d   1      -0.143   1.170  -0.426  0.00  0.00    -0.001 A 
ENDROOT
TORSDOF 0
ENDMDL
