MODEL 1
REMARK minimizedAffinity -4.73136234
REMARK minimizedRMSD -1
REMARK  0 active torsions:
REMARK  status: ('A' for Active; 'I' for Inactive)
ROOT
ATOM      1  C   UNL d   1       3.072   0.260  -2.718  0.00  0.00     0.077 C 
ATOM      2  C1  UNL d   1       1.872   0.082  -1.836  0.00  0.00    -0.074 A 
ATOM      3  C2  UNL d   1       1.082   1.176  -1.468  0.00  0.00    -0.005 A 
ATOM      4  C3  UNL d   1      -0.036   0.994  -0.654  0.00  0.00     0.006 A 
ATOM      5  C4  UNL d   1      -0.375  -0.281  -0.201  0.00  0.00    -0.005 A 
ATOM      6  C5  UNL d   1       0.403  -1.387  -0.559  0.00  0.00    -0.074 A 
ATOM      7  C6  UNL d   1       0.047  -2.766  -0.088  0.00  0.00     0.077 C 
ATOM      8  C7  UNL d   1       1.521  -1.197  -1.383  0.00  0.00    -0.001 A 
ENDROOT
TORSDOF 0
ENDMDL
