MODEL 1
REMARK minimizedAffinity -3.72689629
REMARK minimizedRMSD -1
REMARK  0 active torsions:
REMARK  status: ('A' for Active; 'I' for Inactive)
ROOT
ATOM      1  O1  BZF d   1      -2.091  -1.188   0.149  0.00  0.00    -0.204 OA
ATOM      2  C2  BZF d   1      -2.696  -0.110  -0.466  0.00  0.00     0.174 A 
ATOM      3  C3  BZF d   1      -1.845   0.932  -0.552  0.00  0.00    -0.012 A 
ATOM      4  C3A BZF d   1      -0.602   0.446  -0.036  0.00  0.00    -0.107 A 
ATOM      5  C4  BZF d   1       0.632   1.009   0.127  0.00  0.00     0.055 A 
ATOM      6  C5  BZF d   1       1.613   0.287   0.729  0.00  0.00    -0.016 A 
ATOM      7  C6  BZF d   1       1.394  -0.997   1.185  0.00  0.00     0.022 A 
ATOM      8  C7  BZF d   1       0.188  -1.599   1.042  0.00  0.00     0.029 A 
ATOM      9  C7A BZF d   1      -0.796  -0.884   0.404  0.00  0.00     0.058 A 
ENDROOT
TORSDOF 0
ENDMDL
