MODEL 1
REMARK minimizedAffinity -1.95604503
REMARK minimizedRMSD -1
REMARK  0 active torsions:
REMARK  status: ('A' for Active; 'I' for Inactive)
ROOT
ATOM      1  O1  BZF d   1      -3.905   2.260  -4.152  0.00  0.00    -0.204 OA
ATOM      2  C2  BZF d   1      -4.048   3.377  -3.352  0.00  0.00     0.174 A 
ATOM      3  C3  BZF d   1      -3.718   3.097  -2.075  0.00  0.00    -0.012 A 
ATOM      4  C3A BZF d   1      -3.256   1.743  -2.094  0.00  0.00    -0.107 A 
ATOM      5  C4  BZF d   1      -2.775   0.901  -1.132  0.00  0.00     0.055 A 
ATOM      6  C5  BZF d   1      -2.481  -0.383  -1.466  0.00  0.00    -0.016 A 
ATOM      7  C6  BZF d   1      -2.660  -0.860  -2.748  0.00  0.00     0.022 A 
ATOM      8  C7  BZF d   1      -3.130  -0.061  -3.737  0.00  0.00     0.029 A 
ATOM      9  C7A BZF d   1      -3.397   1.246  -3.411  0.00  0.00     0.058 A 
ENDROOT
TORSDOF 0
ENDMDL
