MODEL 1
REMARK minimizedAffinity -4.165483
REMARK minimizedRMSD -1
REMARK  0 active torsions:
REMARK  status: ('A' for Active; 'I' for Inactive)
ROOT
ATOM      1  O1  BZF d   1      -0.569   1.332   0.068  0.00  0.00    -0.204 OA
ATOM      2  C2  BZF d   1      -1.522   0.449  -0.403  0.00  0.00     0.174 A 
ATOM      3  C3  BZF d   1      -0.983  -0.769  -0.613  0.00  0.00    -0.012 A 
ATOM      4  C3A BZF d   1       0.371  -0.664  -0.165  0.00  0.00    -0.107 A 
ATOM      5  C4  BZF d   1       1.410  -1.548  -0.102  0.00  0.00     0.055 A 
ATOM      6  C5  BZF d   1       2.625  -1.110   0.320  0.00  0.00    -0.016 A 
ATOM      7  C6  BZF d   1       2.838   0.205   0.682  0.00  0.00     0.022 A 
ATOM      8  C7  BZF d   1       1.836   1.117   0.641  0.00  0.00     0.029 A 
ATOM      9  C7A BZF d   1       0.599   0.669   0.246  0.00  0.00     0.058 A 
ENDROOT
TORSDOF 0
ENDMDL
