MODEL 1
REMARK minimizedAffinity -5.4200263
REMARK minimizedRMSD -1
REMARK  0 active torsions:
REMARK  status: ('A' for Active; 'I' for Inactive)
ROOT
ATOM      1  O1  BZF d   1       0.271   1.153  -0.223  0.00  0.00    -0.204 OA
ATOM      2  C2  BZF d   1       1.365   1.996  -0.263  0.00  0.00     0.174 A 
ATOM      3  C3  BZF d   1       2.315   1.587   0.603  0.00  0.00    -0.012 A 
ATOM      4  C3A BZF d   1       1.819   0.364   1.156  0.00  0.00    -0.107 A 
ATOM      5  C4  BZF d   1       2.318  -0.527   2.063  0.00  0.00     0.055 A 
ATOM      6  C5  BZF d   1       1.552  -1.583   2.442  0.00  0.00    -0.016 A 
ATOM      7  C6  BZF d   1       0.282  -1.776   1.938  0.00  0.00     0.022 A 
ATOM      8  C7  BZF d   1      -0.254  -0.922   1.032  0.00  0.00     0.029 A 
ATOM      9  C7A BZF d   1       0.531   0.128   0.623  0.00  0.00     0.058 A 
ENDROOT
TORSDOF 0
ENDMDL
