MODEL 1
REMARK minimizedAffinity -3.70729351
REMARK minimizedRMSD -1
REMARK  0 active torsions:
REMARK  status: ('A' for Active; 'I' for Inactive)
ROOT
ATOM      1  O1  BZF d   1      -1.990   0.986  -1.813  0.00  0.00    -0.204 OA
ATOM      2  C2  BZF d   1      -2.605  -0.221  -2.085  0.00  0.00     0.174 A 
ATOM      3  C3  BZF d   1      -1.999  -1.227  -1.423  0.00  0.00    -0.012 A 
ATOM      4  C3A BZF d   1      -0.995  -0.598  -0.620  0.00  0.00    -0.107 A 
ATOM      5  C4  BZF d   1      -0.074  -1.070   0.270  0.00  0.00     0.055 A 
ATOM      6  C5  BZF d   1       0.809  -0.202   0.830  0.00  0.00    -0.016 A 
ATOM      7  C6  BZF d   1       0.801   1.142   0.519  0.00  0.00     0.022 A 
ATOM      8  C7  BZF d   1      -0.097   1.658  -0.355  0.00  0.00     0.029 A 
ATOM      9  C7A BZF d   1      -1.011   0.788  -0.897  0.00  0.00     0.058 A 
ENDROOT
TORSDOF 0
ENDMDL
