MODEL 1
REMARK minimizedAffinity -2.23654032
REMARK minimizedRMSD -1
REMARK  0 active torsions:
REMARK  status: ('A' for Active; 'I' for Inactive)
ROOT
ATOM      1  O1  BZF d   1       1.873  -1.163   1.050  0.00  0.00    -0.204 OA
ATOM      2  C2  BZF d   1       2.932  -0.287   1.185  0.00  0.00     0.174 A 
ATOM      3  C3  BZF d   1       2.620   0.923   0.678  0.00  0.00    -0.012 A 
ATOM      4  C3A BZF d   1       1.250   0.822   0.280  0.00  0.00    -0.107 A 
ATOM      5  C4  BZF d   1       0.368   1.702  -0.279  0.00  0.00     0.055 A 
ATOM      6  C5  BZF d   1      -0.876   1.268  -0.613  0.00  0.00    -0.016 A 
ATOM      7  C6  BZF d   1      -1.269  -0.039  -0.407  0.00  0.00     0.022 A 
ATOM      8  C7  BZF d   1      -0.430  -0.946   0.150  0.00  0.00     0.029 A 
ATOM      9  C7A BZF d   1       0.816  -0.502   0.518  0.00  0.00     0.058 A 
ENDROOT
TORSDOF 0
ENDMDL
