MODEL 1
REMARK minimizedAffinity -3.17742133
REMARK minimizedRMSD -1
REMARK  0 active torsions:
REMARK  status: ('A' for Active; 'I' for Inactive)
ROOT
ATOM      1  O1  BZF d   1      -1.071   1.334  -0.694  0.00  0.00    -0.204 OA
ATOM      2  C2  BZF d   1      -1.657   0.091  -0.838  0.00  0.00     0.174 A 
ATOM      3  C3  BZF d   1      -0.812  -0.885  -0.448  0.00  0.00    -0.012 A 
ATOM      4  C3A BZF d   1       0.343  -0.204   0.053  0.00  0.00    -0.107 A 
ATOM      5  C4  BZF d   1       1.521  -0.630   0.598  0.00  0.00     0.055 A 
ATOM      6  C5  BZF d   1       2.471   0.288   0.918  0.00  0.00    -0.016 A 
ATOM      7  C6  BZF d   1       2.279   1.637   0.701  0.00  0.00     0.022 A 
ATOM      8  C7  BZF d   1       1.125   2.107   0.167  0.00  0.00     0.029 A 
ATOM      9  C7A BZF d   1       0.150   1.185  -0.126  0.00  0.00     0.058 A 
ENDROOT
TORSDOF 0
ENDMDL
