MODEL 1
REMARK minimizedAffinity -4.2408638
REMARK minimizedRMSD -1
REMARK  0 active torsions:
REMARK  status: ('A' for Active; 'I' for Inactive)
ROOT
ATOM      1  O1  BZF d   1       2.567   0.680   0.736  0.00  0.00    -0.204 OA
ATOM      2  C2  BZF d   1       3.353  -0.448   0.870  0.00  0.00     0.174 A 
ATOM      3  C3  BZF d   1       2.600  -1.566   0.813  0.00  0.00    -0.012 A 
ATOM      4  C3A BZF d   1       1.271  -1.110   0.539  0.00  0.00    -0.107 A 
ATOM      5  C4  BZF d   1       0.079  -1.750   0.353  0.00  0.00     0.055 A 
ATOM      6  C5  BZF d   1      -1.047  -1.010   0.176  0.00  0.00    -0.016 A 
ATOM      7  C6  BZF d   1      -1.018   0.369   0.185  0.00  0.00     0.022 A 
ATOM      8  C7  BZF d   1       0.141   1.048   0.361  0.00  0.00     0.029 A 
ATOM      9  C7A BZF d   1       1.286   0.303   0.507  0.00  0.00     0.058 A 
ENDROOT
TORSDOF 0
ENDMDL
