MODEL 1
REMARK minimizedAffinity -5.5784688
REMARK minimizedRMSD -1
REMARK  0 active torsions:
REMARK  status: ('A' for Active; 'I' for Inactive)
ROOT
ATOM      1  O1  BZF d   1      -0.651  -0.837   0.617  0.00  0.00    -0.204 OA
ATOM      2  C2  BZF d   1      -0.760   0.379  -0.029  0.00  0.00     0.174 A 
ATOM      3  C3  BZF d   1       0.436   0.998  -0.089  0.00  0.00    -0.012 A 
ATOM      4  C3A BZF d   1       1.368   0.072   0.478  0.00  0.00    -0.107 A 
ATOM      5  C4  BZF d   1       2.717   0.105   0.684  0.00  0.00     0.055 A 
ATOM      6  C5  BZF d   1       3.313  -0.933   1.329  0.00  0.00    -0.016 A 
ATOM      7  C6  BZF d   1       2.590  -2.015   1.785  0.00  0.00     0.022 A 
ATOM      8  C7  BZF d   1       1.249  -2.095   1.600  0.00  0.00     0.029 A 
ATOM      9  C7A BZF d   1       0.650  -1.064   0.920  0.00  0.00     0.058 A 
ENDROOT
TORSDOF 0
ENDMDL
