MODEL 1
REMARK minimizedAffinity -5.84321117
REMARK minimizedRMSD -1
REMARK  0 active torsions:
REMARK  status: ('A' for Active; 'I' for Inactive)
ROOT
ATOM      1  O1  BZF d   1      -0.929  -0.499   0.467  0.00  0.00    -0.204 OA
ATOM      2  C2  BZF d   1      -1.342   0.810   0.312  0.00  0.00     0.174 A 
ATOM      3  C3  BZF d   1      -0.288   1.651   0.346  0.00  0.00    -0.012 A 
ATOM      4  C3A BZF d   1       0.864   0.807   0.442  0.00  0.00    -0.107 A 
ATOM      5  C4  BZF d   1       2.206   1.054   0.497  0.00  0.00     0.055 A 
ATOM      6  C5  BZF d   1       3.062   0.011   0.662  0.00  0.00    -0.016 A 
ATOM      7  C6  BZF d   1       2.612  -1.287   0.780  0.00  0.00     0.022 A 
ATOM      8  C7  BZF d   1       1.290  -1.581   0.725  0.00  0.00     0.029 A 
ATOM      9  C7A BZF d   1       0.424  -0.534   0.526  0.00  0.00     0.058 A 
ENDROOT
TORSDOF 0
ENDMDL
