MODEL 1
REMARK minimizedAffinity -5.44292688
REMARK minimizedRMSD -1
REMARK  0 active torsions:
REMARK  status: ('A' for Active; 'I' for Inactive)
ROOT
ATOM      1  O1  BZF d   1      -0.847  -0.559  -0.135  0.00  0.00    -0.204 OA
ATOM      2  C2  BZF d   1      -1.348   0.718   0.026  0.00  0.00     0.174 A 
ATOM      3  C3  BZF d   1      -0.370   1.574   0.386  0.00  0.00    -0.012 A 
ATOM      4  C3A BZF d   1       0.834   0.800   0.365  0.00  0.00    -0.107 A 
ATOM      5  C4  BZF d   1       2.143   1.095   0.615  0.00  0.00     0.055 A 
ATOM      6  C5  BZF d   1       3.064   0.096   0.577  0.00  0.00    -0.016 A 
ATOM      7  C6  BZF d   1       2.709  -1.208   0.298  0.00  0.00     0.022 A 
ATOM      8  C7  BZF d   1       1.423  -1.548   0.038  0.00  0.00     0.029 A 
ATOM      9  C7A BZF d   1       0.496  -0.535   0.043  0.00  0.00     0.058 A 
ENDROOT
TORSDOF 0
ENDMDL
