MODEL 1
REMARK minimizedAffinity -4.11726379
REMARK minimizedRMSD -1
REMARK  0 active torsions:
REMARK  status: ('A' for Active; 'I' for Inactive)
ROOT
ATOM      1  O1  BZF d   1      -0.192  -2.284   1.349  0.00  0.00    -0.204 OA
ATOM      2  C2  BZF d   1      -1.522  -1.923   1.442  0.00  0.00     0.174 A 
ATOM      3  C3  BZF d   1      -1.688  -0.623   1.123  0.00  0.00    -0.012 A 
ATOM      4  C3A BZF d   1      -0.393  -0.166   0.722  0.00  0.00    -0.107 A 
ATOM      5  C4  BZF d   1       0.083   1.035   0.278  0.00  0.00     0.055 A 
ATOM      6  C5  BZF d   1       1.414   1.170   0.040  0.00  0.00    -0.016 A 
ATOM      7  C6  BZF d   1       2.297   0.130   0.242  0.00  0.00     0.022 A 
ATOM      8  C7  BZF d   1       1.872  -1.081   0.677  0.00  0.00     0.029 A 
ATOM      9  C7A BZF d   1       0.523  -1.231   0.886  0.00  0.00     0.058 A 
ENDROOT
TORSDOF 0
ENDMDL
