MODEL 1
REMARK minimizedAffinity -5.23613024
REMARK minimizedRMSD -1
REMARK  0 active torsions:
REMARK  status: ('A' for Active; 'I' for Inactive)
ROOT
ATOM      1  O1  BZF d   1      -0.825  -1.380   0.829  0.00  0.00    -0.204 OA
ATOM      2  C2  BZF d   1      -0.594  -2.477   1.635  0.00  0.00     0.174 A 
ATOM      3  C3  BZF d   1       0.656  -2.446   2.140  0.00  0.00    -0.012 A 
ATOM      4  C3A BZF d   1       1.212  -1.206   1.690  0.00  0.00    -0.107 A 
ATOM      5  C4  BZF d   1       2.420  -0.596   1.877  0.00  0.00     0.055 A 
ATOM      6  C5  BZF d   1       2.672   0.577   1.240  0.00  0.00    -0.016 A 
ATOM      7  C6  BZF d   1       1.743   1.166   0.407  0.00  0.00     0.022 A 
ATOM      8  C7  BZF d   1       0.530   0.601   0.195  0.00  0.00     0.029 A 
ATOM      9  C7A BZF d   1       0.259  -0.568   0.863  0.00  0.00     0.058 A 
ENDROOT
TORSDOF 0
ENDMDL
