MODEL 1
REMARK minimizedAffinity 3.89223623
REMARK minimizedRMSD -1
REMARK  3 active torsions:
REMARK  status: ('A' for Active; 'I' for Inactive)
REMARK    1  A    between atoms: C3'_2  and  C2'_3 
REMARK    2  A    between atoms: C2'_3  and  C1'_4 
REMARK    3  A    between atoms: C1'_4  and  C1_5 
ROOT
ATOM      1  C1  N4B d   1      -0.636  -0.607   0.244  0.00  0.00    -0.075 A 
ATOM      2  C2  N4B d   1      -1.661  -0.317   1.172  0.00  0.00     0.002 A 
ATOM      3  C3  N4B d   1      -1.351  -0.108   2.494  0.00  0.00     0.002 A 
ATOM      4  C4  N4B d   1      -0.032  -0.204   2.912  0.00  0.00    -0.004 A 
ATOM      5  C5  N4B d   1       0.954  -0.460   2.005  0.00  0.00     0.002 A 
ATOM      6  C6  N4B d   1       0.658  -0.667   0.673  0.00  0.00     0.002 A 
ENDROOT
BRANCH   1   7
ATOM      7  C1' N4B d   1      -0.936  -0.927  -1.195  0.00  0.00     0.057 C 
BRANCH   7   8
ATOM      8  C2' N4B d   1      -1.655  -2.271  -1.270  0.00  0.00     0.009 C 
BRANCH   8   9
ATOM      9  C3' N4B d   1      -1.221  -3.081  -2.479  0.00  0.00     0.004 C 
ATOM     10  C4' N4B d   1      -0.073  -3.998  -2.182  0.00  0.00     0.003 C 
ENDBRANCH   8   9
ENDBRANCH   7   8
ENDBRANCH   1   7
TORSDOF 3
ENDMDL
