MODEL 1
REMARK minimizedAffinity 11.5235519
REMARK minimizedRMSD -1
REMARK  3 active torsions:
REMARK  status: ('A' for Active; 'I' for Inactive)
REMARK    1  A    between atoms: C3'_2  and  C2'_3 
REMARK    2  A    between atoms: C2'_3  and  C1'_4 
REMARK    3  A    between atoms: C1'_4  and  C1_5 
ROOT
ATOM      1  C1  N4B d   1       4.051  -4.074  -4.002  0.00  0.00    -0.075 A 
ATOM      2  C2  N4B d   1       4.639  -5.224  -3.430  0.00  0.00     0.002 A 
ATOM      3  C3  N4B d   1       5.527  -5.976  -4.160  0.00  0.00     0.002 A 
ATOM      4  C4  N4B d   1       5.827  -5.609  -5.463  0.00  0.00    -0.004 A 
ATOM      5  C5  N4B d   1       5.274  -4.483  -5.999  0.00  0.00     0.002 A 
ATOM      6  C6  N4B d   1       4.383  -3.716  -5.276  0.00  0.00     0.002 A 
ENDROOT
BRANCH   1   7
ATOM      7  C1' N4B d   1       3.009  -3.269  -3.273  0.00  0.00     0.057 C 
BRANCH   7   8
ATOM      8  C2' N4B d   1       1.949  -4.212  -2.714  0.00  0.00     0.009 C 
BRANCH   8   9
ATOM      9  C3' N4B d   1       0.869  -3.464  -1.950  0.00  0.00     0.004 C 
ATOM     10  C4' N4B d   1      -0.497  -3.658  -2.537  0.00  0.00     0.003 C 
ENDBRANCH   8   9
ENDBRANCH   7   8
ENDBRANCH   1   7
TORSDOF 3
ENDMDL
