MODEL 1
REMARK minimizedAffinity 8.6323967
REMARK minimizedRMSD -1
REMARK  3 active torsions:
REMARK  status: ('A' for Active; 'I' for Inactive)
REMARK    1  A    between atoms: C3'_2  and  C2'_3 
REMARK    2  A    between atoms: C2'_3  and  C1'_4 
REMARK    3  A    between atoms: C1'_4  and  C1_5 
ROOT
ATOM      1  C1  N4B d   1       1.224  -0.533  -0.675  0.00  0.00    -0.075 A 
ATOM      2  C2  N4B d   1      -0.091  -0.022  -0.606  0.00  0.00     0.002 A 
ATOM      3  C3  N4B d   1      -0.403   1.157  -1.237  0.00  0.00     0.002 A 
ATOM      4  C4  N4B d   1       0.583   1.849  -1.923  0.00  0.00    -0.004 A 
ATOM      5  C5  N4B d   1       1.844   1.336  -2.007  0.00  0.00     0.002 A 
ATOM      6  C6  N4B d   1       2.172   0.150  -1.381  0.00  0.00     0.002 A 
ENDROOT
BRANCH   1   7
ATOM      7  C1' N4B d   1       1.634  -1.774   0.070  0.00  0.00     0.057 C 
BRANCH   7   8
ATOM      8  C2' N4B d   1       2.054  -1.393   1.486  0.00  0.00     0.009 C 
BRANCH   8   9
ATOM      9  C3' N4B d   1       1.245  -0.224   2.023  0.00  0.00     0.004 C 
ATOM     10  C4' N4B d   1       0.146  -0.654   2.948  0.00  0.00     0.003 C 
ENDBRANCH   8   9
ENDBRANCH   7   8
ENDBRANCH   1   7
TORSDOF 3
ENDMDL
