MODEL 1
REMARK minimizedAffinity 9.47273445
REMARK minimizedRMSD -1
REMARK  3 active torsions:
REMARK  status: ('A' for Active; 'I' for Inactive)
REMARK    1  A    between atoms: C3'_2  and  C2'_3 
REMARK    2  A    between atoms: C2'_3  and  C1'_4 
REMARK    3  A    between atoms: C1'_4  and  C1_5 
ROOT
ATOM      1  C1  N4B d   1       4.344  -4.912  -5.984  0.00  0.00    -0.075 A 
ATOM      2  C2  N4B d   1       2.962  -5.204  -5.993  0.00  0.00     0.002 A 
ATOM      3  C3  N4B d   1       2.044  -4.183  -5.998  0.00  0.00     0.002 A 
ATOM      4  C4  N4B d   1       2.482  -2.867  -5.973  0.00  0.00    -0.004 A 
ATOM      5  C5  N4B d   1       3.818  -2.593  -5.989  0.00  0.00     0.002 A 
ATOM      6  C6  N4B d   1       4.752  -3.609  -5.989  0.00  0.00     0.002 A 
ENDROOT
BRANCH   1   7
ATOM      7  C1' N4B d   1       5.384  -5.994  -5.892  0.00  0.00     0.057 C 
BRANCH   7   8
ATOM      8  C2' N4B d   1       6.000  -5.981  -4.496  0.00  0.00     0.009 C 
BRANCH   8   9
ATOM      9  C3' N4B d   1       5.173  -5.163  -3.518  0.00  0.00     0.004 C 
ATOM     10  C4' N4B d   1       5.982  -4.124  -2.801  0.00  0.00     0.003 C 
ENDBRANCH   8   9
ENDBRANCH   7   8
ENDBRANCH   1   7
TORSDOF 3
ENDMDL
