MODEL 1
REMARK minimizedAffinity 13.0485163
REMARK minimizedRMSD -1
REMARK  3 active torsions:
REMARK  status: ('A' for Active; 'I' for Inactive)
REMARK    1  A    between atoms: C3'_2  and  C2'_3 
REMARK    2  A    between atoms: C2'_3  and  C1'_4 
REMARK    3  A    between atoms: C1'_4  and  C1_5 
ROOT
ATOM      1  C1  N4B d   1       5.953  -1.889  -0.262  0.00  0.00    -0.075 A 
ATOM      2  C2  N4B d   1       5.965  -0.491  -0.056  0.00  0.00     0.002 A 
ATOM      3  C3  N4B d   1       5.989   0.015   1.220  0.00  0.00     0.002 A 
ATOM      4  C4  N4B d   1       5.984  -0.853   2.302  0.00  0.00    -0.004 A 
ATOM      5  C5  N4B d   1       5.998  -2.201   2.095  0.00  0.00     0.002 A 
ATOM      6  C6  N4B d   1       5.978  -2.724   0.818  0.00  0.00     0.002 A 
ENDROOT
BRANCH   1   7
ATOM      7  C1' N4B d   1       5.839  -2.488  -1.637  0.00  0.00     0.057 C 
BRANCH   7   8
ATOM      8  C2' N4B d   1       4.499  -2.090  -2.247  0.00  0.00     0.009 C 
BRANCH   8   9
ATOM      9  C3' N4B d   1       3.912  -3.199  -3.103  0.00  0.00     0.004 C 
ATOM     10  C4' N4B d   1       4.919  -3.812  -4.030  0.00  0.00     0.003 C 
ENDBRANCH   8   9
ENDBRANCH   7   8
ENDBRANCH   1   7
TORSDOF 3
ENDMDL
