MODEL 1
REMARK minimizedAffinity 12.9567261
REMARK minimizedRMSD -1
REMARK  3 active torsions:
REMARK  status: ('A' for Active; 'I' for Inactive)
REMARK    1  A    between atoms: C3'_2  and  C2'_3 
REMARK    2  A    between atoms: C2'_3  and  C1'_4 
REMARK    3  A    between atoms: C1'_4  and  C1_5 
ROOT
ATOM      1  C1  N4B d   1       1.773  -1.318   2.043  0.00  0.00    -0.075 A 
ATOM      2  C2  N4B d   1       0.803  -0.685   2.851  0.00  0.00     0.002 A 
ATOM      3  C3  N4B d   1      -0.207   0.041   2.270  0.00  0.00     0.002 A 
ATOM      4  C4  N4B d   1      -0.258   0.163   0.890  0.00  0.00    -0.004 A 
ATOM      5  C5  N4B d   1       0.668  -0.472   0.115  0.00  0.00     0.002 A 
ATOM      6  C6  N4B d   1       1.687  -1.208   0.685  0.00  0.00     0.002 A 
ENDROOT
BRANCH   1   7
ATOM      7  C1' N4B d   1       2.946  -2.051   2.635  0.00  0.00     0.057 C 
BRANCH   7   8
ATOM      8  C2' N4B d   1       4.236  -1.347   2.224  0.00  0.00     0.009 C 
BRANCH   8   9
ATOM      9  C3' N4B d   1       5.463  -2.024   2.809  0.00  0.00     0.004 C 
ATOM     10  C4' N4B d   1       5.774  -1.561   4.201  0.00  0.00     0.003 C 
ENDBRANCH   8   9
ENDBRANCH   7   8
ENDBRANCH   1   7
TORSDOF 3
ENDMDL
