MODEL 1
REMARK minimizedAffinity 5.81226683
REMARK minimizedRMSD -1
REMARK  3 active torsions:
REMARK  status: ('A' for Active; 'I' for Inactive)
REMARK    1  A    between atoms: C3'_2  and  C2'_3 
REMARK    2  A    between atoms: C2'_3  and  C1'_4 
REMARK    3  A    between atoms: C1'_4  and  C1_5 
ROOT
ATOM      1  C1  N4B d   1       3.888  -4.826  -3.801  0.00  0.00    -0.075 A 
ATOM      2  C2  N4B d   1       3.491  -4.103  -4.947  0.00  0.00     0.002 A 
ATOM      3  C3  N4B d   1       4.360  -3.953  -6.000  0.00  0.00     0.002 A 
ATOM      4  C4  N4B d   1       5.633  -4.499  -5.921  0.00  0.00    -0.004 A 
ATOM      5  C5  N4B d   1       6.000  -5.217  -4.821  0.00  0.00     0.002 A 
ATOM      6  C6  N4B d   1       5.135  -5.379  -3.758  0.00  0.00     0.002 A 
ENDROOT
BRANCH   1   7
ATOM      7  C1' N4B d   1       3.004  -4.943  -2.590  0.00  0.00     0.057 C 
BRANCH   7   8
ATOM      8  C2' N4B d   1       1.957  -3.834  -2.625  0.00  0.00     0.009 C 
BRANCH   8   9
ATOM      9  C3' N4B d   1       0.818  -4.096  -1.655  0.00  0.00     0.004 C 
ATOM     10  C4' N4B d   1      -0.503  -3.599  -2.162  0.00  0.00     0.003 C 
ENDBRANCH   8   9
ENDBRANCH   7   8
ENDBRANCH   1   7
TORSDOF 3
ENDMDL
