MODEL 1
REMARK minimizedAffinity 2.37249207
REMARK minimizedRMSD -1
REMARK  3 active torsions:
REMARK  status: ('A' for Active; 'I' for Inactive)
REMARK    1  A    between atoms: C3'_2  and  C2'_3 
REMARK    2  A    between atoms: C2'_3  and  C1'_4 
REMARK    3  A    between atoms: C1'_4  and  C1_5 
ROOT
ATOM      1  C1  N4B d   1       5.225  -3.883  -4.490  0.00  0.00    -0.075 A 
ATOM      2  C2  N4B d   1       5.795  -5.082  -4.971  0.00  0.00     0.002 A 
ATOM      3  C3  N4B d   1       5.031  -5.962  -5.697  0.00  0.00     0.002 A 
ATOM      4  C4  N4B d   1       3.695  -5.676  -5.936  0.00  0.00    -0.004 A 
ATOM      5  C5  N4B d   1       3.159  -4.504  -5.489  0.00  0.00     0.002 A 
ATOM      6  C6  N4B d   1       3.916  -3.608  -4.762  0.00  0.00     0.002 A 
ENDROOT
BRANCH   1   7
ATOM      7  C1' N4B d   1       5.998  -2.930  -3.619  0.00  0.00     0.057 C 
BRANCH   7   8
ATOM      8  C2' N4B d   1       5.833  -3.340  -2.159  0.00  0.00     0.009 C 
BRANCH   8   9
ATOM      9  C3' N4B d   1       5.765  -2.137  -1.235  0.00  0.00     0.004 C 
ATOM     10  C4' N4B d   1       5.997  -2.494   0.203  0.00  0.00     0.003 C 
ENDBRANCH   8   9
ENDBRANCH   7   8
ENDBRANCH   1   7
TORSDOF 3
ENDMDL
