MODEL 1
REMARK minimizedAffinity 2.46875596
REMARK minimizedRMSD -1
REMARK  3 active torsions:
REMARK  status: ('A' for Active; 'I' for Inactive)
REMARK    1  A    between atoms: C3'_2  and  C2'_3 
REMARK    2  A    between atoms: C2'_3  and  C1'_4 
REMARK    3  A    between atoms: C1'_4  and  C1_5 
ROOT
ATOM      1  C1  N4B d   1      -2.204  -3.348  -1.537  0.00  0.00    -0.075 A 
ATOM      2  C2  N4B d   1      -3.421  -2.975  -0.927  0.00  0.00     0.002 A 
ATOM      3  C3  N4B d   1      -4.358  -3.932  -0.622  0.00  0.00     0.002 A 
ATOM      4  C4  N4B d   1      -4.109  -5.260  -0.935  0.00  0.00    -0.004 A 
ATOM      5  C5  N4B d   1      -2.920  -5.615  -1.501  0.00  0.00     0.002 A 
ATOM      6  C6  N4B d   1      -1.967  -4.665  -1.809  0.00  0.00     0.002 A 
ENDROOT
BRANCH   1   7
ATOM      7  C1' N4B d   1      -1.185  -2.328  -1.967  0.00  0.00     0.057 C 
BRANCH   7   8
ATOM      8  C2' N4B d   1      -0.312  -1.958  -0.772  0.00  0.00     0.009 C 
BRANCH   8   9
ATOM      9  C3' N4B d   1      -0.631  -0.571  -0.242  0.00  0.00     0.004 C 
ATOM     10  C4' N4B d   1      -0.086  -0.336   1.135  0.00  0.00     0.003 C 
ENDBRANCH   8   9
ENDBRANCH   7   8
ENDBRANCH   1   7
TORSDOF 3
ENDMDL
