MODEL 1
REMARK minimizedAffinity 2.27646446
REMARK minimizedRMSD -1
REMARK  3 active torsions:
REMARK  status: ('A' for Active; 'I' for Inactive)
REMARK    1  A    between atoms: C3'_2  and  C2'_3 
REMARK    2  A    between atoms: C2'_3  and  C1'_4 
REMARK    3  A    between atoms: C1'_4  and  C1_5 
ROOT
ATOM      1  C1  N4B d   1       5.264  -4.481  -3.668  0.00  0.00    -0.075 A 
ATOM      2  C2  N4B d   1       5.241  -5.633  -4.484  0.00  0.00     0.002 A 
ATOM      3  C3  N4B d   1       4.505  -5.637  -5.644  0.00  0.00     0.002 A 
ATOM      4  C4  N4B d   1       3.774  -4.513  -5.997  0.00  0.00    -0.004 A 
ATOM      5  C5  N4B d   1       3.822  -3.395  -5.216  0.00  0.00     0.002 A 
ATOM      6  C6  N4B d   1       4.560  -3.375  -4.050  0.00  0.00     0.002 A 
ENDROOT
BRANCH   1   7
ATOM      7  C1' N4B d   1       5.985  -4.458  -2.348  0.00  0.00     0.057 C 
BRANCH   7   8
ATOM      8  C2' N4B d   1       6.000  -3.030  -1.810  0.00  0.00     0.009 C 
BRANCH   8   9
ATOM      9  C3' N4B d   1       5.996  -2.994  -0.292  0.00  0.00     0.004 C 
ATOM     10  C4' N4B d   1       5.844  -1.606   0.256  0.00  0.00     0.003 C 
ENDBRANCH   8   9
ENDBRANCH   7   8
ENDBRANCH   1   7
TORSDOF 3
ENDMDL
