MODEL 1
REMARK minimizedAffinity 7.9391737
REMARK minimizedRMSD -1
REMARK  3 active torsions:
REMARK  status: ('A' for Active; 'I' for Inactive)
REMARK    1  A    between atoms: C3'_2  and  C2'_3 
REMARK    2  A    between atoms: C2'_3  and  C1'_4 
REMARK    3  A    between atoms: C1'_4  and  C1_5 
ROOT
ATOM      1  C1  N4B d   1       4.638  -3.657  -5.368  0.00  0.00    -0.075 A 
ATOM      2  C2  N4B d   1       4.603  -4.924  -5.992  0.00  0.00     0.002 A 
ATOM      3  C3  N4B d   1       5.262  -5.987  -5.426  0.00  0.00     0.002 A 
ATOM      4  C4  N4B d   1       5.976  -5.804  -4.251  0.00  0.00    -0.004 A 
ATOM      5  C5  N4B d   1       5.985  -4.583  -3.641  0.00  0.00     0.002 A 
ATOM      6  C6  N4B d   1       5.323  -3.507  -4.197  0.00  0.00     0.002 A 
ENDROOT
BRANCH   1   7
ATOM      7  C1' N4B d   1       4.004  -2.445  -5.995  0.00  0.00     0.057 C 
BRANCH   7   8
ATOM      8  C2' N4B d   1       4.989  -1.282  -5.943  0.00  0.00     0.009 C 
BRANCH   8   9
ATOM      9  C3' N4B d   1       4.281   0.062  -5.912  0.00  0.00     0.004 C 
ATOM     10  C4' N4B d   1       4.151   0.618  -4.525  0.00  0.00     0.003 C 
ENDBRANCH   8   9
ENDBRANCH   7   8
ENDBRANCH   1   7
TORSDOF 3
ENDMDL
