MODEL 1
REMARK minimizedAffinity -0.611872494
REMARK minimizedRMSD -1
REMARK  0 active torsions:
REMARK  status: ('A' for Active; 'I' for Inactive)
ROOT
ATOM      1  O1  BZF d   1      -1.390   5.938  -4.689  0.00  0.00    -0.204 OA
ATOM      2  C2  BZF d   1      -1.866   5.911  -5.986  0.00  0.00     0.174 A 
ATOM      3  C3  BZF d   1      -3.214   5.864  -6.000  0.00  0.00    -0.012 A 
ATOM      4  C3A BZF d   1      -3.608   5.956  -4.627  0.00  0.00    -0.107 A 
ATOM      5  C4  BZF d   1      -4.820   5.977  -3.998  0.00  0.00     0.055 A 
ATOM      6  C5  BZF d   1      -4.858   6.000  -2.640  0.00  0.00    -0.016 A 
ATOM      7  C6  BZF d   1      -3.706   5.996  -1.881  0.00  0.00     0.022 A 
ATOM      8  C7  BZF d   1      -2.481   5.980  -2.460  0.00  0.00     0.029 A 
ATOM      9  C7A BZF d   1      -2.439   5.990  -3.833  0.00  0.00     0.058 A 
ENDROOT
TORSDOF 0
ENDMDL
