MODEL 1
REMARK minimizedAffinity 5.6874299
REMARK minimizedRMSD -1
REMARK  0 active torsions:
REMARK  status: ('A' for Active; 'I' for Inactive)
ROOT
ATOM      1  O1  BZF d   1      -3.153   0.413   5.313  0.00  0.00    -0.204 OA
ATOM      2  C2  BZF d   1      -2.130   1.196   4.814  0.00  0.00     0.174 A 
ATOM      3  C3  BZF d   1      -1.906   0.918   3.513  0.00  0.00    -0.012 A 
ATOM      4  C3A BZF d   1      -2.909  -0.036   3.154  0.00  0.00    -0.107 A 
ATOM      5  C4  BZF d   1      -3.217  -0.682   1.991  0.00  0.00     0.055 A 
ATOM      6  C5  BZF d   1      -4.212  -1.608   1.992  0.00  0.00    -0.016 A 
ATOM      7  C6  BZF d   1      -4.915  -1.915   3.138  0.00  0.00     0.022 A 
ATOM      8  C7  BZF d   1      -4.650  -1.297   4.315  0.00  0.00     0.029 A 
ATOM      9  C7A BZF d   1      -3.667  -0.337   4.309  0.00  0.00     0.058 A 
ENDROOT
TORSDOF 0
ENDMDL
