MODEL 1
REMARK minimizedAffinity 7.80186319
REMARK minimizedRMSD -1
REMARK  0 active torsions:
REMARK  status: ('A' for Active; 'I' for Inactive)
ROOT
ATOM      1  O1  BZF d   1      -3.689   0.406   5.980  0.00  0.00    -0.204 OA
ATOM      2  C2  BZF d   1      -2.643   1.132   5.443  0.00  0.00     0.174 A 
ATOM      3  C3  BZF d   1      -2.476   0.835   4.138  0.00  0.00    -0.012 A 
ATOM      4  C3A BZF d   1      -3.539  -0.068   3.818  0.00  0.00    -0.107 A 
ATOM      5  C4  BZF d   1      -3.916  -0.704   2.670  0.00  0.00     0.055 A 
ATOM      6  C5  BZF d   1      -4.957  -1.577   2.710  0.00  0.00    -0.016 A 
ATOM      7  C6  BZF d   1      -5.638  -1.841   3.880  0.00  0.00     0.022 A 
ATOM      8  C7  BZF d   1      -5.304  -1.230   5.043  0.00  0.00     0.029 A 
ATOM      9  C7A BZF d   1      -4.274  -0.323   4.999  0.00  0.00     0.058 A 
ENDROOT
TORSDOF 0
ENDMDL
