MODEL 1
REMARK minimizedAffinity 18.2905102
REMARK minimizedRMSD -1
REMARK  0 active torsions:
REMARK  status: ('A' for Active; 'I' for Inactive)
ROOT
ATOM      1  O1  BZF d   1      -5.508  -0.223   0.122  0.00  0.00    -0.204 OA
ATOM      2  C2  BZF d   1      -5.378   1.116   0.434  0.00  0.00     0.174 A 
ATOM      3  C3  BZF d   1      -5.417   1.873  -0.681  0.00  0.00    -0.012 A 
ATOM      4  C3A BZF d   1      -5.673   0.957  -1.749  0.00  0.00    -0.107 A 
ATOM      5  C4  BZF d   1      -5.836   1.107  -3.097  0.00  0.00     0.055 A 
ATOM      6  C5  BZF d   1      -6.000   0.001  -3.870  0.00  0.00    -0.016 A 
ATOM      7  C6  BZF d   1      -6.000  -1.268  -3.330  0.00  0.00     0.022 A 
ATOM      8  C7  BZF d   1      -5.846  -1.467  -1.998  0.00  0.00     0.029 A 
ATOM      9  C7A BZF d   1      -5.714  -0.350  -1.210  0.00  0.00     0.058 A 
ENDROOT
TORSDOF 0
ENDMDL
