MODEL 1
REMARK minimizedAffinity 19.8275681
REMARK minimizedRMSD -1
REMARK  0 active torsions:
REMARK  status: ('A' for Active; 'I' for Inactive)
ROOT
ATOM      1  O1  BZF d   1       3.565   0.001   2.194  0.00  0.00    -0.204 OA
ATOM      2  C2  BZF d   1       3.348   0.912   1.178  0.00  0.00     0.174 A 
ATOM      3  C3  BZF d   1       2.090   0.808   0.703  0.00  0.00    -0.012 A 
ATOM      4  C3A BZF d   1       1.454  -0.169   1.533  0.00  0.00    -0.107 A 
ATOM      5  C4  BZF d   1       0.193  -0.693   1.568  0.00  0.00     0.055 A 
ATOM      6  C5  BZF d   1      -0.085  -1.684   2.456  0.00  0.00    -0.016 A 
ATOM      7  C6  BZF d   1       0.873  -2.177   3.318  0.00  0.00     0.022 A 
ATOM      8  C7  BZF d   1       2.135  -1.684   3.323  0.00  0.00     0.029 A 
ATOM      9  C7A BZF d   1       2.411  -0.661   2.450  0.00  0.00     0.058 A 
ENDROOT
TORSDOF 0
ENDMDL
