MODEL 1
REMARK minimizedAffinity 16.6247044
REMARK minimizedRMSD -1
REMARK  0 active torsions:
REMARK  status: ('A' for Active; 'I' for Inactive)
ROOT
ATOM      1  O1  BZF d   1       3.844   1.274  -0.935  0.00  0.00    -0.204 OA
ATOM      2  C2  BZF d   1       2.963   1.003   0.095  0.00  0.00     0.174 A 
ATOM      3  C3  BZF d   1       1.765   1.577  -0.137  0.00  0.00    -0.012 A 
ATOM      4  C3A BZF d   1       1.877   2.171  -1.434  0.00  0.00    -0.107 A 
ATOM      5  C4  BZF d   1       1.011   2.873  -2.223  0.00  0.00     0.055 A 
ATOM      6  C5  BZF d   1       1.455   3.377  -3.405  0.00  0.00    -0.016 A 
ATOM      7  C6  BZF d   1       2.757   3.203  -3.825  0.00  0.00     0.022 A 
ATOM      8  C7  BZF d   1       3.651   2.509  -3.079  0.00  0.00     0.029 A 
ATOM      9  C7A BZF d   1       3.197   1.971  -1.900  0.00  0.00     0.058 A 
ENDROOT
TORSDOF 0
ENDMDL
