MODEL 1
REMARK minimizedAffinity 14.6595545
REMARK minimizedRMSD -1
REMARK  0 active torsions:
REMARK  status: ('A' for Active; 'I' for Inactive)
ROOT
ATOM      1  O1  BZF d   1      -0.690   0.469   4.121  0.00  0.00    -0.204 OA
ATOM      2  C2  BZF d   1      -1.932   0.964   4.470  0.00  0.00     0.174 A 
ATOM      3  C3  BZF d   1      -2.870   0.575   3.583  0.00  0.00    -0.012 A 
ATOM      4  C3A BZF d   1      -2.187  -0.290   2.670  0.00  0.00    -0.107 A 
ATOM      5  C4  BZF d   1      -2.586  -1.002   1.575  0.00  0.00     0.055 A 
ATOM      6  C5  BZF d   1      -1.658  -1.689   0.859  0.00  0.00    -0.016 A 
ATOM      7  C6  BZF d   1      -0.322  -1.681   1.206  0.00  0.00     0.022 A 
ATOM      8  C7  BZF d   1       0.121  -0.993   2.286  0.00  0.00     0.029 A 
ATOM      9  C7A BZF d   1      -0.821  -0.325   3.031  0.00  0.00     0.058 A 
ENDROOT
TORSDOF 0
ENDMDL
