MODEL 1
REMARK minimizedAffinity 5.99826384
REMARK minimizedRMSD -1
REMARK  0 active torsions:
REMARK  status: ('A' for Active; 'I' for Inactive)
ROOT
ATOM      1  O1  BZF d   1       1.471  -1.408   4.260  0.00  0.00    -0.204 OA
ATOM      2  C2  BZF d   1       2.091  -2.389   3.511  0.00  0.00     0.174 A 
ATOM      3  C3  BZF d   1       1.360  -2.691   2.419  0.00  0.00    -0.012 A 
ATOM      4  C3A BZF d   1       0.256  -1.781   2.441  0.00  0.00    -0.107 A 
ATOM      5  C4  BZF d   1      -0.809  -1.577   1.611  0.00  0.00     0.055 A 
ATOM      6  C5  BZF d   1      -1.748  -0.657   1.956  0.00  0.00    -0.016 A 
ATOM      7  C6  BZF d   1      -1.656   0.071   3.124  0.00  0.00     0.022 A 
ATOM      8  C7  BZF d   1      -0.615  -0.093   3.977  0.00  0.00     0.029 A 
ATOM      9  C7A BZF d   1       0.352  -0.998   3.615  0.00  0.00     0.058 A 
ENDROOT
TORSDOF 0
ENDMDL
