MODEL 1
REMARK minimizedAffinity 4.10665655
REMARK minimizedRMSD -1
REMARK  0 active torsions:
REMARK  status: ('A' for Active; 'I' for Inactive)
ROOT
ATOM      1  O1  BZF d   1      -4.679  -5.629   2.559  0.00  0.00    -0.204 OA
ATOM      2  C2  BZF d   1      -4.496  -4.507   1.774  0.00  0.00     0.174 A 
ATOM      3  C3  BZF d   1      -4.838  -3.391   2.449  0.00  0.00    -0.012 A 
ATOM      4  C3A BZF d   1      -5.174  -3.835   3.767  0.00  0.00    -0.107 A 
ATOM      5  C4  BZF d   1      -5.577  -3.190   4.901  0.00  0.00     0.055 A 
ATOM      6  C5  BZF d   1      -5.895  -3.924   6.000  0.00  0.00    -0.016 A 
ATOM      7  C6  BZF d   1      -5.826  -5.301   5.998  0.00  0.00     0.022 A 
ATOM      8  C7  BZF d   1      -5.426  -5.985   4.899  0.00  0.00     0.029 A 
ATOM      9  C7A BZF d   1      -5.073  -5.246   3.797  0.00  0.00     0.058 A 
ENDROOT
TORSDOF 0
ENDMDL
