MODEL 1
REMARK minimizedAffinity 19.0718594
REMARK minimizedRMSD -1
REMARK  0 active torsions:
REMARK  status: ('A' for Active; 'I' for Inactive)
ROOT
ATOM      1  O1  BZF d   1       4.976   2.601   2.211  0.00  0.00    -0.204 OA
ATOM      2  C2  BZF d   1       5.999   3.349   1.662  0.00  0.00     0.174 A 
ATOM      3  C3  BZF d   1       5.940   3.324   0.315  0.00  0.00    -0.012 A 
ATOM      4  C3A BZF d   1       4.755   2.585   0.004  0.00  0.00    -0.107 A 
ATOM      5  C4  BZF d   1       4.148   2.233  -1.168  0.00  0.00     0.055 A 
ATOM      6  C5  BZF d   1       3.041   1.446  -1.128  0.00  0.00    -0.016 A 
ATOM      7  C6  BZF d   1       2.517   0.989   0.064  0.00  0.00     0.022 A 
ATOM      8  C7  BZF d   1       3.081   1.316   1.252  0.00  0.00     0.029 A 
ATOM      9  C7A BZF d   1       4.181   2.138   1.217  0.00  0.00     0.058 A 
ENDROOT
TORSDOF 0
ENDMDL
