MODEL 1
REMARK minimizedAffinity 14.8905067
REMARK minimizedRMSD -1
REMARK  0 active torsions:
REMARK  status: ('A' for Active; 'I' for Inactive)
ROOT
ATOM      1  O1  BZF d   1      -1.593   0.529   4.831  0.00  0.00    -0.204 OA
ATOM      2  C2  BZF d   1      -0.868  -0.266   3.963  0.00  0.00     0.174 A 
ATOM      3  C3  BZF d   1      -1.525  -0.422   2.796  0.00  0.00    -0.012 A 
ATOM      4  C3A BZF d   1      -2.693   0.397   2.909  0.00  0.00    -0.107 A 
ATOM      5  C4  BZF d   1      -3.732   0.672   2.066  0.00  0.00     0.055 A 
ATOM      6  C5  BZF d   1      -4.751   1.456   2.507  0.00  0.00    -0.016 A 
ATOM      7  C6  BZF d   1      -4.766   1.976   3.785  0.00  0.00     0.022 A 
ATOM      8  C7  BZF d   1      -3.755   1.735   4.655  0.00  0.00     0.029 A 
ATOM      9  C7A BZF d   1      -2.708   0.970   4.201  0.00  0.00     0.058 A 
ENDROOT
TORSDOF 0
ENDMDL
