MODEL 1
REMARK minimizedAffinity 5.73047876
REMARK minimizedRMSD -1
REMARK  0 active torsions:
REMARK  status: ('A' for Active; 'I' for Inactive)
ROOT
ATOM      1  O1  BZF d   1      -1.615  -0.432   2.769  0.00  0.00    -0.204 OA
ATOM      2  C2  BZF d   1      -2.226  -0.471   1.530  0.00  0.00     0.174 A 
ATOM      3  C3  BZF d   1      -1.762  -1.506   0.800  0.00  0.00    -0.012 A 
ATOM      4  C3A BZF d   1      -0.869  -2.209   1.670  0.00  0.00    -0.107 A 
ATOM      5  C4  BZF d   1      -0.109  -3.334   1.524  0.00  0.00     0.055 A 
ATOM      6  C5  BZF d   1       0.709  -3.714   2.540  0.00  0.00    -0.016 A 
ATOM      7  C6  BZF d   1       0.797  -2.991   3.711  0.00  0.00     0.022 A 
ATOM      8  C7  BZF d   1       0.060  -1.870   3.904  0.00  0.00     0.029 A 
ATOM      9  C7A BZF d   1      -0.793  -1.502   2.892  0.00  0.00     0.058 A 
ENDROOT
TORSDOF 0
ENDMDL
