MODEL 1
REMARK minimizedAffinity 4.53156853
REMARK minimizedRMSD -1
REMARK  0 active torsions:
REMARK  status: ('A' for Active; 'I' for Inactive)
ROOT
ATOM      1  O1  BZF d   1      -5.177   5.959  -2.791  0.00  0.00    -0.204 OA
ATOM      2  C2  BZF d   1      -4.470   5.913  -1.605  0.00  0.00     0.174 A 
ATOM      3  C3  BZF d   1      -3.144   5.842  -1.840  0.00  0.00    -0.012 A 
ATOM      4  C3A BZF d   1      -3.009   5.937  -3.262  0.00  0.00    -0.107 A 
ATOM      5  C4  BZF d   1      -1.934   5.943  -4.104  0.00  0.00     0.055 A 
ATOM      6  C5  BZF d   1      -2.147   5.976  -5.446  0.00  0.00    -0.016 A 
ATOM      7  C6  BZF d   1      -3.419   5.999  -5.979  0.00  0.00     0.022 A 
ATOM      8  C7  BZF d   1      -4.516   6.000  -5.183  0.00  0.00     0.029 A 
ATOM      9  C7A BZF d   1      -4.304   6.000  -3.826  0.00  0.00     0.058 A 
ENDROOT
TORSDOF 0
ENDMDL
