MODEL 1
REMARK minimizedAffinity 15.6760921
REMARK minimizedRMSD -1
REMARK  0 active torsions:
REMARK  status: ('A' for Active; 'I' for Inactive)
ROOT
ATOM      1  O1  BZF d   1      -2.244   1.259   2.234  0.00  0.00    -0.204 OA
ATOM      2  C2  BZF d   1      -3.567   0.946   1.984  0.00  0.00     0.174 A 
ATOM      3  C3  BZF d   1      -3.671  -0.270   1.412  0.00  0.00    -0.012 A 
ATOM      4  C3A BZF d   1      -2.337  -0.787   1.381  0.00  0.00    -0.107 A 
ATOM      5  C4  BZF d   1      -1.795  -1.962   0.944  0.00  0.00     0.055 A 
ATOM      6  C5  BZF d   1      -0.447  -2.125   0.989  0.00  0.00    -0.016 A 
ATOM      7  C6  BZF d   1       0.389  -1.133   1.459  0.00  0.00     0.022 A 
ATOM      8  C7  BZF d   1      -0.103   0.048   1.908  0.00  0.00     0.029 A 
ATOM      9  C7A BZF d   1      -1.467   0.202   1.895  0.00  0.00     0.058 A 
ENDROOT
TORSDOF 0
ENDMDL
