MODEL 1
REMARK minimizedAffinity 18.8059063
REMARK minimizedRMSD -1
REMARK  0 active torsions:
REMARK  status: ('A' for Active; 'I' for Inactive)
ROOT
ATOM      1  O1  BZF d   1      -0.427  -3.564  -3.445  0.00  0.00    -0.204 OA
ATOM      2  C2  BZF d   1      -1.317  -2.993  -2.557  0.00  0.00     0.174 A 
ATOM      3  C3  BZF d   1      -2.571  -3.433  -2.787  0.00  0.00    -0.012 A 
ATOM      4  C3A BZF d   1      -2.443  -4.406  -3.828  0.00  0.00    -0.107 A 
ATOM      5  C4  BZF d   1      -3.337  -5.207  -4.480  0.00  0.00     0.055 A 
ATOM      6  C5  BZF d   1      -2.900  -5.993  -5.498  0.00  0.00    -0.016 A 
ATOM      7  C6  BZF d   1      -1.578  -5.999  -5.895  0.00  0.00     0.022 A 
ATOM      8  C7  BZF d   1      -0.654  -5.225  -5.275  0.00  0.00     0.029 A 
ATOM      9  C7A BZF d   1      -1.086  -4.455  -4.224  0.00  0.00     0.058 A 
ENDROOT
TORSDOF 0
ENDMDL
