MODEL 1
REMARK minimizedAffinity 4.07102299
REMARK minimizedRMSD -1
REMARK  0 active torsions:
REMARK  status: ('A' for Active; 'I' for Inactive)
ROOT
ATOM      1  O1  BZF d   1      -5.984  -6.000   4.734  0.00  0.00    -0.204 OA
ATOM      2  C2  BZF d   1      -5.989  -5.447   6.000  0.00  0.00     0.174 A 
ATOM      3  C3  BZF d   1      -5.384  -4.242   5.999  0.00  0.00    -0.012 A 
ATOM      4  C3A BZF d   1      -5.057  -3.987   4.629  0.00  0.00    -0.107 A 
ATOM      5  C4  BZF d   1      -4.455  -2.943   3.986  0.00  0.00     0.055 A 
ATOM      6  C5  BZF d   1      -4.219  -3.037   2.652  0.00  0.00    -0.016 A 
ATOM      7  C6  BZF d   1      -4.565  -4.161   1.930  0.00  0.00     0.022 A 
ATOM      8  C7  BZF d   1      -5.168  -5.220   2.523  0.00  0.00     0.029 A 
ATOM      9  C7A BZF d   1      -5.438  -5.114   3.866  0.00  0.00     0.058 A 
ENDROOT
TORSDOF 0
ENDMDL
