MODEL 1
REMARK minimizedAffinity 14.5022116
REMARK minimizedRMSD -1
REMARK  0 active torsions:
REMARK  status: ('A' for Active; 'I' for Inactive)
ROOT
ATOM      1  O1  BZF d   1       2.107   6.000  -1.512  0.00  0.00    -0.204 OA
ATOM      2  C2  BZF d   1       0.727   6.000  -1.579  0.00  0.00     0.174 A 
ATOM      3  C3  BZF d   1       0.292   5.091  -2.475  0.00  0.00    -0.012 A 
ATOM      4  C3A BZF d   1       1.469   4.420  -2.933  0.00  0.00    -0.107 A 
ATOM      5  C4  BZF d   1       1.686   3.404  -3.819  0.00  0.00     0.055 A 
ATOM      6  C5  BZF d   1       2.963   3.032  -4.098  0.00  0.00    -0.016 A 
ATOM      7  C6  BZF d   1       4.045   3.656  -3.514  0.00  0.00     0.022 A 
ATOM      8  C7  BZF d   1       3.880   4.666  -2.625  0.00  0.00     0.029 A 
ATOM      9  C7A BZF d   1       2.590   5.022  -2.316  0.00  0.00     0.058 A 
ENDROOT
TORSDOF 0
ENDMDL
