MODEL 1
REMARK minimizedAffinity 13.4862499
REMARK minimizedRMSD -1
REMARK  0 active torsions:
REMARK  status: ('A' for Active; 'I' for Inactive)
ROOT
ATOM      1  O1  BZF d   1      -0.871  -2.650   1.900  0.00  0.00    -0.204 OA
ATOM      2  C2  BZF d   1      -0.402  -1.359   1.752  0.00  0.00     0.174 A 
ATOM      3  C3  BZF d   1      -1.323  -0.582   1.146  0.00  0.00    -0.012 A 
ATOM      4  C3A BZF d   1      -2.473  -1.418   0.983  0.00  0.00    -0.107 A 
ATOM      5  C4  BZF d   1      -3.717  -1.213   0.459  0.00  0.00     0.055 A 
ATOM      6  C5  BZF d   1      -4.583  -2.257   0.383  0.00  0.00    -0.016 A 
ATOM      7  C6  BZF d   1      -4.236  -3.520   0.817  0.00  0.00     0.022 A 
ATOM      8  C7  BZF d   1      -3.016  -3.772   1.350  0.00  0.00     0.029 A 
ATOM      9  C7A BZF d   1      -2.150  -2.711   1.458  0.00  0.00     0.058 A 
ENDROOT
TORSDOF 0
ENDMDL
