MODEL 1
REMARK minimizedAffinity 12.8426657
REMARK minimizedRMSD -1
REMARK  0 active torsions:
REMARK  status: ('A' for Active; 'I' for Inactive)
ROOT
ATOM      1  O1  BZF d   1       4.857   3.245  -5.114  0.00  0.00    -0.204 OA
ATOM      2  C2  BZF d   1       5.972   4.000  -4.804  0.00  0.00     0.174 A 
ATOM      3  C3  BZF d   1       5.729   4.801  -3.747  0.00  0.00    -0.012 A 
ATOM      4  C3A BZF d   1       4.407   4.464  -3.316  0.00  0.00    -0.107 A 
ATOM      5  C4  BZF d   1       3.609   4.907  -2.300  0.00  0.00     0.055 A 
ATOM      6  C5  BZF d   1       2.343   4.425  -2.196  0.00  0.00    -0.016 A 
ATOM      7  C6  BZF d   1       1.840   3.505  -3.093  0.00  0.00     0.022 A 
ATOM      8  C7  BZF d   1       2.596   3.032  -4.114  0.00  0.00     0.029 A 
ATOM      9  C7A BZF d   1       3.887   3.492  -4.202  0.00  0.00     0.058 A 
ENDROOT
TORSDOF 0
ENDMDL
