MODEL 1
REMARK minimizedAffinity -5.74904585
REMARK minimizedRMSD -1
REMARK  1 active torsions:
REMARK  status: ('A' for Active; 'I' for Inactive)
REMARK    1  A    between atoms: C3_4  and  O_7 
ROOT
ATOM      1  C   UNL d   1      -0.066  -0.645  -0.069  0.00  0.00    -0.033 A 
ATOM      2  C1  UNL d   1       0.348  -1.894  -0.535  0.00  0.00     0.039 A 
ATOM      3  C2  UNL d   1       1.644  -2.063  -1.027  0.00  0.00    -0.080 A 
ATOM      4  C3  UNL d   1       2.514  -0.977  -1.046  0.00  0.00     0.150 A 
ATOM      5  C4  UNL d   1       2.110   0.269  -0.579  0.00  0.00    -0.007 A 
ATOM      6  C5  UNL d   1       0.815   0.437  -0.090  0.00  0.00     0.039 A 
ENDROOT
BRANCH   4   7
ATOM      7  O   UNL d   1       3.787  -1.092  -1.521  0.00  0.00    -0.526 OA
ATOM      8  H5  UNL d   1       3.917  -2.002  -1.836  0.00  0.00     0.418 HD
ENDBRANCH   4   7
TORSDOF 1
ENDMDL
