MODEL 1
REMARK minimizedAffinity -4.77338219
REMARK minimizedRMSD -1
REMARK  1 active torsions:
REMARK  status: ('A' for Active; 'I' for Inactive)
REMARK    1  A    between atoms: C3_4  and  O_7 
ROOT
ATOM      1  C   UNL d   1      -0.492  -0.257  -0.053  0.00  0.00    -0.033 A 
ATOM      2  C1  UNL d   1       0.306   0.866  -0.279  0.00  0.00     0.039 A 
ATOM      3  C2  UNL d   1       1.634   0.712  -0.682  0.00  0.00    -0.080 A 
ATOM      4  C3  UNL d   1       2.151  -0.569  -0.856  0.00  0.00     0.150 A 
ATOM      5  C4  UNL d   1       1.361  -1.693  -0.636  0.00  0.00    -0.007 A 
ATOM      6  C5  UNL d   1       0.035  -1.537  -0.233  0.00  0.00     0.039 A 
ENDROOT
BRANCH   4   7
ATOM      7  O   UNL d   1       3.442  -0.770  -1.244  0.00  0.00    -0.526 OA
ATOM      8  H5  UNL d   1       3.876   0.095  -1.330  0.00  0.00     0.418 HD
ENDBRANCH   4   7
TORSDOF 1
ENDMDL
