MODEL 1
REMARK minimizedAffinity -4.58891582
REMARK minimizedRMSD -1
REMARK  1 active torsions:
REMARK  status: ('A' for Active; 'I' for Inactive)
REMARK    1  A    between atoms: C3_4  and  O_7 
ROOT
ATOM      1  C   UNL d   1      -0.317  -0.515  -0.298  0.00  0.00    -0.033 A 
ATOM      2  C1  UNL d   1       0.394   0.673  -0.475  0.00  0.00     0.039 A 
ATOM      3  C2  UNL d   1       1.769   0.636  -0.717  0.00  0.00    -0.080 A 
ATOM      4  C3  UNL d   1       2.419  -0.593  -0.781  0.00  0.00     0.150 A 
ATOM      5  C4  UNL d   1       1.715  -1.781  -0.610  0.00  0.00    -0.007 A 
ATOM      6  C5  UNL d   1       0.343  -1.742  -0.367  0.00  0.00     0.039 A 
ENDROOT
BRANCH   4   7
ATOM      7  O   UNL d   1       3.760  -0.680  -1.010  0.00  0.00    -0.526 OA
ATOM      8  H5  UNL d   1       4.118   0.221  -1.080  0.00  0.00     0.418 HD
ENDBRANCH   4   7
TORSDOF 1
ENDMDL
