MODEL 1
REMARK minimizedAffinity -3.25303745
REMARK minimizedRMSD -1
REMARK  1 active torsions:
REMARK  status: ('A' for Active; 'I' for Inactive)
REMARK    1  A    between atoms: C3_4  and  O_7 
ROOT
ATOM      1  C   UNL d   1       0.182  -0.443   0.746  0.00  0.00    -0.033 A 
ATOM      2  C1  UNL d   1      -0.977   0.332   0.681  0.00  0.00     0.039 A 
ATOM      3  C2  UNL d   1      -1.078   1.364  -0.254  0.00  0.00    -0.080 A 
ATOM      4  C3  UNL d   1      -0.014   1.609  -1.118  0.00  0.00     0.150 A 
ATOM      5  C4  UNL d   1       1.142   0.838  -1.062  0.00  0.00    -0.007 A 
ATOM      6  C5  UNL d   1       1.241  -0.191  -0.126  0.00  0.00     0.039 A 
ENDROOT
BRANCH   4   7
ATOM      7  O   UNL d   1      -0.064   2.609  -2.044  0.00  0.00    -0.526 OA
ATOM      8  H5  UNL d   1      -0.911   3.075  -1.947  0.00  0.00     0.418 HD
ENDBRANCH   4   7
TORSDOF 1
ENDMDL
