MODEL 1
REMARK minimizedAffinity -4.01126575
REMARK minimizedRMSD -1
REMARK  1 active torsions:
REMARK  status: ('A' for Active; 'I' for Inactive)
REMARK    1  A    between atoms: C3_4  and  O_7 
ROOT
ATOM      1  C   UNL d   1      -1.326   0.446   2.207  0.00  0.00    -0.033 A 
ATOM      2  C1  UNL d   1      -1.893   0.455   3.483  0.00  0.00     0.039 A 
ATOM      3  C2  UNL d   1      -3.161  -0.091   3.690  0.00  0.00    -0.080 A 
ATOM      4  C3  UNL d   1      -3.851  -0.643   2.614  0.00  0.00     0.150 A 
ATOM      5  C4  UNL d   1      -3.291  -0.659   1.340  0.00  0.00    -0.007 A 
ATOM      6  C5  UNL d   1      -2.025  -0.113   1.136  0.00  0.00     0.039 A 
ENDROOT
BRANCH   4   7
ATOM      7  O   UNL d   1      -5.094  -1.183   2.765  0.00  0.00    -0.526 OA
ATOM      8  H5  UNL d   1      -5.365  -1.076   3.692  0.00  0.00     0.418 HD
ENDBRANCH   4   7
TORSDOF 1
ENDMDL
