MODEL 1
REMARK minimizedAffinity -4.48787355
REMARK minimizedRMSD -1
REMARK  1 active torsions:
REMARK  status: ('A' for Active; 'I' for Inactive)
REMARK    1  A    between atoms: C3_4  and  O_7 
ROOT
ATOM      1  C   UNL d   1      -0.604  -0.223  -0.233  0.00  0.00    -0.033 A 
ATOM      2  C1  UNL d   1       0.271   0.860  -0.333  0.00  0.00     0.039 A 
ATOM      3  C2  UNL d   1       1.614   0.648  -0.649  0.00  0.00    -0.080 A 
ATOM      4  C3  UNL d   1       2.069  -0.651  -0.864  0.00  0.00     0.150 A 
ATOM      5  C4  UNL d   1       1.201  -1.734  -0.770  0.00  0.00    -0.007 A 
ATOM      6  C5  UNL d   1      -0.140  -1.520  -0.454  0.00  0.00     0.039 A 
ENDROOT
BRANCH   4   7
ATOM      7  O   UNL d   1       3.372  -0.908  -1.171  0.00  0.00    -0.526 OA
ATOM      8  H5  UNL d   1       3.859  -0.067  -1.173  0.00  0.00     0.418 HD
ENDBRANCH   4   7
TORSDOF 1
ENDMDL
