MODEL 1
REMARK minimizedAffinity -5.19905281
REMARK minimizedRMSD -1
REMARK  1 active torsions:
REMARK  status: ('A' for Active; 'I' for Inactive)
REMARK    1  A    between atoms: C3_4  and  O_7 
ROOT
ATOM      1  C   UNL d   1       2.722  -0.829  -1.775  0.00  0.00    -0.033 A 
ATOM      2  C1  UNL d   1       1.644  -1.715  -1.760  0.00  0.00     0.039 A 
ATOM      3  C2  UNL d   1       0.580  -1.508  -0.880  0.00  0.00    -0.080 A 
ATOM      4  C3  UNL d   1       0.606  -0.413  -0.022  0.00  0.00     0.150 A 
ATOM      5  C4  UNL d   1       1.676   0.476  -0.033  0.00  0.00    -0.007 A 
ATOM      6  C5  UNL d   1       2.738   0.268  -0.912  0.00  0.00     0.039 A 
ENDROOT
BRANCH   4   7
ATOM      7  O   UNL d   1      -0.407  -0.173   0.859  0.00  0.00    -0.526 OA
ATOM      8  H5  UNL d   1      -1.063  -0.884   0.774  0.00  0.00     0.418 HD
ENDBRANCH   4   7
TORSDOF 1
ENDMDL
