MODEL 1
REMARK minimizedAffinity -4.19637012
REMARK minimizedRMSD -1
REMARK  1 active torsions:
REMARK  status: ('A' for Active; 'I' for Inactive)
REMARK    1  A    between atoms: C3_4  and  O_7 
ROOT
ATOM      1  C   UNL d   1      -0.032   0.384  -0.063  0.00  0.00    -0.033 A 
ATOM      2  C1  UNL d   1       0.076  -0.997   0.109  0.00  0.00     0.039 A 
ATOM      3  C2  UNL d   1       1.243  -1.661  -0.275  0.00  0.00    -0.080 A 
ATOM      4  C3  UNL d   1       2.293  -0.932  -0.828  0.00  0.00     0.150 A 
ATOM      5  C4  UNL d   1       2.193   0.445  -0.999  0.00  0.00    -0.007 A 
ATOM      6  C5  UNL d   1       1.026   1.105  -0.616  0.00  0.00     0.039 A 
ENDROOT
BRANCH   4   7
ATOM      7  O   UNL d   1       3.450  -1.536  -1.223  0.00  0.00    -0.526 OA
ATOM      8  H5  UNL d   1       3.365  -2.492  -1.071  0.00  0.00     0.418 HD
ENDBRANCH   4   7
TORSDOF 1
ENDMDL
