MODEL 1
REMARK minimizedAffinity -4.48458004
REMARK minimizedRMSD -1
REMARK  1 active torsions:
REMARK  status: ('A' for Active; 'I' for Inactive)
REMARK    1  A    between atoms: C3_4  and  O_7 
ROOT
ATOM      1  C   UNL d   1      -0.020  -0.887  -0.260  0.00  0.00    -0.033 A 
ATOM      2  C1  UNL d   1       0.479   0.273  -0.854  0.00  0.00     0.039 A 
ATOM      3  C2  UNL d   1       1.794   0.310  -1.322  0.00  0.00    -0.080 A 
ATOM      4  C3  UNL d   1       2.598  -0.819  -1.192  0.00  0.00     0.150 A 
ATOM      5  C4  UNL d   1       2.106  -1.980  -0.605  0.00  0.00    -0.007 A 
ATOM      6  C5  UNL d   1       0.793  -2.015  -0.137  0.00  0.00     0.039 A 
ENDROOT
BRANCH   4   7
ATOM      7  O   UNL d   1       3.889  -0.829  -1.629  0.00  0.00    -0.526 OA
ATOM      8  H5  UNL d   1       4.100   0.050  -1.986  0.00  0.00     0.418 HD
ENDBRANCH   4   7
TORSDOF 1
ENDMDL
