MODEL 1
REMARK minimizedAffinity -4.46034145
REMARK minimizedRMSD -1
REMARK  1 active torsions:
REMARK  status: ('A' for Active; 'I' for Inactive)
REMARK    1  A    between atoms: C3_4  and  O_7 
ROOT
ATOM      1  C   UNL d   1       2.401  -0.996  -1.558  0.00  0.00    -0.033 A 
ATOM      2  C1  UNL d   1       1.598  -2.033  -1.081  0.00  0.00     0.039 A 
ATOM      3  C2  UNL d   1       0.431  -1.744  -0.371  0.00  0.00    -0.080 A 
ATOM      4  C3  UNL d   1       0.079  -0.416  -0.146  0.00  0.00     0.150 A 
ATOM      5  C4  UNL d   1       0.873   0.622  -0.622  0.00  0.00    -0.007 A 
ATOM      6  C5  UNL d   1       2.038   0.331  -1.330  0.00  0.00     0.039 A 
ENDROOT
BRANCH   4   7
ATOM      7  O   UNL d   1      -1.048  -0.085   0.546  0.00  0.00    -0.526 OA
ATOM      8  H5  UNL d   1      -1.482  -0.904   0.838  0.00  0.00     0.418 HD
ENDBRANCH   4   7
TORSDOF 1
ENDMDL
