MODEL 1
REMARK minimizedAffinity -5.1913619
REMARK minimizedRMSD -1
REMARK  1 active torsions:
REMARK  status: ('A' for Active; 'I' for Inactive)
REMARK    1  A    between atoms: C3_4  and  O_7 
ROOT
ATOM      1  C   UNL d   1      -0.572  -1.047  -0.479  0.00  0.00    -0.033 A 
ATOM      2  C1  UNL d   1       0.213  -2.161  -0.780  0.00  0.00     0.039 A 
ATOM      3  C2  UNL d   1       1.592  -2.021  -0.950  0.00  0.00    -0.080 A 
ATOM      4  C3  UNL d   1       2.172  -0.763  -0.815  0.00  0.00     0.150 A 
ATOM      5  C4  UNL d   1       1.397   0.351  -0.512  0.00  0.00    -0.007 A 
ATOM      6  C5  UNL d   1       0.020   0.209  -0.344  0.00  0.00     0.039 A 
ENDROOT
BRANCH   4   7
ATOM      7  O   UNL d   1       3.513  -0.576  -0.976  0.00  0.00    -0.526 OA
ATOM      8  H5  UNL d   1       3.917  -1.428  -1.211  0.00  0.00     0.418 HD
ENDBRANCH   4   7
TORSDOF 1
ENDMDL
