MODEL 1
REMARK minimizedAffinity -5.57507753
REMARK minimizedRMSD -1
REMARK  1 active torsions:
REMARK  status: ('A' for Active; 'I' for Inactive)
REMARK    1  A    between atoms: C3_4  and  O_7 
ROOT
ATOM      1  C   UNL d   1      -0.324   1.086  -0.164  0.00  0.00    -0.033 A 
ATOM      2  C1  UNL d   1      -0.329  -0.288   0.085  0.00  0.00     0.039 A 
ATOM      3  C2  UNL d   1       0.795  -1.059  -0.218  0.00  0.00    -0.080 A 
ATOM      4  C3  UNL d   1       1.917  -0.444  -0.768  0.00  0.00     0.150 A 
ATOM      5  C4  UNL d   1       1.930   0.925  -1.015  0.00  0.00    -0.007 A 
ATOM      6  C5  UNL d   1       0.806   1.692  -0.713  0.00  0.00     0.039 A 
ENDROOT
BRANCH   4   7
ATOM      7  O   UNL d   1       3.036  -1.155  -1.085  0.00  0.00    -0.526 OA
ATOM      8  H5  UNL d   1       2.871  -2.092  -0.886  0.00  0.00     0.418 HD
ENDBRANCH   4   7
TORSDOF 1
ENDMDL
