MODEL 1
REMARK minimizedAffinity -4.7600255
REMARK minimizedRMSD -1
REMARK  1 active torsions:
REMARK  status: ('A' for Active; 'I' for Inactive)
REMARK    1  A    between atoms: C3_4  and  O_7 
ROOT
ATOM      1  C   UNL d   1      -0.814  -0.784  -0.554  0.00  0.00    -0.033 A 
ATOM      2  C1  UNL d   1      -0.088   0.398  -0.396  0.00  0.00     0.039 A 
ATOM      3  C2  UNL d   1       1.284   0.416  -0.654  0.00  0.00    -0.080 A 
ATOM      4  C3  UNL d   1       1.917  -0.753  -1.070  0.00  0.00     0.150 A 
ATOM      5  C4  UNL d   1       1.198  -1.932  -1.234  0.00  0.00    -0.007 A 
ATOM      6  C5  UNL d   1      -0.172  -1.949  -0.975  0.00  0.00     0.039 A 
ENDROOT
BRANCH   4   7
ATOM      7  O   UNL d   1       3.255  -0.785  -1.329  0.00  0.00    -0.526 OA
ATOM      8  H5  UNL d   1       3.625   0.094  -1.146  0.00  0.00     0.418 HD
ENDBRANCH   4   7
TORSDOF 1
ENDMDL
