MODEL 1
REMARK minimizedAffinity -3.75727963
REMARK minimizedRMSD -1
REMARK  1 active torsions:
REMARK  status: ('A' for Active; 'I' for Inactive)
REMARK    1  A    between atoms: C3_4  and  O_7 
ROOT
ATOM      1  C   UNL d   1       2.211  -1.747  -1.182  0.00  0.00    -0.033 A 
ATOM      2  C1  UNL d   1       1.076  -1.197  -0.583  0.00  0.00     0.039 A 
ATOM      3  C2  UNL d   1       0.615   0.060  -0.979  0.00  0.00    -0.080 A 
ATOM      4  C3  UNL d   1       1.296   0.754  -1.975  0.00  0.00     0.150 A 
ATOM      5  C4  UNL d   1       2.426   0.211  -2.579  0.00  0.00    -0.007 A 
ATOM      6  C5  UNL d   1       2.885  -1.044  -2.181  0.00  0.00     0.039 A 
ENDROOT
BRANCH   4   7
ATOM      7  O   UNL d   1       0.887   1.986  -2.392  0.00  0.00    -0.526 OA
ATOM      8  H5  UNL d   1       0.112   2.247  -1.867  0.00  0.00     0.418 HD
ENDBRANCH   4   7
TORSDOF 1
ENDMDL
