MODEL 1
REMARK minimizedAffinity 5.5345149
REMARK minimizedRMSD -1
REMARK  0 active torsions:
REMARK  status: ('A' for Active; 'I' for Inactive)
ROOT
ATOM      1  C   UNL d   1       4.118   3.370   5.997  0.00  0.00     0.172 C 
ATOM      2  N   UNL d   1       4.113   2.043   5.428  0.00  0.00    -0.070 N 
ATOM      3  C1  UNL d   1       4.696   1.680   4.243  0.00  0.00    -0.004 A 
ATOM      4  C2  UNL d   1       4.470   0.333   4.056  0.00  0.00    -0.047 A 
ATOM      5  C3  UNL d   1       3.724  -0.129   5.166  0.00  0.00    -0.047 A 
ATOM      6  C4  UNL d   1       3.517   0.950   6.000  0.00  0.00    -0.004 A 
ENDROOT
TORSDOF 0
ENDMDL
