MODEL 1
REMARK minimizedAffinity 5.24169922
REMARK minimizedRMSD -1
REMARK  0 active torsions:
REMARK  status: ('A' for Active; 'I' for Inactive)
ROOT
ATOM      1  C   UNL d   1      -1.458  -1.079   3.301  0.00  0.00     0.172 C 
ATOM      2  N   UNL d   1      -1.560  -1.888   2.110  0.00  0.00    -0.070 N 
ATOM      3  C1  UNL d   1      -0.639  -2.810   1.689  0.00  0.00    -0.004 A 
ATOM      4  C2  UNL d   1      -1.104  -3.367   0.517  0.00  0.00    -0.047 A 
ATOM      5  C3  UNL d   1      -2.347  -2.758   0.223  0.00  0.00    -0.047 A 
ATOM      6  C4  UNL d   1      -2.605  -1.847   1.225  0.00  0.00    -0.004 A 
ENDROOT
TORSDOF 0
ENDMDL
