MODEL 1
REMARK minimizedAffinity 0.927069545
REMARK minimizedRMSD -1
REMARK  0 active torsions:
REMARK  status: ('A' for Active; 'I' for Inactive)
ROOT
ATOM      1  C   UNL d   1      -2.926  -5.999   1.493  0.00  0.00     0.172 C 
ATOM      2  N   UNL d   1      -2.336  -4.771   1.015  0.00  0.00    -0.070 N 
ATOM      3  C1  UNL d   1      -2.888  -3.523   1.127  0.00  0.00    -0.004 A 
ATOM      4  C2  UNL d   1      -2.018  -2.623   0.550  0.00  0.00    -0.047 A 
ATOM      5  C3  UNL d   1      -0.905  -3.356   0.073  0.00  0.00    -0.047 A 
ATOM      6  C4  UNL d   1      -1.128  -4.683   0.374  0.00  0.00    -0.004 A 
ENDROOT
TORSDOF 0
ENDMDL
