MODEL 1
REMARK minimizedAffinity 1.68417227
REMARK minimizedRMSD -1
REMARK  0 active torsions:
REMARK  status: ('A' for Active; 'I' for Inactive)
ROOT
ATOM      1  C   UNL d   1      -1.920  -2.263  -1.909  0.00  0.00     0.172 C 
ATOM      2  N   UNL d   1      -1.916  -2.288  -0.465  0.00  0.00    -0.070 N 
ATOM      3  C1  UNL d   1      -2.759  -1.579   0.349  0.00  0.00    -0.004 A 
ATOM      4  C2  UNL d   1      -2.434  -1.876   1.655  0.00  0.00    -0.047 A 
ATOM      5  C3  UNL d   1      -1.358  -2.795   1.625  0.00  0.00    -0.047 A 
ATOM      6  C4  UNL d   1      -1.057  -3.032   0.300  0.00  0.00    -0.004 A 
ENDROOT
TORSDOF 0
ENDMDL
