MODEL 1
REMARK minimizedAffinity 5.39457321
REMARK minimizedRMSD -1
REMARK  0 active torsions:
REMARK  status: ('A' for Active; 'I' for Inactive)
ROOT
ATOM      1  C   UNL d   1      -2.788  -0.696   1.389  0.00  0.00     0.172 C 
ATOM      2  N   UNL d   1      -1.735  -1.676   1.269  0.00  0.00    -0.070 N 
ATOM      3  C1  UNL d   1      -1.120  -2.318   2.310  0.00  0.00    -0.004 A 
ATOM      4  C2  UNL d   1      -0.176  -3.172   1.781  0.00  0.00    -0.047 A 
ATOM      5  C3  UNL d   1      -0.225  -3.037   0.373  0.00  0.00    -0.047 A 
ATOM      6  C4  UNL d   1      -1.199  -2.105   0.083  0.00  0.00    -0.004 A 
ENDROOT
TORSDOF 0
ENDMDL
