MODEL 1
REMARK minimizedAffinity 0.938773096
REMARK minimizedRMSD -1
REMARK  0 active torsions:
REMARK  status: ('A' for Active; 'I' for Inactive)
ROOT
ATOM      1  C   UNL d   1      -0.844  -5.530   2.396  0.00  0.00     0.172 C 
ATOM      2  N   UNL d   1      -1.049  -4.213   1.839  0.00  0.00    -0.070 N 
ATOM      3  C1  UNL d   1      -0.824  -3.853   0.537  0.00  0.00    -0.004 A 
ATOM      4  C2  UNL d   1      -1.140  -2.517   0.409  0.00  0.00    -0.047 A 
ATOM      5  C3  UNL d   1      -1.568  -2.059   1.677  0.00  0.00    -0.047 A 
ATOM      6  C4  UNL d   1      -1.502  -3.129   2.544  0.00  0.00    -0.004 A 
ENDROOT
TORSDOF 0
ENDMDL
