MODEL 1
REMARK minimizedAffinity 1.85113645
REMARK minimizedRMSD -1
REMARK  0 active torsions:
REMARK  status: ('A' for Active; 'I' for Inactive)
ROOT
ATOM      1  C   UNL d   1      -2.271  -1.922  -1.900  0.00  0.00     0.172 C 
ATOM      2  N   UNL d   1      -1.686  -2.196  -0.608  0.00  0.00    -0.070 N 
ATOM      3  C1  UNL d   1      -1.041  -3.350  -0.253  0.00  0.00    -0.004 A 
ATOM      4  C2  UNL d   1      -0.631  -3.218   1.056  0.00  0.00    -0.047 A 
ATOM      5  C3  UNL d   1      -1.044  -1.940   1.503  0.00  0.00    -0.047 A 
ATOM      6  C4  UNL d   1      -1.694  -1.329   0.452  0.00  0.00    -0.004 A 
ENDROOT
TORSDOF 0
ENDMDL
