MODEL 1
REMARK minimizedAffinity 4.80395412
REMARK minimizedRMSD -1
REMARK  0 active torsions:
REMARK  status: ('A' for Active; 'I' for Inactive)
ROOT
ATOM      1  C   UNL d   1      -1.380  -0.469   3.899  0.00  0.00     0.172 C 
ATOM      2  N   UNL d   1      -1.145  -1.400   2.821  0.00  0.00    -0.070 N 
ATOM      3  C1  UNL d   1      -1.236  -1.113   1.485  0.00  0.00    -0.004 A 
ATOM      4  C2  UNL d   1      -0.937  -2.263   0.785  0.00  0.00    -0.047 A 
ATOM      5  C3  UNL d   1      -0.657  -3.275   1.734  0.00  0.00    -0.047 A 
ATOM      6  C4  UNL d   1      -0.793  -2.713   2.986  0.00  0.00    -0.004 A 
ENDROOT
TORSDOF 0
ENDMDL
