MODEL 1
REMARK minimizedAffinity -0.756928265
REMARK minimizedRMSD -1
REMARK  0 active torsions:
REMARK  status: ('A' for Active; 'I' for Inactive)
ROOT
ATOM      1  C   UNL d   1      -2.453  -2.134  -1.130  0.00  0.00     0.172 C 
ATOM      2  N   UNL d   1      -1.741  -2.580   0.045  0.00  0.00    -0.070 N 
ATOM      3  C1  UNL d   1      -1.412  -3.878   0.334  0.00  0.00    -0.004 A 
ATOM      4  C2  UNL d   1      -0.741  -3.884   1.538  0.00  0.00    -0.047 A 
ATOM      5  C3  UNL d   1      -0.664  -2.545   1.988  0.00  0.00    -0.047 A 
ATOM      6  C4  UNL d   1      -1.292  -1.759   1.044  0.00  0.00    -0.004 A 
ENDROOT
TORSDOF 0
ENDMDL
