MODEL 1
REMARK minimizedAffinity 7.49200535
REMARK minimizedRMSD -1
REMARK  0 active torsions:
REMARK  status: ('A' for Active; 'I' for Inactive)
ROOT
ATOM      1  C   UNL d   1      -3.272   4.112  -3.680  0.00  0.00     0.172 C 
ATOM      2  N   UNL d   1      -4.326   4.619  -4.527  0.00  0.00    -0.070 N 
ATOM      3  C1  UNL d   1      -4.711   5.930  -4.625  0.00  0.00    -0.004 A 
ATOM      4  C2  UNL d   1      -5.743   5.999  -5.535  0.00  0.00    -0.047 A 
ATOM      5  C3  UNL d   1      -5.987   4.685  -6.000  0.00  0.00    -0.047 A 
ATOM      6  C4  UNL d   1      -5.096   3.851  -5.359  0.00  0.00    -0.004 A 
ENDROOT
TORSDOF 0
ENDMDL
