MODEL 1
REMARK minimizedAffinity 3.98471379
REMARK minimizedRMSD -1
REMARK  0 active torsions:
REMARK  status: ('A' for Active; 'I' for Inactive)
ROOT
ATOM      1  C   UNL d   1       4.872   2.123   2.516  0.00  0.00     0.172 C 
ATOM      2  N   UNL d   1       4.616   2.227   3.933  0.00  0.00    -0.070 N 
ATOM      3  C1  UNL d   1       4.858   3.329   4.709  0.00  0.00    -0.004 A 
ATOM      4  C2  UNL d   1       4.479   3.028   6.000  0.00  0.00    -0.047 A 
ATOM      5  C3  UNL d   1       3.994   1.698   5.999  0.00  0.00    -0.047 A 
ATOM      6  C4  UNL d   1       4.091   1.226   4.707  0.00  0.00    -0.004 A 
ENDROOT
TORSDOF 0
ENDMDL
