MODEL 1
REMARK minimizedAffinity 9.58394814
REMARK minimizedRMSD -1
REMARK  0 active torsions:
REMARK  status: ('A' for Active; 'I' for Inactive)
ROOT
ATOM      1  C   UNL d   1      -0.635  -3.672   1.390  0.00  0.00     0.172 C 
ATOM      2  N   UNL d   1      -1.256  -2.548   0.728  0.00  0.00    -0.070 N 
ATOM      3  C1  UNL d   1      -2.342  -1.852   1.187  0.00  0.00    -0.004 A 
ATOM      4  C2  UNL d   1      -2.624  -0.860   0.273  0.00  0.00    -0.047 A 
ATOM      5  C3  UNL d   1      -1.675  -0.964  -0.771  0.00  0.00    -0.047 A 
ATOM      6  C4  UNL d   1      -0.840  -2.018  -0.464  0.00  0.00    -0.004 A 
ENDROOT
TORSDOF 0
ENDMDL
