MODEL 1
REMARK minimizedAffinity 5.13468981
REMARK minimizedRMSD -1
REMARK  0 active torsions:
REMARK  status: ('A' for Active; 'I' for Inactive)
ROOT
ATOM      1  C   UNL d   1      -1.474  -1.152   4.135  0.00  0.00     0.172 C 
ATOM      2  N   UNL d   1      -1.323  -1.559   2.757  0.00  0.00    -0.070 N 
ATOM      3  C1  UNL d   1      -1.962  -0.997   1.684  0.00  0.00    -0.004 A 
ATOM      4  C2  UNL d   1      -1.551  -1.665   0.551  0.00  0.00    -0.047 A 
ATOM      5  C3  UNL d   1      -0.634  -2.663   0.957  0.00  0.00    -0.047 A 
ATOM      6  C4  UNL d   1      -0.512  -2.575   2.328  0.00  0.00    -0.004 A 
ENDROOT
TORSDOF 0
ENDMDL
