MODEL 1
REMARK minimizedAffinity 1.54485393
REMARK minimizedRMSD -1
REMARK  0 active torsions:
REMARK  status: ('A' for Active; 'I' for Inactive)
ROOT
ATOM      1  C   UNL d   1      -0.263  -3.982   2.051  0.00  0.00     0.172 C 
ATOM      2  N   UNL d   1      -1.022  -3.070   1.227  0.00  0.00    -0.070 N 
ATOM      3  C1  UNL d   1      -1.312  -3.246  -0.099  0.00  0.00    -0.004 A 
ATOM      4  C2  UNL d   1      -2.050  -2.160  -0.517  0.00  0.00    -0.047 A 
ATOM      5  C3  UNL d   1      -2.208  -1.301   0.596  0.00  0.00    -0.047 A 
ATOM      6  C4  UNL d   1      -1.562  -1.889   1.663  0.00  0.00    -0.004 A 
ENDROOT
TORSDOF 0
ENDMDL
