MODEL 1
REMARK minimizedAffinity 5.09981775
REMARK minimizedRMSD -1
REMARK  0 active torsions:
REMARK  status: ('A' for Active; 'I' for Inactive)
ROOT
ATOM      1  C   UNL d   1      -0.598  -4.508   1.071  0.00  0.00     0.172 C 
ATOM      2  N   UNL d   1      -0.818  -3.088   1.217  0.00  0.00    -0.070 N 
ATOM      3  C1  UNL d   1      -0.877  -2.180   0.194  0.00  0.00    -0.004 A 
ATOM      4  C2  UNL d   1      -1.101  -0.937   0.746  0.00  0.00    -0.047 A 
ATOM      5  C3  UNL d   1      -1.178  -1.104   2.149  0.00  0.00    -0.047 A 
ATOM      6  C4  UNL d   1      -0.999  -2.446   2.414  0.00  0.00    -0.004 A 
ENDROOT
TORSDOF 0
ENDMDL
