MODEL 1
REMARK minimizedAffinity 2.63912249
REMARK minimizedRMSD -1
REMARK  0 active torsions:
REMARK  status: ('A' for Active; 'I' for Inactive)
ROOT
ATOM      1  C   UNL d   1      -1.916  -1.999   4.024  0.00  0.00     0.172 C 
ATOM      2  N   UNL d   1      -1.586  -2.222   2.636  0.00  0.00    -0.070 N 
ATOM      3  C1  UNL d   1      -1.940  -1.412   1.591  0.00  0.00    -0.004 A 
ATOM      4  C2  UNL d   1      -1.436  -1.969   0.435  0.00  0.00    -0.047 A 
ATOM      5  C3  UNL d   1      -0.756  -3.156   0.799  0.00  0.00    -0.047 A 
ATOM      6  C4  UNL d   1      -0.865  -3.288   2.167  0.00  0.00    -0.004 A 
ENDROOT
TORSDOF 0
ENDMDL
