MODEL 1
REMARK minimizedAffinity 4.73578405
REMARK minimizedRMSD -1
REMARK  0 active torsions:
REMARK  status: ('A' for Active; 'I' for Inactive)
ROOT
ATOM      1  C   UNL d   1      -1.148   0.207   2.867  0.00  0.00     0.172 C 
ATOM      2  N   UNL d   1      -1.234  -1.079   2.216  0.00  0.00    -0.070 N 
ATOM      3  C1  UNL d   1      -1.036  -1.313   0.882  0.00  0.00    -0.004 A 
ATOM      4  C2  UNL d   1      -1.207  -2.662   0.660  0.00  0.00    -0.047 A 
ATOM      5  C3  UNL d   1      -1.520  -3.260   1.904  0.00  0.00    -0.047 A 
ATOM      6  C4  UNL d   1      -1.531  -2.256   2.850  0.00  0.00    -0.004 A 
ENDROOT
TORSDOF 0
ENDMDL
