MODEL 1
REMARK minimizedAffinity 7.0624423
REMARK minimizedRMSD -1
REMARK  0 active torsions:
REMARK  status: ('A' for Active; 'I' for Inactive)
ROOT
ATOM      1  C   UNL d   1      -2.405  -1.894   1.510  0.00  0.00     0.172 C 
ATOM      2  N   UNL d   1      -3.832  -1.795   1.306  0.00  0.00    -0.070 N 
ATOM      3  C1  UNL d   1      -4.476  -0.777   0.655  0.00  0.00    -0.004 A 
ATOM      4  C2  UNL d   1      -5.826  -1.051   0.674  0.00  0.00    -0.047 A 
ATOM      5  C3  UNL d   1      -6.000  -2.276   1.361  0.00  0.00    -0.047 A 
ATOM      6  C4  UNL d   1      -4.749  -2.715   1.742  0.00  0.00    -0.004 A 
ENDROOT
TORSDOF 0
ENDMDL
