MODEL 1
REMARK minimizedAffinity -0.164299235
REMARK minimizedRMSD -1
REMARK  0 active torsions:
REMARK  status: ('A' for Active; 'I' for Inactive)
ROOT
ATOM      1  C   UNL d   1      -3.983  -0.769   5.993  0.00  0.00     0.172 C 
ATOM      2  N   UNL d   1      -4.522   0.571   5.994  0.00  0.00    -0.070 N 
ATOM      3  C1  UNL d   1      -5.852   0.896   5.997  0.00  0.00    -0.004 A 
ATOM      4  C2  UNL d   1      -5.951   2.271   5.998  0.00  0.00    -0.047 A 
ATOM      5  C3  UNL d   1      -4.634   2.790   5.994  0.00  0.00    -0.047 A 
ATOM      6  C4  UNL d   1      -3.770   1.716   5.992  0.00  0.00    -0.004 A 
ENDROOT
TORSDOF 0
ENDMDL
