MODEL 1
REMARK minimizedAffinity -3.75283241
REMARK minimizedRMSD -1
REMARK  1 active torsions:
REMARK  status: ('A' for Active; 'I' for Inactive)
REMARK    1  A    between atoms: C1_2  and  C2_3 
ROOT
ATOM      1  C2  UNL d   1       0.017  -0.376   0.538  0.00  0.00    -0.076 A 
ATOM      2  C3  UNL d   1       1.153  -0.331  -0.288  0.00  0.00     0.004 A 
ATOM      3  C4  UNL d   1       2.284  -1.093   0.004  0.00  0.00    -0.003 A 
ATOM      4  C5  UNL d   1       2.296  -1.911   1.128  0.00  0.00     0.000 A 
ATOM      5  C6  UNL d   1       1.171  -1.981   1.950  0.00  0.00     0.000 A 
ATOM      6  C7  UNL d   1       0.017  -1.232   1.660  0.00  0.00    -0.073 A 
ATOM      7  C8  UNL d   1      -1.165  -1.341   2.583  0.00  0.00     0.078 C 
ENDROOT
BRANCH   1   8
ATOM      8  C1  UNL d   1      -1.169   0.493   0.185  0.00  0.00     0.053 C 
ATOM      9  C   UNL d   1      -1.365   0.629  -1.317  0.00  0.00     0.018 C 
ENDBRANCH   1   8
TORSDOF 1
ENDMDL
