MODEL 1
REMARK minimizedAffinity -6.09917116
REMARK minimizedRMSD -1
REMARK  1 active torsions:
REMARK  status: ('A' for Active; 'I' for Inactive)
REMARK    1  A    between atoms: C1_2  and  C2_3 
ROOT
ATOM      1  C2  UNL d   1       0.088  -0.089   0.634  0.00  0.00    -0.076 A 
ATOM      2  C3  UNL d   1      -0.522  -0.788   1.690  0.00  0.00     0.004 A 
ATOM      3  C4  UNL d   1       0.086  -1.907   2.256  0.00  0.00    -0.003 A 
ATOM      4  C5  UNL d   1       1.315  -2.345   1.775  0.00  0.00     0.000 A 
ATOM      5  C6  UNL d   1       1.944  -1.653   0.740  0.00  0.00     0.000 A 
ATOM      6  C7  UNL d   1       1.351  -0.513   0.170  0.00  0.00    -0.073 A 
ATOM      7  C8  UNL d   1       2.070   0.191  -0.948  0.00  0.00     0.078 C 
ENDROOT
BRANCH   1   8
ATOM      8  C1  UNL d   1      -0.632   1.102   0.043  0.00  0.00     0.053 C 
ATOM      9  C   UNL d   1      -1.388   0.752  -1.230  0.00  0.00     0.018 C 
ENDBRANCH   1   8
TORSDOF 1
ENDMDL
