MODEL 1
REMARK minimizedAffinity -4.63501453
REMARK minimizedRMSD -1
REMARK  1 active torsions:
REMARK  status: ('A' for Active; 'I' for Inactive)
REMARK    1  A    between atoms: C1_2  and  C2_3 
ROOT
ATOM      1  C2  UNL d   1      -0.156  -0.611   0.888  0.00  0.00    -0.076 A 
ATOM      2  C3  UNL d   1       0.946  -1.170   0.218  0.00  0.00     0.004 A 
ATOM      3  C4  UNL d   1       1.629  -2.263   0.749  0.00  0.00    -0.003 A 
ATOM      4  C5  UNL d   1       1.221  -2.814   1.959  0.00  0.00     0.000 A 
ATOM      5  C6  UNL d   1       0.119  -2.283   2.628  0.00  0.00     0.000 A 
ATOM      6  C7  UNL d   1      -0.591  -1.192   2.098  0.00  0.00    -0.073 A 
ATOM      7  C8  UNL d   1      -1.768  -0.655   2.865  0.00  0.00     0.078 C 
ENDROOT
BRANCH   1   8
ATOM      8  C1  UNL d   1      -0.840   0.591   0.276  0.00  0.00     0.053 C 
ATOM      9  C   UNL d   1      -0.620   0.686  -1.225  0.00  0.00     0.018 C 
ENDBRANCH   1   8
TORSDOF 1
ENDMDL
