MODEL 1
REMARK minimizedAffinity -5.44531488
REMARK minimizedRMSD -1
REMARK  1 active torsions:
REMARK  status: ('A' for Active; 'I' for Inactive)
REMARK    1  A    between atoms: C1_2  and  C2_3 
ROOT
ATOM      1  C2  UNL d   1       0.044  -0.923   0.721  0.00  0.00    -0.076 A 
ATOM      2  C3  UNL d   1       1.094  -1.045  -0.205  0.00  0.00     0.004 A 
ATOM      3  C4  UNL d   1       2.113  -1.977  -0.015  0.00  0.00    -0.003 A 
ATOM      4  C5  UNL d   1       2.098  -2.802   1.105  0.00  0.00     0.000 A 
ATOM      5  C6  UNL d   1       1.054  -2.707   2.025  0.00  0.00     0.000 A 
ATOM      6  C7  UNL d   1       0.011  -1.784   1.839  0.00  0.00    -0.073 A 
ATOM      7  C8  UNL d   1      -1.087  -1.719   2.866  0.00  0.00     0.078 C 
ENDROOT
BRANCH   1   8
ATOM      8  C1  UNL d   1      -1.019   0.124   0.477  0.00  0.00     0.053 C 
ATOM      9  C   UNL d   1      -0.452   1.400  -0.125  0.00  0.00     0.018 C 
ENDBRANCH   1   8
TORSDOF 1
ENDMDL
