MODEL 1
REMARK minimizedAffinity -3.27534246
REMARK minimizedRMSD -1
REMARK  1 active torsions:
REMARK  status: ('A' for Active; 'I' for Inactive)
REMARK    1  A    between atoms: C1_2  and  C2_3 
ROOT
ATOM      1  C2  UNL d   1       0.135  -0.384   0.847  0.00  0.00    -0.076 A 
ATOM      2  C3  UNL d   1       1.311  -0.448   0.080  0.00  0.00     0.004 A 
ATOM      3  C4  UNL d   1       2.344  -1.318   0.423  0.00  0.00    -0.003 A 
ATOM      4  C5  UNL d   1       2.218  -2.138   1.539  0.00  0.00     0.000 A 
ATOM      5  C6  UNL d   1       1.051  -2.100   2.301  0.00  0.00     0.000 A 
ATOM      6  C7  UNL d   1      -0.007  -1.240   1.959  0.00  0.00    -0.073 A 
ATOM      7  C8  UNL d   1      -1.240  -1.236   2.821  0.00  0.00     0.078 C 
ENDROOT
BRANCH   1   8
ATOM      8  C1  UNL d   1      -0.941   0.598   0.442  0.00  0.00     0.053 C 
ATOM      9  C   UNL d   1      -1.127   0.670  -1.066  0.00  0.00     0.018 C 
ENDBRANCH   1   8
TORSDOF 1
ENDMDL
