MODEL 1
REMARK minimizedAffinity -3.94558334
REMARK minimizedRMSD -1
REMARK  1 active torsions:
REMARK  status: ('A' for Active; 'I' for Inactive)
REMARK    1  A    between atoms: C1_2  and  C2_3 
ROOT
ATOM      1  C2  UNL d   1       0.024  -1.048   0.955  0.00  0.00    -0.076 A 
ATOM      2  C3  UNL d   1       1.096  -1.457   0.143  0.00  0.00     0.004 A 
ATOM      3  C4  UNL d   1       1.876  -2.560   0.487  0.00  0.00    -0.003 A 
ATOM      4  C5  UNL d   1       1.595  -3.272   1.648  0.00  0.00     0.000 A 
ATOM      5  C6  UNL d   1       0.525  -2.891   2.455  0.00  0.00     0.000 A 
ATOM      6  C7  UNL d   1      -0.282  -1.792   2.115  0.00  0.00    -0.073 A 
ATOM      7  C8  UNL d   1      -1.420  -1.421   3.026  0.00  0.00     0.078 C 
ENDROOT
BRANCH   1   8
ATOM      8  C1  UNL d   1      -0.770   0.172   0.545  0.00  0.00     0.053 C 
ATOM      9  C   UNL d   1      -0.099   0.956  -0.572  0.00  0.00     0.018 C 
ENDBRANCH   1   8
TORSDOF 1
ENDMDL
