MODEL 1
REMARK minimizedAffinity -5.36569548
REMARK minimizedRMSD -1
REMARK  1 active torsions:
REMARK  status: ('A' for Active; 'I' for Inactive)
REMARK    1  A    between atoms: C1_2  and  C2_3 
ROOT
ATOM      1  C2  UNL d   1       0.021  -0.564   0.294  0.00  0.00    -0.076 A 
ATOM      2  C3  UNL d   1      -1.046  -0.626   1.207  0.00  0.00     0.004 A 
ATOM      3  C4  UNL d   1      -0.953  -1.392   2.368  0.00  0.00    -0.003 A 
ATOM      4  C5  UNL d   1       0.209  -2.108   2.635  0.00  0.00     0.000 A 
ATOM      5  C6  UNL d   1       1.284  -2.044   1.749  0.00  0.00     0.000 A 
ATOM      6  C7  UNL d   1       1.213  -1.263   0.583  0.00  0.00    -0.073 A 
ATOM      7  C8  UNL d   1       2.400  -1.235  -0.340  0.00  0.00     0.078 C 
ENDROOT
BRANCH   1   8
ATOM      8  C1  UNL d   1      -0.147   0.262  -0.961  0.00  0.00     0.053 C 
ATOM      9  C   UNL d   1      -1.372   1.162  -0.907  0.00  0.00     0.018 C 
ENDBRANCH   1   8
TORSDOF 1
ENDMDL
