MODEL 1
REMARK minimizedAffinity -5.97144556
REMARK minimizedRMSD -1
REMARK  1 active torsions:
REMARK  status: ('A' for Active; 'I' for Inactive)
REMARK    1  A    between atoms: C1_2  and  C2_3 
ROOT
ATOM      1  C2  UNL d   1       0.242  -0.627   0.594  0.00  0.00    -0.076 A 
ATOM      2  C3  UNL d   1       1.308  -0.768  -0.311  0.00  0.00     0.004 A 
ATOM      3  C4  UNL d   1       2.170  -1.861  -0.238  0.00  0.00    -0.003 A 
ATOM      4  C5  UNL d   1       1.980  -2.830   0.741  0.00  0.00     0.000 A 
ATOM      5  C6  UNL d   1       0.917  -2.715   1.636  0.00  0.00     0.000 A 
ATOM      6  C7  UNL d   1       0.028  -1.628   1.566  0.00  0.00    -0.073 A 
ATOM      7  C8  UNL d   1      -1.098  -1.551   2.560  0.00  0.00     0.078 C 
ENDROOT
BRANCH   1   8
ATOM      8  C1  UNL d   1      -0.645   0.593   0.484  0.00  0.00     0.053 C 
ATOM      9  C   UNL d   1      -0.908   0.994  -0.960  0.00  0.00     0.018 C 
ENDBRANCH   1   8
TORSDOF 1
ENDMDL
