MODEL 1
REMARK minimizedAffinity 0.557621777
REMARK minimizedRMSD -1
REMARK  1 active torsions:
REMARK  status: ('A' for Active; 'I' for Inactive)
REMARK    1  A    between atoms: C1_2  and  C2_3 
ROOT
ATOM      1  C2  UNL d   1      -2.010   1.823  -1.392  0.00  0.00    -0.076 A 
ATOM      2  C3  UNL d   1      -3.204   1.116  -1.164  0.00  0.00     0.004 A 
ATOM      3  C4  UNL d   1      -4.335   1.346  -1.946  0.00  0.00    -0.003 A 
ATOM      4  C5  UNL d   1      -4.291   2.287  -2.968  0.00  0.00     0.000 A 
ATOM      5  C6  UNL d   1      -3.110   2.985  -3.220  0.00  0.00     0.000 A 
ATOM      6  C7  UNL d   1      -1.956   2.754  -2.452  0.00  0.00    -0.073 A 
ATOM      7  C8  UNL d   1      -0.712   3.539  -2.764  0.00  0.00     0.078 C 
ENDROOT
BRANCH   1   8
ATOM      8  C1  UNL d   1      -0.824   1.551  -0.495  0.00  0.00     0.053 C 
ATOM      9  C   UNL d   1      -0.502   0.068  -0.390  0.00  0.00     0.018 C 
ENDBRANCH   1   8
TORSDOF 1
ENDMDL
