MODEL 1
REMARK minimizedAffinity -2.46066689
REMARK minimizedRMSD -1
REMARK  1 active torsions:
REMARK  status: ('A' for Active; 'I' for Inactive)
REMARK    1  A    between atoms: C1_2  and  C2_3 
ROOT
ATOM      1  C2  UNL d   1       0.365  -0.020  -0.010  0.00  0.00    -0.076 A 
ATOM      2  C3  UNL d   1       1.309  -0.073  -1.050  0.00  0.00     0.004 A 
ATOM      3  C4  UNL d   1       2.369  -0.977  -1.012  0.00  0.00    -0.003 A 
ATOM      4  C5  UNL d   1       2.504  -1.842   0.068  0.00  0.00     0.000 A 
ATOM      5  C6  UNL d   1       1.568  -1.816   1.101  0.00  0.00     0.000 A 
ATOM      6  C7  UNL d   1       0.483  -0.922   1.070  0.00  0.00    -0.073 A 
ATOM      7  C8  UNL d   1      -0.494  -0.932   2.213  0.00  0.00     0.078 C 
ENDROOT
BRANCH   1   8
ATOM      8  C1  UNL d   1      -0.748   0.999  -0.093  0.00  0.00     0.053 C 
ATOM      9  C   UNL d   1      -1.407   1.032  -1.463  0.00  0.00     0.018 C 
ENDBRANCH   1   8
TORSDOF 1
ENDMDL
