MODEL 1
REMARK minimizedAffinity -4.52287054
REMARK minimizedRMSD -1
REMARK  1 active torsions:
REMARK  status: ('A' for Active; 'I' for Inactive)
REMARK    1  A    between atoms: C1_2  and  C2_3 
ROOT
ATOM      1  C2  UNL d   1       0.260  -1.456   0.846  0.00  0.00    -0.076 A 
ATOM      2  C3  UNL d   1       0.709  -0.707  -0.256  0.00  0.00     0.004 A 
ATOM      3  C4  UNL d   1       0.095   0.495  -0.605  0.00  0.00    -0.003 A 
ATOM      4  C5  UNL d   1      -0.978   0.968   0.144  0.00  0.00     0.000 A 
ATOM      5  C6  UNL d   1      -1.425   0.247   1.250  0.00  0.00     0.000 A 
ATOM      6  C7  UNL d   1      -0.806  -0.958   1.625  0.00  0.00    -0.073 A 
ATOM      7  C8  UNL d   1      -1.334  -1.697   2.824  0.00  0.00     0.078 C 
ENDROOT
BRANCH   1   8
ATOM      8  C1  UNL d   1       0.947  -2.765   1.160  0.00  0.00     0.053 C 
ATOM      9  C   UNL d   1       2.001  -2.624   2.248  0.00  0.00     0.018 C 
ENDBRANCH   1   8
TORSDOF 1
ENDMDL
