MODEL 1
REMARK minimizedAffinity -6.64002991
REMARK minimizedRMSD -1
REMARK  0 active torsions:
REMARK  status: ('A' for Active; 'I' for Inactive)
ROOT
ATOM      1  C1  DEN d   1       0.514   0.008  -0.861  0.00  0.00     0.130 A 
ATOM      2  C2  DEN d   1       0.397  -1.155   0.016  0.00  0.00    -0.031 A 
ATOM      3  C3  DEN d   1      -0.468  -0.783   1.154  0.00  0.00     0.027 A 
ATOM      4  C4  DEN d   1      -1.634   1.465   1.639  0.00  0.00     0.027 A 
ATOM      5  C5  DEN d   1      -1.821   2.753   1.188  0.00  0.00    -0.003 A 
ATOM      6  C6  DEN d   1      -1.221   3.223   0.050  0.00  0.00     0.001 A 
ATOM      7  C7  DEN d   1      -0.439   2.384  -0.701  0.00  0.00     0.017 A 
ATOM      8  C8  DEN d   1      -0.240   1.087  -0.248  0.00  0.00    -0.094 A 
ATOM      9  C9  DEN d   1      -0.866   0.627   0.898  0.00  0.00    -0.072 A 
ENDROOT
TORSDOF 0
ENDMDL
