MODEL 1
REMARK minimizedAffinity -2.18680644
REMARK minimizedRMSD -1
REMARK  0 active torsions:
REMARK  status: ('A' for Active; 'I' for Inactive)
ROOT
ATOM      1  C1  DEN d   1       0.900   0.321  -1.070  0.00  0.00     0.130 A 
ATOM      2  C2  DEN d   1       1.213  -1.105  -1.090  0.00  0.00    -0.031 A 
ATOM      3  C3  DEN d   1       0.575  -1.729   0.086  0.00  0.00     0.027 A 
ATOM      4  C4  DEN d   1      -0.866  -0.633   1.923  0.00  0.00     0.027 A 
ATOM      5  C5  DEN d   1      -1.398   0.555   2.373  0.00  0.00    -0.003 A 
ATOM      6  C6  DEN d   1      -1.175   1.744   1.731  0.00  0.00     0.001 A 
ATOM      7  C7  DEN d   1      -0.437   1.765   0.577  0.00  0.00     0.017 A 
ATOM      8  C8  DEN d   1       0.109   0.572   0.121  0.00  0.00    -0.094 A 
ATOM      9  C9  DEN d   1      -0.138  -0.622   0.778  0.00  0.00    -0.072 A 
ENDROOT
TORSDOF 0
ENDMDL
