MODEL 1
REMARK minimizedAffinity -4.83206081
REMARK minimizedRMSD -1
REMARK  0 active torsions:
REMARK  status: ('A' for Active; 'I' for Inactive)
ROOT
ATOM      1  C1  DEN d   1       0.479   0.435  -1.013  0.00  0.00     0.130 A 
ATOM      2  C2  DEN d   1       0.295  -0.789  -0.239  0.00  0.00    -0.031 A 
ATOM      3  C3  DEN d   1      -0.523  -0.461   0.946  0.00  0.00     0.027 A 
ATOM      4  C4  DEN d   1      -1.521   1.810   1.650  0.00  0.00     0.027 A 
ATOM      5  C5  DEN d   1      -1.625   3.143   1.317  0.00  0.00    -0.003 A 
ATOM      6  C6  DEN d   1      -1.012   3.669   0.211  0.00  0.00     0.001 A 
ATOM      7  C7  DEN d   1      -0.304   2.848  -0.627  0.00  0.00     0.017 A 
ATOM      8  C8  DEN d   1      -0.188   1.505  -0.293  0.00  0.00    -0.094 A 
ATOM      9  C9  DEN d   1      -0.826   0.990   0.823  0.00  0.00    -0.072 A 
ENDROOT
TORSDOF 0
ENDMDL
