MODEL 1
REMARK minimizedAffinity -5.70872688
REMARK minimizedRMSD -1
REMARK  0 active torsions:
REMARK  status: ('A' for Active; 'I' for Inactive)
ROOT
ATOM      1  C1  DEN d   1      -1.501   2.798   1.277  0.00  0.00     0.130 A 
ATOM      2  C2  DEN d   1      -1.123   3.421   0.011  0.00  0.00    -0.031 A 
ATOM      3  C3  DEN d   1      -0.320   2.447  -0.756  0.00  0.00     0.027 A 
ATOM      4  C4  DEN d   1       0.366   0.045  -0.111  0.00  0.00     0.027 A 
ATOM      5  C5  DEN d   1       0.290  -0.919   0.870  0.00  0.00    -0.003 A 
ATOM      6  C6  DEN d   1      -0.354  -0.702   2.059  0.00  0.00     0.001 A 
ATOM      7  C7  DEN d   1      -0.986   0.493   2.280  0.00  0.00     0.017 A 
ATOM      8  C8  DEN d   1      -0.908   1.473   1.299  0.00  0.00    -0.094 A 
ATOM      9  C9  DEN d   1      -0.263   1.230   0.098  0.00  0.00    -0.072 A 
ENDROOT
TORSDOF 0
ENDMDL
