MODEL 1
REMARK minimizedAffinity -5.19266415
REMARK minimizedRMSD -1
REMARK  0 active torsions:
REMARK  status: ('A' for Active; 'I' for Inactive)
ROOT
ATOM      1  C1  DEN d   1       0.628   0.541   0.533  0.00  0.00     0.130 A 
ATOM      2  C2  DEN d   1       0.178  -0.783   0.952  0.00  0.00    -0.031 A 
ATOM      3  C3  DEN d   1      -1.230  -0.672   1.384  0.00  0.00     0.027 A 
ATOM      4  C4  DEN d   1      -2.750   1.411   1.440  0.00  0.00     0.027 A 
ATOM      5  C5  DEN d   1      -2.809   2.765   1.192  0.00  0.00    -0.003 A 
ATOM      6  C6  DEN d   1      -1.726   3.473   0.742  0.00  0.00     0.001 A 
ATOM      7  C7  DEN d   1      -0.549   2.821   0.484  0.00  0.00     0.017 A 
ATOM      8  C8  DEN d   1      -0.479   1.458   0.740  0.00  0.00    -0.094 A 
ATOM      9  C9  DEN d   1      -1.589   0.758   1.182  0.00  0.00    -0.072 A 
ENDROOT
TORSDOF 0
ENDMDL
