MODEL 1
REMARK minimizedAffinity -5.02455044
REMARK minimizedRMSD -1
REMARK  0 active torsions:
REMARK  status: ('A' for Active; 'I' for Inactive)
ROOT
ATOM      1  C1  DEN d   1      -0.717   3.381   0.564  0.00  0.00     0.130 A 
ATOM      2  C2  DEN d   1       0.127   3.543  -0.617  0.00  0.00    -0.031 A 
ATOM      3  C3  DEN d   1       0.690   2.222  -0.961  0.00  0.00     0.027 A 
ATOM      4  C4  DEN d   1       0.333  -0.048   0.210  0.00  0.00     0.027 A 
ATOM      5  C5  DEN d   1      -0.291  -0.683   1.261  0.00  0.00    -0.003 A 
ATOM      6  C6  DEN d   1      -1.068  -0.008   2.165  0.00  0.00     0.001 A 
ATOM      7  C7  DEN d   1      -1.276   1.337   2.010  0.00  0.00     0.017 A 
ATOM      8  C8  DEN d   1      -0.644   1.986   0.957  0.00  0.00    -0.094 A 
ATOM      9  C9  DEN d   1       0.127   1.283   0.046  0.00  0.00    -0.072 A 
ENDROOT
TORSDOF 0
ENDMDL
