MODEL 1
REMARK minimizedAffinity -6.89450264
REMARK minimizedRMSD -1
REMARK  0 active torsions:
REMARK  status: ('A' for Active; 'I' for Inactive)
ROOT
ATOM      1  C1  DEN d   1      -1.743   1.747   1.887  0.00  0.00     0.130 A 
ATOM      2  C2  DEN d   1      -2.100   3.074   1.390  0.00  0.00    -0.031 A 
ATOM      3  C3  DEN d   1      -1.388   3.289   0.114  0.00  0.00     0.027 A 
ATOM      4  C4  DEN d   1       0.218   1.705  -1.137  0.00  0.00     0.027 A 
ATOM      5  C5  DEN d   1       0.836   0.475  -1.099  0.00  0.00    -0.003 A 
ATOM      6  C6  DEN d   1       0.665  -0.397  -0.056  0.00  0.00     0.001 A 
ATOM      7  C7  DEN d   1      -0.178  -0.068   0.972  0.00  0.00     0.017 A 
ATOM      8  C8  DEN d   1      -0.799   1.174   0.945  0.00  0.00    -0.094 A 
ATOM      9  C9  DEN d   1      -0.624   2.036  -0.124  0.00  0.00    -0.072 A 
ENDROOT
TORSDOF 0
ENDMDL
