MODEL 1
REMARK minimizedAffinity -4.97159243
REMARK minimizedRMSD -1
REMARK  0 active torsions:
REMARK  status: ('A' for Active; 'I' for Inactive)
ROOT
ATOM      1  C1  DEN d   1      -1.295   3.548   0.791  0.00  0.00     0.130 A 
ATOM      2  C2  DEN d   1      -0.574   3.927  -0.421  0.00  0.00    -0.031 A 
ATOM      3  C3  DEN d   1       0.022   2.705  -0.998  0.00  0.00     0.027 A 
ATOM      4  C4  DEN d   1      -0.105   0.277  -0.139  0.00  0.00     0.027 A 
ATOM      5  C5  DEN d   1      -0.594  -0.537   0.858  0.00  0.00    -0.003 A 
ATOM      6  C6  DEN d   1      -1.316  -0.046   1.913  0.00  0.00     0.001 A 
ATOM      7  C7  DEN d   1      -1.609   1.292   1.971  0.00  0.00     0.017 A 
ATOM      8  C8  DEN d   1      -1.113   2.119   0.972  0.00  0.00    -0.094 A 
ATOM      9  C9  DEN d   1      -0.395   1.601  -0.092  0.00  0.00    -0.072 A 
ENDROOT
TORSDOF 0
ENDMDL
