MODEL 1
REMARK minimizedAffinity -3.80180979
REMARK minimizedRMSD -1
REMARK  0 active torsions:
REMARK  status: ('A' for Active; 'I' for Inactive)
ROOT
ATOM      1  C1  DEN d   1       0.240   0.385  -1.263  0.00  0.00     0.130 A 
ATOM      2  C2  DEN d   1       0.915  -0.868  -0.937  0.00  0.00    -0.031 A 
ATOM      3  C3  DEN d   1       0.757  -1.108   0.512  0.00  0.00     0.027 A 
ATOM      4  C4  DEN d   1      -0.465   0.328   2.271  0.00  0.00     0.027 A 
ATOM      5  C5  DEN d   1      -1.181   1.488   2.473  0.00  0.00    -0.003 A 
ATOM      6  C6  DEN d   1      -1.442   2.370   1.459  0.00  0.00     0.001 A 
ATOM      7  C7  DEN d   1      -1.023   2.085   0.186  0.00  0.00     0.017 A 
ATOM      8  C8  DEN d   1      -0.294   0.922  -0.024  0.00  0.00    -0.094 A 
ATOM      9  C9  DEN d   1      -0.050   0.037   1.012  0.00  0.00    -0.072 A 
ENDROOT
TORSDOF 0
ENDMDL
