MODEL 1
REMARK minimizedAffinity -7.05797148
REMARK minimizedRMSD -1
REMARK  0 active torsions:
REMARK  status: ('A' for Active; 'I' for Inactive)
ROOT
ATOM      1  C1  DEN d   1       0.770  -0.048  -0.574  0.00  0.00     0.130 A 
ATOM      2  C2  DEN d   1       0.846  -1.096   0.440  0.00  0.00    -0.031 A 
ATOM      3  C3  DEN d   1      -0.057  -0.726   1.548  0.00  0.00     0.027 A 
ATOM      4  C4  DEN d   1      -1.562   1.355   1.788  0.00  0.00     0.027 A 
ATOM      5  C5  DEN d   1      -1.955   2.532   1.189  0.00  0.00    -0.003 A 
ATOM      6  C6  DEN d   1      -1.446   2.944  -0.014  0.00  0.00     0.001 A 
ATOM      7  C7  DEN d   1      -0.548   2.151  -0.679  0.00  0.00     0.017 A 
ATOM      8  C8  DEN d   1      -0.141   0.967  -0.077  0.00  0.00    -0.094 A 
ATOM      9  C9  DEN d   1      -0.677   0.562   1.134  0.00  0.00    -0.072 A 
ENDROOT
TORSDOF 0
ENDMDL
