MODEL 1
REMARK minimizedAffinity -6.14736938
REMARK minimizedRMSD -1
REMARK  0 active torsions:
REMARK  status: ('A' for Active; 'I' for Inactive)
ROOT
ATOM      1  C1  DEN d   1      -1.730   3.151   0.914  0.00  0.00     0.130 A 
ATOM      2  C2  DEN d   1      -1.222   3.771  -0.307  0.00  0.00    -0.031 A 
ATOM      3  C3  DEN d   1      -0.342   2.796  -0.982  0.00  0.00     0.027 A 
ATOM      4  C4  DEN d   1       0.277   0.398  -0.262  0.00  0.00     0.027 A 
ATOM      5  C5  DEN d   1       0.100  -0.563   0.709  0.00  0.00    -0.003 A 
ATOM      6  C6  DEN d   1      -0.665  -0.344   1.824  0.00  0.00     0.001 A 
ATOM      7  C7  DEN d   1      -1.319   0.851   1.973  0.00  0.00     0.017 A 
ATOM      8  C8  DEN d   1      -1.140   1.827   1.003  0.00  0.00    -0.094 A 
ATOM      9  C9  DEN d   1      -0.372   1.582  -0.123  0.00  0.00    -0.072 A 
ENDROOT
TORSDOF 0
ENDMDL
