MODEL 1
REMARK minimizedAffinity -3.90515971
REMARK minimizedRMSD -1
REMARK  0 active torsions:
REMARK  status: ('A' for Active; 'I' for Inactive)
ROOT
ATOM      1  C1  DEN d   1      -1.896   1.946  -0.059  0.00  0.00     0.130 A 
ATOM      2  C2  DEN d   1      -2.377   2.071   1.314  0.00  0.00    -0.031 A 
ATOM      3  C3  DEN d   1      -1.709   1.036   2.128  0.00  0.00     0.027 A 
ATOM      4  C4  DEN d   1       0.018  -0.736   1.400  0.00  0.00     0.027 A 
ATOM      5  C5  DEN d   1       0.727  -1.240   0.332  0.00  0.00    -0.003 A 
ATOM      6  C6  DEN d   1       0.588  -0.744  -0.937  0.00  0.00     0.001 A 
ATOM      7  C7  DEN d   1      -0.248   0.318  -1.162  0.00  0.00     0.017 A 
ATOM      8  C8  DEN d   1      -0.972   0.827  -0.092  0.00  0.00    -0.094 A 
ATOM      9  C9  DEN d   1      -0.808   0.319   1.186  0.00  0.00    -0.072 A 
ENDROOT
TORSDOF 0
ENDMDL
