MODEL 1
REMARK minimizedAffinity -5.95694542
REMARK minimizedRMSD -1
REMARK  0 active torsions:
REMARK  status: ('A' for Active; 'I' for Inactive)
ROOT
ATOM      1  C1  DEN d   1       0.882   0.287  -0.596  0.00  0.00     0.130 A 
ATOM      2  C2  DEN d   1       0.588  -0.852   0.269  0.00  0.00    -0.031 A 
ATOM      3  C3  DEN d   1      -0.391  -0.414   1.284  0.00  0.00     0.027 A 
ATOM      4  C4  DEN d   1      -1.476   1.905   1.597  0.00  0.00     0.027 A 
ATOM      5  C5  DEN d   1      -1.529   3.194   1.114  0.00  0.00    -0.003 A 
ATOM      6  C6  DEN d   1      -0.763   3.610   0.058  0.00  0.00     0.001 A 
ATOM      7  C7  DEN d   1       0.056   2.716  -0.580  0.00  0.00     0.017 A 
ATOM      8  C8  DEN d   1       0.121   1.417  -0.094  0.00  0.00    -0.094 A 
ATOM      9  C9  DEN d   1      -0.670   1.012   0.967  0.00  0.00    -0.072 A 
ENDROOT
TORSDOF 0
ENDMDL
