MODEL 1
REMARK minimizedAffinity -3.67198825
REMARK minimizedRMSD -1
REMARK  0 active torsions:
REMARK  status: ('A' for Active; 'I' for Inactive)
ROOT
ATOM      1  C   UNL d   1       0.052   1.522   1.352  0.00  0.00     0.078 C 
ATOM      2  C1  UNL d   1       1.254   0.644   1.172  0.00  0.00    -0.077 A 
ATOM      3  C2  UNL d   1       2.201   0.499   2.194  0.00  0.00    -0.001 A 
ATOM      4  C3  UNL d   1       3.320  -0.314   2.009  0.00  0.00     0.003 A 
ATOM      5  C4  UNL d   1       3.504  -0.988   0.804  0.00  0.00    -0.005 A 
ATOM      6  C5  UNL d   1       2.569  -0.848  -0.220  0.00  0.00     0.003 A 
ATOM      7  C6  UNL d   1       1.449  -0.035  -0.037  0.00  0.00    -0.001 A 
ENDROOT
TORSDOF 0
ENDMDL
