MODEL 1
REMARK minimizedAffinity 3.63659859
REMARK minimizedRMSD -1
REMARK  0 active torsions:
REMARK  status: ('A' for Active; 'I' for Inactive)
ROOT
ATOM      1  C   UNL d   1      -3.091   2.293   4.152  0.00  0.00     0.078 C 
ATOM      2  C1  UNL d   1      -2.223   1.807   3.030  0.00  0.00    -0.077 A 
ATOM      3  C2  UNL d   1      -1.717   2.695   2.073  0.00  0.00    -0.001 A 
ATOM      4  C3  UNL d   1      -0.918   2.227   1.028  0.00  0.00     0.003 A 
ATOM      5  C4  UNL d   1      -0.619   0.870   0.930  0.00  0.00    -0.005 A 
ATOM      6  C5  UNL d   1      -1.120  -0.022   1.877  0.00  0.00     0.003 A 
ATOM      7  C6  UNL d   1      -1.919   0.444   2.922  0.00  0.00    -0.001 A 
ENDROOT
TORSDOF 0
ENDMDL
