MODEL 1
REMARK minimizedAffinity -0.0958098248
REMARK minimizedRMSD -1
REMARK  0 active torsions:
REMARK  status: ('A' for Active; 'I' for Inactive)
ROOT
ATOM      1  C   UNL d   1      -2.578   2.520   3.125  0.00  0.00     0.078 C 
ATOM      2  C1  UNL d   1      -1.548   1.849   2.266  0.00  0.00    -0.077 A 
ATOM      3  C2  UNL d   1      -0.562   2.595   1.609  0.00  0.00    -0.001 A 
ATOM      4  C3  UNL d   1       0.385   1.959   0.805  0.00  0.00     0.003 A 
ATOM      5  C4  UNL d   1       0.354   0.574   0.649  0.00  0.00    -0.005 A 
ATOM      6  C5  UNL d   1      -0.624  -0.176   1.298  0.00  0.00     0.003 A 
ATOM      7  C6  UNL d   1      -1.572   0.459   2.103  0.00  0.00    -0.001 A 
ENDROOT
TORSDOF 0
ENDMDL
