MODEL 1
REMARK minimizedAffinity -3.22584701
REMARK minimizedRMSD -1
REMARK  0 active torsions:
REMARK  status: ('A' for Active; 'I' for Inactive)
ROOT
ATOM      1  C   UNL d   1       0.901   2.188   0.887  0.00  0.00     0.078 C 
ATOM      2  C1  UNL d   1      -0.351   1.745   1.583  0.00  0.00    -0.077 A 
ATOM      3  C2  UNL d   1      -0.623   0.386   1.783  0.00  0.00    -0.001 A 
ATOM      4  C3  UNL d   1      -1.798  -0.012   2.423  0.00  0.00     0.003 A 
ATOM      5  C4  UNL d   1      -2.710   0.943   2.869  0.00  0.00    -0.005 A 
ATOM      6  C5  UNL d   1      -2.449   2.297   2.673  0.00  0.00     0.003 A 
ATOM      7  C6  UNL d   1      -1.275   2.697   2.033  0.00  0.00    -0.001 A 
ENDROOT
TORSDOF 0
ENDMDL
