MODEL 1
REMARK minimizedAffinity -5.12075472
REMARK minimizedRMSD -1
REMARK  0 active torsions:
REMARK  status: ('A' for Active; 'I' for Inactive)
ROOT
ATOM      1  C   UNL d   1      -3.484   1.333   3.162  0.00  0.00     0.078 C 
ATOM      2  C1  UNL d   1      -2.269   1.781   2.406  0.00  0.00    -0.077 A 
ATOM      3  C2  UNL d   1      -1.127   0.972   2.333  0.00  0.00    -0.001 A 
ATOM      4  C3  UNL d   1       0.000   1.406   1.634  0.00  0.00     0.003 A 
ATOM      5  C4  UNL d   1      -0.001   2.649   1.005  0.00  0.00    -0.005 A 
ATOM      6  C5  UNL d   1      -1.131   3.461   1.075  0.00  0.00     0.003 A 
ATOM      7  C6  UNL d   1      -2.260   3.030   1.773  0.00  0.00    -0.001 A 
ENDROOT
TORSDOF 0
ENDMDL
