MODEL 1
REMARK minimizedAffinity -2.17779851
REMARK minimizedRMSD -1
REMARK  0 active torsions:
REMARK  status: ('A' for Active; 'I' for Inactive)
ROOT
ATOM      1  C   UNL d   1      -2.370   2.162   2.789  0.00  0.00     0.078 C 
ATOM      2  C1  UNL d   1      -1.273   1.482   2.026  0.00  0.00    -0.077 A 
ATOM      3  C2  UNL d   1      -1.403   0.153   1.606  0.00  0.00    -0.001 A 
ATOM      4  C3  UNL d   1      -0.370  -0.470   0.904  0.00  0.00     0.003 A 
ATOM      5  C4  UNL d   1       0.801   0.228   0.617  0.00  0.00    -0.005 A 
ATOM      6  C5  UNL d   1       0.941   1.550   1.033  0.00  0.00     0.003 A 
ATOM      7  C6  UNL d   1      -0.091   2.175   1.735  0.00  0.00    -0.001 A 
ENDROOT
TORSDOF 0
ENDMDL
