MODEL 1
REMARK minimizedAffinity 1.57525003
REMARK minimizedRMSD -1
REMARK  0 active torsions:
REMARK  status: ('A' for Active; 'I' for Inactive)
ROOT
ATOM      1  C   UNL d   1      -2.915  -2.347  -4.818  0.00  0.00     0.078 C 
ATOM      2  C1  UNL d   1      -3.478  -1.964  -3.482  0.00  0.00    -0.077 A 
ATOM      3  C2  UNL d   1      -3.697  -2.927  -2.489  0.00  0.00    -0.001 A 
ATOM      4  C3  UNL d   1      -4.231  -2.557  -1.254  0.00  0.00     0.003 A 
ATOM      5  C4  UNL d   1      -4.550  -1.225  -1.000  0.00  0.00    -0.005 A 
ATOM      6  C5  UNL d   1      -4.337  -0.260  -1.983  0.00  0.00     0.003 A 
ATOM      7  C6  UNL d   1      -3.804  -0.628  -3.219  0.00  0.00    -0.001 A 
ENDROOT
TORSDOF 0
ENDMDL
