MODEL 1
REMARK minimizedAffinity -3.26622295
REMARK minimizedRMSD -1
REMARK  0 active torsions:
REMARK  status: ('A' for Active; 'I' for Inactive)
ROOT
ATOM      1  C   UNL d   1      -3.782   1.484   3.747  0.00  0.00     0.078 C 
ATOM      2  C1  UNL d   1      -2.532   1.179   2.977  0.00  0.00    -0.077 A 
ATOM      3  C2  UNL d   1      -2.190  -0.140   2.652  0.00  0.00    -0.001 A 
ATOM      4  C3  UNL d   1      -1.018  -0.410   1.944  0.00  0.00     0.003 A 
ATOM      5  C4  UNL d   1      -0.179   0.632   1.555  0.00  0.00    -0.005 A 
ATOM      6  C5  UNL d   1      -0.510   1.947   1.876  0.00  0.00     0.003 A 
ATOM      7  C6  UNL d   1      -1.681   2.219   2.585  0.00  0.00    -0.001 A 
ENDROOT
TORSDOF 0
ENDMDL
