MODEL 1
REMARK minimizedAffinity -2.0426476
REMARK minimizedRMSD -1
REMARK  0 active torsions:
REMARK  status: ('A' for Active; 'I' for Inactive)
ROOT
ATOM      1  C   UNL d   1      -3.206   1.992   2.812  0.00  0.00     0.078 C 
ATOM      2  C1  UNL d   1      -1.891   1.487   2.298  0.00  0.00    -0.077 A 
ATOM      3  C2  UNL d   1      -1.671   0.118   2.102  0.00  0.00    -0.001 A 
ATOM      4  C3  UNL d   1      -0.439  -0.339   1.631  0.00  0.00     0.003 A 
ATOM      5  C4  UNL d   1       0.583   0.566   1.355  0.00  0.00    -0.005 A 
ATOM      6  C5  UNL d   1       0.375   1.930   1.549  0.00  0.00     0.003 A 
ATOM      7  C6  UNL d   1      -0.857   2.389   2.019  0.00  0.00    -0.001 A 
ENDROOT
TORSDOF 0
ENDMDL
