MODEL 1
REMARK minimizedAffinity 1.64710665
REMARK minimizedRMSD -1
REMARK  0 active torsions:
REMARK  status: ('A' for Active; 'I' for Inactive)
ROOT
ATOM      1  C   UNL d   1       0.179   1.885   1.077  0.00  0.00     0.078 C 
ATOM      2  C1  UNL d   1      -1.036   1.449   1.841  0.00  0.00    -0.077 A 
ATOM      3  C2  UNL d   1      -1.998   2.377   2.257  0.00  0.00    -0.001 A 
ATOM      4  C3  UNL d   1      -3.119   1.958   2.976  0.00  0.00     0.003 A 
ATOM      5  C4  UNL d   1      -3.287   0.610   3.286  0.00  0.00    -0.005 A 
ATOM      6  C5  UNL d   1      -2.334  -0.320   2.879  0.00  0.00     0.003 A 
ATOM      7  C6  UNL d   1      -1.212   0.097   2.160  0.00  0.00    -0.001 A 
ENDROOT
TORSDOF 0
ENDMDL
