MODEL 1
REMARK minimizedAffinity -3.45108342
REMARK minimizedRMSD -1
REMARK  0 active torsions:
REMARK  status: ('A' for Active; 'I' for Inactive)
ROOT
ATOM      1  C   UNL d   1      -1.867  -1.246   1.951  0.00  0.00     0.078 C 
ATOM      2  C1  UNL d   1      -0.974  -0.059   1.746  0.00  0.00    -0.077 A 
ATOM      3  C2  UNL d   1      -1.474   1.245   1.847  0.00  0.00    -0.001 A 
ATOM      4  C3  UNL d   1      -0.634   2.341   1.644  0.00  0.00     0.003 A 
ATOM      5  C4  UNL d   1       0.712   2.143   1.339  0.00  0.00    -0.005 A 
ATOM      6  C5  UNL d   1       1.218   0.849   1.235  0.00  0.00     0.003 A 
ATOM      7  C6  UNL d   1       0.379  -0.248   1.437  0.00  0.00    -0.001 A 
ENDROOT
TORSDOF 0
ENDMDL
