MODEL 1
REMARK minimizedAffinity 5.49338007
REMARK minimizedRMSD -1
REMARK  0 active torsions:
REMARK  status: ('A' for Active; 'I' for Inactive)
ROOT
ATOM      1  C   UNL d   1      -3.043   0.804   2.933  0.00  0.00     0.078 C 
ATOM      2  C1  UNL d   1      -1.885   1.322   2.133  0.00  0.00    -0.077 A 
ATOM      3  C2  UNL d   1      -2.060   2.337   1.185  0.00  0.00    -0.001 A 
ATOM      4  C3  UNL d   1      -0.975   2.803   0.441  0.00  0.00     0.003 A 
ATOM      5  C4  UNL d   1       0.293   2.259   0.637  0.00  0.00    -0.005 A 
ATOM      6  C5  UNL d   1       0.477   1.247   1.577  0.00  0.00     0.003 A 
ATOM      7  C6  UNL d   1      -0.607   0.780   2.322  0.00  0.00    -0.001 A 
ENDROOT
TORSDOF 0
ENDMDL
