MODEL 1
REMARK minimizedAffinity 6.82911444
REMARK minimizedRMSD -1
REMARK  0 active torsions:
REMARK  status: ('A' for Active; 'I' for Inactive)
ROOT
ATOM      1  C   UNL d   1      -4.842   1.827   4.061  0.00  0.00     0.078 C 
ATOM      2  C1  UNL d   1      -3.779   2.240   3.087  0.00  0.00    -0.077 A 
ATOM      3  C2  UNL d   1      -2.549   1.572   3.037  0.00  0.00    -0.001 A 
ATOM      4  C3  UNL d   1      -1.564   1.973   2.133  0.00  0.00     0.003 A 
ATOM      5  C4  UNL d   1      -1.799   3.044   1.272  0.00  0.00    -0.005 A 
ATOM      6  C5  UNL d   1      -3.019   3.715   1.316  0.00  0.00     0.003 A 
ATOM      7  C6  UNL d   1      -4.005   3.316   2.220  0.00  0.00    -0.001 A 
ENDROOT
TORSDOF 0
ENDMDL
