MODEL 1
REMARK minimizedAffinity 2.00527883
REMARK minimizedRMSD -1
REMARK  0 active torsions:
REMARK  status: ('A' for Active; 'I' for Inactive)
ROOT
ATOM      1  C   UNL d   1      -2.651   2.340   2.300  0.00  0.00     0.078 C 
ATOM      2  C1  UNL d   1      -1.422   1.530   2.015  0.00  0.00    -0.077 A 
ATOM      3  C2  UNL d   1      -1.396   0.150   2.253  0.00  0.00    -0.001 A 
ATOM      4  C3  UNL d   1      -0.242  -0.590   1.992  0.00  0.00     0.003 A 
ATOM      5  C4  UNL d   1       0.896   0.042   1.493  0.00  0.00    -0.005 A 
ATOM      6  C5  UNL d   1       0.881   1.414   1.255  0.00  0.00     0.003 A 
ATOM      7  C6  UNL d   1      -0.273   2.156   1.516  0.00  0.00    -0.001 A 
ENDROOT
TORSDOF 0
ENDMDL
