MODEL 1
REMARK minimizedAffinity 3.96246791
REMARK minimizedRMSD -1
REMARK  0 active torsions:
REMARK  status: ('A' for Active; 'I' for Inactive)
ROOT
ATOM      1  C   UNL d   1      -1.788  -1.296   3.037  0.00  0.00     0.078 C 
ATOM      2  C1  UNL d   1      -0.883  -0.239   2.477  0.00  0.00    -0.077 A 
ATOM      3  C2  UNL d   1      -1.397   0.977   2.010  0.00  0.00    -0.001 A 
ATOM      4  C3  UNL d   1      -0.544   1.948   1.483  0.00  0.00     0.003 A 
ATOM      5  C4  UNL d   1       0.828   1.712   1.416  0.00  0.00    -0.005 A 
ATOM      6  C5  UNL d   1       1.348   0.504   1.876  0.00  0.00     0.003 A 
ATOM      7  C6  UNL d   1       0.496  -0.468   2.404  0.00  0.00    -0.001 A 
ENDROOT
TORSDOF 0
ENDMDL
