MODEL 1
REMARK minimizedAffinity -3.56604552
REMARK minimizedRMSD -1
REMARK  0 active torsions:
REMARK  status: ('A' for Active; 'I' for Inactive)
ROOT
ATOM      1  C   UNL d   1       1.130   1.526   1.112  0.00  0.00     0.078 C 
ATOM      2  C1  UNL d   1      -0.217   0.967   1.461  0.00  0.00    -0.077 A 
ATOM      3  C2  UNL d   1      -1.391   1.663   1.146  0.00  0.00    -0.001 A 
ATOM      4  C3  UNL d   1      -2.637   1.136   1.486  0.00  0.00     0.003 A 
ATOM      5  C4  UNL d   1      -2.723  -0.090   2.143  0.00  0.00    -0.005 A 
ATOM      6  C5  UNL d   1      -1.561  -0.789   2.462  0.00  0.00     0.003 A 
ATOM      7  C6  UNL d   1      -0.313  -0.263   2.123  0.00  0.00    -0.001 A 
ENDROOT
TORSDOF 0
ENDMDL
