MODEL 1
REMARK minimizedAffinity -0.673697591
REMARK minimizedRMSD -1
REMARK  0 active torsions:
REMARK  status: ('A' for Active; 'I' for Inactive)
ROOT
ATOM      1  C   UNL d   1      -3.511   1.500   3.968  0.00  0.00     0.078 C 
ATOM      2  C1  UNL d   1      -2.345   1.969   3.151  0.00  0.00    -0.077 A 
ATOM      3  C2  UNL d   1      -1.045   1.531   3.432  0.00  0.00    -0.001 A 
ATOM      4  C3  UNL d   1       0.033   1.984   2.669  0.00  0.00     0.003 A 
ATOM      5  C4  UNL d   1      -0.178   2.878   1.621  0.00  0.00    -0.005 A 
ATOM      6  C5  UNL d   1      -1.468   3.322   1.336  0.00  0.00     0.003 A 
ATOM      7  C6  UNL d   1      -2.547   2.870   2.098  0.00  0.00    -0.001 A 
ENDROOT
TORSDOF 0
ENDMDL
