MODEL 1
REMARK minimizedAffinity 4.33038378
REMARK minimizedRMSD -1
REMARK  1 active torsions:
REMARK  status: ('A' for Active; 'I' for Inactive)
REMARK    1  A    between atoms: C1_2  and  C2_3 
ROOT
ATOM      1  C2  UNL d   1       3.710  -5.118   0.006  0.00  0.00    -0.073 A 
ATOM      2  C3  UNL d   1       4.861  -5.656  -0.580  0.00  0.00    -0.002 A 
ATOM      3  C4  UNL d   1       5.998  -4.867  -0.756  0.00  0.00     0.004 A 
ATOM      4  C5  UNL d   1       5.999  -3.535  -0.342  0.00  0.00    -0.004 A 
ATOM      5  C6  UNL d   1       4.862  -2.982   0.256  0.00  0.00    -0.075 A 
ATOM      6  C7  UNL d   1       4.846  -1.550   0.705  0.00  0.00     0.076 C 
ATOM      7  C8  UNL d   1       3.724  -3.780   0.427  0.00  0.00     0.001 A 
ENDROOT
BRANCH   1   8
ATOM      8  C1  UNL d   1       2.482  -5.968   0.205  0.00  0.00     0.053 C 
ATOM      9  C   UNL d   1       1.230  -5.296  -0.335  0.00  0.00     0.018 C 
ENDBRANCH   1   8
TORSDOF 1
ENDMDL
