MODEL 1
REMARK minimizedAffinity 14.7881737
REMARK minimizedRMSD -1
REMARK  1 active torsions:
REMARK  status: ('A' for Active; 'I' for Inactive)
REMARK    1  A    between atoms: C1_2  and  C2_3 
ROOT
ATOM      1  C2  UNL d   1      -4.548  -0.378  -2.878  0.00  0.00    -0.073 A 
ATOM      2  C3  UNL d   1      -4.045  -1.367  -2.024  0.00  0.00    -0.002 A 
ATOM      3  C4  UNL d   1      -2.813  -1.192  -1.392  0.00  0.00     0.004 A 
ATOM      4  C5  UNL d   1      -2.076  -0.027  -1.601  0.00  0.00    -0.004 A 
ATOM      5  C6  UNL d   1      -2.567   0.978  -2.441  0.00  0.00    -0.075 A 
ATOM      6  C7  UNL d   1      -1.785   2.237  -2.678  0.00  0.00     0.076 C 
ATOM      7  C8  UNL d   1      -3.804   0.794  -3.074  0.00  0.00     0.001 A 
ENDROOT
BRANCH   1   8
ATOM      8  C1  UNL d   1      -5.881  -0.559  -3.557  0.00  0.00     0.053 C 
ATOM      9  C   UNL d   1      -5.999  -1.920  -4.226  0.00  0.00     0.018 C 
ENDBRANCH   1   8
TORSDOF 1
ENDMDL
