MODEL 1
REMARK minimizedAffinity 5.07321692
REMARK minimizedRMSD -1
REMARK  1 active torsions:
REMARK  status: ('A' for Active; 'I' for Inactive)
REMARK    1  A    between atoms: C1_2  and  C2_3 
ROOT
ATOM      1  C2  UNL d   1       0.513   4.274  -4.952  0.00  0.00    -0.073 A 
ATOM      2  C3  UNL d   1       0.727   3.319  -5.952  0.00  0.00    -0.002 A 
ATOM      3  C4  UNL d   1      -0.024   2.143  -5.976  0.00  0.00     0.004 A 
ATOM      4  C5  UNL d   1      -0.998   1.912  -5.005  0.00  0.00    -0.004 A 
ATOM      5  C6  UNL d   1      -1.235   2.860  -4.004  0.00  0.00    -0.075 A 
ATOM      6  C7  UNL d   1      -2.278   2.626  -2.951  0.00  0.00     0.076 C 
ATOM      7  C8  UNL d   1      -0.475   4.037  -3.986  0.00  0.00     0.001 A 
ENDROOT
BRANCH   1   8
ATOM      8  C1  UNL d   1       1.316   5.549  -4.926  0.00  0.00     0.053 C 
ATOM      9  C   UNL d   1       2.520   5.483  -5.852  0.00  0.00     0.018 C 
ENDBRANCH   1   8
TORSDOF 1
ENDMDL
