MODEL 1
REMARK minimizedAffinity 11.6786757
REMARK minimizedRMSD -1
REMARK  1 active torsions:
REMARK  status: ('A' for Active; 'I' for Inactive)
REMARK    1  A    between atoms: C1_2  and  C2_3 
ROOT
ATOM      1  C2  UNL d   1      -1.699   1.002  -2.137  0.00  0.00    -0.073 A 
ATOM      2  C3  UNL d   1      -2.912   1.682  -2.302  0.00  0.00    -0.002 A 
ATOM      3  C4  UNL d   1      -2.996   2.773  -3.168  0.00  0.00     0.004 A 
ATOM      4  C5  UNL d   1      -1.873   3.191  -3.882  0.00  0.00    -0.004 A 
ATOM      5  C6  UNL d   1      -0.655   2.517  -3.739  0.00  0.00    -0.075 A 
ATOM      6  C7  UNL d   1       0.563   2.956  -4.498  0.00  0.00     0.076 C 
ATOM      7  C8  UNL d   1      -0.578   1.424  -2.865  0.00  0.00     0.001 A 
ENDROOT
BRANCH   1   8
ATOM      8  C1  UNL d   1      -1.605  -0.180  -1.208  0.00  0.00     0.053 C 
ATOM      9  C   UNL d   1      -2.899  -0.979  -1.169  0.00  0.00     0.018 C 
ENDBRANCH   1   8
TORSDOF 1
ENDMDL
