MODEL 1
REMARK minimizedAffinity 3.41298509
REMARK minimizedRMSD -1
REMARK  1 active torsions:
REMARK  status: ('A' for Active; 'I' for Inactive)
REMARK    1  A    between atoms: C1_2  and  C2_3 
ROOT
ATOM      1  C2  UNL d   1       3.075  -2.751   0.641  0.00  0.00    -0.073 A 
ATOM      2  C3  UNL d   1       2.713  -2.048   1.796  0.00  0.00    -0.002 A 
ATOM      3  C4  UNL d   1       1.538  -1.296   1.824  0.00  0.00     0.004 A 
ATOM      4  C5  UNL d   1       0.711  -1.243   0.702  0.00  0.00    -0.004 A 
ATOM      5  C6  UNL d   1       1.050  -1.947  -0.458  0.00  0.00    -0.075 A 
ATOM      6  C7  UNL d   1       0.172  -1.899  -1.674  0.00  0.00     0.076 C 
ATOM      7  C8  UNL d   1       2.233  -2.699  -0.479  0.00  0.00     0.001 A 
ENDROOT
BRANCH   1   8
ATOM      8  C1  UNL d   1       4.339  -3.570   0.608  0.00  0.00     0.053 C 
ATOM      9  C   UNL d   1       5.462  -2.856  -0.129  0.00  0.00     0.018 C 
ENDBRANCH   1   8
TORSDOF 1
ENDMDL
