MODEL 1
REMARK minimizedAffinity 8.1701498
REMARK minimizedRMSD -1
REMARK  0 active torsions:
REMARK  status: ('A' for Active; 'I' for Inactive)
ROOT
ATOM      1  C1  DEN d   1       1.758  -3.798   1.302  0.00  0.00     0.130 A 
ATOM      2  C2  DEN d   1       2.615  -2.712   0.835  0.00  0.00    -0.031 A 
ATOM      3  C3  DEN d   1       1.974  -1.434   1.203  0.00  0.00     0.027 A 
ATOM      4  C4  DEN d   1      -0.249  -1.032   2.447  0.00  0.00     0.027 A 
ATOM      5  C5  DEN d   1      -1.334  -1.645   3.033  0.00  0.00    -0.003 A 
ATOM      6  C6  DEN d   1      -1.481  -3.007   3.052  0.00  0.00     0.001 A 
ATOM      7  C7  DEN d   1      -0.503  -3.803   2.515  0.00  0.00     0.017 A 
ATOM      8  C8  DEN d   1       0.590  -3.191   1.916  0.00  0.00    -0.094 A 
ATOM      9  C9  DEN d   1       0.726  -1.813   1.918  0.00  0.00    -0.072 A 
ENDROOT
TORSDOF 0
ENDMDL
