MODEL 1
REMARK minimizedAffinity 12.2055998
REMARK minimizedRMSD -1
REMARK  0 active torsions:
REMARK  status: ('A' for Active; 'I' for Inactive)
ROOT
ATOM      1  C1  DEN d   1       2.950  -2.340   3.725  0.00  0.00     0.130 A 
ATOM      2  C2  DEN d   1       2.832  -0.929   4.084  0.00  0.00    -0.031 A 
ATOM      3  C3  DEN d   1       2.006  -0.264   3.056  0.00  0.00     0.027 A 
ATOM      4  C4  DEN d   1       0.901  -1.278   0.957  0.00  0.00     0.027 A 
ATOM      5  C5  DEN d   1       0.729  -2.433   0.226  0.00  0.00    -0.003 A 
ATOM      6  C6  DEN d   1       1.309  -3.620   0.588  0.00  0.00     0.001 A 
ATOM      7  C7  DEN d   1       2.051  -3.690   1.737  0.00  0.00     0.017 A 
ATOM      8  C8  DEN d   1       2.235  -2.528   2.476  0.00  0.00    -0.094 A 
ATOM      9  C9  DEN d   1       1.631  -1.341   2.100  0.00  0.00    -0.072 A 
ENDROOT
TORSDOF 0
ENDMDL
