MODEL 1
REMARK minimizedAffinity 8.1517601
REMARK minimizedRMSD -1
REMARK  0 active torsions:
REMARK  status: ('A' for Active; 'I' for Inactive)
ROOT
ATOM      1  C1  DEN d   1       1.467   3.553  -5.530  0.00  0.00     0.130 A 
ATOM      2  C2  DEN d   1       0.629   4.748  -5.577  0.00  0.00    -0.031 A 
ATOM      3  C3  DEN d   1       1.512   5.917  -5.764  0.00  0.00     0.027 A 
ATOM      4  C4  DEN d   1       4.080   5.992  -5.989  0.00  0.00     0.027 A 
ATOM      5  C5  DEN d   1       5.228   5.231  -5.999  0.00  0.00    -0.003 A 
ATOM      6  C6  DEN d   1       5.207   3.874  -5.822  0.00  0.00     0.001 A 
ATOM      7  C7  DEN d   1       4.008   3.228  -5.671  0.00  0.00     0.017 A 
ATOM      8  C8  DEN d   1       2.847   3.988  -5.652  0.00  0.00    -0.094 A 
ATOM      9  C9  DEN d   1       2.888   5.359  -5.845  0.00  0.00    -0.072 A 
ENDROOT
TORSDOF 0
ENDMDL
