MODEL 1
REMARK minimizedAffinity 5.350214
REMARK minimizedRMSD -1
REMARK  0 active torsions:
REMARK  status: ('A' for Active; 'I' for Inactive)
ROOT
ATOM      1  C1  DEN d   1      -1.873   2.671  -2.661  0.00  0.00     0.130 A 
ATOM      2  C2  DEN d   1      -2.630   1.646  -3.375  0.00  0.00    -0.031 A 
ATOM      3  C3  DEN d   1      -2.321   1.770  -4.814  0.00  0.00     0.027 A 
ATOM      4  C4  DEN d   1      -0.749   3.436  -5.999  0.00  0.00     0.027 A 
ATOM      5  C5  DEN d   1       0.103   4.502  -5.812  0.00  0.00    -0.003 A 
ATOM      6  C6  DEN d   1       0.328   5.050  -4.577  0.00  0.00     0.001 A 
ATOM      7  C7  DEN d   1      -0.272   4.504  -3.473  0.00  0.00     0.017 A 
ATOM      8  C8  DEN d   1      -1.138   3.434  -3.654  0.00  0.00    -0.094 A 
ATOM      9  C9  DEN d   1      -1.343   2.887  -4.909  0.00  0.00    -0.072 A 
ENDROOT
TORSDOF 0
ENDMDL
