MODEL 1
REMARK minimizedAffinity 8.25854397
REMARK minimizedRMSD -1
REMARK  0 active torsions:
REMARK  status: ('A' for Active; 'I' for Inactive)
ROOT
ATOM      1  C1  DEN d   1       1.195  -5.167   0.407  0.00  0.00     0.130 A 
ATOM      2  C2  DEN d   1       2.447  -5.909   0.282  0.00  0.00    -0.031 A 
ATOM      3  C3  DEN d   1       3.562  -4.958   0.468  0.00  0.00     0.027 A 
ATOM      4  C4  DEN d   1       3.471  -2.424   0.941  0.00  0.00     0.027 A 
ATOM      5  C5  DEN d   1       2.634  -1.345   1.121  0.00  0.00    -0.003 A 
ATOM      6  C6  DEN d   1       1.271  -1.457   1.042  0.00  0.00     0.001 A 
ATOM      7  C7  DEN d   1       0.702  -2.683   0.822  0.00  0.00     0.017 A 
ATOM      8  C8  DEN d   1       1.540  -3.775   0.632  0.00  0.00    -0.094 A 
ATOM      9  C9  DEN d   1       2.915  -3.643   0.727  0.00  0.00    -0.072 A 
ENDROOT
TORSDOF 0
ENDMDL
