MODEL 1
REMARK minimizedAffinity 16.4004993
REMARK minimizedRMSD -1
REMARK  0 active torsions:
REMARK  status: ('A' for Active; 'I' for Inactive)
ROOT
ATOM      1  C1  DEN d   1      -3.323   2.221  -3.354  0.00  0.00     0.130 A 
ATOM      2  C2  DEN d   1      -2.037   2.893  -3.190  0.00  0.00    -0.031 A 
ATOM      3  C3  DEN d   1      -1.147   1.997  -2.425  0.00  0.00     0.027 A 
ATOM      4  C4  DEN d   1      -1.631  -0.357  -1.489  0.00  0.00     0.027 A 
ATOM      5  C5  DEN d   1      -2.586  -1.342  -1.366  0.00  0.00    -0.003 A 
ATOM      6  C6  DEN d   1      -3.854  -1.196  -1.864  0.00  0.00     0.001 A 
ATOM      7  C7  DEN d   1      -4.187  -0.056  -2.548  0.00  0.00     0.017 A 
ATOM      8  C8  DEN d   1      -3.232   0.944  -2.669  0.00  0.00    -0.094 A 
ATOM      9  C9  DEN d   1      -1.952   0.772  -2.169  0.00  0.00    -0.072 A 
ENDROOT
TORSDOF 0
ENDMDL
