MODEL 1
REMARK minimizedAffinity 12.3352184
REMARK minimizedRMSD -1
REMARK  0 active torsions:
REMARK  status: ('A' for Active; 'I' for Inactive)
ROOT
ATOM      1  C1  DEN d   1      -2.935   2.239  -3.095  0.00  0.00     0.130 A 
ATOM      2  C2  DEN d   1      -1.526   2.571  -2.897  0.00  0.00    -0.031 A 
ATOM      3  C3  DEN d   1      -0.926   1.526  -2.045  0.00  0.00     0.027 A 
ATOM      4  C4  DEN d   1      -2.032  -0.567  -1.021  0.00  0.00     0.027 A 
ATOM      5  C5  DEN d   1      -3.212  -1.267  -0.900  0.00  0.00    -0.003 A 
ATOM      6  C6  DEN d   1      -4.380  -0.834  -1.469  0.00  0.00     0.001 A 
ATOM      7  C7  DEN d   1      -4.384   0.309  -2.223  0.00  0.00     0.017 A 
ATOM      8  C8  DEN d   1      -3.200   1.025  -2.344  0.00  0.00    -0.094 A 
ATOM      9  C9  DEN d   1      -2.027   0.564  -1.771  0.00  0.00    -0.072 A 
ENDROOT
TORSDOF 0
ENDMDL
