MODEL 1
REMARK minimizedAffinity 20.8182545
REMARK minimizedRMSD -1
REMARK  0 active torsions:
REMARK  status: ('A' for Active; 'I' for Inactive)
ROOT
ATOM      1  C1  DEN d   1       2.274  -1.214   4.047  0.00  0.00     0.130 A 
ATOM      2  C2  DEN d   1       3.456  -1.913   4.545  0.00  0.00    -0.031 A 
ATOM      3  C3  DEN d   1       3.938  -2.812   3.478  0.00  0.00     0.027 A 
ATOM      4  C4  DEN d   1       2.978  -3.186   1.113  0.00  0.00     0.027 A 
ATOM      5  C5  DEN d   1       1.976  -2.827   0.239  0.00  0.00    -0.003 A 
ATOM      6  C6  DEN d   1       0.992  -1.938   0.582  0.00  0.00     0.001 A 
ATOM      7  C7  DEN d   1       1.014  -1.343   1.816  0.00  0.00     0.017 A 
ATOM      8  C8  DEN d   1       2.016  -1.706   2.705  0.00  0.00    -0.094 A 
ATOM      9  C9  DEN d   1       3.010  -2.597   2.336  0.00  0.00    -0.072 A 
ENDROOT
TORSDOF 0
ENDMDL
