MODEL 1
REMARK minimizedAffinity 13.9199944
REMARK minimizedRMSD -1
REMARK  0 active torsions:
REMARK  status: ('A' for Active; 'I' for Inactive)
ROOT
ATOM      1  C1  DEN d   1      -1.408  -0.301  -1.392  0.00  0.00     0.130 A 
ATOM      2  C2  DEN d   1      -2.772  -0.565  -0.941  0.00  0.00    -0.031 A 
ATOM      3  C3  DEN d   1      -3.647   0.491  -1.489  0.00  0.00     0.027 A 
ATOM      4  C4  DEN d   1      -3.027   2.496  -2.988  0.00  0.00     0.027 A 
ATOM      5  C5  DEN d   1      -1.991   3.144  -3.624  0.00  0.00    -0.003 A 
ATOM      6  C6  DEN d   1      -0.694   2.713  -3.532  0.00  0.00     0.001 A 
ATOM      7  C7  DEN d   1      -0.405   1.575  -2.826  0.00  0.00     0.017 A 
ATOM      8  C8  DEN d   1      -1.443   0.920  -2.177  0.00  0.00    -0.094 A 
ATOM      9  C9  DEN d   1      -2.749   1.365  -2.291  0.00  0.00    -0.072 A 
ENDROOT
TORSDOF 0
ENDMDL
