MODEL 1
REMARK minimizedAffinity 8.25186348
REMARK minimizedRMSD -1
REMARK  0 active torsions:
REMARK  status: ('A' for Active; 'I' for Inactive)
ROOT
ATOM      1  C1  DEN d   1       0.470   4.942  -4.107  0.00  0.00     0.130 A 
ATOM      2  C2  DEN d   1       1.418   4.882  -5.217  0.00  0.00    -0.031 A 
ATOM      3  C3  DEN d   1       1.127   3.665  -6.000  0.00  0.00     0.027 A 
ATOM      4  C4  DEN d   1      -0.691   1.878  -5.607  0.00  0.00     0.027 A 
ATOM      5  C5  DEN d   1      -1.727   1.493  -4.785  0.00  0.00    -0.003 A 
ATOM      6  C6  DEN d   1      -2.078   2.206  -3.670  0.00  0.00     0.001 A 
ATOM      7  C7  DEN d   1      -1.417   3.367  -3.371  0.00  0.00     0.017 A 
ATOM      8  C8  DEN d   1      -0.366   3.759  -4.190  0.00  0.00    -0.094 A 
ATOM      9  C9  DEN d   1      -0.035   3.031  -5.320  0.00  0.00    -0.072 A 
ENDROOT
TORSDOF 0
ENDMDL
