MODEL 1
REMARK minimizedAffinity 4.69289255
REMARK minimizedRMSD -1
REMARK  0 active torsions:
REMARK  status: ('A' for Active; 'I' for Inactive)
ROOT
ATOM      1  C1  DEN d   1       0.421  -2.409  -0.311  0.00  0.00     0.130 A 
ATOM      2  C2  DEN d   1       0.587  -0.987  -0.021  0.00  0.00    -0.031 A 
ATOM      3  C3  DEN d   1       1.955  -0.784   0.497  0.00  0.00     0.027 A 
ATOM      4  C4  DEN d   1       3.824  -2.522   0.871  0.00  0.00     0.027 A 
ATOM      5  C5  DEN d   1       4.149  -3.858   0.782  0.00  0.00    -0.003 A 
ATOM      6  C6  DEN d   1       3.251  -4.801   0.357  0.00  0.00     0.001 A 
ATOM      7  C7  DEN d   1       1.997  -4.415  -0.037  0.00  0.00     0.017 A 
ATOM      8  C8  DEN d   1       1.659  -3.071   0.058  0.00  0.00    -0.094 A 
ATOM      9  C9  DEN d   1       2.585  -2.132   0.478  0.00  0.00    -0.072 A 
ENDROOT
TORSDOF 0
ENDMDL
