MODEL 1
REMARK minimizedAffinity -0.0519684777
REMARK minimizedRMSD -1
REMARK  0 active torsions:
REMARK  status: ('A' for Active; 'I' for Inactive)
ROOT
ATOM      1  C   UNL d   1      -5.192   5.751   1.248  0.00  0.00    -0.002 A 
ATOM      2  C1  UNL d   1      -3.814   5.632   1.365  0.00  0.00     0.010 A 
ATOM      3  C2  UNL d   1      -3.205   5.638   2.621  0.00  0.00     0.041 A 
ATOM      4  C3  UNL d   1      -4.011   5.764   3.769  0.00  0.00    -0.075 A 
ATOM      5  S   UNL d   1      -3.485   5.795   5.411  0.00  0.00     0.015 SA
ATOM      6  C4  UNL d   1      -5.076   5.965   5.996  0.00  0.00     0.022 A 
ATOM      7  C5  UNL d   1      -5.999   6.000   4.978  0.00  0.00     0.026 A 
ATOM      8  C6  UNL d   1      -5.401   5.884   3.678  0.00  0.00    -0.082 A 
ATOM      9  C7  UNL d   1      -5.989   5.876   2.390  0.00  0.00     0.045 A 
ENDROOT
TORSDOF 0
ENDMDL
