MODEL 1
REMARK minimizedAffinity 2.67727637
REMARK minimizedRMSD -1
REMARK  0 active torsions:
REMARK  status: ('A' for Active; 'I' for Inactive)
ROOT
ATOM      1  C   UNL d   1       0.350   0.370   4.440  0.00  0.00    -0.002 A 
ATOM      2  C1  UNL d   1       1.456   0.263   5.271  0.00  0.00     0.010 A 
ATOM      3  C2  UNL d   1       1.832  -0.975   5.798  0.00  0.00     0.041 A 
ATOM      4  C3  UNL d   1       1.071  -2.114   5.471  0.00  0.00    -0.075 A 
ATOM      5  S   UNL d   1       1.343  -3.733   5.998  0.00  0.00     0.015 SA
ATOM      6  C4  UNL d   1      -0.002  -4.320   5.132  0.00  0.00     0.022 A 
ATOM      7  C5  UNL d   1      -0.655  -3.320   4.451  0.00  0.00     0.026 A 
ATOM      8  C6  UNL d   1      -0.047  -2.032   4.635  0.00  0.00    -0.082 A 
ATOM      9  C7  UNL d   1      -0.402  -0.763   4.118  0.00  0.00     0.045 A 
ENDROOT
TORSDOF 0
ENDMDL
