MODEL 1
REMARK minimizedAffinity 1.64854383
REMARK minimizedRMSD -1
REMARK  0 active torsions:
REMARK  status: ('A' for Active; 'I' for Inactive)
ROOT
ATOM      1  C   UNL d   1      -3.962   5.744   1.256  0.00  0.00    -0.002 A 
ATOM      2  C1  UNL d   1      -5.295   5.357   1.242  0.00  0.00     0.010 A 
ATOM      3  C2  UNL d   1      -5.999   5.194   2.437  0.00  0.00     0.041 A 
ATOM      4  C3  UNL d   1      -5.336   5.431   3.657  0.00  0.00    -0.075 A 
ATOM      5  S   UNL d   1      -5.998   5.295   5.243  0.00  0.00     0.015 SA
ATOM      6  C4  UNL d   1      -4.527   5.748   5.976  0.00  0.00     0.022 A 
ATOM      7  C5  UNL d   1      -3.544   5.999   5.048  0.00  0.00     0.026 A 
ATOM      8  C6  UNL d   1      -3.994   5.821   3.696  0.00  0.00    -0.082 A 
ATOM      9  C7  UNL d   1      -3.307   5.977   2.468  0.00  0.00     0.045 A 
ENDROOT
TORSDOF 0
ENDMDL
