MODEL 1
REMARK minimizedAffinity 14.4894447
REMARK minimizedRMSD -1
REMARK  0 active torsions:
REMARK  status: ('A' for Active; 'I' for Inactive)
ROOT
ATOM      1  C   UNL d   1       1.528   1.365  -0.257  0.00  0.00    -0.002 A 
ATOM      2  C1  UNL d   1       2.102   0.109  -0.400  0.00  0.00     0.010 A 
ATOM      3  C2  UNL d   1       3.480  -0.062  -0.259  0.00  0.00     0.041 A 
ATOM      4  C3  UNL d   1       4.280   1.061   0.031  0.00  0.00    -0.075 A 
ATOM      5  S   UNL d   1       5.990   1.091   0.248  0.00  0.00     0.015 SA
ATOM      6  C4  UNL d   1       6.000   2.771   0.535  0.00  0.00     0.022 A 
ATOM      7  C5  UNL d   1       4.737   3.312   0.471  0.00  0.00     0.026 A 
ATOM      8  C6  UNL d   1       3.725   2.335   0.180  0.00  0.00    -0.082 A 
ATOM      9  C7  UNL d   1       2.325   2.476   0.031  0.00  0.00     0.045 A 
ENDROOT
TORSDOF 0
ENDMDL
