MODEL 1
REMARK minimizedAffinity -0.0146768037
REMARK minimizedRMSD -1
REMARK  0 active torsions:
REMARK  status: ('A' for Active; 'I' for Inactive)
ROOT
ATOM      1  C   UNL d   1      -5.145   5.934   0.985  0.00  0.00    -0.002 A 
ATOM      2  C1  UNL d   1      -3.764   5.967   1.108  0.00  0.00     0.010 A 
ATOM      3  C2  UNL d   1      -3.164   5.990   2.369  0.00  0.00     0.041 A 
ATOM      4  C3  UNL d   1      -3.983   5.977   3.514  0.00  0.00    -0.075 A 
ATOM      5  S   UNL d   1      -3.470   5.999   5.160  0.00  0.00     0.015 SA
ATOM      6  C4  UNL d   1      -5.073   5.964   5.738  0.00  0.00     0.022 A 
ATOM      7  C5  UNL d   1      -5.990   5.936   4.714  0.00  0.00     0.026 A 
ATOM      8  C6  UNL d   1      -5.377   5.943   3.416  0.00  0.00    -0.082 A 
ATOM      9  C7  UNL d   1      -5.955   5.921   2.124  0.00  0.00     0.045 A 
ENDROOT
TORSDOF 0
ENDMDL
