MODEL 1
REMARK minimizedAffinity -5.47732639
REMARK minimizedRMSD -1
REMARK  0 active torsions:
REMARK  status: ('A' for Active; 'I' for Inactive)
ROOT
ATOM      1  C   UNL d   1       1.968  -1.608  -0.474  0.00  0.00     0.078 C 
ATOM      2  C1  UNL d   1       1.011  -1.562   0.679  0.00  0.00    -0.077 A 
ATOM      3  C2  UNL d   1      -0.084  -0.689   0.673  0.00  0.00    -0.001 A 
ATOM      4  C3  UNL d   1      -0.962  -0.651   1.758  0.00  0.00     0.003 A 
ATOM      5  C4  UNL d   1      -0.753  -1.481   2.857  0.00  0.00    -0.005 A 
ATOM      6  C5  UNL d   1       0.335  -2.352   2.872  0.00  0.00     0.003 A 
ATOM      7  C6  UNL d   1       1.214  -2.392   1.789  0.00  0.00    -0.001 A 
ENDROOT
TORSDOF 0
ENDMDL
