MODEL 1
REMARK minimizedAffinity -3.44019747
REMARK minimizedRMSD -1
REMARK  0 active torsions:
REMARK  status: ('A' for Active; 'I' for Inactive)
ROOT
ATOM      1  C   UNL d   1       2.768  -0.752  -0.549  0.00  0.00     0.078 C 
ATOM      2  C1  UNL d   1       1.596  -0.579   0.372  0.00  0.00    -0.077 A 
ATOM      3  C2  UNL d   1       0.598   0.364   0.098  0.00  0.00    -0.001 A 
ATOM      4  C3  UNL d   1      -0.482   0.521   0.969  0.00  0.00     0.003 A 
ATOM      5  C4  UNL d   1      -0.573  -0.260   2.119  0.00  0.00    -0.005 A 
ATOM      6  C5  UNL d   1       0.418  -1.199   2.401  0.00  0.00     0.003 A 
ATOM      7  C6  UNL d   1       1.498  -1.358   1.531  0.00  0.00    -0.001 A 
ENDROOT
TORSDOF 0
ENDMDL
