MODEL 1
REMARK minimizedAffinity -2.63562012
REMARK minimizedRMSD -1
REMARK  0 active torsions:
REMARK  status: ('A' for Active; 'I' for Inactive)
ROOT
ATOM      1  C   UNL d   1       2.314  -1.519   0.769  0.00  0.00     0.078 C 
ATOM      2  C1  UNL d   1       1.220  -0.553   0.423  0.00  0.00    -0.077 A 
ATOM      3  C2  UNL d   1       1.448   0.509  -0.461  0.00  0.00    -0.001 A 
ATOM      4  C3  UNL d   1       0.423   1.406  -0.766  0.00  0.00     0.003 A 
ATOM      5  C4  UNL d   1      -0.837   1.250  -0.192  0.00  0.00    -0.005 A 
ATOM      6  C5  UNL d   1      -1.073   0.197   0.690  0.00  0.00     0.003 A 
ATOM      7  C6  UNL d   1      -0.049  -0.700   0.997  0.00  0.00    -0.001 A 
ENDROOT
TORSDOF 0
ENDMDL
