MODEL 1
REMARK minimizedAffinity -2.48656368
REMARK minimizedRMSD -1
REMARK  0 active torsions:
REMARK  status: ('A' for Active; 'I' for Inactive)
ROOT
ATOM      1  C   UNL d   1      -1.005   1.666  -0.879  0.00  0.00     0.078 C 
ATOM      2  C1  UNL d   1       0.103   0.735  -0.487  0.00  0.00    -0.077 A 
ATOM      3  C2  UNL d   1      -0.162  -0.445   0.218  0.00  0.00    -0.001 A 
ATOM      4  C3  UNL d   1       0.880  -1.298   0.585  0.00  0.00     0.003 A 
ATOM      5  C4  UNL d   1       2.195  -0.979   0.252  0.00  0.00    -0.005 A 
ATOM      6  C5  UNL d   1       2.469   0.194  -0.447  0.00  0.00     0.003 A 
ATOM      7  C6  UNL d   1       1.428   1.048  -0.814  0.00  0.00    -0.001 A 
ENDROOT
TORSDOF 0
ENDMDL
