MODEL 1
REMARK minimizedAffinity -4.12952423
REMARK minimizedRMSD -1
REMARK  0 active torsions:
REMARK  status: ('A' for Active; 'I' for Inactive)
ROOT
ATOM      1  C   UNL d   1       0.348  -2.131   3.282  0.00  0.00     0.078 C 
ATOM      2  C1  UNL d   1       0.619  -1.357   2.027  0.00  0.00    -0.077 A 
ATOM      3  C2  UNL d   1       1.890  -1.357   1.440  0.00  0.00    -0.001 A 
ATOM      4  C3  UNL d   1       2.131  -0.624   0.276  0.00  0.00     0.003 A 
ATOM      5  C4  UNL d   1       1.105   0.115  -0.309  0.00  0.00    -0.005 A 
ATOM      6  C5  UNL d   1      -0.162   0.124   0.269  0.00  0.00     0.003 A 
ATOM      7  C6  UNL d   1      -0.405  -0.608   1.432  0.00  0.00    -0.001 A 
ENDROOT
TORSDOF 0
ENDMDL
