MODEL 1
REMARK minimizedAffinity -1.46860623
REMARK minimizedRMSD -1
REMARK  0 active torsions:
REMARK  status: ('A' for Active; 'I' for Inactive)
ROOT
ATOM      1  C   UNL d   1      -1.765   2.445  -2.734  0.00  0.00     0.078 C 
ATOM      2  C1  UNL d   1      -0.908   1.665  -1.782  0.00  0.00    -0.077 A 
ATOM      3  C2  UNL d   1       0.415   1.340  -2.104  0.00  0.00    -0.001 A 
ATOM      4  C3  UNL d   1       1.198   0.605  -1.213  0.00  0.00     0.003 A 
ATOM      5  C4  UNL d   1       0.666   0.188   0.006  0.00  0.00    -0.005 A 
ATOM      6  C5  UNL d   1      -0.650   0.506   0.334  0.00  0.00     0.003 A 
ATOM      7  C6  UNL d   1      -1.435   1.240  -0.556  0.00  0.00    -0.001 A 
ENDROOT
TORSDOF 0
ENDMDL
