MODEL 1
REMARK minimizedAffinity -5.11510038
REMARK minimizedRMSD -1
REMARK  0 active torsions:
REMARK  status: ('A' for Active; 'I' for Inactive)
ROOT
ATOM      1  C   UNL d   1      -0.692   1.334  -0.307  0.00  0.00     0.078 C 
ATOM      2  C1  UNL d   1      -0.019   0.183   0.380  0.00  0.00    -0.077 A 
ATOM      3  C2  UNL d   1      -0.654  -0.508   1.419  0.00  0.00    -0.001 A 
ATOM      4  C3  UNL d   1      -0.012  -1.571   2.056  0.00  0.00     0.003 A 
ATOM      5  C4  UNL d   1       1.268  -1.953   1.661  0.00  0.00    -0.005 A 
ATOM      6  C5  UNL d   1       1.909  -1.270   0.629  0.00  0.00     0.003 A 
ATOM      7  C6  UNL d   1       1.269  -0.206  -0.009  0.00  0.00    -0.001 A 
ENDROOT
TORSDOF 0
ENDMDL
