MODEL 1
REMARK minimizedAffinity -4.17625713
REMARK minimizedRMSD -1
REMARK  0 active torsions:
REMARK  status: ('A' for Active; 'I' for Inactive)
ROOT
ATOM      1  C   UNL d   1      -0.466   1.339  -0.804  0.00  0.00     0.078 C 
ATOM      2  C1  UNL d   1       0.247   0.255  -0.052  0.00  0.00    -0.077 A 
ATOM      3  C2  UNL d   1      -0.274  -0.259   1.141  0.00  0.00    -0.001 A 
ATOM      4  C3  UNL d   1       0.405  -1.261   1.835  0.00  0.00     0.003 A 
ATOM      5  C4  UNL d   1       1.611  -1.757   1.344  0.00  0.00    -0.005 A 
ATOM      6  C5  UNL d   1       2.140  -1.251   0.159  0.00  0.00     0.003 A 
ATOM      7  C6  UNL d   1       1.461  -0.249  -0.537  0.00  0.00    -0.001 A 
ENDROOT
TORSDOF 0
ENDMDL
