MODEL 1
REMARK minimizedAffinity -4.68251896
REMARK minimizedRMSD -1
REMARK  0 active torsions:
REMARK  status: ('A' for Active; 'I' for Inactive)
ROOT
ATOM      1  C   UNL d   1      -0.621   0.149  -0.307  0.00  0.00     0.078 C 
ATOM      2  C1  UNL d   1      -0.075  -0.806   0.712  0.00  0.00    -0.077 A 
ATOM      3  C2  UNL d   1      -0.760  -1.053   1.908  0.00  0.00    -0.001 A 
ATOM      4  C3  UNL d   1      -0.236  -1.937   2.852  0.00  0.00     0.003 A 
ATOM      5  C4  UNL d   1       0.977  -2.580   2.611  0.00  0.00    -0.005 A 
ATOM      6  C5  UNL d   1       1.667  -2.339   1.425  0.00  0.00     0.003 A 
ATOM      7  C6  UNL d   1       1.144  -1.455   0.480  0.00  0.00    -0.001 A 
ENDROOT
TORSDOF 0
ENDMDL
