MODEL 1
REMARK minimizedAffinity 1.24001026
REMARK minimizedRMSD -1
REMARK  0 active torsions:
REMARK  status: ('A' for Active; 'I' for Inactive)
ROOT
ATOM      1  C   UNL d   1      -1.332  -1.195   2.963  0.00  0.00     0.078 C 
ATOM      2  C1  UNL d   1      -0.244  -0.934   1.965  0.00  0.00    -0.077 A 
ATOM      3  C2  UNL d   1      -0.475  -0.135   0.838  0.00  0.00    -0.001 A 
ATOM      4  C3  UNL d   1       0.544   0.092  -0.087  0.00  0.00     0.003 A 
ATOM      5  C4  UNL d   1       1.802  -0.478   0.103  0.00  0.00    -0.005 A 
ATOM      6  C5  UNL d   1       2.041  -1.275   1.220  0.00  0.00     0.003 A 
ATOM      7  C6  UNL d   1       1.022  -1.503   2.147  0.00  0.00    -0.001 A 
ENDROOT
TORSDOF 0
ENDMDL
