MODEL 1
REMARK minimizedAffinity -2.26368213
REMARK minimizedRMSD -1
REMARK  0 active torsions:
REMARK  status: ('A' for Active; 'I' for Inactive)
ROOT
ATOM      1  C   UNL d   1      -1.897  -0.043   0.449  0.00  0.00     0.078 C 
ATOM      2  C1  UNL d   1      -0.399  -0.113   0.403  0.00  0.00    -0.077 A 
ATOM      3  C2  UNL d   1       0.354   0.928  -0.154  0.00  0.00    -0.001 A 
ATOM      4  C3  UNL d   1       1.746   0.846  -0.199  0.00  0.00     0.003 A 
ATOM      5  C4  UNL d   1       2.398  -0.276   0.310  0.00  0.00    -0.005 A 
ATOM      6  C5  UNL d   1       1.657  -1.317   0.865  0.00  0.00     0.003 A 
ATOM      7  C6  UNL d   1       0.264  -1.237   0.910  0.00  0.00    -0.001 A 
ENDROOT
TORSDOF 0
ENDMDL
