MODEL 1
REMARK minimizedAffinity 11.4409685
REMARK minimizedRMSD -1
REMARK  0 active torsions:
REMARK  status: ('A' for Active; 'I' for Inactive)
ROOT
ATOM      1  C   UNL d   1      -4.381   1.707   1.770  0.00  0.00     0.020 A 
ATOM      2  C1  UNL d   1      -5.205   0.880   1.008  0.00  0.00     0.020 A 
ATOM      3  C2  UNL d   1      -4.696   0.237  -0.123  0.00  0.00     0.034 A 
ATOM      4  C3  UNL d   1      -3.359   0.421  -0.494  0.00  0.00     0.017 A 
ATOM      5  C4  UNL d   1      -2.533   1.251   0.272  0.00  0.00     0.017 A 
ATOM      6  C5  UNL d   1      -3.048   1.892   1.403  0.00  0.00     0.034 A 
ATOM      7 Cl   UNL d   1      -0.873   1.527  -0.123  0.00  0.00    -0.070 Cl
ATOM      8 Cl1  UNL d   1      -2.796  -0.404  -1.904  0.00  0.00    -0.070 Cl
ENDROOT
TORSDOF 0
ENDMDL
