MODEL 1
REMARK minimizedAffinity 15.4906263
REMARK minimizedRMSD -1
REMARK  0 active torsions:
REMARK  status: ('A' for Active; 'I' for Inactive)
ROOT
ATOM      1  C   UNL d   1       4.179  -2.492   1.089  0.00  0.00     0.020 A 
ATOM      2  C1  UNL d   1       3.432  -2.490  -0.088  0.00  0.00     0.020 A 
ATOM      3  C2  UNL d   1       2.929  -1.290  -0.594  0.00  0.00     0.034 A 
ATOM      4  C3  UNL d   1       3.173  -0.086   0.077  0.00  0.00     0.017 A 
ATOM      5  C4  UNL d   1       3.923  -0.089   1.258  0.00  0.00     0.017 A 
ATOM      6  C5  UNL d   1       4.424  -1.294   1.760  0.00  0.00     0.034 A 
ATOM      7 Cl   UNL d   1       4.266   1.357   2.142  0.00  0.00    -0.070 Cl
ATOM      8 Cl1  UNL d   1       2.521   1.361  -0.606  0.00  0.00    -0.070 Cl
ENDROOT
TORSDOF 0
ENDMDL
