MODEL 1
REMARK minimizedAffinity 1.74414551
REMARK minimizedRMSD -1
REMARK  0 active torsions:
REMARK  status: ('A' for Active; 'I' for Inactive)
ROOT
ATOM      1  C   UNL d   1       3.114   1.486   5.998  0.00  0.00     0.020 A 
ATOM      2  C1  UNL d   1       4.463   1.836   6.000  0.00  0.00     0.020 A 
ATOM      3  C2  UNL d   1       4.836   3.181   6.000  0.00  0.00     0.034 A 
ATOM      4  C3  UNL d   1       3.858   4.182   5.997  0.00  0.00     0.017 A 
ATOM      5  C4  UNL d   1       2.503   3.830   5.995  0.00  0.00     0.017 A 
ATOM      6  C5  UNL d   1       2.136   2.481   5.995  0.00  0.00     0.034 A 
ATOM      7 Cl   UNL d   1       1.239   5.009   5.991  0.00  0.00    -0.070 Cl
ATOM      8 Cl1  UNL d   1       4.390   5.826   5.997  0.00  0.00    -0.070 Cl
ENDROOT
TORSDOF 0
ENDMDL
