MODEL 1
REMARK minimizedAffinity 10.5842438
REMARK minimizedRMSD -1
REMARK  0 active torsions:
REMARK  status: ('A' for Active; 'I' for Inactive)
ROOT
ATOM      1  C   UNL d   1       3.547   0.974  -0.930  0.00  0.00     0.020 A 
ATOM      2  C1  UNL d   1       2.545   0.651  -0.015  0.00  0.00     0.020 A 
ATOM      3  C2  UNL d   1       2.599   1.155   1.286  0.00  0.00     0.034 A 
ATOM      4  C3  UNL d   1       3.658   1.983   1.677  0.00  0.00     0.017 A 
ATOM      5  C4  UNL d   1       4.663   2.306   0.758  0.00  0.00     0.017 A 
ATOM      6  C5  UNL d   1       4.603   1.799  -0.544  0.00  0.00     0.034 A 
ATOM      7 Cl   UNL d   1       6.000   3.322   1.166  0.00  0.00    -0.070 Cl
ATOM      8 Cl1  UNL d   1       3.661   2.570   3.302  0.00  0.00    -0.070 Cl
ENDROOT
TORSDOF 0
ENDMDL
