MODEL 1
REMARK minimizedAffinity 8.34827137
REMARK minimizedRMSD -1
REMARK  0 active torsions:
REMARK  status: ('A' for Active; 'I' for Inactive)
ROOT
ATOM      1  C   UNL d   1       2.713  -1.638  -1.163  0.00  0.00     0.020 A 
ATOM      2  C1  UNL d   1       3.430  -1.788   0.024  0.00  0.00     0.020 A 
ATOM      3  C2  UNL d   1       3.555  -0.712   0.905  0.00  0.00     0.034 A 
ATOM      4  C3  UNL d   1       2.964   0.519   0.601  0.00  0.00     0.017 A 
ATOM      5  C4  UNL d   1       2.245   0.669  -0.591  0.00  0.00     0.017 A 
ATOM      6  C5  UNL d   1       2.122  -0.412  -1.469  0.00  0.00     0.034 A 
ATOM      7 Cl   UNL d   1       1.487   2.158  -1.035  0.00  0.00    -0.070 Cl
ATOM      8 Cl1  UNL d   1       3.159   1.807   1.736  0.00  0.00    -0.070 Cl
ENDROOT
TORSDOF 0
ENDMDL
