MODEL 1
REMARK minimizedAffinity 4.18839169
REMARK minimizedRMSD -1
REMARK  0 active torsions:
REMARK  status: ('A' for Active; 'I' for Inactive)
ROOT
ATOM      1  C   UNL d   1      -4.853   1.915  -0.614  0.00  0.00     0.020 A 
ATOM      2  C1  UNL d   1      -5.025   1.553   0.722  0.00  0.00     0.020 A 
ATOM      3  C2  UNL d   1      -3.928   1.138   1.479  0.00  0.00     0.034 A 
ATOM      4  C3  UNL d   1      -2.654   1.083   0.901  0.00  0.00     0.017 A 
ATOM      5  C4  UNL d   1      -2.483   1.446  -0.439  0.00  0.00     0.017 A 
ATOM      6  C5  UNL d   1      -3.585   1.861  -1.193  0.00  0.00     0.034 A 
ATOM      7 Cl   UNL d   1      -0.942   1.404  -1.222  0.00  0.00    -0.070 Cl
ATOM      8 Cl1  UNL d   1      -1.342   0.560   1.897  0.00  0.00    -0.070 Cl
ENDROOT
TORSDOF 0
ENDMDL
