MODEL 1
REMARK minimizedAffinity 1.94434643
REMARK minimizedRMSD -1
REMARK  0 active torsions:
REMARK  status: ('A' for Active; 'I' for Inactive)
ROOT
ATOM      1  C   UNL d   1       2.946  -0.060  -0.403  0.00  0.00     0.020 A 
ATOM      2  C1  UNL d   1       3.200  -1.253   0.273  0.00  0.00     0.020 A 
ATOM      3  C2  UNL d   1       2.343  -2.343   0.110  0.00  0.00     0.034 A 
ATOM      4  C3  UNL d   1       1.228  -2.243  -0.730  0.00  0.00     0.017 A 
ATOM      5  C4  UNL d   1       0.974  -1.046  -1.408  0.00  0.00     0.017 A 
ATOM      6  C5  UNL d   1       1.835   0.043  -1.242  0.00  0.00     0.034 A 
ATOM      7 Cl   UNL d   1      -0.381  -0.847  -2.463  0.00  0.00    -0.070 Cl
ATOM      8 Cl1  UNL d   1       0.211  -3.632  -0.885  0.00  0.00    -0.070 Cl
ENDROOT
TORSDOF 0
ENDMDL
