MODEL 1
REMARK minimizedAffinity 10.0239868
REMARK minimizedRMSD -1
REMARK  0 active torsions:
REMARK  status: ('A' for Active; 'I' for Inactive)
ROOT
ATOM      1  C   UNL d   1       2.724  -2.633  -0.810  0.00  0.00     0.020 A 
ATOM      2  C1  UNL d   1       2.932  -2.451  -2.177  0.00  0.00     0.020 A 
ATOM      3  C2  UNL d   1       3.506  -1.267  -2.644  0.00  0.00     0.034 A 
ATOM      4  C3  UNL d   1       3.874  -0.260  -1.745  0.00  0.00     0.017 A 
ATOM      5  C4  UNL d   1       3.665  -0.443  -0.373  0.00  0.00     0.017 A 
ATOM      6  C5  UNL d   1       3.090  -1.631   0.090  0.00  0.00     0.034 A 
ATOM      7 Cl   UNL d   1       4.093   0.754   0.798  0.00  0.00    -0.070 Cl
ATOM      8 Cl1  UNL d   1       4.579   1.178  -2.393  0.00  0.00    -0.070 Cl
ENDROOT
TORSDOF 0
ENDMDL
