MODEL 1
REMARK minimizedAffinity 9.82424831
REMARK minimizedRMSD -1
REMARK  0 active torsions:
REMARK  status: ('A' for Active; 'I' for Inactive)
ROOT
ATOM      1  C   UNL d   1      -4.166   1.350  -5.292  0.00  0.00     0.020 A 
ATOM      2  C1  UNL d   1      -5.241   0.734  -4.654  0.00  0.00     0.020 A 
ATOM      3  C2  UNL d   1      -5.012  -0.156  -3.602  0.00  0.00     0.034 A 
ATOM      4  C3  UNL d   1      -3.705  -0.431  -3.186  0.00  0.00     0.017 A 
ATOM      5  C4  UNL d   1      -2.626   0.188  -3.827  0.00  0.00     0.017 A 
ATOM      6  C5  UNL d   1      -2.861   1.078  -4.880  0.00  0.00     0.034 A 
ATOM      7 Cl   UNL d   1      -0.985  -0.103  -3.370  0.00  0.00    -0.070 Cl
ATOM      8 Cl1  UNL d   1      -3.495  -1.542  -1.878  0.00  0.00    -0.070 Cl
ENDROOT
TORSDOF 0
ENDMDL
