MODEL 1
REMARK minimizedAffinity 0.272263587
REMARK minimizedRMSD -1
REMARK  0 active torsions:
REMARK  status: ('A' for Active; 'I' for Inactive)
ROOT
ATOM      1  C   UNL d   1      -0.810   2.811   3.160  0.00  0.00     0.020 A 
ATOM      2  C1  UNL d   1      -1.403   3.540   4.190  0.00  0.00     0.020 A 
ATOM      3  C2  UNL d   1      -2.794   3.624   4.276  0.00  0.00     0.034 A 
ATOM      4  C3  UNL d   1      -3.598   2.978   3.329  0.00  0.00     0.017 A 
ATOM      5  C4  UNL d   1      -3.002   2.246   2.295  0.00  0.00     0.017 A 
ATOM      6  C5  UNL d   1      -1.608   2.165   2.215  0.00  0.00     0.034 A 
ATOM      7 Cl   UNL d   1      -3.927   1.422   1.090  0.00  0.00    -0.070 Cl
ATOM      8 Cl1  UNL d   1      -5.311   3.124   3.496  0.00  0.00    -0.070 Cl
ENDROOT
TORSDOF 0
ENDMDL
