MODEL 1
REMARK minimizedAffinity 0.00426486554
REMARK minimizedRMSD -1
REMARK  0 active torsions:
REMARK  status: ('A' for Active; 'I' for Inactive)
ROOT
ATOM      1  C   UNL d   1       0.939   4.880   5.370  0.00  0.00     0.020 A 
ATOM      2  C1  UNL d   1       1.663   6.000   5.777  0.00  0.00     0.020 A 
ATOM      3  C2  UNL d   1       3.060   5.972   5.758  0.00  0.00     0.034 A 
ATOM      4  C3  UNL d   1       3.735   4.823   5.332  0.00  0.00     0.017 A 
ATOM      5  C4  UNL d   1       3.007   3.700   4.923  0.00  0.00     0.017 A 
ATOM      6  C5  UNL d   1       1.609   3.733   4.944  0.00  0.00     0.034 A 
ATOM      7 Cl   UNL d   1       3.770   2.246   4.384  0.00  0.00    -0.070 Cl
ATOM      8 Cl1  UNL d   1       5.463   4.859   5.334  0.00  0.00    -0.070 Cl
ENDROOT
TORSDOF 0
ENDMDL
