MODEL 1
REMARK minimizedAffinity 4.71885061
REMARK minimizedRMSD -1
REMARK  0 active torsions:
REMARK  status: ('A' for Active; 'I' for Inactive)
ROOT
ATOM      1  C   UNL d   1      -0.235   5.995   5.999  0.00  0.00     0.020 A 
ATOM      2  C1  UNL d   1       0.820   5.702   5.136  0.00  0.00     0.020 A 
ATOM      3  C2  UNL d   1       0.620   4.841   4.055  0.00  0.00     0.034 A 
ATOM      4  C3  UNL d   1      -0.639   4.271   3.834  0.00  0.00     0.017 A 
ATOM      5  C4  UNL d   1      -1.698   4.566   4.700  0.00  0.00     0.017 A 
ATOM      6  C5  UNL d   1      -1.491   5.428   5.781  0.00  0.00     0.034 A 
ATOM      7 Cl   UNL d   1      -3.279   3.900   4.492  0.00  0.00    -0.070 Cl
ATOM      8 Cl1  UNL d   1      -0.816   3.215   2.477  0.00  0.00    -0.070 Cl
ENDROOT
TORSDOF 0
ENDMDL
