MODEL 1
REMARK minimizedAffinity -4.46513271
REMARK minimizedRMSD -1
REMARK  1 active torsions:
REMARK  status: ('A' for Active; 'I' for Inactive)
REMARK    1  A    between atoms: C1_2  and  C2_3 
ROOT
ATOM      1  C2  UNL d   1       0.707  -0.275  -1.510  0.00  0.00    -0.081 A 
ATOM      2  C3  UNL d   1       1.508   0.487  -0.651  0.00  0.00     0.006 A 
ATOM      3  C4  UNL d   1       1.170   0.621   0.698  0.00  0.00     0.002 A 
ATOM      4  C5  UNL d   1       0.032  -0.010   1.211  0.00  0.00    -0.080 A 
ATOM      5  C6  UNL d   1      -0.325   0.101   2.664  0.00  0.00     0.076 C 
ATOM      6  C7  UNL d   1      -0.778  -0.757   0.349  0.00  0.00     0.002 A 
ATOM      7  C8  UNL d   1      -0.441  -0.891  -1.000  0.00  0.00     0.006 A 
ENDROOT
BRANCH   1   8
ATOM      8  C1  UNL d   1       1.103  -0.475  -2.951  0.00  0.00     0.054 C 
ATOM      9  C   UNL d   1       1.458  -1.929  -3.230  0.00  0.00     0.018 C 
ENDBRANCH   1   8
TORSDOF 1
ENDMDL
