MODEL 1
REMARK minimizedAffinity -5.76395226
REMARK minimizedRMSD -1
REMARK  1 active torsions:
REMARK  status: ('A' for Active; 'I' for Inactive)
REMARK    1  A    between atoms: C1_2  and  C2_3 
ROOT
ATOM      1  C2  UNL d   1       0.268  -0.181  -0.863  0.00  0.00    -0.081 A 
ATOM      2  C3  UNL d   1       1.184  -0.587   0.115  0.00  0.00     0.006 A 
ATOM      3  C4  UNL d   1       0.816  -0.611   1.462  0.00  0.00     0.002 A 
ATOM      4  C5  UNL d   1      -0.474  -0.238   1.853  0.00  0.00    -0.080 A 
ATOM      5  C6  UNL d   1      -0.891  -0.288   3.293  0.00  0.00     0.076 C 
ATOM      6  C7  UNL d   1      -1.384   0.185   0.877  0.00  0.00     0.002 A 
ATOM      7  C8  UNL d   1      -1.017   0.210  -0.470  0.00  0.00     0.006 A 
ENDROOT
BRANCH   1   8
ATOM      8  C1  UNL d   1       0.641  -0.215  -2.324  0.00  0.00     0.054 C 
ATOM      9  C   UNL d   1       0.904  -1.639  -2.794  0.00  0.00     0.018 C 
ENDBRANCH   1   8
TORSDOF 1
ENDMDL
