MODEL 1
REMARK minimizedAffinity -1.00033116
REMARK minimizedRMSD -1
REMARK  1 active torsions:
REMARK  status: ('A' for Active; 'I' for Inactive)
REMARK    1  A    between atoms: C1_2  and  C2_3 
ROOT
ATOM      1  C2  UNL d   1      -0.404  -0.075  -0.066  0.00  0.00    -0.081 A 
ATOM      2  C3  UNL d   1       0.754   0.702   0.053  0.00  0.00     0.006 A 
ATOM      3  C4  UNL d   1       1.586   0.907  -1.051  0.00  0.00     0.002 A 
ATOM      4  C5  UNL d   1       1.269   0.346  -2.292  0.00  0.00    -0.080 A 
ATOM      5  C6  UNL d   1       2.137   0.584  -3.492  0.00  0.00     0.076 C 
ATOM      6  C7  UNL d   1       0.121  -0.445  -2.407  0.00  0.00     0.002 A 
ATOM      7  C8  UNL d   1      -0.711  -0.651  -1.304  0.00  0.00     0.006 A 
ENDROOT
BRANCH   1   8
ATOM      8  C1  UNL d   1      -1.337  -0.245   1.106  0.00  0.00     0.054 C 
ATOM      9  C   UNL d   1      -2.770   0.103   0.728  0.00  0.00     0.018 C 
ENDBRANCH   1   8
TORSDOF 1
ENDMDL
