MODEL 1
REMARK minimizedAffinity -5.22880793
REMARK minimizedRMSD -1
REMARK  1 active torsions:
REMARK  status: ('A' for Active; 'I' for Inactive)
REMARK    1  A    between atoms: C1_2  and  C2_3 
ROOT
ATOM      1  C2  UNL d   1       0.502  -0.100  -0.737  0.00  0.00    -0.081 A 
ATOM      2  C3  UNL d   1       1.324   0.341   0.307  0.00  0.00     0.006 A 
ATOM      3  C4  UNL d   1       0.947   0.142   1.638  0.00  0.00     0.002 A 
ATOM      4  C5  UNL d   1      -0.253  -0.508   1.946  0.00  0.00    -0.080 A 
ATOM      5  C6  UNL d   1      -0.654  -0.755   3.370  0.00  0.00     0.076 C 
ATOM      6  C7  UNL d   1      -1.082  -0.933   0.903  0.00  0.00     0.002 A 
ATOM      7  C8  UNL d   1      -0.706  -0.734  -0.427  0.00  0.00     0.006 A 
ENDROOT
BRANCH   1   8
ATOM      8  C1  UNL d   1       0.936   0.055  -2.172  0.00  0.00     0.054 C 
ATOM      9  C   UNL d   1       1.102  -1.297  -2.849  0.00  0.00     0.018 C 
ENDBRANCH   1   8
TORSDOF 1
ENDMDL
