MODEL 1
REMARK minimizedAffinity 0.944578469
REMARK minimizedRMSD -1
REMARK  1 active torsions:
REMARK  status: ('A' for Active; 'I' for Inactive)
REMARK    1  A    between atoms: C1_2  and  C2_3 
ROOT
ATOM      1  C2  UNL d   1       0.717  -0.137  -2.196  0.00  0.00    -0.081 A 
ATOM      2  C3  UNL d   1      -0.370   0.738  -2.077  0.00  0.00     0.006 A 
ATOM      3  C4  UNL d   1      -1.196   0.692  -0.951  0.00  0.00     0.002 A 
ATOM      4  C5  UNL d   1      -0.945  -0.224   0.076  0.00  0.00    -0.080 A 
ATOM      5  C6  UNL d   1      -1.807  -0.263   1.303  0.00  0.00     0.076 C 
ATOM      6  C7  UNL d   1       0.129  -1.110  -0.051  0.00  0.00     0.002 A 
ATOM      7  C8  UNL d   1       0.956  -1.065  -1.176  0.00  0.00     0.006 A 
ENDROOT
BRANCH   1   8
ATOM      8  C1  UNL d   1       1.648  -0.047  -3.378  0.00  0.00     0.054 C 
ATOM      9  C   UNL d   1       2.436  -1.336  -3.561  0.00  0.00     0.018 C 
ENDBRANCH   1   8
TORSDOF 1
ENDMDL
