MODEL 1
REMARK minimizedAffinity -3.92234588
REMARK minimizedRMSD -1
REMARK  1 active torsions:
REMARK  status: ('A' for Active; 'I' for Inactive)
REMARK    1  A    between atoms: C1_2  and  C2_3 
ROOT
ATOM      1  C2  UNL d   1       0.344  -0.125  -0.924  0.00  0.00    -0.081 A 
ATOM      2  C3  UNL d   1       1.385   0.211  -0.050  0.00  0.00     0.006 A 
ATOM      3  C4  UNL d   1       1.198   0.146   1.333  0.00  0.00     0.002 A 
ATOM      4  C5  UNL d   1      -0.030  -0.262   1.865  0.00  0.00    -0.080 A 
ATOM      5  C6  UNL d   1      -0.235  -0.365   3.347  0.00  0.00     0.076 C 
ATOM      6  C7  UNL d   1      -1.076  -0.581   0.992  0.00  0.00     0.002 A 
ATOM      7  C8  UNL d   1      -0.890  -0.516  -0.391  0.00  0.00     0.006 A 
ENDROOT
BRANCH   1   8
ATOM      8  C1  UNL d   1       0.562  -0.118  -2.415  0.00  0.00     0.054 C 
ATOM      9  C   UNL d   1       1.023  -1.481  -2.913  0.00  0.00     0.018 C 
ENDBRANCH   1   8
TORSDOF 1
ENDMDL
