MODEL 1
REMARK minimizedAffinity -3.31363463
REMARK minimizedRMSD -1
REMARK  1 active torsions:
REMARK  status: ('A' for Active; 'I' for Inactive)
REMARK    1  A    between atoms: C1_2  and  C2_3 
ROOT
ATOM      1  C2  UNL d   1      -1.393   0.722   1.281  0.00  0.00    -0.081 A 
ATOM      2  C3  UNL d   1      -0.720   0.725   2.509  0.00  0.00     0.006 A 
ATOM      3  C4  UNL d   1       0.673   0.626   2.554  0.00  0.00     0.002 A 
ATOM      4  C5  UNL d   1       1.416   0.531   1.373  0.00  0.00    -0.080 A 
ATOM      5  C6  UNL d   1       2.914   0.455   1.406  0.00  0.00     0.076 C 
ATOM      6  C7  UNL d   1       0.743   0.510   0.147  0.00  0.00     0.002 A 
ATOM      7  C8  UNL d   1      -0.649   0.608   0.101  0.00  0.00     0.006 A 
ENDROOT
BRANCH   1   8
ATOM      8  C1  UNL d   1      -2.889   0.894   1.226  0.00  0.00     0.054 C 
ATOM      9  C   UNL d   1      -3.434   1.422   2.546  0.00  0.00     0.018 C 
ENDBRANCH   1   8
TORSDOF 1
ENDMDL
