MODEL 1
REMARK minimizedAffinity 0.059928529
REMARK minimizedRMSD -1
REMARK  1 active torsions:
REMARK  status: ('A' for Active; 'I' for Inactive)
REMARK    1  A    between atoms: C1_2  and  C2_3 
ROOT
ATOM      1  C2  UNL d   1      -0.070   0.183   1.636  0.00  0.00    -0.081 A 
ATOM      2  C3  UNL d   1       1.235   0.309   1.144  0.00  0.00     0.006 A 
ATOM      3  C4  UNL d   1       1.493   0.168  -0.221  0.00  0.00     0.002 A 
ATOM      4  C5  UNL d   1       0.452  -0.092  -1.118  0.00  0.00    -0.080 A 
ATOM      5  C6  UNL d   1       0.711  -0.215  -2.590  0.00  0.00     0.076 C 
ATOM      6  C7  UNL d   1      -0.850  -0.235  -0.624  0.00  0.00     0.002 A 
ATOM      7  C8  UNL d   1      -1.109  -0.095   0.741  0.00  0.00     0.006 A 
ENDROOT
BRANCH   1   8
ATOM      8  C1  UNL d   1      -0.362   0.399   3.099  0.00  0.00     0.054 C 
ATOM      9  C   UNL d   1       0.195   1.729   3.584  0.00  0.00     0.018 C 
ENDBRANCH   1   8
TORSDOF 1
ENDMDL
