MODEL 1
REMARK minimizedAffinity -0.117184773
REMARK minimizedRMSD -1
REMARK  1 active torsions:
REMARK  status: ('A' for Active; 'I' for Inactive)
REMARK    1  A    between atoms: C1_2  and  C2_3 
ROOT
ATOM      1  C2  UNL d   1       0.172  -0.273  -1.688  0.00  0.00    -0.081 A 
ATOM      2  C3  UNL d   1      -0.866   0.424  -1.057  0.00  0.00     0.006 A 
ATOM      3  C4  UNL d   1      -0.777   0.753   0.297  0.00  0.00     0.002 A 
ATOM      4  C5  UNL d   1       0.353   0.399   1.042  0.00  0.00    -0.080 A 
ATOM      5  C6  UNL d   1       0.474   0.773   2.489  0.00  0.00     0.076 C 
ATOM      6  C7  UNL d   1       1.382  -0.313   0.416  0.00  0.00     0.002 A 
ATOM      7  C8  UNL d   1       1.294  -0.643  -0.938  0.00  0.00     0.006 A 
ENDROOT
BRANCH   1   8
ATOM      8  C1  UNL d   1       0.108  -0.573  -3.163  0.00  0.00     0.054 C 
ATOM      9  C   UNL d   1       1.048  -1.710  -3.538  0.00  0.00     0.018 C 
ENDBRANCH   1   8
TORSDOF 1
ENDMDL
