MODEL 1
REMARK minimizedAffinity -4.93770123
REMARK minimizedRMSD -1
REMARK  1 active torsions:
REMARK  status: ('A' for Active; 'I' for Inactive)
REMARK    1  A    between atoms: C1_2  and  C2_3 
ROOT
ATOM      1  C2  UNL d   1       0.753   0.412  -0.975  0.00  0.00    -0.081 A 
ATOM      2  C3  UNL d   1       1.507   0.811   0.135  0.00  0.00     0.006 A 
ATOM      3  C4  UNL d   1       1.143   0.405   1.421  0.00  0.00     0.002 A 
ATOM      4  C5  UNL d   1       0.025  -0.412   1.618  0.00  0.00    -0.080 A 
ATOM      5  C6  UNL d   1      -0.359  -0.879   2.991  0.00  0.00     0.076 C 
ATOM      6  C7  UNL d   1      -0.739  -0.796   0.511  0.00  0.00     0.002 A 
ATOM      7  C8  UNL d   1      -0.376  -0.390  -0.775  0.00  0.00     0.006 A 
ENDROOT
BRANCH   1   8
ATOM      8  C1  UNL d   1       1.180   0.795  -2.369  0.00  0.00     0.054 C 
ATOM      9  C   UNL d   1       1.365  -0.434  -3.248  0.00  0.00     0.018 C 
ENDBRANCH   1   8
TORSDOF 1
ENDMDL
