MODEL 1
REMARK minimizedAffinity -4.48983812
REMARK minimizedRMSD -1
REMARK  1 active torsions:
REMARK  status: ('A' for Active; 'I' for Inactive)
REMARK    1  A    between atoms: C1_2  and  C2_3 
ROOT
ATOM      1  C2  UNL d   1       0.518   0.238  -0.636  0.00  0.00    -0.081 A 
ATOM      2  C3  UNL d   1       1.366   0.507   0.445  0.00  0.00     0.006 A 
ATOM      3  C4  UNL d   1       0.964   0.211   1.750  0.00  0.00     0.002 A 
ATOM      4  C5  UNL d   1      -0.287  -0.365   1.994  0.00  0.00    -0.080 A 
ATOM      5  C6  UNL d   1      -0.718  -0.716   3.387  0.00  0.00     0.076 C 
ATOM      6  C7  UNL d   1      -1.141  -0.618   0.915  0.00  0.00     0.002 A 
ATOM      7  C8  UNL d   1      -0.740  -0.321  -0.390  0.00  0.00     0.006 A 
ENDROOT
BRANCH   1   8
ATOM      8  C1  UNL d   1       0.974   0.496  -2.050  0.00  0.00     0.054 C 
ATOM      9  C   UNL d   1       0.813  -0.744  -2.918  0.00  0.00     0.018 C 
ENDBRANCH   1   8
TORSDOF 1
ENDMDL
