MODEL 1
REMARK minimizedAffinity -2.04411364
REMARK minimizedRMSD -1
REMARK  1 active torsions:
REMARK  status: ('A' for Active; 'I' for Inactive)
REMARK    1  A    between atoms: C1_2  and  C2_3 
ROOT
ATOM      1  C2  UNL d   1      -0.964  -0.392   1.822  0.00  0.00    -0.081 A 
ATOM      2  C3  UNL d   1       0.394  -0.055   1.869  0.00  0.00     0.006 A 
ATOM      3  C4  UNL d   1       1.111   0.159   0.689  0.00  0.00     0.002 A 
ATOM      4  C5  UNL d   1       0.481   0.048  -0.555  0.00  0.00    -0.080 A 
ATOM      5  C6  UNL d   1       1.232   0.305  -1.828  0.00  0.00     0.076 C 
ATOM      6  C7  UNL d   1      -0.872  -0.306  -0.602  0.00  0.00     0.002 A 
ATOM      7  C8  UNL d   1      -1.589  -0.520   0.577  0.00  0.00     0.006 A 
ENDROOT
BRANCH   1   8
ATOM      8  C1  UNL d   1      -1.756  -0.560   3.094  0.00  0.00     0.054 C 
ATOM      9  C   UNL d   1      -3.132   0.080   2.978  0.00  0.00     0.018 C 
ENDBRANCH   1   8
TORSDOF 1
ENDMDL
