MODEL 1
REMARK minimizedAffinity -3.90156889
REMARK minimizedRMSD -1
REMARK  1 active torsions:
REMARK  status: ('A' for Active; 'I' for Inactive)
REMARK    1  A    between atoms: C1_2  and  C2_3 
ROOT
ATOM      1  C2  UNL d   1       0.324  -0.938  -1.650  0.00  0.00    -0.081 A 
ATOM      2  C3  UNL d   1       0.107   0.426  -1.416  0.00  0.00     0.006 A 
ATOM      3  C4  UNL d   1       0.078   0.924  -0.111  0.00  0.00     0.002 A 
ATOM      4  C5  UNL d   1       0.272   0.070   0.980  0.00  0.00    -0.080 A 
ATOM      5  C6  UNL d   1       0.274   0.597   2.384  0.00  0.00     0.076 C 
ATOM      6  C7  UNL d   1       0.471  -1.295   0.746  0.00  0.00     0.002 A 
ATOM      7  C8  UNL d   1       0.500  -1.794  -0.558  0.00  0.00     0.006 A 
ENDROOT
BRANCH   1   8
ATOM      8  C1  UNL d   1       0.420  -1.468  -3.058  0.00  0.00     0.054 C 
ATOM      9  C   UNL d   1       1.847  -1.870  -3.401  0.00  0.00     0.018 C 
ENDBRANCH   1   8
TORSDOF 1
ENDMDL
