MODEL 1
REMARK minimizedAffinity -2.92292738
REMARK minimizedRMSD -1
REMARK  1 active torsions:
REMARK  status: ('A' for Active; 'I' for Inactive)
REMARK    1  A    between atoms: C1_2  and  C2_3 
ROOT
ATOM      1  C2  UNL d   1       0.692   0.108   0.971  0.00  0.00    -0.081 A 
ATOM      2  C3  UNL d   1       0.367   0.848  -0.172  0.00  0.00     0.006 A 
ATOM      3  C4  UNL d   1       0.497   0.283  -1.443  0.00  0.00     0.002 A 
ATOM      4  C5  UNL d   1       0.947  -1.033  -1.592  0.00  0.00    -0.080 A 
ATOM      5  C6  UNL d   1       1.062  -1.661  -2.949  0.00  0.00     0.076 C 
ATOM      6  C7  UNL d   1       1.289  -1.767  -0.451  0.00  0.00     0.002 A 
ATOM      7  C8  UNL d   1       1.160  -1.202   0.820  0.00  0.00     0.006 A 
ENDROOT
BRANCH   1   8
ATOM      8  C1  UNL d   1       0.492   0.692   2.346  0.00  0.00     0.054 C 
ATOM      9  C   UNL d   1      -0.864   0.305   2.919  0.00  0.00     0.018 C 
ENDBRANCH   1   8
TORSDOF 1
ENDMDL
