MODEL 1
REMARK minimizedAffinity -3.08892226
REMARK minimizedRMSD -1
REMARK  1 active torsions:
REMARK  status: ('A' for Active; 'I' for Inactive)
REMARK    1  A    between atoms: C1_2  and  C2_3 
ROOT
ATOM      1  C2  UNL d   1       0.748  -0.095  -1.455  0.00  0.00    -0.081 A 
ATOM      2  C3  UNL d   1       0.282   1.056  -0.808  0.00  0.00     0.006 A 
ATOM      3  C4  UNL d   1       0.289   1.136   0.587  0.00  0.00     0.002 A 
ATOM      4  C5  UNL d   1       0.767   0.070   1.356  0.00  0.00    -0.080 A 
ATOM      5  C6  UNL d   1       0.808   0.155   2.853  0.00  0.00     0.076 C 
ATOM      6  C7  UNL d   1       1.216  -1.087   0.710  0.00  0.00     0.002 A 
ATOM      7  C8  UNL d   1       1.209  -1.167  -0.684  0.00  0.00     0.006 A 
ENDROOT
BRANCH   1   8
ATOM      8  C1  UNL d   1       0.803  -0.159  -2.960  0.00  0.00     0.054 C 
ATOM      9  C   UNL d   1       1.314  -1.510  -3.439  0.00  0.00     0.018 C 
ENDBRANCH   1   8
TORSDOF 1
ENDMDL
