MODEL 1
REMARK minimizedAffinity 28.9726048
REMARK minimizedRMSD -1
REMARK  0 active torsions:
REMARK  status: ('A' for Active; 'I' for Inactive)
ROOT
ATOM      1  C   UNL d   1       2.728  -3.646  -4.298  0.00  0.00     0.124 A 
ATOM      2  C1  UNL d   1       1.905  -4.214  -3.335  0.00  0.00     0.062 A 
ATOM      3  C2  UNL d   1       2.459  -4.886  -2.250  0.00  0.00     0.162 A 
ATOM      4  C3  UNL d   1       3.843  -4.994  -2.121  0.00  0.00    -0.034 A 
ATOM      5  C4  UNL d   1       4.664  -4.421  -3.094  0.00  0.00     0.162 A 
ATOM      6  C5  UNL d   1       4.106  -3.750  -4.177  0.00  0.00     0.062 A 
ATOM      7  F   UNL d   1       4.902  -3.202  -5.106  0.00  0.00    -0.097 F 
ATOM      8  F1  UNL d   1       6.000  -4.506  -3.000  0.00  0.00    -0.096 F 
ATOM      9  I   UNL d   1       4.675  -5.998  -0.499  0.00  0.00    -0.060 I 
ATOM     10  F2  UNL d   1       1.640  -5.425  -1.334  0.00  0.00    -0.096 F 
ATOM     11  F3  UNL d   1       0.573  -4.115  -3.451  0.00  0.00    -0.097 F 
ATOM     12  F4  UNL d   1       2.192  -3.000  -5.342  0.00  0.00    -0.092 F 
ENDROOT
TORSDOF 0
ENDMDL
