MODEL 1
REMARK minimizedAffinity 23.9456978
REMARK minimizedRMSD -1
REMARK  0 active torsions:
REMARK  status: ('A' for Active; 'I' for Inactive)
ROOT
ATOM      1  C   UNL d   1       1.044  -2.651  -1.149  0.00  0.00     0.124 A 
ATOM      2  C1  UNL d   1       1.650  -3.862  -1.453  0.00  0.00     0.062 A 
ATOM      3  C2  UNL d   1       2.857  -4.210  -0.852  0.00  0.00     0.162 A 
ATOM      4  C3  UNL d   1       3.465  -3.346   0.058  0.00  0.00    -0.034 A 
ATOM      5  C4  UNL d   1       2.849  -2.130   0.358  0.00  0.00     0.162 A 
ATOM      6  C5  UNL d   1       1.643  -1.786  -0.244  0.00  0.00     0.062 A 
ATOM      7  F   UNL d   1       1.059  -0.616   0.050  0.00  0.00    -0.097 F 
ATOM      8  F1  UNL d   1       3.407  -1.276   1.229  0.00  0.00    -0.096 F 
ATOM      9  I   UNL d   1       5.269  -3.863   0.958  0.00  0.00    -0.060 I 
ATOM     10  F2  UNL d   1       3.421  -5.387  -1.164  0.00  0.00    -0.096 F 
ATOM     11  F3  UNL d   1       1.073  -4.699  -2.327  0.00  0.00    -0.097 F 
ATOM     12  F4  UNL d   1      -0.117  -2.318  -1.729  0.00  0.00    -0.092 F 
ENDROOT
TORSDOF 0
ENDMDL
