MODEL 1
REMARK minimizedAffinity 19.7211342
REMARK minimizedRMSD -1
REMARK  0 active torsions:
REMARK  status: ('A' for Active; 'I' for Inactive)
ROOT
ATOM      1  C   UNL d   1       5.019  -2.865   1.142  0.00  0.00     0.124 A 
ATOM      2  C1  UNL d   1       4.001  -1.962   0.865  0.00  0.00     0.062 A 
ATOM      3  C2  UNL d   1       2.981  -2.307  -0.018  0.00  0.00     0.162 A 
ATOM      4  C3  UNL d   1       2.973  -3.561  -0.628  0.00  0.00    -0.034 A 
ATOM      5  C4  UNL d   1       4.000  -4.463  -0.345  0.00  0.00     0.162 A 
ATOM      6  C5  UNL d   1       5.017  -4.114   0.537  0.00  0.00     0.062 A 
ATOM      7  F   UNL d   1       6.000  -4.987   0.804  0.00  0.00    -0.097 F 
ATOM      8  F1  UNL d   1       4.023  -5.677  -0.915  0.00  0.00    -0.096 F 
ATOM      9  I   UNL d   1       1.450  -4.080  -1.948  0.00  0.00    -0.060 I 
ATOM     10  F2  UNL d   1       2.011  -1.415  -0.267  0.00  0.00    -0.096 F 
ATOM     11  F3  UNL d   1       4.000  -0.755   1.447  0.00  0.00    -0.097 F 
ATOM     12  F4  UNL d   1       5.999  -2.530   1.991  0.00  0.00    -0.092 F 
ENDROOT
TORSDOF 0
ENDMDL
