MODEL 1
REMARK minimizedAffinity 20.7907486
REMARK minimizedRMSD -1
REMARK  0 active torsions:
REMARK  status: ('A' for Active; 'I' for Inactive)
ROOT
ATOM      1  C   UNL d   1       1.350  -2.756  -0.749  0.00  0.00     0.124 A 
ATOM      2  C1  UNL d   1       1.962  -1.906   0.162  0.00  0.00     0.062 A 
ATOM      3  C2  UNL d   1       3.220  -2.213   0.671  0.00  0.00     0.162 A 
ATOM      4  C3  UNL d   1       3.877  -3.377   0.269  0.00  0.00    -0.034 A 
ATOM      5  C4  UNL d   1       3.255  -4.227  -0.647  0.00  0.00     0.162 A 
ATOM      6  C5  UNL d   1       1.997  -3.915  -1.152  0.00  0.00     0.062 A 
ATOM      7  F   UNL d   1       1.407  -4.738  -2.032  0.00  0.00    -0.097 F 
ATOM      8  F1  UNL d   1       3.858  -5.354  -1.055  0.00  0.00    -0.096 F 
ATOM      9  I   UNL d   1       5.759  -3.840   1.027  0.00  0.00    -0.060 I 
ATOM     10  F2  UNL d   1       3.788  -1.374   1.550  0.00  0.00    -0.096 F 
ATOM     11  F3  UNL d   1       1.339  -0.785   0.554  0.00  0.00    -0.097 F 
ATOM     12  F4  UNL d   1       0.139  -2.458  -1.236  0.00  0.00    -0.092 F 
ENDROOT
TORSDOF 0
ENDMDL
