MODEL 1
REMARK minimizedAffinity 31.6892891
REMARK minimizedRMSD -1
REMARK  0 active torsions:
REMARK  status: ('A' for Active; 'I' for Inactive)
ROOT
ATOM      1  C   UNL d   1       1.478   3.954   0.156  0.00  0.00     0.124 A 
ATOM      2  C1  UNL d   1       0.826   2.828  -0.326  0.00  0.00     0.062 A 
ATOM      3  C2  UNL d   1       0.434   1.818   0.548  0.00  0.00     0.162 A 
ATOM      4  C3  UNL d   1       0.693   1.929   1.914  0.00  0.00    -0.034 A 
ATOM      5  C4  UNL d   1       1.351   3.064   2.391  0.00  0.00     0.162 A 
ATOM      6  C5  UNL d   1       1.740   4.071   1.514  0.00  0.00     0.062 A 
ATOM      7  F   UNL d   1       2.371   5.158   1.982  0.00  0.00    -0.097 F 
ATOM      8  F1  UNL d   1       1.616   3.204   3.699  0.00  0.00    -0.096 F 
ATOM      9  I   UNL d   1       0.109   0.421   3.223  0.00  0.00    -0.060 I 
ATOM     10  F2  UNL d   1      -0.195   0.741   0.054  0.00  0.00    -0.096 F 
ATOM     11  F3  UNL d   1       0.572   2.712  -1.638  0.00  0.00    -0.097 F 
ATOM     12  F4  UNL d   1       1.855   4.924  -0.687  0.00  0.00    -0.092 F 
ENDROOT
TORSDOF 0
ENDMDL
