MODEL 1
REMARK minimizedAffinity 18.38904
REMARK minimizedRMSD -1
REMARK  0 active torsions:
REMARK  status: ('A' for Active; 'I' for Inactive)
ROOT
ATOM      1  C   UNL d   1       4.980  -3.133   1.071  0.00  0.00     0.124 A 
ATOM      2  C1  UNL d   1       4.979  -4.390   0.482  0.00  0.00     0.062 A 
ATOM      3  C2  UNL d   1       3.921  -4.780  -0.334  0.00  0.00     0.162 A 
ATOM      4  C3  UNL d   1       2.855  -3.911  -0.567  0.00  0.00    -0.034 A 
ATOM      5  C4  UNL d   1       2.862  -2.649   0.030  0.00  0.00     0.162 A 
ATOM      6  C5  UNL d   1       3.922  -2.264   0.845  0.00  0.00     0.062 A 
ATOM      7  F   UNL d   1       3.920  -1.050   1.413  0.00  0.00    -0.097 F 
ATOM      8  F1  UNL d   1       1.852  -1.790  -0.172  0.00  0.00    -0.096 F 
ATOM      9  I   UNL d   1       1.271  -4.491  -1.786  0.00  0.00    -0.060 I 
ATOM     10  F2  UNL d   1       3.947  -6.000  -0.891  0.00  0.00    -0.096 F 
ATOM     11  F3  UNL d   1       6.000  -5.231   0.699  0.00  0.00    -0.097 F 
ATOM     12  F4  UNL d   1       5.999  -2.761   1.856  0.00  0.00    -0.092 F 
ENDROOT
TORSDOF 0
ENDMDL
