MODEL 1
REMARK minimizedAffinity 21.235939
REMARK minimizedRMSD -1
REMARK  0 active torsions:
REMARK  status: ('A' for Active; 'I' for Inactive)
ROOT
ATOM      1  C   UNL d   1       1.576  -2.914  -0.783  0.00  0.00     0.124 A 
ATOM      2  C1  UNL d   1       2.191  -4.132  -1.038  0.00  0.00     0.062 A 
ATOM      3  C2  UNL d   1       3.430  -4.422  -0.475  0.00  0.00     0.162 A 
ATOM      4  C3  UNL d   1       4.063  -3.492   0.351  0.00  0.00    -0.034 A 
ATOM      5  C4  UNL d   1       3.439  -2.269   0.602  0.00  0.00     0.162 A 
ATOM      6  C5  UNL d   1       2.200  -1.984   0.036  0.00  0.00     0.062 A 
ATOM      7  F   UNL d   1       1.607  -0.807   0.284  0.00  0.00    -0.097 F 
ATOM      8  F1  UNL d   1       4.019  -1.352   1.391  0.00  0.00    -0.096 F 
ATOM      9  I   UNL d   1       5.916  -3.922   1.195  0.00  0.00    -0.060 I 
ATOM     10  F2  UNL d   1       4.001  -5.606  -0.738  0.00  0.00    -0.096 F 
ATOM     11  F3  UNL d   1       1.590  -5.032  -1.830  0.00  0.00    -0.097 F 
ATOM     12  F4  UNL d   1       0.384  -2.637  -1.327  0.00  0.00    -0.092 F 
ENDROOT
TORSDOF 0
ENDMDL
