MODEL 1
REMARK minimizedAffinity 34.2164497
REMARK minimizedRMSD -1
REMARK  0 active torsions:
REMARK  status: ('A' for Active; 'I' for Inactive)
ROOT
ATOM      1  C   UNL d   1      -5.547  -3.447   1.396  0.00  0.00     0.124 A 
ATOM      2  C1  UNL d   1      -5.513  -4.302   2.489  0.00  0.00     0.062 A 
ATOM      3  C2  UNL d   1      -5.044  -3.848   3.718  0.00  0.00     0.162 A 
ATOM      4  C3  UNL d   1      -4.606  -2.532   3.862  0.00  0.00    -0.034 A 
ATOM      5  C4  UNL d   1      -4.642  -1.678   2.758  0.00  0.00     0.162 A 
ATOM      6  C5  UNL d   1      -5.111  -2.136   1.532  0.00  0.00     0.062 A 
ATOM      7  F   UNL d   1      -5.143  -1.309   0.477  0.00  0.00    -0.097 F 
ATOM      8  F1  UNL d   1      -4.228  -0.407   2.862  0.00  0.00    -0.096 F 
ATOM      9  I   UNL d   1      -3.903  -1.850   5.699  0.00  0.00    -0.060 I 
ATOM     10  F2  UNL d   1      -5.023  -4.697   4.757  0.00  0.00    -0.096 F 
ATOM     11  F3  UNL d   1      -5.933  -5.569   2.360  0.00  0.00    -0.097 F 
ATOM     12  F4  UNL d   1      -5.998  -3.886   0.214  0.00  0.00    -0.092 F 
ENDROOT
TORSDOF 0
ENDMDL
