MODEL 1
REMARK minimizedAffinity 22.3232307
REMARK minimizedRMSD -1
REMARK  0 active torsions:
REMARK  status: ('A' for Active; 'I' for Inactive)
ROOT
ATOM      1  C   UNL d   1      -2.176   1.483   2.243  0.00  0.00     0.124 A 
ATOM      2  C1  UNL d   1      -1.221   1.939   1.345  0.00  0.00     0.062 A 
ATOM      3  C2  UNL d   1      -0.060   1.203   1.125  0.00  0.00     0.162 A 
ATOM      4  C3  UNL d   1       0.153   0.004   1.805  0.00  0.00    -0.034 A 
ATOM      5  C4  UNL d   1      -0.812  -0.447   2.708  0.00  0.00     0.162 A 
ATOM      6  C5  UNL d   1      -1.971   0.292   2.923  0.00  0.00     0.062 A 
ATOM      7  F   UNL d   1      -2.893  -0.150   3.792  0.00  0.00    -0.097 F 
ATOM      8  F1  UNL d   1      -0.640  -1.596   3.378  0.00  0.00    -0.096 F 
ATOM      9  I   UNL d   1       1.888  -1.098   1.480  0.00  0.00    -0.060 I 
ATOM     10  F2  UNL d   1       0.846   1.667   0.252  0.00  0.00    -0.096 F 
ATOM     11  F3  UNL d   1      -1.416   3.090   0.687  0.00  0.00    -0.097 F 
ATOM     12  F4  UNL d   1      -3.292   2.193   2.453  0.00  0.00    -0.092 F 
ENDROOT
TORSDOF 0
ENDMDL
