MODEL 1
REMARK minimizedAffinity 17.3015194
REMARK minimizedRMSD -1
REMARK  0 active torsions:
REMARK  status: ('A' for Active; 'I' for Inactive)
ROOT
ATOM      1  C   UNL d   1       2.637  -1.745   1.019  0.00  0.00     0.124 A 
ATOM      2  C1  UNL d   1       3.898  -1.781   1.597  0.00  0.00     0.062 A 
ATOM      3  C2  UNL d   1       4.787  -2.803   1.275  0.00  0.00     0.162 A 
ATOM      4  C3  UNL d   1       4.418  -3.798   0.369  0.00  0.00    -0.034 A 
ATOM      5  C4  UNL d   1       3.147  -3.755  -0.208  0.00  0.00     0.162 A 
ATOM      6  C5  UNL d   1       2.263  -2.732   0.117  0.00  0.00     0.062 A 
ATOM      7  F   UNL d   1       1.044  -2.699  -0.442  0.00  0.00    -0.097 F 
ATOM      8  F1  UNL d   1       2.760  -4.695  -1.082  0.00  0.00    -0.096 F 
ATOM      9  I   UNL d   1       5.743  -5.327  -0.114  0.00  0.00    -0.060 I 
ATOM     10  F2  UNL d   1       5.999  -2.813   1.849  0.00  0.00    -0.096 F 
ATOM     11  F3  UNL d   1       4.262  -0.830   2.469  0.00  0.00    -0.097 F 
ATOM     12  F4  UNL d   1       1.783  -0.761   1.331  0.00  0.00    -0.092 F 
ENDROOT
TORSDOF 0
ENDMDL
