MODEL 1
REMARK minimizedAffinity 24.4540577
REMARK minimizedRMSD -1
REMARK  0 active torsions:
REMARK  status: ('A' for Active; 'I' for Inactive)
ROOT
ATOM      1  C   UNL d   1      -0.240   3.659  -2.640  0.00  0.00     0.124 A 
ATOM      2  C1  UNL d   1      -1.035   2.580  -2.279  0.00  0.00     0.062 A 
ATOM      3  C2  UNL d   1      -0.860   1.965  -1.042  0.00  0.00     0.162 A 
ATOM      4  C3  UNL d   1       0.113   2.429  -0.157  0.00  0.00    -0.034 A 
ATOM      5  C4  UNL d   1       0.909   3.514  -0.528  0.00  0.00     0.162 A 
ATOM      6  C5  UNL d   1       0.730   4.125  -1.765  0.00  0.00     0.062 A 
ATOM      7  F   UNL d   1       1.499   5.167  -2.113  0.00  0.00    -0.097 F 
ATOM      8  F1  UNL d   1       1.854   3.986   0.299  0.00  0.00    -0.096 F 
ATOM      9  I   UNL d   1       0.377   1.513   1.693  0.00  0.00    -0.060 I 
ATOM     10  F2  UNL d   1      -1.642   0.924  -0.719  0.00  0.00    -0.096 F 
ATOM     11  F3  UNL d   1      -1.973   2.126  -3.123  0.00  0.00    -0.097 F 
ATOM     12  F4  UNL d   1      -0.410   4.247  -3.831  0.00  0.00    -0.092 F 
ENDROOT
TORSDOF 0
ENDMDL
