MODEL 1
REMARK minimizedAffinity 14.2659702
REMARK minimizedRMSD -1
REMARK  0 active torsions:
REMARK  status: ('A' for Active; 'I' for Inactive)
ROOT
ATOM      1  C   UNL d   1       0.027   4.218  -1.704  0.00  0.00     0.124 A 
ATOM      2  C1  UNL d   1      -1.042   4.549  -2.525  0.00  0.00     0.062 A 
ATOM      3  C2  UNL d   1      -2.215   5.057  -1.975  0.00  0.00     0.162 A 
ATOM      4  C3  UNL d   1      -2.326   5.238  -0.597  0.00  0.00    -0.034 A 
ATOM      5  C4  UNL d   1      -1.247   4.901   0.223  0.00  0.00     0.162 A 
ATOM      6  C5  UNL d   1      -0.077   4.393  -0.331  0.00  0.00     0.062 A 
ATOM      7  F   UNL d   1       0.955   4.073   0.463  0.00  0.00    -0.097 F 
ATOM      8  F1  UNL d   1      -1.320   5.062   1.552  0.00  0.00    -0.096 F 
ATOM      9  I   UNL d   1      -4.079   5.997   0.229  0.00  0.00    -0.060 I 
ATOM     10  F2  UNL d   1      -3.232   5.370  -2.793  0.00  0.00    -0.096 F 
ATOM     11  F3  UNL d   1      -0.944   4.380  -3.852  0.00  0.00    -0.097 F 
ATOM     12  F4  UNL d   1       1.155   3.728  -2.236  0.00  0.00    -0.092 F 
ENDROOT
TORSDOF 0
ENDMDL
