MODEL 1
REMARK minimizedAffinity 33.9396362
REMARK minimizedRMSD -1
REMARK  0 active torsions:
REMARK  status: ('A' for Active; 'I' for Inactive)
ROOT
ATOM      1  C   UNL d   1       4.213  -2.936   0.765  0.00  0.00     0.124 A 
ATOM      2  C1  UNL d   1       4.798  -4.102   0.291  0.00  0.00     0.062 A 
ATOM      3  C2  UNL d   1       4.141  -4.878  -0.659  0.00  0.00     0.162 A 
ATOM      4  C3  UNL d   1       2.891  -4.491  -1.142  0.00  0.00    -0.034 A 
ATOM      5  C4  UNL d   1       2.308  -3.318  -0.660  0.00  0.00     0.162 A 
ATOM      6  C5  UNL d   1       2.969  -2.545   0.290  0.00  0.00     0.062 A 
ATOM      7  F   UNL d   1       2.402  -1.419   0.747  0.00  0.00    -0.097 F 
ATOM      8  F1  UNL d   1       1.108  -2.916  -1.102  0.00  0.00    -0.096 F 
ATOM      9  I   UNL d   1       1.905  -5.649  -2.563  0.00  0.00    -0.060 I 
ATOM     10  F2  UNL d   1       4.730  -6.000  -1.100  0.00  0.00    -0.096 F 
ATOM     11  F3  UNL d   1       5.999  -4.482   0.749  0.00  0.00    -0.097 F 
ATOM     12  F4  UNL d   1       4.847  -2.191   1.680  0.00  0.00    -0.092 F 
ENDROOT
TORSDOF 0
ENDMDL
