MODEL 1
REMARK minimizedAffinity 28.6464558
REMARK minimizedRMSD -1
REMARK  0 active torsions:
REMARK  status: ('A' for Active; 'I' for Inactive)
ROOT
ATOM      1  C   UNL d   1      -0.141   3.054  -0.867  0.00  0.00     0.124 A 
ATOM      2  C1  UNL d   1      -0.875   2.208  -0.047  0.00  0.00     0.062 A 
ATOM      3  C2  UNL d   1      -0.545   2.080   1.300  0.00  0.00     0.162 A 
ATOM      4  C3  UNL d   1       0.523   2.800   1.835  0.00  0.00    -0.034 A 
ATOM      5  C4  UNL d   1       1.257   3.648   1.003  0.00  0.00     0.162 A 
ATOM      6  C5  UNL d   1       0.923   3.773  -0.342  0.00  0.00     0.062 A 
ATOM      7  F   UNL d   1       1.633   4.590  -1.133  0.00  0.00    -0.097 F 
ATOM      8  F1  UNL d   1       2.290   4.355   1.485  0.00  0.00    -0.096 F 
ATOM      9  I   UNL d   1       1.019   2.610   3.847  0.00  0.00    -0.060 I 
ATOM     10  F2  UNL d   1      -1.271   1.255   2.069  0.00  0.00    -0.096 F 
ATOM     11  F3  UNL d   1      -1.903   1.512  -0.552  0.00  0.00    -0.097 F 
ATOM     12  F4  UNL d   1      -0.460   3.175  -2.162  0.00  0.00    -0.092 F 
ENDROOT
TORSDOF 0
ENDMDL
