MODEL 1
REMARK minimizedAffinity 37.0293655
REMARK minimizedRMSD -1
REMARK  0 active torsions:
REMARK  status: ('A' for Active; 'I' for Inactive)
ROOT
ATOM      1  C   UNL d   1       2.462  -3.092  -3.624  0.00  0.00     0.124 A 
ATOM      2  C1  UNL d   1       1.743  -3.758  -2.641  0.00  0.00     0.062 A 
ATOM      3  C2  UNL d   1       2.398  -4.589  -1.737  0.00  0.00     0.162 A 
ATOM      4  C3  UNL d   1       3.781  -4.758  -1.810  0.00  0.00    -0.034 A 
ATOM      5  C4  UNL d   1       4.497  -4.086  -2.802  0.00  0.00     0.162 A 
ATOM      6  C5  UNL d   1       3.838  -3.256  -3.704  0.00  0.00     0.062 A 
ATOM      7  F   UNL d   1       4.534  -2.614  -4.653  0.00  0.00    -0.097 F 
ATOM      8  F1  UNL d   1       5.827  -4.226  -2.901  0.00  0.00    -0.096 F 
ATOM      9  I   UNL d   1       4.764  -6.000  -0.460  0.00  0.00    -0.060 I 
ATOM     10  F2  UNL d   1       1.678  -5.221  -0.797  0.00  0.00    -0.096 F 
ATOM     11  F3  UNL d   1       0.414  -3.602  -2.562  0.00  0.00    -0.097 F 
ATOM     12  F4  UNL d   1       1.829  -2.294  -4.493  0.00  0.00    -0.092 F 
ENDROOT
TORSDOF 0
ENDMDL
