MODEL 1
REMARK minimizedAffinity 2.21791077
REMARK minimizedRMSD -1
REMARK  0 active torsions:
REMARK  status: ('A' for Active; 'I' for Inactive)
ROOT
ATOM      1  C   UNL d   1       4.518   1.667  -1.042  0.00  0.00    -0.002 A 
ATOM      2  C1  UNL d   1       3.378   1.017  -1.495  0.00  0.00     0.010 A 
ATOM      3  C2  UNL d   1       2.150   1.212  -0.861  0.00  0.00     0.041 A 
ATOM      4  C3  UNL d   1       2.085   2.081   0.246  0.00  0.00    -0.075 A 
ATOM      5  S   UNL d   1       0.689   2.474   1.179  0.00  0.00     0.015 SA
ATOM      6  C4  UNL d   1       1.572   3.514   2.201  0.00  0.00     0.022 A 
ATOM      7  C5  UNL d   1       2.901   3.571   1.853  0.00  0.00     0.026 A 
ATOM      8  C6  UNL d   1       3.218   2.747   0.721  0.00  0.00    -0.082 A 
ATOM      9  C7  UNL d   1       4.449   2.528   0.057  0.00  0.00     0.045 A 
ENDROOT
TORSDOF 0
ENDMDL
