MODEL 1
REMARK minimizedAffinity -4.50446701
REMARK minimizedRMSD -1
REMARK  0 active torsions:
REMARK  status: ('A' for Active; 'I' for Inactive)
ROOT
ATOM      1  C   UNL d   1       1.834  -0.088  -2.472  0.00  0.00    -0.002 A 
ATOM      2  C1  UNL d   1       0.471  -0.320  -2.350  0.00  0.00     0.010 A 
ATOM      3  C2  UNL d   1      -0.280   0.348  -1.380  0.00  0.00     0.041 A 
ATOM      4  C3  UNL d   1       0.368   1.264  -0.528  0.00  0.00    -0.075 A 
ATOM      5  S   UNL d   1      -0.348   2.198   0.731  0.00  0.00     0.015 SA
ATOM      6  C4  UNL d   1       1.138   2.929   1.136  0.00  0.00     0.022 A 
ATOM      7  C5  UNL d   1       2.166   2.482   0.340  0.00  0.00     0.026 A 
ATOM      8  C6  UNL d   1       1.739   1.515  -0.632  0.00  0.00    -0.082 A 
ATOM      9  C7  UNL d   1       2.473   0.821  -1.625  0.00  0.00     0.045 A 
ENDROOT
TORSDOF 0
ENDMDL
