MODEL 1
REMARK minimizedAffinity -3.57475281
REMARK minimizedRMSD -1
REMARK  0 active torsions:
REMARK  status: ('A' for Active; 'I' for Inactive)
ROOT
ATOM      1  C   UNL d   1      -1.459  -2.230   1.317  0.00  0.00    -0.002 A 
ATOM      2  C1  UNL d   1      -1.316  -2.615  -0.008  0.00  0.00     0.010 A 
ATOM      3  C2  UNL d   1      -0.597  -1.822  -0.905  0.00  0.00     0.041 A 
ATOM      4  C3  UNL d   1      -0.016  -0.625  -0.442  0.00  0.00    -0.075 A 
ATOM      5  S   UNL d   1       0.909   0.504  -1.359  0.00  0.00     0.015 SA
ATOM      6  C4  UNL d   1       1.138   1.524  -0.012  0.00  0.00     0.022 A 
ATOM      7  C5  UNL d   1       0.529   1.030   1.117  0.00  0.00     0.026 A 
ATOM      8  C6  UNL d   1      -0.145  -0.217   0.889  0.00  0.00    -0.082 A 
ATOM      9  C7  UNL d   1      -0.881  -1.042   1.773  0.00  0.00     0.045 A 
ENDROOT
TORSDOF 0
ENDMDL
