MODEL 1
REMARK minimizedAffinity 11.659009
REMARK minimizedRMSD -1
REMARK  0 active torsions:
REMARK  status: ('A' for Active; 'I' for Inactive)
ROOT
ATOM      1  C   UNL d   1       0.555   3.204   0.649  0.00  0.00    -0.002 A 
ATOM      2  C1  UNL d   1       1.616   3.481   1.500  0.00  0.00     0.010 A 
ATOM      3  C2  UNL d   1       1.439   4.309   2.610  0.00  0.00     0.041 A 
ATOM      4  C3  UNL d   1       0.165   4.858   2.854  0.00  0.00    -0.075 A 
ATOM      5  S   UNL d   1      -0.287   5.898   4.153  0.00  0.00     0.015 SA
ATOM      6  C4  UNL d   1      -1.900   5.999   3.610  0.00  0.00     0.022 A 
ATOM      7  C5  UNL d   1      -2.105   5.263   2.467  0.00  0.00     0.026 A 
ATOM      8  C6  UNL d   1      -0.919   4.593   2.013  0.00  0.00    -0.082 A 
ATOM      9  C7  UNL d   1      -0.707   3.751   0.895  0.00  0.00     0.045 A 
ENDROOT
TORSDOF 0
ENDMDL
