MODEL 1
REMARK minimizedAffinity -3.96528554
REMARK minimizedRMSD -1
REMARK  0 active torsions:
REMARK  status: ('A' for Active; 'I' for Inactive)
ROOT
ATOM      1  C   UNL d   1      -0.295  -2.739   0.690  0.00  0.00    -0.002 A 
ATOM      2  C1  UNL d   1      -0.847  -1.728   1.464  0.00  0.00     0.010 A 
ATOM      3  C2  UNL d   1      -0.652  -0.388   1.125  0.00  0.00     0.041 A 
ATOM      4  C3  UNL d   1       0.112  -0.078  -0.017  0.00  0.00    -0.075 A 
ATOM      5  S   UNL d   1       0.481   1.492  -0.626  0.00  0.00     0.015 SA
ATOM      6  C4  UNL d   1       1.379   0.858  -1.928  0.00  0.00     0.022 A 
ATOM      7  C5  UNL d   1       1.407  -0.516  -1.914  0.00  0.00     0.026 A 
ATOM      8  C6  UNL d   1       0.676  -1.078  -0.813  0.00  0.00    -0.082 A 
ATOM      9  C7  UNL d   1       0.462  -2.428  -0.442  0.00  0.00     0.045 A 
ENDROOT
TORSDOF 0
ENDMDL
