MODEL 1
REMARK minimizedAffinity -4.39587164
REMARK minimizedRMSD -1
REMARK  0 active torsions:
REMARK  status: ('A' for Active; 'I' for Inactive)
ROOT
ATOM      1  C   UNL d   1      -0.493  -3.044   0.547  0.00  0.00    -0.002 A 
ATOM      2  C1  UNL d   1      -1.145  -2.181   1.416  0.00  0.00     0.010 A 
ATOM      3  C2  UNL d   1      -0.870  -0.812   1.396  0.00  0.00     0.041 A 
ATOM      4  C3  UNL d   1       0.079  -0.321   0.478  0.00  0.00    -0.075 A 
ATOM      5  S   UNL d   1       0.576   1.317   0.273  0.00  0.00     0.015 SA
ATOM      6  C4  UNL d   1       1.664   0.910  -0.973  0.00  0.00     0.022 A 
ATOM      7  C5  UNL d   1       1.662  -0.439  -1.239  0.00  0.00     0.026 A 
ATOM      8  C6  UNL d   1       0.748  -1.170  -0.407  0.00  0.00    -0.082 A 
ATOM      9  C7  UNL d   1       0.448  -2.553  -0.362  0.00  0.00     0.045 A 
ENDROOT
TORSDOF 0
ENDMDL
