MODEL 1
REMARK minimizedAffinity 2.6505487
REMARK minimizedRMSD -1
REMARK  0 active torsions:
REMARK  status: ('A' for Active; 'I' for Inactive)
ROOT
ATOM      1  C   UNL d   1      -0.832  -1.764  -1.136  0.00  0.00    -0.002 A 
ATOM      2  C1  UNL d   1      -1.112  -2.484   0.016  0.00  0.00     0.010 A 
ATOM      3  C2  UNL d   1      -1.260  -1.833   1.243  0.00  0.00     0.041 A 
ATOM      4  C3  UNL d   1      -1.123  -0.432   1.291  0.00  0.00    -0.075 A 
ATOM      5  S   UNL d   1      -1.264   0.579   2.681  0.00  0.00     0.015 SA
ATOM      6  C4  UNL d   1      -0.957   1.991   1.777  0.00  0.00     0.022 A 
ATOM      7  C5  UNL d   1      -0.749   1.717   0.446  0.00  0.00     0.026 A 
ATOM      8  C6  UNL d   1      -0.842   0.316   0.144  0.00  0.00    -0.082 A 
ATOM      9  C7  UNL d   1      -0.697  -0.374  -1.084  0.00  0.00     0.045 A 
ENDROOT
TORSDOF 0
ENDMDL
