MODEL 1
REMARK minimizedAffinity 5.16058254
REMARK minimizedRMSD -1
REMARK  0 active torsions:
REMARK  status: ('A' for Active; 'I' for Inactive)
ROOT
ATOM      1  C   UNL d   1      -1.095  -1.874   1.144  0.00  0.00    -0.002 A 
ATOM      2  C1  UNL d   1      -1.542  -1.351   2.349  0.00  0.00     0.010 A 
ATOM      3  C2  UNL d   1      -1.361   0.002   2.647  0.00  0.00     0.041 A 
ATOM      4  C3  UNL d   1      -0.720   0.827   1.703  0.00  0.00    -0.075 A 
ATOM      5  S   UNL d   1      -0.390   2.513   1.850  0.00  0.00     0.015 SA
ATOM      6  C4  UNL d   1       0.351   2.579   0.317  0.00  0.00     0.022 A 
ATOM      7  C5  UNL d   1       0.356   1.353  -0.306  0.00  0.00     0.026 A 
ATOM      8  C6  UNL d   1      -0.262   0.324   0.482  0.00  0.00    -0.082 A 
ATOM      9  C7  UNL d   1      -0.459  -1.052   0.210  0.00  0.00     0.045 A 
ENDROOT
TORSDOF 0
ENDMDL
