MODEL 1
REMARK minimizedAffinity -3.41699958
REMARK minimizedRMSD -1
REMARK  0 active torsions:
REMARK  status: ('A' for Active; 'I' for Inactive)
ROOT
ATOM      1  C   UNL d   1      -0.587  -1.927   1.410  0.00  0.00    -0.002 A 
ATOM      2  C1  UNL d   1      -0.424  -2.639   0.230  0.00  0.00     0.010 A 
ATOM      3  C2  UNL d   1       0.064  -2.011  -0.917  0.00  0.00     0.041 A 
ATOM      4  C3  UNL d   1       0.391  -0.641  -0.858  0.00  0.00    -0.075 A 
ATOM      5  S   UNL d   1       1.006   0.337  -2.137  0.00  0.00     0.015 SA
ATOM      6  C4  UNL d   1       1.068   1.723  -1.147  0.00  0.00     0.022 A 
ATOM      7  C5  UNL d   1       0.633   1.464   0.131  0.00  0.00     0.026 A 
ATOM      8  C6  UNL d   1       0.236   0.097   0.319  0.00  0.00    -0.082 A 
ATOM      9  C7  UNL d   1      -0.262  -0.569   1.465  0.00  0.00     0.045 A 
ENDROOT
TORSDOF 0
ENDMDL
