MODEL 1
REMARK minimizedAffinity 1.83576536
REMARK minimizedRMSD -1
REMARK  0 active torsions:
REMARK  status: ('A' for Active; 'I' for Inactive)
ROOT
ATOM      1  C   UNL d   1       2.622   2.988   0.512  0.00  0.00    -0.002 A 
ATOM      2  C1  UNL d   1       3.038   1.932  -0.287  0.00  0.00     0.010 A 
ATOM      3  C2  UNL d   1       2.227   0.808  -0.457  0.00  0.00     0.041 A 
ATOM      4  C3  UNL d   1       0.978   0.764   0.195  0.00  0.00    -0.075 A 
ATOM      5  S   UNL d   1      -0.182  -0.510   0.132  0.00  0.00     0.015 SA
ATOM      6  C4  UNL d   1      -1.257   0.318   1.164  0.00  0.00     0.022 A 
ATOM      7  C5  UNL d   1      -0.758   1.538   1.556  0.00  0.00     0.026 A 
ATOM      8  C6  UNL d   1       0.538   1.815   1.004  0.00  0.00    -0.082 A 
ATOM      9  C7  UNL d   1       1.383   2.940   1.157  0.00  0.00     0.045 A 
ENDROOT
TORSDOF 0
ENDMDL
