MODEL 1
REMARK minimizedAffinity -4.24013996
REMARK minimizedRMSD -1
REMARK  0 active torsions:
REMARK  status: ('A' for Active; 'I' for Inactive)
ROOT
ATOM      1  C   UNL d   1      -0.386  -2.671   0.515  0.00  0.00    -0.002 A 
ATOM      2  C1  UNL d   1      -1.089  -1.889   1.420  0.00  0.00     0.010 A 
ATOM      3  C2  UNL d   1      -0.969  -0.498   1.400  0.00  0.00     0.041 A 
ATOM      4  C3  UNL d   1      -0.124   0.099   0.443  0.00  0.00    -0.075 A 
ATOM      5  S   UNL d   1       0.178   1.783   0.230  0.00  0.00     0.015 SA
ATOM      6  C4  UNL d   1       1.246   1.504  -1.068  0.00  0.00     0.022 A 
ATOM      7  C5  UNL d   1       1.381   0.164  -1.345  0.00  0.00     0.026 A 
ATOM      8  C6  UNL d   1       0.593  -0.667  -0.479  0.00  0.00    -0.082 A 
ATOM      9  C7  UNL d   1       0.451  -2.075  -0.432  0.00  0.00     0.045 A 
ENDROOT
TORSDOF 0
ENDMDL
