MODEL 1
REMARK minimizedAffinity -3.80843377
REMARK minimizedRMSD -1
REMARK  0 active torsions:
REMARK  status: ('A' for Active; 'I' for Inactive)
ROOT
ATOM      1  C   UNL d   1       0.310  -2.681  -0.831  0.00  0.00    -0.002 A 
ATOM      2  C1  UNL d   1       0.646  -1.629  -1.671  0.00  0.00     0.010 A 
ATOM      3  C2  UNL d   1       0.362  -0.311  -1.307  0.00  0.00     0.041 A 
ATOM      4  C3  UNL d   1      -0.270  -0.067  -0.072  0.00  0.00    -0.075 A 
ATOM      5  S   UNL d   1      -0.714   1.465   0.583  0.00  0.00     0.015 SA
ATOM      6  C4  UNL d   1      -1.359   0.759   1.994  0.00  0.00     0.022 A 
ATOM      7  C5  UNL d   1      -1.247  -0.612   1.982  0.00  0.00     0.026 A 
ATOM      8  C6  UNL d   1      -0.617  -1.110   0.791  0.00  0.00    -0.082 A 
ATOM      9  C7  UNL d   1      -0.316  -2.435   0.393  0.00  0.00     0.045 A 
ENDROOT
TORSDOF 0
ENDMDL
