MODEL 1
REMARK minimizedAffinity -4.65546417
REMARK minimizedRMSD -1
REMARK  0 active torsions:
REMARK  status: ('A' for Active; 'I' for Inactive)
ROOT
ATOM      1  C   UNL d   1      -1.020  -1.580   1.259  0.00  0.00    -0.002 A 
ATOM      2  C1  UNL d   1      -0.195  -2.203   0.333  0.00  0.00     0.010 A 
ATOM      3  C2  UNL d   1       0.700  -1.457  -0.436  0.00  0.00     0.041 A 
ATOM      4  C3  UNL d   1       0.755  -0.061  -0.255  0.00  0.00    -0.075 A 
ATOM      5  S   UNL d   1       1.774   1.056  -1.084  0.00  0.00     0.015 SA
ATOM      6  C4  UNL d   1       1.140   2.386  -0.228  0.00  0.00     0.022 A 
ATOM      7  C5  UNL d   1       0.173   2.005   0.673  0.00  0.00     0.026 A 
ATOM      8  C6  UNL d   1      -0.065   0.589   0.672  0.00  0.00    -0.082 A 
ATOM      9  C7  UNL d   1      -0.962  -0.195   1.436  0.00  0.00     0.045 A 
ENDROOT
TORSDOF 0
ENDMDL
