MODEL 1
REMARK minimizedAffinity 2.85174394
REMARK minimizedRMSD -1
REMARK  0 active torsions:
REMARK  status: ('A' for Active; 'I' for Inactive)
ROOT
ATOM      1  C   UNL d   1       2.035   0.332  -3.002  0.00  0.00    -0.002 A 
ATOM      2  C1  UNL d   1       2.984   0.974  -2.219  0.00  0.00     0.010 A 
ATOM      3  C2  UNL d   1       2.662   1.419  -0.935  0.00  0.00     0.041 A 
ATOM      4  C3  UNL d   1       1.359   1.204  -0.446  0.00  0.00    -0.075 A 
ATOM      5  S   UNL d   1       0.738   1.661   1.096  0.00  0.00     0.015 SA
ATOM      6  C4  UNL d   1      -0.800   1.013   0.752  0.00  0.00     0.022 A 
ATOM      7  C5  UNL d   1      -0.857   0.459  -0.504  0.00  0.00     0.026 A 
ATOM      8  C6  UNL d   1       0.386   0.559  -1.216  0.00  0.00    -0.082 A 
ATOM      9  C7  UNL d   1       0.743   0.120  -2.513  0.00  0.00     0.045 A 
ENDROOT
TORSDOF 0
ENDMDL
