MODEL 1
REMARK minimizedAffinity 14.259161
REMARK minimizedRMSD -1
REMARK  0 active torsions:
REMARK  status: ('A' for Active; 'I' for Inactive)
ROOT
ATOM      1  C   UNL d   1      -1.509  -0.400  -1.367  0.00  0.00     0.023 A 
ATOM      2  C1  UNL d   1      -0.120  -0.264  -1.349  0.00  0.00     0.003 A 
ATOM      3  C2  UNL d   1       0.468   0.816  -0.687  0.00  0.00     0.048 A 
ATOM      4  C3  UNL d   1      -0.338   1.756  -0.046  0.00  0.00     0.023 A 
ATOM      5  C4  UNL d   1      -1.727   1.624  -0.061  0.00  0.00     0.048 A 
ATOM      6  C5  UNL d   1      -2.311   0.543  -0.724  0.00  0.00     0.003 A 
ATOM      7  I   UNL d   1       0.535   3.364   0.939  0.00  0.00    -0.146 I 
ENDROOT
TORSDOF 0
ENDMDL
