MODEL 1
REMARK minimizedAffinity 12.3844528
REMARK minimizedRMSD -1
REMARK  0 active torsions:
REMARK  status: ('A' for Active; 'I' for Inactive)
ROOT
ATOM      1  C   UNL d   1      -0.755   6.000   0.073  0.00  0.00     0.023 A 
ATOM      2  C1  UNL d   1      -1.242   5.158   1.074  0.00  0.00     0.003 A 
ATOM      3  C2  UNL d   1      -0.913   3.801   1.068  0.00  0.00     0.048 A 
ATOM      4  C3  UNL d   1      -0.095   3.293   0.059  0.00  0.00     0.023 A 
ATOM      5  C4  UNL d   1       0.396   4.131  -0.943  0.00  0.00     0.048 A 
ATOM      6  C5  UNL d   1       0.063   5.487  -0.933  0.00  0.00     0.003 A 
ATOM      7  I   UNL d   1       0.397   1.273   0.048  0.00  0.00    -0.146 I 
ENDROOT
TORSDOF 0
ENDMDL
