MODEL 1
REMARK minimizedAffinity 7.22731638
REMARK minimizedRMSD -1
REMARK  0 active torsions:
REMARK  status: ('A' for Active; 'I' for Inactive)
ROOT
ATOM      1  C   UNL d   1      -0.144   5.650  -0.692  0.00  0.00     0.023 A 
ATOM      2  C1  UNL d   1       0.128   4.321  -1.017  0.00  0.00     0.003 A 
ATOM      3  C2  UNL d   1       0.102   3.339  -0.024  0.00  0.00     0.048 A 
ATOM      4  C3  UNL d   1      -0.198   3.693   1.291  0.00  0.00     0.023 A 
ATOM      5  C4  UNL d   1      -0.472   5.021   1.620  0.00  0.00     0.048 A 
ATOM      6  C5  UNL d   1      -0.444   6.000   0.625  0.00  0.00     0.003 A 
ATOM      7  I   UNL d   1      -0.239   2.233   2.769  0.00  0.00    -0.146 I 
ENDROOT
TORSDOF 0
ENDMDL
