MODEL 1
REMARK minimizedAffinity 8.7876873
REMARK minimizedRMSD -1
REMARK  0 active torsions:
REMARK  status: ('A' for Active; 'I' for Inactive)
ROOT
ATOM      1  C   UNL d   1       5.289  -2.361  -1.785  0.00  0.00     0.023 A 
ATOM      2  C1  UNL d   1       4.229  -1.677  -1.190  0.00  0.00     0.003 A 
ATOM      3  C2  UNL d   1       3.093  -2.373  -0.773  0.00  0.00     0.048 A 
ATOM      4  C3  UNL d   1       3.024  -3.754  -0.953  0.00  0.00     0.023 A 
ATOM      5  C4  UNL d   1       4.082  -4.443  -1.547  0.00  0.00     0.048 A 
ATOM      6  C5  UNL d   1       5.216  -3.742  -1.964  0.00  0.00     0.003 A 
ATOM      7  I   UNL d   1       1.334  -4.793  -0.333  0.00  0.00    -0.146 I 
ENDROOT
TORSDOF 0
ENDMDL
