MODEL 1
REMARK minimizedAffinity 9.6475544
REMARK minimizedRMSD -1
REMARK  0 active torsions:
REMARK  status: ('A' for Active; 'I' for Inactive)
ROOT
ATOM      1  C   UNL d   1       5.263  -2.570  -0.506  0.00  0.00     0.023 A 
ATOM      2  C1  UNL d   1       5.015  -1.977  -1.744  0.00  0.00     0.003 A 
ATOM      3  C2  UNL d   1       4.806  -2.774  -2.872  0.00  0.00     0.048 A 
ATOM      4  C3  UNL d   1       4.845  -4.163  -2.754  0.00  0.00     0.023 A 
ATOM      5  C4  UNL d   1       5.092  -4.760  -1.516  0.00  0.00     0.048 A 
ATOM      6  C5  UNL d   1       5.301  -3.960  -0.392  0.00  0.00     0.003 A 
ATOM      7  I   UNL d   1       4.534  -5.351  -4.430  0.00  0.00    -0.146 I 
ENDROOT
TORSDOF 0
ENDMDL
