MODEL 1
REMARK minimizedAffinity 8.77659416
REMARK minimizedRMSD -1
REMARK  0 active torsions:
REMARK  status: ('A' for Active; 'I' for Inactive)
ROOT
ATOM      1  C   UNL d   1       0.008   2.953   2.321  0.00  0.00     0.023 A 
ATOM      2  C1  UNL d   1      -1.069   2.579   3.125  0.00  0.00     0.003 A 
ATOM      3  C2  UNL d   1      -0.960   1.470   3.968  0.00  0.00     0.048 A 
ATOM      4  C3  UNL d   1       0.229   0.742   4.002  0.00  0.00     0.023 A 
ATOM      5  C4  UNL d   1       1.309   1.113   3.199  0.00  0.00     0.048 A 
ATOM      6  C5  UNL d   1       1.195   2.221   2.358  0.00  0.00     0.003 A 
ATOM      7  I   UNL d   1       0.393  -0.908   5.255  0.00  0.00    -0.146 I 
ENDROOT
TORSDOF 0
ENDMDL
