MODEL 1
REMARK minimizedAffinity 9.90282345
REMARK minimizedRMSD -1
REMARK  0 active torsions:
REMARK  status: ('A' for Active; 'I' for Inactive)
ROOT
ATOM      1  C   UNL d   1       0.267   5.430  -1.389  0.00  0.00     0.023 A 
ATOM      2  C1  UNL d   1       0.967   5.802  -0.241  0.00  0.00     0.003 A 
ATOM      3  C2  UNL d   1       0.977   4.962   0.875  0.00  0.00     0.048 A 
ATOM      4  C3  UNL d   1       0.287   3.751   0.835  0.00  0.00     0.023 A 
ATOM      5  C4  UNL d   1      -0.414   3.374  -0.312  0.00  0.00     0.048 A 
ATOM      6  C5  UNL d   1      -0.422   4.218  -1.425  0.00  0.00     0.003 A 
ATOM      7  I   UNL d   1       0.302   2.499   2.494  0.00  0.00    -0.146 I 
ENDROOT
TORSDOF 0
ENDMDL
