MODEL 1
REMARK minimizedAffinity 9.11601162
REMARK minimizedRMSD -1
REMARK  0 active torsions:
REMARK  status: ('A' for Active; 'I' for Inactive)
ROOT
ATOM      1  C   UNL d   1       5.582  -2.632  -1.102  0.00  0.00     0.023 A 
ATOM      2  C1  UNL d   1       5.384  -3.933  -0.638  0.00  0.00     0.003 A 
ATOM      3  C2  UNL d   1       4.549  -4.166   0.456  0.00  0.00     0.048 A 
ATOM      4  C3  UNL d   1       3.914  -3.094   1.081  0.00  0.00     0.023 A 
ATOM      5  C4  UNL d   1       4.108  -1.791   0.621  0.00  0.00     0.048 A 
ATOM      6  C5  UNL d   1       4.945  -1.562  -0.473  0.00  0.00     0.003 A 
ATOM      7  I   UNL d   1       2.669  -3.438   2.710  0.00  0.00    -0.146 I 
ENDROOT
TORSDOF 0
ENDMDL
