MODEL 1
REMARK minimizedAffinity 4.47382307
REMARK minimizedRMSD -1
REMARK  0 active torsions:
REMARK  status: ('A' for Active; 'I' for Inactive)
ROOT
ATOM      1  C   UNL d   1       0.111   5.995  -1.710  0.00  0.00     0.023 A 
ATOM      2  C1  UNL d   1      -0.895   5.032  -1.631  0.00  0.00     0.003 A 
ATOM      3  C2  UNL d   1      -0.866   4.071  -0.619  0.00  0.00     0.048 A 
ATOM      4  C3  UNL d   1       0.172   4.079   0.312  0.00  0.00     0.023 A 
ATOM      5  C4  UNL d   1       1.181   5.041   0.238  0.00  0.00     0.048 A 
ATOM      6  C5  UNL d   1       1.148   5.999  -0.777  0.00  0.00     0.003 A 
ATOM      7  I   UNL d   1       0.218   2.649   1.820  0.00  0.00    -0.146 I 
ENDROOT
TORSDOF 0
ENDMDL
