MODEL 1
REMARK minimizedAffinity 12.4153738
REMARK minimizedRMSD -1
REMARK  0 active torsions:
REMARK  status: ('A' for Active; 'I' for Inactive)
ROOT
ATOM      1  C   UNL d   1       4.922  -2.096   0.356  0.00  0.00     0.023 A 
ATOM      2  C1  UNL d   1       4.519  -1.409  -0.789  0.00  0.00     0.003 A 
ATOM      3  C2  UNL d   1       4.811  -1.925  -2.053  0.00  0.00     0.048 A 
ATOM      4  C3  UNL d   1       5.507  -3.128  -2.165  0.00  0.00     0.023 A 
ATOM      5  C4  UNL d   1       5.911  -3.819  -1.022  0.00  0.00     0.048 A 
ATOM      6  C5  UNL d   1       5.618  -3.299   0.240  0.00  0.00     0.003 A 
ATOM      7  I   UNL d   1       5.943  -3.898  -4.046  0.00  0.00    -0.146 I 
ENDROOT
TORSDOF 0
ENDMDL
