MODEL 1
REMARK minimizedAffinity -2.79867053
REMARK minimizedRMSD -1
REMARK  3 active torsions:
REMARK  status: ('A' for Active; 'I' for Inactive)
REMARK    1  A    between atoms: C3'_2  and  C2'_3 
REMARK    2  A    between atoms: C2'_3  and  C1'_4 
REMARK    3  A    between atoms: C1'_4  and  C1_5 
ROOT
ATOM      1  C1  N4B d   1       0.742  -0.760   0.570  0.00  0.00    -0.075 A 
ATOM      2  C2  N4B d   1       2.053  -0.521   1.036  0.00  0.00     0.002 A 
ATOM      3  C3  N4B d   1       2.655  -1.417   1.885  0.00  0.00     0.002 A 
ATOM      4  C4  N4B d   1       1.961  -2.546   2.294  0.00  0.00    -0.004 A 
ATOM      5  C5  N4B d   1       0.704  -2.783   1.819  0.00  0.00     0.002 A 
ATOM      6  C6  N4B d   1       0.089  -1.893   0.963  0.00  0.00     0.002 A 
ENDROOT
BRANCH   1   7
ATOM      7  C1' N4B d   1       0.011   0.234  -0.290  0.00  0.00     0.057 C 
BRANCH   7   8
ATOM      8  C2' N4B d   1      -1.479  -0.097  -0.282  0.00  0.00     0.009 C 
BRANCH   8   9
ATOM      9  C3' N4B d   1      -2.138   0.220  -1.613  0.00  0.00     0.004 C 
ATOM     10  C4' N4B d   1      -2.454  -1.008  -2.413  0.00  0.00     0.003 C 
ENDBRANCH   8   9
ENDBRANCH   7   8
ENDBRANCH   1   7
TORSDOF 3
ENDMDL
