MODEL 1
REMARK minimizedAffinity -5.41722107
REMARK minimizedRMSD -1
REMARK  3 active torsions:
REMARK  status: ('A' for Active; 'I' for Inactive)
REMARK    1  A    between atoms: C3'_2  and  C2'_3 
REMARK    2  A    between atoms: C2'_3  and  C1'_4 
REMARK    3  A    between atoms: C1'_4  and  C1_5 
ROOT
ATOM      1  C1  N4B d   1      -0.752   0.241  -0.266  0.00  0.00    -0.075 A 
ATOM      2  C2  N4B d   1      -0.410  -1.066   0.145  0.00  0.00     0.002 A 
ATOM      3  C3  N4B d   1       0.860  -1.334   0.596  0.00  0.00     0.002 A 
ATOM      4  C4  N4B d   1       1.805  -0.319   0.627  0.00  0.00    -0.004 A 
ATOM      5  C5  N4B d   1       1.459   0.946   0.252  0.00  0.00     0.002 A 
ATOM      6  C6  N4B d   1       0.186   1.230  -0.200  0.00  0.00     0.002 A 
ENDROOT
BRANCH   1   7
ATOM      7  C1' N4B d   1      -2.101   0.562  -0.848  0.00  0.00     0.057 C 
BRANCH   7   8
ATOM      8  C2' N4B d   1      -2.366  -0.357  -2.037  0.00  0.00     0.009 C 
BRANCH   8   9
ATOM      9  C3' N4B d   1      -3.647   0.013  -2.766  0.00  0.00     0.004 C 
ATOM     10  C4' N4B d   1      -3.402   0.474  -4.171  0.00  0.00     0.003 C 
ENDBRANCH   8   9
ENDBRANCH   7   8
ENDBRANCH   1   7
TORSDOF 3
ENDMDL
