MODEL 1
REMARK minimizedAffinity -4.83189631
REMARK minimizedRMSD -1
REMARK  3 active torsions:
REMARK  status: ('A' for Active; 'I' for Inactive)
REMARK    1  A    between atoms: C3'_2  and  C2'_3 
REMARK    2  A    between atoms: C2'_3  and  C1'_4 
REMARK    3  A    between atoms: C1'_4  and  C1_5 
ROOT
ATOM      1  C1  N4B d   1      -1.974  -0.037  -1.478  0.00  0.00    -0.075 A 
ATOM      2  C2  N4B d   1      -2.122   1.175  -2.187  0.00  0.00     0.002 A 
ATOM      3  C3  N4B d   1      -2.571   1.161  -3.485  0.00  0.00     0.002 A 
ATOM      4  C4  N4B d   1      -2.859  -0.049  -4.097  0.00  0.00    -0.004 A 
ATOM      5  C5  N4B d   1      -2.739  -1.213  -3.397  0.00  0.00     0.002 A 
ATOM      6  C6  N4B d   1      -2.292  -1.214  -2.091  0.00  0.00     0.002 A 
ENDROOT
BRANCH   1   7
ATOM      7  C1' N4B d   1      -1.405  -0.079  -0.086  0.00  0.00     0.057 C 
BRANCH   7   8
ATOM      8  C2' N4B d   1       0.117  -0.019  -0.165  0.00  0.00     0.009 C 
BRANCH   8   9
ATOM      9  C3' N4B d   1       0.657   1.330   0.277  0.00  0.00     0.004 C 
ATOM     10  C4' N4B d   1       2.089   1.267   0.719  0.00  0.00     0.003 C 
ENDBRANCH   8   9
ENDBRANCH   7   8
ENDBRANCH   1   7
TORSDOF 3
ENDMDL
