MODEL 1
REMARK minimizedAffinity -5.29411459
REMARK minimizedRMSD -1
REMARK  3 active torsions:
REMARK  status: ('A' for Active; 'I' for Inactive)
REMARK    1  A    between atoms: C3'_2  and  C2'_3 
REMARK    2  A    between atoms: C2'_3  and  C1'_4 
REMARK    3  A    between atoms: C1'_4  and  C1_5 
ROOT
ATOM      1  C1  N4B d   1       0.370  -0.375   0.662  0.00  0.00    -0.075 A 
ATOM      2  C2  N4B d   1       1.671   0.043   1.019  0.00  0.00     0.002 A 
ATOM      3  C3  N4B d   1       2.426  -0.721   1.874  0.00  0.00     0.002 A 
ATOM      4  C4  N4B d   1       1.898  -1.892   2.397  0.00  0.00    -0.004 A 
ATOM      5  C5  N4B d   1       0.651  -2.301   2.027  0.00  0.00     0.002 A 
ATOM      6  C6  N4B d   1      -0.119  -1.546   1.165  0.00  0.00     0.002 A 
ENDROOT
BRANCH   1   7
ATOM      7  C1' N4B d   1      -0.527   0.470  -0.202  0.00  0.00     0.057 C 
BRANCH   7   8
ATOM      8  C2' N4B d   1      -1.697  -0.379  -0.689  0.00  0.00     0.009 C 
BRANCH   8   9
ATOM      9  C3' N4B d   1      -2.503   0.329  -1.765  0.00  0.00     0.004 C 
ATOM     10  C4' N4B d   1      -3.182  -0.624  -2.703  0.00  0.00     0.003 C 
ENDBRANCH   8   9
ENDBRANCH   7   8
ENDBRANCH   1   7
TORSDOF 3
ENDMDL
