MODEL 1
REMARK minimizedAffinity -6.08332682
REMARK minimizedRMSD -1
REMARK  3 active torsions:
REMARK  status: ('A' for Active; 'I' for Inactive)
REMARK    1  A    between atoms: C3'_2  and  C2'_3 
REMARK    2  A    between atoms: C2'_3  and  C1'_4 
REMARK    3  A    between atoms: C1'_4  and  C1_5 
ROOT
ATOM      1  C1  N4B d   1       0.475  -0.970   0.368  0.00  0.00    -0.075 A 
ATOM      2  C2  N4B d   1       1.417   0.039   0.070  0.00  0.00     0.002 A 
ATOM      3  C3  N4B d   1       2.654   0.020   0.665  0.00  0.00     0.002 A 
ATOM      4  C4  N4B d   1       2.965  -0.983   1.570  0.00  0.00    -0.004 A 
ATOM      5  C5  N4B d   1       2.059  -1.969   1.833  0.00  0.00     0.002 A 
ATOM      6  C6  N4B d   1       0.812  -1.964   1.240  0.00  0.00     0.002 A 
ENDROOT
BRANCH   1   7
ATOM      7  C1' N4B d   1      -0.921  -0.944  -0.191  0.00  0.00     0.057 C 
BRANCH   7   8
ATOM      8  C2' N4B d   1      -1.234   0.464  -0.691  0.00  0.00     0.009 C 
BRANCH   8   9
ATOM      9  C3' N4B d   1      -2.460   0.490  -1.587  0.00  0.00     0.004 C 
ATOM     10  C4' N4B d   1      -2.454  -0.607  -2.611  0.00  0.00     0.003 C 
ENDBRANCH   8   9
ENDBRANCH   7   8
ENDBRANCH   1   7
TORSDOF 3
ENDMDL
