MODEL 1
REMARK minimizedAffinity 13.0089912
REMARK minimizedRMSD -1
REMARK  0 active torsions:
REMARK  status: ('A' for Active; 'I' for Inactive)
ROOT
ATOM      1  C1  DEN d   1       0.734   0.531   2.475  0.00  0.00     0.130 A 
ATOM      2  C2  DEN d   1       0.167   1.868   2.621  0.00  0.00    -0.031 A 
ATOM      3  C3  DEN d   1       0.832   2.755   1.645  0.00  0.00     0.027 A 
ATOM      4  C4  DEN d   1       2.672   2.188  -0.071  0.00  0.00     0.027 A 
ATOM      5  C5  DEN d   1       3.481   1.187  -0.560  0.00  0.00    -0.003 A 
ATOM      6  C6  DEN d   1       3.456  -0.085  -0.052  0.00  0.00     0.001 A 
ATOM      7  C7  DEN d   1       2.572  -0.401   0.945  0.00  0.00     0.017 A 
ATOM      8  C8  DEN d   1       1.758   0.606   1.448  0.00  0.00    -0.094 A 
ATOM      9  C9  DEN d   1       1.790   1.883   0.913  0.00  0.00    -0.072 A 
ENDROOT
TORSDOF 0
ENDMDL
