MODEL 1
REMARK minimizedAffinity 8.325243
REMARK minimizedRMSD -1
REMARK  0 active torsions:
REMARK  status: ('A' for Active; 'I' for Inactive)
ROOT
ATOM      1  C1  DEN d   1       2.639  -2.711  -1.965  0.00  0.00     0.130 A 
ATOM      2  C2  DEN d   1       3.009  -2.370  -3.336  0.00  0.00    -0.031 A 
ATOM      3  C3  DEN d   1       3.276  -0.919  -3.389  0.00  0.00     0.027 A 
ATOM      4  C4  DEN d   1       3.156   0.824  -1.492  0.00  0.00     0.027 A 
ATOM      5  C5  DEN d   1       2.875   1.012  -0.156  0.00  0.00    -0.003 A 
ATOM      6  C6  DEN d   1       2.466  -0.013   0.655  0.00  0.00     0.001 A 
ATOM      7  C7  DEN d   1       2.370  -1.282   0.149  0.00  0.00     0.017 A 
ATOM      8  C8  DEN d   1       2.645  -1.479  -1.198  0.00  0.00    -0.094 A 
ATOM      9  C9  DEN d   1       3.068  -0.432  -1.999  0.00  0.00    -0.072 A 
ENDROOT
TORSDOF 0
ENDMDL
