MODEL 1
REMARK minimizedAffinity 8.51164722
REMARK minimizedRMSD -1
REMARK  0 active torsions:
REMARK  status: ('A' for Active; 'I' for Inactive)
ROOT
ATOM      1  C1  DEN d   1       4.088   2.324  -1.756  0.00  0.00     0.130 A 
ATOM      2  C2  DEN d   1       5.139   2.772  -0.846  0.00  0.00    -0.031 A 
ATOM      3  C3  DEN d   1       4.905   2.141   0.468  0.00  0.00     0.027 A 
ATOM      4  C4  DEN d   1       3.029   0.519   1.178  0.00  0.00     0.027 A 
ATOM      5  C5  DEN d   1       1.898  -0.144   0.755  0.00  0.00    -0.003 A 
ATOM      6  C6  DEN d   1       1.403  -0.005  -0.514  0.00  0.00     0.001 A 
ATOM      7  C7  DEN d   1       2.066   0.781  -1.419  0.00  0.00     0.017 A 
ATOM      8  C8  DEN d   1       3.202   1.458  -0.998  0.00  0.00    -0.094 A 
ATOM      9  C9  DEN d   1       3.695   1.295   0.286  0.00  0.00    -0.072 A 
ENDROOT
TORSDOF 0
ENDMDL
