MODEL 1
REMARK minimizedAffinity 12.9301319
REMARK minimizedRMSD -1
REMARK  0 active torsions:
REMARK  status: ('A' for Active; 'I' for Inactive)
ROOT
ATOM      1  C1  DEN d   1       2.475   0.894   0.608  0.00  0.00     0.130 A 
ATOM      2  C2  DEN d   1       1.966  -0.291  -0.077  0.00  0.00    -0.031 A 
ATOM      3  C3  DEN d   1       2.570  -0.335  -1.424  0.00  0.00     0.027 A 
ATOM      4  C4  DEN d   1       4.239   1.306  -2.507  0.00  0.00     0.027 A 
ATOM      5  C5  DEN d   1       4.953   2.469  -2.319  0.00  0.00    -0.003 A 
ATOM      6  C6  DEN d   1       4.865   3.200  -1.164  0.00  0.00     0.001 A 
ATOM      7  C7  DEN d   1       4.080   2.752  -0.135  0.00  0.00     0.017 A 
ATOM      8  C8  DEN d   1       3.352   1.585  -0.320  0.00  0.00    -0.094 A 
ATOM      9  C9  DEN d   1       3.463   0.853  -1.490  0.00  0.00    -0.072 A 
ENDROOT
TORSDOF 0
ENDMDL
