MODEL 1
REMARK minimizedAffinity 13.1606913
REMARK minimizedRMSD -1
REMARK  0 active torsions:
REMARK  status: ('A' for Active; 'I' for Inactive)
ROOT
ATOM      1  C1  DEN d   1       0.512  -1.947  -2.214  0.00  0.00     0.130 A 
ATOM      2  C2  DEN d   1       0.087  -3.227  -1.653  0.00  0.00    -0.031 A 
ATOM      3  C3  DEN d   1       0.769  -3.407  -0.356  0.00  0.00     0.027 A 
ATOM      4  C4  DEN d   1       2.429  -1.833   0.836  0.00  0.00     0.027 A 
ATOM      5  C5  DEN d   1       3.104  -0.636   0.744  0.00  0.00    -0.003 A 
ATOM      6  C6  DEN d   1       2.989   0.185  -0.346  0.00  0.00     0.001 A 
ATOM      7  C7  DEN d   1       2.146  -0.158  -1.369  0.00  0.00     0.017 A 
ATOM      8  C8  DEN d   1       1.468  -1.367  -1.288  0.00  0.00    -0.094 A 
ATOM      9  C9  DEN d   1       1.588  -2.178  -0.172  0.00  0.00    -0.072 A 
ENDROOT
TORSDOF 0
ENDMDL
