MODEL 1
REMARK minimizedAffinity 16.4994316
REMARK minimizedRMSD -1
REMARK  0 active torsions:
REMARK  status: ('A' for Active; 'I' for Inactive)
ROOT
ATOM      1  C1  DEN d   1       1.703  -1.821  -1.152  0.00  0.00     0.130 A 
ATOM      2  C2  DEN d   1       1.920  -2.819  -0.108  0.00  0.00    -0.031 A 
ATOM      3  C3  DEN d   1       2.589  -2.154   1.028  0.00  0.00     0.027 A 
ATOM      4  C4  DEN d   1       3.302   0.313   1.272  0.00  0.00     0.027 A 
ATOM      5  C5  DEN d   1       3.339   1.538   0.644  0.00  0.00    -0.003 A 
ATOM      6  C6  DEN d   1       2.867   1.721  -0.629  0.00  0.00     0.001 A 
ATOM      7  C7  DEN d   1       2.297   0.670  -1.299  0.00  0.00     0.017 A 
ATOM      8  C8  DEN d   1       2.264  -0.570  -0.675  0.00  0.00    -0.094 A 
ATOM      9  C9  DEN d   1       2.734  -0.731   0.617  0.00  0.00    -0.072 A 
ENDROOT
TORSDOF 0
ENDMDL
