MODEL 1
REMARK minimizedAffinity 10.5017624
REMARK minimizedRMSD -1
REMARK  0 active torsions:
REMARK  status: ('A' for Active; 'I' for Inactive)
ROOT
ATOM      1  C1  DEN d   1       3.143   0.750   0.750  0.00  0.00     0.130 A 
ATOM      2  C2  DEN d   1       2.397  -0.102  -0.173  0.00  0.00    -0.031 A 
ATOM      3  C3  DEN d   1       2.995   0.047  -1.515  0.00  0.00     0.027 A 
ATOM      4  C4  DEN d   1       4.995   1.501  -2.249  0.00  0.00     0.027 A 
ATOM      5  C5  DEN d   1       5.942   2.406  -1.821  0.00  0.00    -0.003 A 
ATOM      6  C6  DEN d   1       6.000   2.844  -0.525  0.00  0.00     0.001 A 
ATOM      7  C7  DEN d   1       5.123   2.344   0.401  0.00  0.00     0.017 A 
ATOM      8  C8  DEN d   1       4.161   1.437  -0.024  0.00  0.00    -0.094 A 
ATOM      9  C9  DEN d   1       4.126   0.997  -1.336  0.00  0.00    -0.072 A 
ENDROOT
TORSDOF 0
ENDMDL
