MODEL 1
REMARK minimizedAffinity 11.541131
REMARK minimizedRMSD -1
REMARK  0 active torsions:
REMARK  status: ('A' for Active; 'I' for Inactive)
ROOT
ATOM      1  C1  DEN d   1       4.201   3.573   4.256  0.00  0.00     0.130 A 
ATOM      2  C2  DEN d   1       4.070   2.939   2.947  0.00  0.00    -0.031 A 
ATOM      3  C3  DEN d   1       2.835   3.446   2.315  0.00  0.00     0.027 A 
ATOM      4  C4  DEN d   1       1.124   5.145   3.230  0.00  0.00     0.027 A 
ATOM      5  C5  DEN d   1       0.802   5.947   4.303  0.00  0.00    -0.003 A 
ATOM      6  C6  DEN d   1       1.566   5.988   5.439  0.00  0.00     0.001 A 
ATOM      7  C7  DEN d   1       2.715   5.246   5.512  0.00  0.00     0.017 A 
ATOM      8  C8  DEN d   1       3.043   4.429   4.437  0.00  0.00    -0.094 A 
ATOM      9  C9  DEN d   1       2.264   4.411   3.293  0.00  0.00    -0.072 A 
ENDROOT
TORSDOF 0
ENDMDL
