MODEL 1
REMARK minimizedAffinity 5.6173501
REMARK minimizedRMSD -1
REMARK  0 active torsions:
REMARK  status: ('A' for Active; 'I' for Inactive)
ROOT
ATOM      1  C1  DEN d   1      -3.658   1.859   1.133  0.00  0.00     0.130 A 
ATOM      2  C2  DEN d   1      -5.080   1.544   1.023  0.00  0.00    -0.031 A 
ATOM      3  C3  DEN d   1      -5.277   0.741  -0.200  0.00  0.00     0.027 A 
ATOM      4  C4  DEN d   1      -3.527  -0.046  -1.924  0.00  0.00     0.027 A 
ATOM      5  C5  DEN d   1      -2.192  -0.015  -2.262  0.00  0.00    -0.003 A 
ATOM      6  C6  DEN d   1      -1.265   0.665  -1.517  0.00  0.00     0.001 A 
ATOM      7  C7  DEN d   1      -1.654   1.306  -0.370  0.00  0.00     0.017 A 
ATOM      8  C8  DEN d   1      -2.999   1.286  -0.027  0.00  0.00    -0.094 A 
ATOM      9  C9  DEN d   1      -3.919   0.582  -0.786  0.00  0.00    -0.072 A 
ENDROOT
TORSDOF 0
ENDMDL
