MODEL 1
REMARK minimizedAffinity -2.19549775
REMARK minimizedRMSD -1
REMARK  0 active torsions:
REMARK  status: ('A' for Active; 'I' for Inactive)
ROOT
ATOM      1  C1  BNZ d   1      -5.147   5.251   3.285  0.00  0.00     0.000 A 
ATOM      2  C2  BNZ d   1      -5.991   4.537   4.094  0.00  0.00     0.000 A 
ATOM      3  C3  BNZ d   1      -5.852   4.570   5.453  0.00  0.00     0.000 A 
ATOM      4  C4  BNZ d   1      -4.846   5.282   6.000  0.00  0.00     0.000 A 
ATOM      5  C5  BNZ d   1      -3.981   6.000   5.198  0.00  0.00     0.000 A 
ATOM      6  C6  BNZ d   1      -4.148   5.996   3.832  0.00  0.00     0.000 A 
ENDROOT
TORSDOF 0
ENDMDL
