MODEL 1
REMARK minimizedAffinity -3.16881299
REMARK minimizedRMSD -1
REMARK  0 active torsions:
REMARK  status: ('A' for Active; 'I' for Inactive)
ROOT
ATOM      1  C1  BNZ d   1      -3.316   5.998   3.961  0.00  0.00     0.000 A 
ATOM      2  C2  BNZ d   1      -4.192   5.871   2.916  0.00  0.00     0.000 A 
ATOM      3  C3  BNZ d   1      -5.535   5.755   3.138  0.00  0.00     0.000 A 
ATOM      4  C4  BNZ d   1      -5.997   5.726   4.405  0.00  0.00     0.000 A 
ATOM      5  C5  BNZ d   1      -5.127   5.844   5.470  0.00  0.00     0.000 A 
ATOM      6  C6  BNZ d   1      -3.779   5.999   5.241  0.00  0.00     0.000 A 
ENDROOT
TORSDOF 0
ENDMDL
