MODEL 1
REMARK minimizedAffinity -3.22342205
REMARK minimizedRMSD -1
REMARK  0 active torsions:
REMARK  status: ('A' for Active; 'I' for Inactive)
ROOT
ATOM      1  C1  BNZ d   1      -2.814   5.996   2.390  0.00  0.00     0.000 A 
ATOM      2  C2  BNZ d   1      -2.638   6.000   3.748  0.00  0.00     0.000 A 
ATOM      3  C3  BNZ d   1      -3.711   5.973   4.593  0.00  0.00     0.000 A 
ATOM      4  C4  BNZ d   1      -4.959   5.982   4.080  0.00  0.00     0.000 A 
ATOM      5  C5  BNZ d   1      -5.153   5.988   2.714  0.00  0.00     0.000 A 
ATOM      6  C6  BNZ d   1      -4.070   5.975   1.866  0.00  0.00     0.000 A 
ENDROOT
TORSDOF 0
ENDMDL
