MODEL 1
REMARK minimizedAffinity 2.09226537
REMARK minimizedRMSD -1
REMARK  0 active torsions:
REMARK  status: ('A' for Active; 'I' for Inactive)
ROOT
ATOM      1  C1  BNZ d   1      -3.959   5.370   3.738  0.00  0.00     0.000 A 
ATOM      2  C2  BNZ d   1      -5.217   4.829   3.747  0.00  0.00     0.000 A 
ATOM      3  C3  BNZ d   1      -5.997   4.891   4.868  0.00  0.00     0.000 A 
ATOM      4  C4  BNZ d   1      -5.504   5.456   5.989  0.00  0.00     0.000 A 
ATOM      5  C5  BNZ d   1      -4.234   5.997   5.998  0.00  0.00     0.000 A 
ATOM      6  C6  BNZ d   1      -3.466   5.968   4.857  0.00  0.00     0.000 A 
ENDROOT
TORSDOF 0
ENDMDL
