MODEL 1
REMARK minimizedAffinity -2.58593106
REMARK minimizedRMSD -1
REMARK  0 active torsions:
REMARK  status: ('A' for Active; 'I' for Inactive)
ROOT
ATOM      1  C1  BNZ d   1      -3.807   5.981   2.044  0.00  0.00     0.000 A 
ATOM      2  C2  BNZ d   1      -5.172   5.975   1.931  0.00  0.00     0.000 A 
ATOM      3  C3  BNZ d   1      -5.966   5.998   3.043  0.00  0.00     0.000 A 
ATOM      4  C4  BNZ d   1      -5.396   5.988   4.266  0.00  0.00     0.000 A 
ATOM      5  C5  BNZ d   1      -4.022   5.984   4.396  0.00  0.00     0.000 A 
ATOM      6  C6  BNZ d   1      -3.225   6.000   3.274  0.00  0.00     0.000 A 
ENDROOT
TORSDOF 0
ENDMDL
