MODEL 1
REMARK minimizedAffinity -1.22475898
REMARK minimizedRMSD -1
REMARK  0 active torsions:
REMARK  status: ('A' for Active; 'I' for Inactive)
ROOT
ATOM      1  C1  BNZ d   1      -3.890   5.895   4.784  0.00  0.00     0.000 A 
ATOM      2  C2  BNZ d   1      -3.296   5.997   3.554  0.00  0.00     0.000 A 
ATOM      3  C3  BNZ d   1      -4.048   5.999   2.413  0.00  0.00     0.000 A 
ATOM      4  C4  BNZ d   1      -5.386   5.858   2.500  0.00  0.00     0.000 A 
ATOM      5  C5  BNZ d   1      -5.999   5.745   3.732  0.00  0.00     0.000 A 
ATOM      6  C6  BNZ d   1      -5.242   5.783   4.881  0.00  0.00     0.000 A 
ENDROOT
TORSDOF 0
ENDMDL
