MODEL 1
REMARK minimizedAffinity -1.66243672
REMARK minimizedRMSD -1
REMARK  0 active torsions:
REMARK  status: ('A' for Active; 'I' for Inactive)
ROOT
ATOM      1  C1  BNZ d   1      -4.834   5.954   2.142  0.00  0.00     0.000 A 
ATOM      2  C2  BNZ d   1      -5.986   5.935   2.883  0.00  0.00     0.000 A 
ATOM      3  C3  BNZ d   1      -5.941   5.971   4.248  0.00  0.00     0.000 A 
ATOM      4  C4  BNZ d   1      -4.745   5.987   4.872  0.00  0.00     0.000 A 
ATOM      5  C5  BNZ d   1      -3.575   5.997   4.139  0.00  0.00     0.000 A 
ATOM      6  C6  BNZ d   1      -3.625   6.000   2.764  0.00  0.00     0.000 A 
ENDROOT
TORSDOF 0
ENDMDL
