MODEL 1
REMARK minimizedAffinity -3.25610781
REMARK minimizedRMSD -1
REMARK  0 active torsions:
REMARK  status: ('A' for Active; 'I' for Inactive)
ROOT
ATOM      1  C1  BNZ d   1      -5.088   5.632   2.423  0.00  0.00     0.000 A 
ATOM      2  C2  BNZ d   1      -5.918   5.298   3.459  0.00  0.00     0.000 A 
ATOM      3  C3  BNZ d   1      -5.474   5.337   4.752  0.00  0.00     0.000 A 
ATOM      4  C4  BNZ d   1      -4.192   5.669   5.003  0.00  0.00     0.000 A 
ATOM      5  C5  BNZ d   1      -3.340   6.000   3.968  0.00  0.00     0.000 A 
ATOM      6  C6  BNZ d   1      -3.800   5.998   2.671  0.00  0.00     0.000 A 
ENDROOT
TORSDOF 0
ENDMDL
