MODEL 1
REMARK minimizedAffinity -1.54162991
REMARK minimizedRMSD -1
REMARK  0 active torsions:
REMARK  status: ('A' for Active; 'I' for Inactive)
ROOT
ATOM      1  C1  BNZ d   1      -4.548   5.811   1.422  0.00  0.00     0.000 A 
ATOM      2  C2  BNZ d   1      -3.481   5.955   2.267  0.00  0.00     0.000 A 
ATOM      3  C3  BNZ d   1      -3.662   6.000   3.621  0.00  0.00     0.000 A 
ATOM      4  C4  BNZ d   1      -4.911   5.942   4.126  0.00  0.00     0.000 A 
ATOM      5  C5  BNZ d   1      -5.998   5.807   3.285  0.00  0.00     0.000 A 
ATOM      6  C6  BNZ d   1      -5.809   5.723   1.925  0.00  0.00     0.000 A 
ENDROOT
TORSDOF 0
ENDMDL
