MODEL 1
REMARK minimizedAffinity -2.98009324
REMARK minimizedRMSD -1
REMARK  0 active torsions:
REMARK  status: ('A' for Active; 'I' for Inactive)
ROOT
ATOM      1  C1  BNZ d   1      -5.967   5.225   3.024  0.00  0.00     0.000 A 
ATOM      2  C2  BNZ d   1      -4.831   5.625   2.373  0.00  0.00     0.000 A 
ATOM      3  C3  BNZ d   1      -3.716   5.993   3.072  0.00  0.00     0.000 A 
ATOM      4  C4  BNZ d   1      -3.750   5.998   4.421  0.00  0.00     0.000 A 
ATOM      5  C5  BNZ d   1      -4.891   5.606   5.092  0.00  0.00     0.000 A 
ATOM      6  C6  BNZ d   1      -5.999   5.199   4.385  0.00  0.00     0.000 A 
ENDROOT
TORSDOF 0
ENDMDL
