MODEL 1
REMARK minimizedAffinity -2.32544303
REMARK minimizedRMSD -1
REMARK  0 active torsions:
REMARK  status: ('A' for Active; 'I' for Inactive)
ROOT
ATOM      1  C1  BNZ d   1      -3.129   5.986   4.977  0.00  0.00     0.000 A 
ATOM      2  C2  BNZ d   1      -4.244   5.925   5.769  0.00  0.00     0.000 A 
ATOM      3  C3  BNZ d   1      -5.493   5.867   5.217  0.00  0.00     0.000 A 
ATOM      4  C4  BNZ d   1      -5.627   5.911   3.875  0.00  0.00     0.000 A 
ATOM      5  C5  BNZ d   1      -4.513   5.981   3.063  0.00  0.00     0.000 A 
ATOM      6  C6  BNZ d   1      -3.255   6.000   3.622  0.00  0.00     0.000 A 
ENDROOT
TORSDOF 0
ENDMDL
