MODEL 1
REMARK minimizedAffinity 5.79889584
REMARK minimizedRMSD -1
REMARK  2 active torsions:
REMARK  status: ('A' for Active; 'I' for Inactive)
REMARK    1  A    between atoms: C2'_3  and  C1'_4 
REMARK    2  A    between atoms: C1'_4  and  C1_5 
ROOT
ATOM      1  C1  I4B d   1       5.073   3.279  -0.928  0.00  0.00    -0.075 A 
ATOM      2  C2  I4B d   1       5.143   3.420   0.435  0.00  0.00     0.003 A 
ATOM      3  C3  I4B d   1       5.555   4.649   1.005  0.00  0.00     0.002 A 
ATOM      4  C4  I4B d   1       5.934   5.688   0.179  0.00  0.00    -0.004 A 
ATOM      5  C5  I4B d   1       5.842   5.550  -1.203  0.00  0.00     0.002 A 
ATOM      6  C6  I4B d   1       5.397   4.343  -1.760  0.00  0.00     0.003 A 
ENDROOT
BRANCH   1   7
ATOM      7  C1' I4B d   1       4.666   1.957  -1.496  0.00  0.00     0.060 C 
BRANCH   7   8
ATOM      8  C2' I4B d   1       4.454   0.998  -0.342  0.00  0.00    -0.013 C 
ATOM      9  C4' I4B d   1       3.258   0.114  -0.581  0.00  0.00     0.013 C 
ATOM     10  C3' I4B d   1       5.704   0.187  -0.178  0.00  0.00     0.013 C 
ENDBRANCH   7   8
ENDBRANCH   1   7
TORSDOF 2
ENDMDL
