MODEL 1
REMARK minimizedAffinity 7.24538851
REMARK minimizedRMSD -1
REMARK  2 active torsions:
REMARK  status: ('A' for Active; 'I' for Inactive)
REMARK    1  A    between atoms: C2'_3  and  C1'_4 
REMARK    2  A    between atoms: C1'_4  and  C1_5 
ROOT
ATOM      1  C1  I4B d   1       1.618  -2.655  -1.385  0.00  0.00    -0.075 A 
ATOM      2  C2  I4B d   1       2.218  -3.183  -0.269  0.00  0.00     0.003 A 
ATOM      3  C3  I4B d   1       3.186  -2.432   0.442  0.00  0.00     0.002 A 
ATOM      4  C4  I4B d   1       3.558  -1.188  -0.025  0.00  0.00    -0.004 A 
ATOM      5  C5  I4B d   1       2.932  -0.646  -1.143  0.00  0.00     0.002 A 
ATOM      6  C6  I4B d   1       1.947  -1.378  -1.821  0.00  0.00     0.003 A 
ENDROOT
BRANCH   1   7
ATOM      7  C1' I4B d   1       0.624  -3.488  -2.130  0.00  0.00     0.060 C 
BRANCH   7   8
ATOM      8  C2' I4B d   1      -0.279  -4.158  -1.114  0.00  0.00    -0.013 C 
ATOM      9  C4' I4B d   1      -1.723  -4.082  -1.534  0.00  0.00     0.013 C 
ATOM     10  C3' I4B d   1       0.167  -5.582  -0.965  0.00  0.00     0.013 C 
ENDBRANCH   7   8
ENDBRANCH   1   7
TORSDOF 2
ENDMDL
