MODEL 1
REMARK minimizedAffinity 8.65026474
REMARK minimizedRMSD -1
REMARK  2 active torsions:
REMARK  status: ('A' for Active; 'I' for Inactive)
REMARK    1  A    between atoms: C2'_3  and  C1'_4 
REMARK    2  A    between atoms: C1'_4  and  C1_5 
ROOT
ATOM      1  C1  I4B d   1       2.063   0.399  -0.131  0.00  0.00    -0.075 A 
ATOM      2  C2  I4B d   1       2.040   0.460   1.240  0.00  0.00     0.003 A 
ATOM      3  C3  I4B d   1       0.866   0.872   1.916  0.00  0.00     0.002 A 
ATOM      4  C4  I4B d   1      -0.238   1.260   1.185  0.00  0.00    -0.004 A 
ATOM      5  C5  I4B d   1      -0.221   1.176  -0.204  0.00  0.00     0.002 A 
ATOM      6  C6  I4B d   1       0.933   0.731  -0.866  0.00  0.00     0.003 A 
ENDROOT
BRANCH   1   7
ATOM      7  C1' I4B d   1       3.330  -0.009  -0.813  0.00  0.00     0.060 C 
BRANCH   7   8
ATOM      8  C2' I4B d   1       4.455   0.840  -0.255  0.00  0.00    -0.013 C 
ATOM      9  C4' I4B d   1       5.468  -0.006   0.470  0.00  0.00     0.013 C 
ATOM     10  C3' I4B d   1       5.086   1.581  -1.396  0.00  0.00     0.013 C 
ENDBRANCH   7   8
ENDBRANCH   1   7
TORSDOF 2
ENDMDL
