MODEL 1
REMARK minimizedAffinity -3.51277399
REMARK minimizedRMSD -1
REMARK  2 active torsions:
REMARK  status: ('A' for Active; 'I' for Inactive)
REMARK    1  A    between atoms: C1_2  and  C2_3 
REMARK    2  A    between atoms: C2_3  and  C3_4 
ROOT
ATOM      1  C3  UNL d   1      -0.927   0.101   0.146  0.00  0.00    -0.075 A 
ATOM      2  C4  UNL d   1       0.012   0.738   0.970  0.00  0.00     0.002 A 
ATOM      3  C5  UNL d   1      -0.205   0.840   2.344  0.00  0.00     0.002 A 
ATOM      4  C6  UNL d   1      -1.366   0.318   2.909  0.00  0.00    -0.004 A 
ATOM      5  C7  UNL d   1      -2.314  -0.302   2.098  0.00  0.00     0.002 A 
ATOM      6  C8  UNL d   1      -2.097  -0.409   0.723  0.00  0.00     0.002 A 
ENDROOT
BRANCH   1   7
ATOM      7  C2  UNL d   1      -0.684  -0.039  -1.338  0.00  0.00     0.056 C 
BRANCH   7   8
ATOM      8  C1  UNL d   1       0.798  -0.115  -1.723  0.00  0.00     0.007 C 
ATOM      9  C   UNL d   1       1.049   0.153  -3.200  0.00  0.00     0.009 C 
ENDBRANCH   7   8
ENDBRANCH   1   7
TORSDOF 2
ENDMDL
