MODEL 1
REMARK minimizedAffinity -5.3797369
REMARK minimizedRMSD -1
REMARK  2 active torsions:
REMARK  status: ('A' for Active; 'I' for Inactive)
REMARK    1  A    between atoms: C1_2  and  C2_3 
REMARK    2  A    between atoms: C2_3  and  C3_4 
ROOT
ATOM      1  C3  UNL d   1      -0.707   0.175   0.176  0.00  0.00    -0.075 A 
ATOM      2  C4  UNL d   1      -1.895   0.333   0.905  0.00  0.00     0.002 A 
ATOM      3  C5  UNL d   1      -1.859   0.763   2.232  0.00  0.00     0.002 A 
ATOM      4  C6  UNL d   1      -0.639   1.030   2.849  0.00  0.00    -0.004 A 
ATOM      5  C7  UNL d   1       0.548   0.860   2.139  0.00  0.00     0.002 A 
ATOM      6  C8  UNL d   1       0.515   0.435   0.810  0.00  0.00     0.002 A 
ENDROOT
BRANCH   1   7
ATOM      7  C2  UNL d   1      -0.740  -0.261  -1.269  0.00  0.00     0.056 C 
BRANCH   7   8
ATOM      8  C1  UNL d   1       0.645  -0.427  -1.902  0.00  0.00     0.007 C 
ATOM      9  C   UNL d   1       0.665  -0.114  -3.393  0.00  0.00     0.009 C 
ENDBRANCH   7   8
ENDBRANCH   1   7
TORSDOF 2
ENDMDL
