MODEL 1
REMARK minimizedAffinity -4.65782022
REMARK minimizedRMSD -1
REMARK  2 active torsions:
REMARK  status: ('A' for Active; 'I' for Inactive)
REMARK    1  A    between atoms: C1_2  and  C2_3 
REMARK    2  A    between atoms: C2_3  and  C3_4 
ROOT
ATOM      1  C3  UNL d   1       0.906  -0.713  -1.314  0.00  0.00    -0.075 A 
ATOM      2  C4  UNL d   1       0.110   0.095  -0.489  0.00  0.00     0.002 A 
ATOM      3  C5  UNL d   1       0.420   0.250   0.863  0.00  0.00     0.002 A 
ATOM      4  C6  UNL d   1       1.521  -0.407   1.408  0.00  0.00    -0.004 A 
ATOM      5  C7  UNL d   1       2.309  -1.225   0.601  0.00  0.00     0.002 A 
ATOM      6  C8  UNL d   1       2.004  -1.379  -0.752  0.00  0.00     0.002 A 
ENDROOT
BRANCH   1   7
ATOM      7  C2  UNL d   1       0.593  -0.861  -2.783  0.00  0.00     0.056 C 
BRANCH   7   8
ATOM      8  C1  UNL d   1       0.800   0.420  -3.598  0.00  0.00     0.007 C 
ATOM      9  C   UNL d   1       2.207   0.990  -3.474  0.00  0.00     0.009 C 
ENDBRANCH   7   8
ENDBRANCH   1   7
TORSDOF 2
ENDMDL
