MODEL 1
REMARK minimizedAffinity -3.06134391
REMARK minimizedRMSD -1
REMARK  2 active torsions:
REMARK  status: ('A' for Active; 'I' for Inactive)
REMARK    1  A    between atoms: C1_2  and  C2_3 
REMARK    2  A    between atoms: C2_3  and  C3_4 
ROOT
ATOM      1  C3  UNL d   1      -0.561   0.392   0.325  0.00  0.00    -0.075 A 
ATOM      2  C4  UNL d   1       0.621  -0.120  -0.230  0.00  0.00     0.002 A 
ATOM      3  C5  UNL d   1       0.573  -1.139  -1.183  0.00  0.00     0.002 A 
ATOM      4  C6  UNL d   1      -0.653  -1.664  -1.584  0.00  0.00    -0.004 A 
ATOM      5  C7  UNL d   1      -1.833  -1.174  -1.027  0.00  0.00     0.002 A 
ATOM      6  C8  UNL d   1      -1.788  -0.152  -0.077  0.00  0.00     0.002 A 
ENDROOT
BRANCH   1   7
ATOM      7  C2  UNL d   1      -0.518   1.514   1.334  0.00  0.00     0.056 C 
BRANCH   7   8
ATOM      8  C1  UNL d   1      -0.808   1.071   2.772  0.00  0.00     0.007 C 
ATOM      9  C   UNL d   1      -1.892   0.006   2.865  0.00  0.00     0.009 C 
ENDBRANCH   7   8
ENDBRANCH   1   7
TORSDOF 2
ENDMDL
