MODEL 1
REMARK minimizedAffinity -4.16665745
REMARK minimizedRMSD -1
REMARK  2 active torsions:
REMARK  status: ('A' for Active; 'I' for Inactive)
REMARK    1  A    between atoms: C1_2  and  C2_3 
REMARK    2  A    between atoms: C2_3  and  C3_4 
ROOT
ATOM      1  C3  UNL d   1      -0.720   0.323   0.709  0.00  0.00    -0.075 A 
ATOM      2  C4  UNL d   1       0.169   1.374   0.978  0.00  0.00     0.002 A 
ATOM      3  C5  UNL d   1       0.140   2.029   2.209  0.00  0.00     0.002 A 
ATOM      4  C6  UNL d   1      -0.781   1.649   3.182  0.00  0.00    -0.004 A 
ATOM      5  C7  UNL d   1      -1.680   0.617   2.921  0.00  0.00     0.002 A 
ATOM      6  C8  UNL d   1      -1.651  -0.043   1.691  0.00  0.00     0.002 A 
ENDROOT
BRANCH   1   7
ATOM      7  C2  UNL d   1      -0.675  -0.409  -0.611  0.00  0.00     0.056 C 
BRANCH   7   8
ATOM      8  C1  UNL d   1       0.741  -0.742  -1.091  0.00  0.00     0.007 C 
ATOM      9  C   UNL d   1       0.928  -0.550  -2.590  0.00  0.00     0.009 C 
ENDBRANCH   7   8
ENDBRANCH   1   7
TORSDOF 2
ENDMDL
