MODEL 1
REMARK minimizedAffinity -4.96269798
REMARK minimizedRMSD -1
REMARK  2 active torsions:
REMARK  status: ('A' for Active; 'I' for Inactive)
REMARK    1  A    between atoms: C1_2  and  C2_3 
REMARK    2  A    between atoms: C2_3  and  C3_4 
ROOT
ATOM      1  C3  UNL d   1       0.076  -0.065  -0.227  0.00  0.00    -0.075 A 
ATOM      2  C4  UNL d   1       0.885   0.381   0.828  0.00  0.00     0.002 A 
ATOM      3  C5  UNL d   1       0.311   0.852   2.010  0.00  0.00     0.002 A 
ATOM      4  C6  UNL d   1      -1.075   0.893   2.147  0.00  0.00    -0.004 A 
ATOM      5  C7  UNL d   1      -1.888   0.468   1.098  0.00  0.00     0.002 A 
ATOM      6  C8  UNL d   1      -1.316  -0.008  -0.083  0.00  0.00     0.002 A 
ENDROOT
BRANCH   1   7
ATOM      7  C2  UNL d   1       0.691  -0.604  -1.497  0.00  0.00     0.056 C 
BRANCH   7   8
ATOM      8  C1  UNL d   1       1.104   0.480  -2.499  0.00  0.00     0.007 C 
ATOM      9  C   UNL d   1       1.045   0.012  -3.947  0.00  0.00     0.009 C 
ENDBRANCH   7   8
ENDBRANCH   1   7
TORSDOF 2
ENDMDL
