MODEL 1
REMARK minimizedAffinity -1.67904937
REMARK minimizedRMSD -1
REMARK  0 active torsions:
REMARK  status: ('A' for Active; 'I' for Inactive)
ROOT
ATOM      1  C   UNL d   1       0.558  -0.970   0.531  0.00  0.00     0.020 A 
ATOM      2  C1  UNL d   1      -0.011  -2.241   0.461  0.00  0.00     0.020 A 
ATOM      3  C2  UNL d   1       0.800  -3.358   0.245  0.00  0.00     0.034 A 
ATOM      4  C3  UNL d   1       2.184  -3.205   0.099  0.00  0.00     0.017 A 
ATOM      5  C4  UNL d   1       2.753  -1.929   0.170  0.00  0.00     0.017 A 
ATOM      6  C5  UNL d   1       1.937  -0.814   0.386  0.00  0.00     0.034 A 
ATOM      7 Cl   UNL d   1       4.452  -1.661  -0.001  0.00  0.00    -0.070 Cl
ATOM      8 Cl1  UNL d   1       3.126  -4.630  -0.165  0.00  0.00    -0.070 Cl
ENDROOT
TORSDOF 0
ENDMDL
