MODEL 1
REMARK minimizedAffinity 7.38350868
REMARK minimizedRMSD -1
REMARK  0 active torsions:
REMARK  status: ('A' for Active; 'I' for Inactive)
ROOT
ATOM      1  C   UNL d   1       4.630   5.263  -1.062  0.00  0.00     0.020 A 
ATOM      2  C1  UNL d   1       5.749   5.780  -0.411  0.00  0.00     0.020 A 
ATOM      3  C2  UNL d   1       5.715   6.000   0.968  0.00  0.00     0.034 A 
ATOM      4  C3  UNL d   1       4.559   5.703   1.699  0.00  0.00     0.017 A 
ATOM      5  C4  UNL d   1       3.436   5.184   1.044  0.00  0.00     0.017 A 
ATOM      6  C5  UNL d   1       3.476   4.966  -0.336  0.00  0.00     0.034 A 
ATOM      7 Cl   UNL d   1       1.974   4.794   1.879  0.00  0.00    -0.070 Cl
ATOM      8 Cl1  UNL d   1       4.587   6.000   3.401  0.00  0.00    -0.070 Cl
ENDROOT
TORSDOF 0
ENDMDL
