MODEL 1
REMARK minimizedAffinity 3.84823918
REMARK minimizedRMSD -1
REMARK  0 active torsions:
REMARK  status: ('A' for Active; 'I' for Inactive)
ROOT
ATOM      1  C   UNL d   1      -0.749  -0.964   0.194  0.00  0.00     0.020 A 
ATOM      2  C1  UNL d   1       0.402  -1.133  -0.575  0.00  0.00     0.020 A 
ATOM      3  C2  UNL d   1       1.660  -1.073   0.029  0.00  0.00     0.034 A 
ATOM      4  C3  UNL d   1       1.770  -0.842   1.405  0.00  0.00     0.017 A 
ATOM      5  C4  UNL d   1       0.614  -0.672   2.176  0.00  0.00     0.017 A 
ATOM      6  C5  UNL d   1      -0.643  -0.734   1.567  0.00  0.00     0.034 A 
ATOM      7 Cl   UNL d   1       0.670  -0.384   3.879  0.00  0.00    -0.070 Cl
ATOM      8 Cl1  UNL d   1       3.357  -0.780   2.085  0.00  0.00    -0.070 Cl
ENDROOT
TORSDOF 0
ENDMDL
