MODEL 1
REMARK minimizedAffinity 0.640227735
REMARK minimizedRMSD -1
REMARK  0 active torsions:
REMARK  status: ('A' for Active; 'I' for Inactive)
ROOT
ATOM      1  C   UNL d   1      -0.304  -1.082   1.284  0.00  0.00     0.020 A 
ATOM      2  C1  UNL d   1       0.083  -2.017   0.324  0.00  0.00     0.020 A 
ATOM      3  C2  UNL d   1       1.424  -2.116  -0.052  0.00  0.00     0.034 A 
ATOM      4  C3  UNL d   1       2.383  -1.280   0.531  0.00  0.00     0.017 A 
ATOM      5  C4  UNL d   1       1.993  -0.342   1.494  0.00  0.00     0.017 A 
ATOM      6  C5  UNL d   1       0.649  -0.247   1.867  0.00  0.00     0.034 A 
ATOM      7 Cl   UNL d   1       3.119   0.724   2.258  0.00  0.00    -0.070 Cl
ATOM      8 Cl1  UNL d   1       4.023  -1.458   0.018  0.00  0.00    -0.070 Cl
ENDROOT
TORSDOF 0
ENDMDL
