MODEL 1
REMARK minimizedAffinity 1.38148892
REMARK minimizedRMSD -1
REMARK  0 active torsions:
REMARK  status: ('A' for Active; 'I' for Inactive)
ROOT
ATOM      1  C   UNL d   1       2.778  -3.690  -0.144  0.00  0.00     0.020 A 
ATOM      2  C1  UNL d   1       1.556  -4.119  -0.660  0.00  0.00     0.020 A 
ATOM      3  C2  UNL d   1       0.400  -3.370  -0.430  0.00  0.00     0.034 A 
ATOM      4  C3  UNL d   1       0.464  -2.188   0.318  0.00  0.00     0.017 A 
ATOM      5  C4  UNL d   1       1.691  -1.759   0.835  0.00  0.00     0.017 A 
ATOM      6  C5  UNL d   1       2.846  -2.513   0.602  0.00  0.00     0.034 A 
ATOM      7 Cl   UNL d   1       1.849  -0.312   1.767  0.00  0.00    -0.070 Cl
ATOM      8 Cl1  UNL d   1      -1.005  -1.312   0.562  0.00  0.00    -0.070 Cl
ENDROOT
TORSDOF 0
ENDMDL
