MODEL 1
REMARK minimizedAffinity 1.14496672
REMARK minimizedRMSD -1
REMARK  0 active torsions:
REMARK  status: ('A' for Active; 'I' for Inactive)
ROOT
ATOM      1  C   UNL d   1      -0.799  -1.069   0.875  0.00  0.00     0.020 A 
ATOM      2  C1  UNL d   1       0.130  -0.108   1.271  0.00  0.00     0.020 A 
ATOM      3  C2  UNL d   1       1.486  -0.290   0.992  0.00  0.00     0.034 A 
ATOM      4  C3  UNL d   1       1.917  -1.437   0.315  0.00  0.00     0.017 A 
ATOM      5  C4  UNL d   1       0.984  -2.401  -0.083  0.00  0.00     0.017 A 
ATOM      6  C5  UNL d   1      -0.372  -2.213   0.199  0.00  0.00     0.034 A 
ATOM      7 Cl   UNL d   1       1.440  -3.841  -0.923  0.00  0.00    -0.070 Cl
ATOM      8 Cl1  UNL d   1       3.609  -1.597   0.002  0.00  0.00    -0.070 Cl
ENDROOT
TORSDOF 0
ENDMDL
