MODEL 1
REMARK minimizedAffinity 0.190382823
REMARK minimizedRMSD -1
REMARK  0 active torsions:
REMARK  status: ('A' for Active; 'I' for Inactive)
ROOT
ATOM      1  C   UNL d   1       4.999   5.269   2.064  0.00  0.00     0.020 A 
ATOM      2  C1  UNL d   1       3.622   5.418   2.227  0.00  0.00     0.020 A 
ATOM      3  C2  UNL d   1       2.806   5.622   1.113  0.00  0.00     0.034 A 
ATOM      4  C3  UNL d   1       3.365   5.678  -0.169  0.00  0.00     0.017 A 
ATOM      5  C4  UNL d   1       4.747   5.528  -0.331  0.00  0.00     0.017 A 
ATOM      6  C5  UNL d   1       5.560   5.323   0.788  0.00  0.00     0.034 A 
ATOM      7 Cl   UNL d   1       5.509   5.584  -1.881  0.00  0.00    -0.070 Cl
ATOM      8 Cl1  UNL d   1       2.295   5.933  -1.501  0.00  0.00    -0.070 Cl
ENDROOT
TORSDOF 0
ENDMDL
