MODEL 1
REMARK minimizedAffinity 0.195089668
REMARK minimizedRMSD -1
REMARK  0 active torsions:
REMARK  status: ('A' for Active; 'I' for Inactive)
ROOT
ATOM      1  C   UNL d   1      -0.089  -3.069  -0.060  0.00  0.00     0.020 A 
ATOM      2  C1  UNL d   1      -0.700  -1.908   0.411  0.00  0.00     0.020 A 
ATOM      3  C2  UNL d   1       0.079  -0.812   0.788  0.00  0.00     0.034 A 
ATOM      4  C3  UNL d   1       1.474  -0.875   0.695  0.00  0.00     0.017 A 
ATOM      5  C4  UNL d   1       2.087  -2.042   0.222  0.00  0.00     0.017 A 
ATOM      6  C5  UNL d   1       1.302  -3.136  -0.154  0.00  0.00     0.034 A 
ATOM      7 Cl   UNL d   1       3.803  -2.194   0.079  0.00  0.00    -0.070 Cl
ATOM      8 Cl1  UNL d   1       2.375   0.517   1.178  0.00  0.00    -0.070 Cl
ENDROOT
TORSDOF 0
ENDMDL
