MODEL 1
REMARK minimizedAffinity 1.43575573
REMARK minimizedRMSD -1
REMARK  0 active torsions:
REMARK  status: ('A' for Active; 'I' for Inactive)
ROOT
ATOM      1  C   UNL d   1       1.350  -0.666   1.248  0.00  0.00     0.020 A 
ATOM      2  C1  UNL d   1       0.068  -0.826   0.724  0.00  0.00     0.020 A 
ATOM      3  C2  UNL d   1      -0.260  -1.990   0.025  0.00  0.00     0.034 A 
ATOM      4  C3  UNL d   1       0.695  -2.998  -0.152  0.00  0.00     0.017 A 
ATOM      5  C4  UNL d   1       1.981  -2.836   0.375  0.00  0.00     0.017 A 
ATOM      6  C5  UNL d   1       2.305  -1.669   1.074  0.00  0.00     0.034 A 
ATOM      7 Cl   UNL d   1       3.213  -4.036   0.198  0.00  0.00    -0.070 Cl
ATOM      8 Cl1  UNL d   1       0.220  -4.410  -1.026  0.00  0.00    -0.070 Cl
ENDROOT
TORSDOF 0
ENDMDL
