MODEL 1
REMARK minimizedAffinity -2.27000785
REMARK minimizedRMSD -1
REMARK  0 active torsions:
REMARK  status: ('A' for Active; 'I' for Inactive)
ROOT
ATOM      1  C   UNL d   1      -0.362  -2.678   0.858  0.00  0.00     0.020 A 
ATOM      2  C1  UNL d   1       0.331  -3.461  -0.064  0.00  0.00     0.020 A 
ATOM      3  C2  UNL d   1       1.624  -3.104  -0.452  0.00  0.00     0.034 A 
ATOM      4  C3  UNL d   1       2.229  -1.960   0.083  0.00  0.00     0.017 A 
ATOM      5  C4  UNL d   1       1.533  -1.174   1.009  0.00  0.00     0.017 A 
ATOM      6  C5  UNL d   1       0.238  -1.537   1.394  0.00  0.00     0.034 A 
ATOM      7 Cl   UNL d   1       2.212   0.250   1.712  0.00  0.00    -0.070 Cl
ATOM      8 Cl1  UNL d   1       3.830  -1.578  -0.441  0.00  0.00    -0.070 Cl
ENDROOT
TORSDOF 0
ENDMDL
