MODEL 1
REMARK minimizedAffinity -2.49968982
REMARK minimizedRMSD -1
REMARK  0 active torsions:
REMARK  status: ('A' for Active; 'I' for Inactive)
ROOT
ATOM      1  C   UNL d   1       1.633  -4.662  -0.168  0.00  0.00     0.020 A 
ATOM      2  C1  UNL d   1       2.899  -4.084  -0.084  0.00  0.00     0.020 A 
ATOM      3  C2  UNL d   1       3.029  -2.731   0.234  0.00  0.00     0.034 A 
ATOM      4  C3  UNL d   1       1.891  -1.950   0.470  0.00  0.00     0.017 A 
ATOM      5  C4  UNL d   1       0.621  -2.531   0.386  0.00  0.00     0.017 A 
ATOM      6  C5  UNL d   1       0.497  -3.887   0.067  0.00  0.00     0.034 A 
ATOM      7 Cl   UNL d   1      -0.829  -1.633   0.664  0.00  0.00    -0.070 Cl
ATOM      8 Cl1  UNL d   1       2.127  -0.284   0.860  0.00  0.00    -0.070 Cl
ENDROOT
TORSDOF 0
ENDMDL
