MODEL 1
REMARK minimizedAffinity 4.08362103
REMARK minimizedRMSD -1
REMARK  0 active torsions:
REMARK  status: ('A' for Active; 'I' for Inactive)
ROOT
ATOM      1  C   UNL d   1       5.711   5.999   0.665  0.00  0.00     0.020 A 
ATOM      2  C1  UNL d   1       5.056   6.000   1.896  0.00  0.00     0.020 A 
ATOM      3  C2  UNL d   1       4.088   5.032   2.173  0.00  0.00     0.034 A 
ATOM      4  C3  UNL d   1       3.772   4.059   1.217  0.00  0.00     0.017 A 
ATOM      5  C4  UNL d   1       4.430   4.060  -0.019  0.00  0.00     0.017 A 
ATOM      6  C5  UNL d   1       5.398   5.031  -0.290  0.00  0.00     0.034 A 
ATOM      7 Cl   UNL d   1       4.094   2.892  -1.248  0.00  0.00    -0.070 Cl
ATOM      8 Cl1  UNL d   1       2.566   2.892   1.627  0.00  0.00    -0.070 Cl
ENDROOT
TORSDOF 0
ENDMDL
