MODEL 1
REMARK minimizedAffinity -1.16031528
REMARK minimizedRMSD -1
REMARK  0 active torsions:
REMARK  status: ('A' for Active; 'I' for Inactive)
ROOT
ATOM      1  C   UNL d   1       3.084  -1.558  -0.011  0.00  0.00     0.020 A 
ATOM      2  C1  UNL d   1       3.047  -2.932  -0.248  0.00  0.00     0.020 A 
ATOM      3  C2  UNL d   1       1.850  -3.635  -0.096  0.00  0.00     0.034 A 
ATOM      4  C3  UNL d   1       0.685  -2.964   0.294  0.00  0.00     0.017 A 
ATOM      5  C4  UNL d   1       0.723  -1.586   0.532  0.00  0.00     0.017 A 
ATOM      6  C5  UNL d   1       1.925  -0.887   0.378  0.00  0.00     0.034 A 
ATOM      7 Cl   UNL d   1      -0.673  -0.690   1.016  0.00  0.00    -0.070 Cl
ATOM      8 Cl1  UNL d   1      -0.760  -3.896   0.463  0.00  0.00    -0.070 Cl
ENDROOT
TORSDOF 0
ENDMDL
