MODEL 1
REMARK minimizedAffinity -0.549696982
REMARK minimizedRMSD -1
REMARK  0 active torsions:
REMARK  status: ('A' for Active; 'I' for Inactive)
ROOT
ATOM      1  C   UNL d   1       1.081  -3.032   0.212  0.00  0.00     0.020 A 
ATOM      2  C1  UNL d   1       2.404  -2.601   0.293  0.00  0.00     0.020 A 
ATOM      3  C2  UNL d   1       2.692  -1.313   0.750  0.00  0.00     0.034 A 
ATOM      4  C3  UNL d   1       1.655  -0.453   1.129  0.00  0.00     0.017 A 
ATOM      5  C4  UNL d   1       0.327  -0.887   1.047  0.00  0.00     0.017 A 
ATOM      6  C5  UNL d   1       0.045  -2.177   0.588  0.00  0.00     0.034 A 
ATOM      7 Cl   UNL d   1      -1.006   0.118   1.496  0.00  0.00    -0.070 Cl
ATOM      8 Cl1  UNL d   1       2.084   1.126   1.686  0.00  0.00    -0.070 Cl
ENDROOT
TORSDOF 0
ENDMDL
