MODEL 1
REMARK minimizedAffinity 1.65519869
REMARK minimizedRMSD -1
REMARK  0 active torsions:
REMARK  status: ('A' for Active; 'I' for Inactive)
ROOT
ATOM      1  C   UNL d   1       4.109   5.999  -1.234  0.00  0.00     0.020 A 
ATOM      2  C1  UNL d   1       5.403   6.000  -0.713  0.00  0.00     0.020 A 
ATOM      3  C2  UNL d   1       5.600   5.932   0.667  0.00  0.00     0.034 A 
ATOM      4  C3  UNL d   1       4.502   5.863   1.533  0.00  0.00     0.017 A 
ATOM      5  C4  UNL d   1       3.204   5.862   1.009  0.00  0.00     0.017 A 
ATOM      6  C5  UNL d   1       3.013   5.930  -0.374  0.00  0.00     0.034 A 
ATOM      7 Cl   UNL d   1       1.800   5.779   2.014  0.00  0.00    -0.070 Cl
ATOM      8 Cl1  UNL d   1       4.820   5.780   3.229  0.00  0.00    -0.070 Cl
ENDROOT
TORSDOF 0
ENDMDL
