MODEL 1
REMARK minimizedAffinity 6.00264788
REMARK minimizedRMSD -1
REMARK  0 active torsions:
REMARK  status: ('A' for Active; 'I' for Inactive)
ROOT
ATOM      1  C   UNL d   1       2.912   0.417  -3.439  0.00  0.00     0.020 A 
ATOM      2  C1  UNL d   1       3.726   0.702  -2.344  0.00  0.00     0.020 A 
ATOM      3  C2  UNL d   1       3.945   2.027  -1.961  0.00  0.00     0.034 A 
ATOM      4  C3  UNL d   1       3.348   3.073  -2.675  0.00  0.00     0.017 A 
ATOM      5  C4  UNL d   1       2.531   2.786  -3.775  0.00  0.00     0.017 A 
ATOM      6  C5  UNL d   1       2.316   1.457  -4.153  0.00  0.00     0.034 A 
ATOM      7 Cl   UNL d   1       1.761   4.023  -4.704  0.00  0.00    -0.070 Cl
ATOM      8 Cl1  UNL d   1       3.662   4.688  -2.146  0.00  0.00    -0.070 Cl
ENDROOT
TORSDOF 0
ENDMDL
