MODEL 1
REMARK minimizedAffinity 2.63283539
REMARK minimizedRMSD -1
REMARK  0 active torsions:
REMARK  status: ('A' for Active; 'I' for Inactive)
ROOT
ATOM      1  C   UNL d   1      -0.637  -0.435   1.263  0.00  0.00     0.020 A 
ATOM      2  C1  UNL d   1      -1.246  -1.651   0.957  0.00  0.00     0.020 A 
ATOM      3  C2  UNL d   1      -0.507  -2.669   0.351  0.00  0.00     0.034 A 
ATOM      4  C3  UNL d   1       0.846  -2.473   0.049  0.00  0.00     0.017 A 
ATOM      5  C4  UNL d   1       1.456  -1.252   0.357  0.00  0.00     0.017 A 
ATOM      6  C5  UNL d   1       0.711  -0.235   0.963  0.00  0.00     0.034 A 
ATOM      7 Cl   UNL d   1       3.121  -0.935   0.015  0.00  0.00    -0.070 Cl
ATOM      8 Cl1  UNL d   1       1.699  -3.775  -0.700  0.00  0.00    -0.070 Cl
ENDROOT
TORSDOF 0
ENDMDL
