MODEL 1
REMARK minimizedAffinity 3.66159153
REMARK minimizedRMSD -1
REMARK  0 active torsions:
REMARK  status: ('A' for Active; 'I' for Inactive)
ROOT
ATOM      1  C   UNL d   1       0.732  -2.955  -0.098  0.00  0.00     0.020 A 
ATOM      2  C1  UNL d   1       2.081  -2.628   0.030  0.00  0.00     0.020 A 
ATOM      3  C2  UNL d   1       2.453  -1.415   0.613  0.00  0.00     0.034 A 
ATOM      4  C3  UNL d   1       1.475  -0.525   1.071  0.00  0.00     0.017 A 
ATOM      5  C4  UNL d   1       0.120  -0.854   0.943  0.00  0.00     0.017 A 
ATOM      6  C5  UNL d   1      -0.246  -2.070   0.358  0.00  0.00     0.034 A 
ATOM      7 Cl   UNL d   1      -1.144   0.192   1.484  0.00  0.00    -0.070 Cl
ATOM      8 Cl1  UNL d   1       2.006   0.957   1.783  0.00  0.00    -0.070 Cl
ENDROOT
TORSDOF 0
ENDMDL
