MODEL 1
REMARK minimizedAffinity 11.6644402
REMARK minimizedRMSD -1
REMARK  0 active torsions:
REMARK  status: ('A' for Active; 'I' for Inactive)
ROOT
ATOM      1  O1  BZF d   1      -1.134  -5.609  -3.140  0.00  0.00    -0.204 OA
ATOM      2  C2  BZF d   1      -0.340  -4.708  -3.822  0.00  0.00     0.174 A 
ATOM      3  C3  BZF d   1      -0.992  -3.542  -4.010  0.00  0.00    -0.012 A 
ATOM      4  C3A BZF d   1      -2.241  -3.695  -3.328  0.00  0.00    -0.107 A 
ATOM      5  C4  BZF d   1      -3.315  -2.873  -3.140  0.00  0.00     0.055 A 
ATOM      6  C5  BZF d   1      -4.407  -3.352  -2.488  0.00  0.00    -0.016 A 
ATOM      7  C6  BZF d   1      -4.461  -4.647  -2.016  0.00  0.00     0.022 A 
ATOM      8  C7  BZF d   1      -3.418  -5.498  -2.173  0.00  0.00     0.029 A 
ATOM      9  C7A BZF d   1      -2.300  -5.007  -2.803  0.00  0.00     0.058 A 
ENDROOT
TORSDOF 0
ENDMDL
