MODEL 1
REMARK minimizedAffinity 10.4174213
REMARK minimizedRMSD -1
REMARK  0 active torsions:
REMARK  status: ('A' for Active; 'I' for Inactive)
ROOT
ATOM      1  O1  BZF d   1       3.258  -0.151   1.732  0.00  0.00    -0.204 OA
ATOM      2  C2  BZF d   1       3.725   0.375   0.543  0.00  0.00     0.174 A 
ATOM      3  C3  BZF d   1       2.945   1.395   0.133  0.00  0.00    -0.012 A 
ATOM      4  C3A BZF d   1       1.980   1.574   1.175  0.00  0.00    -0.107 A 
ATOM      5  C4  BZF d   1       0.944   2.445   1.355  0.00  0.00     0.055 A 
ATOM      6  C5  BZF d   1       0.148   2.307   2.448  0.00  0.00    -0.016 A 
ATOM      7  C6  BZF d   1       0.356   1.308   3.377  0.00  0.00     0.022 A 
ATOM      8  C7  BZF d   1       1.375   0.424   3.243  0.00  0.00     0.029 A 
ATOM      9  C7A BZF d   1       2.201   0.581   2.157  0.00  0.00     0.058 A 
ENDROOT
TORSDOF 0
ENDMDL
