MODEL 1
REMARK minimizedAffinity 14.4162588
REMARK minimizedRMSD -1
REMARK  0 active torsions:
REMARK  status: ('A' for Active; 'I' for Inactive)
ROOT
ATOM      1  O1  BZF d   1      -2.129  -4.674  -2.350  0.00  0.00    -0.204 OA
ATOM      2  C2  BZF d   1      -1.697  -3.377  -2.547  0.00  0.00     0.174 A 
ATOM      3  C3  BZF d   1      -2.693  -2.609  -3.034  0.00  0.00    -0.012 A 
ATOM      4  C3A BZF d   1      -3.843  -3.460  -3.062  0.00  0.00    -0.107 A 
ATOM      5  C4  BZF d   1      -5.144  -3.268  -3.433  0.00  0.00     0.055 A 
ATOM      6  C5  BZF d   1      -6.000  -4.323  -3.409  0.00  0.00    -0.016 A 
ATOM      7  C6  BZF d   1      -5.589  -5.583  -3.026  0.00  0.00     0.022 A 
ATOM      8  C7  BZF d   1      -4.310  -5.821  -2.645  0.00  0.00     0.029 A 
ATOM      9  C7A BZF d   1      -3.451  -4.749  -2.636  0.00  0.00     0.058 A 
ENDROOT
TORSDOF 0
ENDMDL
