MODEL 1
REMARK minimizedAffinity 14.4658403
REMARK minimizedRMSD -1
REMARK  0 active torsions:
REMARK  status: ('A' for Active; 'I' for Inactive)
ROOT
ATOM      1  O1  BZF d   1       3.981  -0.230   3.266  0.00  0.00    -0.204 OA
ATOM      2  C2  BZF d   1       3.298  -0.117   4.462  0.00  0.00     0.174 A 
ATOM      3  C3  BZF d   1       2.174   0.612   4.304  0.00  0.00    -0.012 A 
ATOM      4  C3A BZF d   1       2.106   0.900   2.904  0.00  0.00    -0.107 A 
ATOM      5  C4  BZF d   1       1.209   1.577   2.128  0.00  0.00     0.055 A 
ATOM      6  C5  BZF d   1       1.472   1.740   0.805  0.00  0.00    -0.016 A 
ATOM      7  C6  BZF d   1       2.622   1.243   0.226  0.00  0.00     0.022 A 
ATOM      8  C7  BZF d   1       3.538   0.560   0.955  0.00  0.00     0.029 A 
ATOM      9  C7A BZF d   1       3.260   0.366   2.286  0.00  0.00     0.058 A 
ENDROOT
TORSDOF 0
ENDMDL
