MODEL 1
REMARK minimizedAffinity 11.6668873
REMARK minimizedRMSD -1
REMARK  0 active torsions:
REMARK  status: ('A' for Active; 'I' for Inactive)
ROOT
ATOM      1  O1  BZF d   1      -5.940   0.258   4.168  0.00  0.00    -0.204 OA
ATOM      2  C2  BZF d   1      -5.230   0.000   3.011  0.00  0.00     0.174 A 
ATOM      3  C3  BZF d   1      -4.425   1.037   2.702  0.00  0.00    -0.012 A 
ATOM      4  C3A BZF d   1      -4.576   1.965   3.781  0.00  0.00    -0.107 A 
ATOM      5  C4  BZF d   1      -4.022   3.183   4.057  0.00  0.00     0.055 A 
ATOM      6  C5  BZF d   1      -4.438   3.863   5.157  0.00  0.00    -0.016 A 
ATOM      7  C6  BZF d   1      -5.408   3.360   5.999  0.00  0.00     0.022 A 
ATOM      8  C7  BZF d   1      -5.983   2.154   5.769  0.00  0.00     0.029 A 
ATOM      9  C7A BZF d   1      -5.541   1.449   4.677  0.00  0.00     0.058 A 
ENDROOT
TORSDOF 0
ENDMDL
