MODEL 1
REMARK minimizedAffinity 9.42673302
REMARK minimizedRMSD -1
REMARK  0 active torsions:
REMARK  status: ('A' for Active; 'I' for Inactive)
ROOT
ATOM      1  O1  BZF d   1       5.378  -0.862   1.128  0.00  0.00    -0.204 OA
ATOM      2  C2  BZF d   1       5.289  -0.416  -0.177  0.00  0.00     0.174 A 
ATOM      3  C3  BZF d   1       4.082   0.136  -0.412  0.00  0.00    -0.012 A 
ATOM      4  C3A BZF d   1       3.404   0.111   0.848  0.00  0.00    -0.107 A 
ATOM      5  C4  BZF d   1       2.173   0.534   1.260  0.00  0.00     0.055 A 
ATOM      6  C5  BZF d   1       1.788   0.296   2.542  0.00  0.00    -0.016 A 
ATOM      7  C6  BZF d   1       2.606  -0.365   3.435  0.00  0.00     0.022 A 
ATOM      8  C7  BZF d   1       3.838  -0.798   3.073  0.00  0.00     0.029 A 
ATOM      9  C7A BZF d   1       4.243  -0.530   1.788  0.00  0.00     0.058 A 
ENDROOT
TORSDOF 0
ENDMDL
