MODEL 1
REMARK minimizedAffinity 7.65862131
REMARK minimizedRMSD -1
REMARK  0 active torsions:
REMARK  status: ('A' for Active; 'I' for Inactive)
ROOT
ATOM      1  O1  BZF d   1       2.283   0.073   1.779  0.00  0.00    -0.204 OA
ATOM      2  C2  BZF d   1       1.387   1.100   1.553  0.00  0.00     0.174 A 
ATOM      3  C3  BZF d   1       1.924   2.033   0.741  0.00  0.00    -0.012 A 
ATOM      4  C3A BZF d   1       3.203   1.514   0.365  0.00  0.00    -0.107 A 
ATOM      5  C4  BZF d   1       4.204   1.976  -0.441  0.00  0.00     0.055 A 
ATOM      6  C5  BZF d   1       5.356   1.263  -0.538  0.00  0.00    -0.016 A 
ATOM      7  C6  BZF d   1       5.544   0.088   0.160  0.00  0.00     0.022 A 
ATOM      8  C7  BZF d   1       4.578  -0.413   0.968  0.00  0.00     0.029 A 
ATOM      9  C7A BZF d   1       3.400   0.289   1.043  0.00  0.00     0.058 A 
ENDROOT
TORSDOF 0
ENDMDL
