MODEL 1
REMARK minimizedAffinity 11.7623816
REMARK minimizedRMSD -1
REMARK  0 active torsions:
REMARK  status: ('A' for Active; 'I' for Inactive)
ROOT
ATOM      1  O1  BZF d   1      -5.129   3.067   5.976  0.00  0.00    -0.204 OA
ATOM      2  C2  BZF d   1      -4.468   3.843   5.043  0.00  0.00     0.174 A 
ATOM      3  C3  BZF d   1      -4.182   3.125   3.939  0.00  0.00    -0.012 A 
ATOM      4  C3A BZF d   1      -4.778   1.843   4.159  0.00  0.00    -0.107 A 
ATOM      5  C4  BZF d   1      -4.851   0.701   3.413  0.00  0.00     0.055 A 
ATOM      6  C5  BZF d   1      -5.443  -0.400   3.947  0.00  0.00    -0.016 A 
ATOM      7  C6  BZF d   1      -5.967  -0.396   5.224  0.00  0.00     0.022 A 
ATOM      8  C7  BZF d   1      -5.923   0.715   5.999  0.00  0.00     0.029 A 
ATOM      9  C7A BZF d   1      -5.354   1.839   5.450  0.00  0.00     0.058 A 
ENDROOT
TORSDOF 0
ENDMDL
