MODEL 1
REMARK minimizedAffinity 14.7389431
REMARK minimizedRMSD -1
REMARK  0 active torsions:
REMARK  status: ('A' for Active; 'I' for Inactive)
ROOT
ATOM      1  O1  BZF d   1       2.483   0.202   1.684  0.00  0.00    -0.204 OA
ATOM      2  C2  BZF d   1       1.658   1.307   1.771  0.00  0.00     0.174 A 
ATOM      3  C3  BZF d   1       2.124   2.313   1.004  0.00  0.00    -0.012 A 
ATOM      4  C3A BZF d   1       3.264   1.775   0.328  0.00  0.00    -0.107 A 
ATOM      5  C4  BZF d   1       4.143   2.286  -0.584  0.00  0.00     0.055 A 
ATOM      6  C5  BZF d   1       5.190   1.522  -0.992  0.00  0.00    -0.016 A 
ATOM      7  C6  BZF d   1       5.392   0.247  -0.505  0.00  0.00     0.022 A 
ATOM      8  C7  BZF d   1       4.544  -0.305   0.397  0.00  0.00     0.029 A 
ATOM      9  C7A BZF d   1       3.466   0.452   0.786  0.00  0.00     0.058 A 
ENDROOT
TORSDOF 0
ENDMDL
