MODEL 1
REMARK minimizedAffinity 17.6182537
REMARK minimizedRMSD -1
REMARK  0 active torsions:
REMARK  status: ('A' for Active; 'I' for Inactive)
ROOT
ATOM      1  O1  BZF d   1      -1.130  -1.049  -0.096  0.00  0.00    -0.204 OA
ATOM      2  C2  BZF d   1      -2.002  -2.106   0.078  0.00  0.00     0.174 A 
ATOM      3  C3  BZF d   1      -1.956  -2.559   1.347  0.00  0.00    -0.012 A 
ATOM      4  C3A BZF d   1      -1.063  -1.675   2.031  0.00  0.00    -0.107 A 
ATOM      5  C4  BZF d   1      -0.622  -1.599   3.321  0.00  0.00     0.055 A 
ATOM      6  C5  BZF d   1       0.305  -0.661   3.648  0.00  0.00    -0.016 A 
ATOM      7  C6  BZF d   1       0.816   0.213   2.711  0.00  0.00     0.022 A 
ATOM      8  C7  BZF d   1       0.405   0.179   1.419  0.00  0.00     0.029 A 
ATOM      9  C7A BZF d   1      -0.556  -0.746   1.093  0.00  0.00     0.058 A 
ENDROOT
TORSDOF 0
ENDMDL
