MODEL 1
REMARK minimizedAffinity 13.7588511
REMARK minimizedRMSD -1
REMARK  0 active torsions:
REMARK  status: ('A' for Active; 'I' for Inactive)
ROOT
ATOM      1  O1  BZF d   1       4.100   1.480  -1.499  0.00  0.00    -0.204 OA
ATOM      2  C2  BZF d   1       3.390   2.551  -2.008  0.00  0.00     0.174 A 
ATOM      3  C3  BZF d   1       2.216   2.696  -1.361  0.00  0.00    -0.012 A 
ATOM      4  C3A BZF d   1       2.231   1.708  -0.326  0.00  0.00    -0.107 A 
ATOM      5  C4  BZF d   1       1.350   1.366   0.660  0.00  0.00     0.055 A 
ATOM      6  C5  BZF d   1       1.633   0.306   1.461  0.00  0.00    -0.016 A 
ATOM      7  C6  BZF d   1       2.784  -0.438   1.301  0.00  0.00     0.022 A 
ATOM      8  C7  BZF d   1       3.691  -0.134   0.341  0.00  0.00     0.029 A 
ATOM      9  C7A BZF d   1       3.423   0.957  -0.449  0.00  0.00     0.058 A 
ENDROOT
TORSDOF 0
ENDMDL
