MODEL 1
REMARK minimizedAffinity 12.5917053
REMARK minimizedRMSD -1
REMARK  0 active torsions:
REMARK  status: ('A' for Active; 'I' for Inactive)
ROOT
ATOM      1  O1  BZF d   1       4.956  -1.134   1.429  0.00  0.00    -0.204 OA
ATOM      2  C2  BZF d   1       4.939  -0.840   0.079  0.00  0.00     0.174 A 
ATOM      3  C3  BZF d   1       3.795  -0.210  -0.259  0.00  0.00    -0.012 A 
ATOM      4  C3A BZF d   1       3.093  -0.020   0.973  0.00  0.00    -0.107 A 
ATOM      5  C4  BZF d   1       1.900   0.562   1.293  0.00  0.00     0.055 A 
ATOM      6  C5  BZF d   1       1.467   0.517   2.580  0.00  0.00    -0.016 A 
ATOM      7  C6  BZF d   1       2.197  -0.107   3.571  0.00  0.00     0.022 A 
ATOM      8  C7  BZF d   1       3.389  -0.694   3.302  0.00  0.00     0.029 A 
ATOM      9  C7A BZF d   1       3.845  -0.621   2.009  0.00  0.00     0.058 A 
ENDROOT
TORSDOF 0
ENDMDL
