MODEL 1
REMARK minimizedAffinity 15.7336807
REMARK minimizedRMSD -1
REMARK  0 active torsions:
REMARK  status: ('A' for Active; 'I' for Inactive)
ROOT
ATOM      1  O1  BZF d   1      -4.818   1.978   2.705  0.00  0.00    -0.204 OA
ATOM      2  C2  BZF d   1      -4.166   1.354   3.750  0.00  0.00     0.174 A 
ATOM      3  C3  BZF d   1      -4.013   2.197   4.791  0.00  0.00    -0.012 A 
ATOM      4  C3A BZF d   1      -4.690   3.398   4.405  0.00  0.00    -0.107 A 
ATOM      5  C4  BZF d   1      -4.903   4.596   5.024  0.00  0.00     0.055 A 
ATOM      6  C5  BZF d   1      -5.539   5.586   4.344  0.00  0.00    -0.016 A 
ATOM      7  C6  BZF d   1      -5.971   5.414   3.046  0.00  0.00     0.022 A 
ATOM      8  C7  BZF d   1      -5.787   4.241   2.392  0.00  0.00     0.029 A 
ATOM      9  C7A BZF d   1      -5.174   3.228   3.087  0.00  0.00     0.058 A 
ENDROOT
TORSDOF 0
ENDMDL
