MODEL 1
REMARK minimizedAffinity 25.6828899
REMARK minimizedRMSD -1
REMARK  0 active torsions:
REMARK  status: ('A' for Active; 'I' for Inactive)
ROOT
ATOM      1  O1  BZF d   1      -6.000  -4.942  -2.683  0.00  0.00    -0.204 OA
ATOM      2  C2  BZF d   1      -5.674  -6.000  -1.856  0.00  0.00     0.174 A 
ATOM      3  C3  BZF d   1      -4.372  -5.951  -1.507  0.00  0.00    -0.012 A 
ATOM      4  C3A BZF d   1      -3.874  -4.739  -2.081  0.00  0.00    -0.107 A 
ATOM      5  C4  BZF d   1      -2.653  -4.128  -2.071  0.00  0.00     0.055 A 
ATOM      6  C5  BZF d   1      -2.478  -2.988  -2.790  0.00  0.00    -0.016 A 
ATOM      7  C6  BZF d   1      -3.500  -2.436  -3.535  0.00  0.00     0.022 A 
ATOM      8  C7  BZF d   1      -4.730  -3.004  -3.572  0.00  0.00     0.029 A 
ATOM      9  C7A BZF d   1      -4.919  -4.137  -2.819  0.00  0.00     0.058 A 
ENDROOT
TORSDOF 0
ENDMDL
