MODEL 1
REMARK minimizedAffinity 18.1205788
REMARK minimizedRMSD -1
REMARK  0 active torsions:
REMARK  status: ('A' for Active; 'I' for Inactive)
ROOT
ATOM      1  O1  BZF d   1       4.707   2.148  -1.232  0.00  0.00    -0.204 OA
ATOM      2  C2  BZF d   1       5.814   1.410  -1.603  0.00  0.00     0.174 A 
ATOM      3  C3  BZF d   1       5.999   0.371  -0.764  0.00  0.00    -0.012 A 
ATOM      4  C3A BZF d   1       4.888   0.412   0.137  0.00  0.00    -0.107 A 
ATOM      5  C4  BZF d   1       4.502  -0.370   1.188  0.00  0.00     0.055 A 
ATOM      6  C5  BZF d   1       3.404  -0.016   1.906  0.00  0.00    -0.016 A 
ATOM      7  C6  BZF d   1       2.673   1.114   1.605  0.00  0.00     0.022 A 
ATOM      8  C7  BZF d   1       3.014   1.918   0.568  0.00  0.00     0.029 A 
ATOM      9  C7A BZF d   1       4.104   1.545  -0.180  0.00  0.00     0.058 A 
ENDROOT
TORSDOF 0
ENDMDL
