MODEL 1
REMARK minimizedAffinity 16.4744473
REMARK minimizedRMSD -1
REMARK  0 active torsions:
REMARK  status: ('A' for Active; 'I' for Inactive)
ROOT
ATOM      1  O1  BZF d   1      -0.649  -5.903  -3.316  0.00  0.00    -0.204 OA
ATOM      2  C2  BZF d   1       0.208  -4.983  -3.888  0.00  0.00     0.174 A 
ATOM      3  C3  BZF d   1      -0.328  -3.746  -3.856  0.00  0.00    -0.012 A 
ATOM      4  C3A BZF d   1      -1.559  -3.887  -3.141  0.00  0.00    -0.107 A 
ATOM      5  C4  BZF d   1      -2.536  -3.008  -2.770  0.00  0.00     0.055 A 
ATOM      6  C5  BZF d   1      -3.646  -3.480  -2.144  0.00  0.00    -0.016 A 
ATOM      7  C6  BZF d   1      -3.815  -4.823  -1.879  0.00  0.00     0.022 A 
ATOM      8  C7  BZF d   1      -2.871  -5.733  -2.224  0.00  0.00     0.029 A 
ATOM      9  C7A BZF d   1      -1.733  -5.255  -2.827  0.00  0.00     0.058 A 
ENDROOT
TORSDOF 0
ENDMDL
