MODEL 1
REMARK minimizedAffinity 14.1635103
REMARK minimizedRMSD -1
REMARK  0 active torsions:
REMARK  status: ('A' for Active; 'I' for Inactive)
ROOT
ATOM      1  C   UNL d   1       2.208  -3.147  -1.421  0.00  0.00     0.124 A 
ATOM      2  C1  UNL d   1       2.163  -2.401  -0.251  0.00  0.00     0.062 A 
ATOM      3  C2  UNL d   1       2.918  -1.238  -0.132  0.00  0.00     0.162 A 
ATOM      4  C3  UNL d   1       3.724  -0.812  -1.188  0.00  0.00    -0.034 A 
ATOM      5  C4  UNL d   1       3.765  -1.567  -2.361  0.00  0.00     0.162 A 
ATOM      6  C5  UNL d   1       3.009  -2.729  -2.474  0.00  0.00     0.062 A 
ATOM      7  F   UNL d   1       3.054  -3.448  -3.605  0.00  0.00    -0.097 F 
ATOM      8  F1  UNL d   1       4.530  -1.186  -3.395  0.00  0.00    -0.096 F 
ATOM      9  I   UNL d   1       4.854   0.927  -1.015  0.00  0.00    -0.060 I 
ATOM     10  F2  UNL d   1       2.855  -0.538   1.010  0.00  0.00    -0.096 F 
ATOM     11  F3  UNL d   1       1.391  -2.803   0.769  0.00  0.00    -0.097 F 
ATOM     12  F4  UNL d   1       1.482  -4.266  -1.531  0.00  0.00    -0.092 F 
ENDROOT
TORSDOF 0
ENDMDL
