MODEL 1
REMARK minimizedAffinity 19.5698643
REMARK minimizedRMSD -1
REMARK  0 active torsions:
REMARK  status: ('A' for Active; 'I' for Inactive)
ROOT
ATOM      1  C   UNL d   1      -0.634  -1.564  -1.697  0.00  0.00     0.124 A 
ATOM      2  C1  UNL d   1       0.492  -2.257  -1.277  0.00  0.00     0.062 A 
ATOM      3  C2  UNL d   1       1.359  -1.686  -0.349  0.00  0.00     0.162 A 
ATOM      4  C3  UNL d   1       1.103  -0.415   0.165  0.00  0.00    -0.034 A 
ATOM      5  C4  UNL d   1      -0.032   0.276  -0.263  0.00  0.00     0.162 A 
ATOM      6  C5  UNL d   1      -0.896  -0.299  -1.190  0.00  0.00     0.062 A 
ATOM      7  F   UNL d   1      -1.984   0.372  -1.595  0.00  0.00    -0.097 F 
ATOM      8  F1  UNL d   1      -0.309   1.499   0.211  0.00  0.00    -0.096 F 
ATOM      9  I   UNL d   1       2.397   0.441   1.552  0.00  0.00    -0.060 I 
ATOM     10  F2  UNL d   1       2.440  -2.379   0.039  0.00  0.00    -0.096 F 
ATOM     11  F3  UNL d   1       0.747  -3.479  -1.766  0.00  0.00    -0.097 F 
ATOM     12  F4  UNL d   1      -1.467  -2.115  -2.590  0.00  0.00    -0.092 F 
ENDROOT
TORSDOF 0
ENDMDL
