MODEL 1
REMARK minimizedAffinity 18.0906372
REMARK minimizedRMSD -1
REMARK  0 active torsions:
REMARK  status: ('A' for Active; 'I' for Inactive)
ROOT
ATOM      1  C   UNL d   1       1.264  -0.648   0.460  0.00  0.00     0.124 A 
ATOM      2  C1  UNL d   1       0.239  -0.022  -0.237  0.00  0.00     0.062 A 
ATOM      3  C2  UNL d   1      -0.385  -0.672  -1.298  0.00  0.00     0.162 A 
ATOM      4  C3  UNL d   1       0.014  -1.956  -1.669  0.00  0.00    -0.034 A 
ATOM      5  C4  UNL d   1       1.046  -2.579  -0.964  0.00  0.00     0.162 A 
ATOM      6  C5  UNL d   1       1.666  -1.925   0.095  0.00  0.00     0.062 A 
ATOM      7  F   UNL d   1       2.656  -2.531   0.767  0.00  0.00    -0.097 F 
ATOM      8  F1  UNL d   1       1.453  -3.813  -1.295  0.00  0.00    -0.096 F 
ATOM      9  I   UNL d   1      -0.917  -2.931  -3.255  0.00  0.00    -0.060 I 
ATOM     10  F2  UNL d   1      -1.372  -0.043  -1.953  0.00  0.00    -0.096 F 
ATOM     11  F3  UNL d   1      -0.151   1.212   0.113  0.00  0.00    -0.097 F 
ATOM     12  F4  UNL d   1       1.863  -0.020   1.479  0.00  0.00    -0.092 F 
ENDROOT
TORSDOF 0
ENDMDL
