MODEL 1
REMARK minimizedAffinity 16.3853989
REMARK minimizedRMSD -1
REMARK  0 active torsions:
REMARK  status: ('A' for Active; 'I' for Inactive)
ROOT
ATOM      1  C   UNL d   1      -3.465  -0.071   0.702  0.00  0.00     0.124 A 
ATOM      2  C1  UNL d   1      -2.824  -0.232  -0.520  0.00  0.00     0.062 A 
ATOM      3  C2  UNL d   1      -1.439  -0.350  -0.573  0.00  0.00     0.162 A 
ATOM      4  C3  UNL d   1      -0.683  -0.308   0.598  0.00  0.00    -0.034 A 
ATOM      5  C4  UNL d   1      -1.333  -0.145   1.822  0.00  0.00     0.162 A 
ATOM      6  C5  UNL d   1      -2.719  -0.028   1.871  0.00  0.00     0.062 A 
ATOM      7  F   UNL d   1      -3.335   0.128   3.052  0.00  0.00    -0.097 F 
ATOM      8  F1  UNL d   1      -0.637  -0.100   2.968  0.00  0.00    -0.096 F 
ATOM      9  I   UNL d   1       1.390  -0.483   0.522  0.00  0.00    -0.060 I 
ATOM     10  F2  UNL d   1      -0.847  -0.504  -1.767  0.00  0.00    -0.096 F 
ATOM     11  F3  UNL d   1      -3.543  -0.273  -1.651  0.00  0.00    -0.097 F 
ATOM     12  F4  UNL d   1      -4.798   0.043   0.750  0.00  0.00    -0.092 F 
ENDROOT
TORSDOF 0
ENDMDL
