MODEL 1
REMARK minimizedAffinity 13.9834185
REMARK minimizedRMSD -1
REMARK  0 active torsions:
REMARK  status: ('A' for Active; 'I' for Inactive)
ROOT
ATOM      1  C   UNL d   1      -3.535   3.315   3.331  0.00  0.00     0.124 A 
ATOM      2  C1  UNL d   1      -4.107   2.312   2.561  0.00  0.00     0.062 A 
ATOM      3  C2  UNL d   1      -3.300   1.383   1.910  0.00  0.00     0.162 A 
ATOM      4  C3  UNL d   1      -1.912   1.454   2.025  0.00  0.00    -0.034 A 
ATOM      5  C4  UNL d   1      -1.344   2.467   2.800  0.00  0.00     0.162 A 
ATOM      6  C5  UNL d   1      -2.154   3.392   3.449  0.00  0.00     0.062 A 
ATOM      7  F   UNL d   1      -1.600   4.361   4.192  0.00  0.00    -0.097 F 
ATOM      8  F1  UNL d   1      -0.013   2.563   2.932  0.00  0.00    -0.096 F 
ATOM      9  I   UNL d   1      -0.702   0.068   1.052  0.00  0.00    -0.060 I 
ATOM     10  F2  UNL d   1      -3.880   0.424   1.173  0.00  0.00    -0.096 F 
ATOM     11  F3  UNL d   1      -5.440   2.236   2.444  0.00  0.00    -0.097 F 
ATOM     12  F4  UNL d   1      -4.313   4.208   3.956  0.00  0.00    -0.092 F 
ENDROOT
TORSDOF 0
ENDMDL
