MODEL 1
REMARK minimizedAffinity 16.0428658
REMARK minimizedRMSD -1
REMARK  0 active torsions:
REMARK  status: ('A' for Active; 'I' for Inactive)
ROOT
ATOM      1  C   UNL d   1      -0.779  -1.149  -1.057  0.00  0.00     0.124 A 
ATOM      2  C1  UNL d   1      -0.489  -2.436  -1.489  0.00  0.00     0.062 A 
ATOM      3  C2  UNL d   1       0.833  -2.860  -1.588  0.00  0.00     0.162 A 
ATOM      4  C3  UNL d   1       1.875  -1.997  -1.252  0.00  0.00    -0.034 A 
ATOM      5  C4  UNL d   1       1.576  -0.704  -0.819  0.00  0.00     0.162 A 
ATOM      6  C5  UNL d   1       0.253  -0.285  -0.723  0.00  0.00     0.062 A 
ATOM      7  F   UNL d   1      -0.025   0.959  -0.305  0.00  0.00    -0.097 F 
ATOM      8  F1  UNL d   1       2.554   0.152  -0.489  0.00  0.00    -0.096 F 
ATOM      9  I   UNL d   1       3.854  -2.627  -1.398  0.00  0.00    -0.060 I 
ATOM     10  F2  UNL d   1       1.083  -4.109  -2.008  0.00  0.00    -0.096 F 
ATOM     11  F3  UNL d   1      -1.485  -3.273  -1.814  0.00  0.00    -0.097 F 
ATOM     12  F4  UNL d   1      -2.052  -0.744  -0.964  0.00  0.00    -0.092 F 
ENDROOT
TORSDOF 0
ENDMDL
