MODEL 1
REMARK minimizedAffinity 17.4722118
REMARK minimizedRMSD -1
REMARK  0 active torsions:
REMARK  status: ('A' for Active; 'I' for Inactive)
ROOT
ATOM      1  C   UNL d   1      -0.379  -1.723  -1.262  0.00  0.00     0.124 A 
ATOM      2  C1  UNL d   1      -0.555  -0.349  -1.163  0.00  0.00     0.062 A 
ATOM      3  C2  UNL d   1       0.102   0.370  -0.169  0.00  0.00     0.162 A 
ATOM      4  C3  UNL d   1       0.942  -0.282   0.733  0.00  0.00    -0.034 A 
ATOM      5  C4  UNL d   1       1.113  -1.664   0.628  0.00  0.00     0.162 A 
ATOM      6  C5  UNL d   1       0.454  -2.379  -0.367  0.00  0.00     0.062 A 
ATOM      7  F   UNL d   1       0.624  -3.705  -0.462  0.00  0.00    -0.097 F 
ATOM      8  F1  UNL d   1       1.913  -2.323   1.479  0.00  0.00    -0.096 F 
ATOM      9  I   UNL d   1       1.927   0.790   2.221  0.00  0.00    -0.060 I 
ATOM     10  F2  UNL d   1      -0.086   1.696  -0.097  0.00  0.00    -0.096 F 
ATOM     11  F3  UNL d   1      -1.360   0.286  -2.026  0.00  0.00    -0.097 F 
ATOM     12  F4  UNL d   1      -1.014  -2.413  -2.219  0.00  0.00    -0.092 F 
ENDROOT
TORSDOF 0
ENDMDL
