MODEL 1
REMARK minimizedAffinity 27.4214916
REMARK minimizedRMSD -1
REMARK  0 active torsions:
REMARK  status: ('A' for Active; 'I' for Inactive)
ROOT
ATOM      1  C   UNL d   1       2.399  -3.294  -0.257  0.00  0.00     0.124 A 
ATOM      2  C1  UNL d   1       1.044  -3.249   0.042  0.00  0.00     0.062 A 
ATOM      3  C2  UNL d   1       0.109  -3.071  -0.973  0.00  0.00     0.162 A 
ATOM      4  C3  UNL d   1       0.525  -2.937  -2.297  0.00  0.00    -0.034 A 
ATOM      5  C4  UNL d   1       1.889  -2.982  -2.590  0.00  0.00     0.162 A 
ATOM      6  C5  UNL d   1       2.820  -3.160  -1.572  0.00  0.00     0.062 A 
ATOM      7  F   UNL d   1       4.129  -3.203  -1.863  0.00  0.00    -0.097 F 
ATOM      8  F1  UNL d   1       2.324  -2.856  -3.853  0.00  0.00    -0.096 F 
ATOM      9  I   UNL d   1      -0.871  -2.671  -3.818  0.00  0.00    -0.060 I 
ATOM     10  F2  UNL d   1      -1.194  -3.032  -0.655  0.00  0.00    -0.096 F 
ATOM     11  F3  UNL d   1       0.635  -3.377   1.313  0.00  0.00    -0.097 F 
ATOM     12  F4  UNL d   1       3.297  -3.464   0.722  0.00  0.00    -0.092 F 
ENDROOT
TORSDOF 0
ENDMDL
