MODEL 1
REMARK minimizedAffinity 29.8167534
REMARK minimizedRMSD -1
REMARK  0 active torsions:
REMARK  status: ('A' for Active; 'I' for Inactive)
ROOT
ATOM      1  C   UNL d   1       4.567   4.429   4.775  0.00  0.00     0.124 A 
ATOM      2  C1  UNL d   1       3.305   4.815   5.208  0.00  0.00     0.062 A 
ATOM      3  C2  UNL d   1       2.212   3.974   5.015  0.00  0.00     0.162 A 
ATOM      4  C3  UNL d   1       2.376   2.739   4.387  0.00  0.00    -0.034 A 
ATOM      5  C4  UNL d   1       3.648   2.359   3.954  0.00  0.00     0.162 A 
ATOM      6  C5  UNL d   1       4.737   3.203   4.149  0.00  0.00     0.062 A 
ATOM      7  F   UNL d   1       5.955   2.829   3.731  0.00  0.00    -0.097 F 
ATOM      8  F1  UNL d   1       3.840   1.179   3.347  0.00  0.00    -0.096 F 
ATOM      9  I   UNL d   1       0.744   1.480   4.097  0.00  0.00    -0.060 I 
ATOM     10  F2  UNL d   1       1.005   4.372   5.443  0.00  0.00    -0.096 F 
ATOM     11  F3  UNL d   1       3.138   6.000   5.812  0.00  0.00    -0.097 F 
ATOM     12  F4  UNL d   1       5.616   5.240   4.961  0.00  0.00    -0.092 F 
ENDROOT
TORSDOF 0
ENDMDL
