MODEL 1
REMARK minimizedAffinity 12.8914375
REMARK minimizedRMSD -1
REMARK  0 active torsions:
REMARK  status: ('A' for Active; 'I' for Inactive)
ROOT
ATOM      1  C   UNL d   1       1.318  -0.518   0.355  0.00  0.00     0.124 A 
ATOM      2  C1  UNL d   1       0.070  -0.076  -0.062  0.00  0.00     0.062 A 
ATOM      3  C2  UNL d   1      -0.615  -0.757  -1.064  0.00  0.00     0.162 A 
ATOM      4  C3  UNL d   1      -0.054  -1.889  -1.656  0.00  0.00    -0.034 A 
ATOM      5  C4  UNL d   1       1.203  -2.326  -1.232  0.00  0.00     0.162 A 
ATOM      6  C5  UNL d   1       1.883  -1.642  -0.230  0.00  0.00     0.062 A 
ATOM      7  F   UNL d   1       3.089  -2.070   0.171  0.00  0.00    -0.097 F 
ATOM      8  F1  UNL d   1       1.771  -3.410  -1.780  0.00  0.00    -0.096 F 
ATOM      9  I   UNL d   1      -1.074  -2.910  -3.154  0.00  0.00    -0.060 I 
ATOM     10  F2  UNL d   1      -1.819  -0.308  -1.447  0.00  0.00    -0.096 F 
ATOM     11  F3  UNL d   1      -0.478   1.011   0.502  0.00  0.00    -0.097 F 
ATOM     12  F4  UNL d   1       1.975   0.140   1.319  0.00  0.00    -0.092 F 
ENDROOT
TORSDOF 0
ENDMDL
