MODEL 1
REMARK minimizedAffinity 11.4711046
REMARK minimizedRMSD -1
REMARK  2 active torsions:
REMARK  status: ('A' for Active; 'I' for Inactive)
REMARK    1  A    between atoms: C2'_3  and  C1'_4 
REMARK    2  A    between atoms: C1'_4  and  C1_5 
ROOT
ATOM      1  C1  I4B d   1       1.483   1.544   0.294  0.00  0.00    -0.075 A 
ATOM      2  C2  I4B d   1       0.298   2.096   0.713  0.00  0.00     0.003 A 
ATOM      3  C3  I4B d   1       0.293   3.102   1.709  0.00  0.00     0.002 A 
ATOM      4  C4  I4B d   1       1.483   3.488   2.291  0.00  0.00    -0.004 A 
ATOM      5  C5  I4B d   1       2.686   2.944   1.849  0.00  0.00     0.002 A 
ATOM      6  C6  I4B d   1       2.687   1.974   0.836  0.00  0.00     0.003 A 
ENDROOT
BRANCH   1   7
ATOM      7  C1' I4B d   1       1.449   0.460  -0.736  0.00  0.00     0.060 C 
BRANCH   7   8
ATOM      8  C2' I4B d   1       2.562   0.724  -1.729  0.00  0.00    -0.013 C 
ATOM      9  C4' I4B d   1       2.757  -0.448  -2.655  0.00  0.00     0.013 C 
ATOM     10  C3' I4B d   1       2.215   1.967  -2.494  0.00  0.00     0.013 C 
ENDBRANCH   7   8
ENDBRANCH   1   7
TORSDOF 2
ENDMDL
