MODEL 1
REMARK minimizedAffinity 2.06115723
REMARK minimizedRMSD -1
REMARK  2 active torsions:
REMARK  status: ('A' for Active; 'I' for Inactive)
REMARK    1  A    between atoms: C2'_3  and  C1'_4 
REMARK    2  A    between atoms: C1'_4  and  C1_5 
ROOT
ATOM      1  C1  I4B d   1      -1.078   1.787   0.578  0.00  0.00    -0.075 A 
ATOM      2  C2  I4B d   1      -0.176   0.753   0.600  0.00  0.00     0.003 A 
ATOM      3  C3  I4B d   1      -0.627  -0.585   0.697  0.00  0.00     0.002 A 
ATOM      4  C4  I4B d   1      -1.978  -0.839   0.819  0.00  0.00    -0.004 A 
ATOM      5  C5  I4B d   1      -2.893   0.209   0.774  0.00  0.00     0.002 A 
ATOM      6  C6  I4B d   1      -2.442   1.530   0.640  0.00  0.00     0.003 A 
ENDROOT
BRANCH   1   7
ATOM      7  C1' I4B d   1      -0.565   3.191   0.509  0.00  0.00     0.060 C 
BRANCH   7   8
ATOM      8  C2' I4B d   1      -0.176   3.616   1.910  0.00  0.00    -0.013 C 
ATOM      9  C4' I4B d   1      -1.255   3.271   2.903  0.00  0.00     0.013 C 
ATOM     10  C3' I4B d   1       1.116   2.938   2.257  0.00  0.00     0.013 C 
ENDBRANCH   7   8
ENDBRANCH   1   7
TORSDOF 2
ENDMDL
