MODEL 1
REMARK minimizedAffinity 10.9458199
REMARK minimizedRMSD -1
REMARK  2 active torsions:
REMARK  status: ('A' for Active; 'I' for Inactive)
REMARK    1  A    between atoms: C2'_3  and  C1'_4 
REMARK    2  A    between atoms: C1'_4  and  C1_5 
ROOT
ATOM      1  C1  I4B d   1      -1.741  -0.940   0.489  0.00  0.00    -0.075 A 
ATOM      2  C2  I4B d   1      -0.700  -0.068   0.289  0.00  0.00     0.003 A 
ATOM      3  C3  I4B d   1      -0.920   1.329   0.342  0.00  0.00     0.002 A 
ATOM      4  C4  I4B d   1      -2.198   1.808   0.547  0.00  0.00    -0.004 A 
ATOM      5  C5  I4B d   1      -3.248   0.923   0.772  0.00  0.00     0.002 A 
ATOM      6  C6  I4B d   1      -3.017  -0.460   0.755  0.00  0.00     0.003 A 
ENDROOT
BRANCH   1   7
ATOM      7  C1' I4B d   1      -1.479  -2.410   0.393  0.00  0.00     0.060 C 
BRANCH   7   8
ATOM      8  C2' I4B d   1      -2.239  -2.942  -0.805  0.00  0.00    -0.013 C 
ATOM      9  C4' I4B d   1      -1.395  -2.893  -2.052  0.00  0.00     0.013 C 
ATOM     10  C3' I4B d   1      -2.667  -4.346  -0.496  0.00  0.00     0.013 C 
ENDBRANCH   7   8
ENDBRANCH   1   7
TORSDOF 2
ENDMDL
