MODEL 1
REMARK minimizedAffinity 9.41640759
REMARK minimizedRMSD -1
REMARK  2 active torsions:
REMARK  status: ('A' for Active; 'I' for Inactive)
REMARK    1  A    between atoms: C2'_3  and  C1'_4 
REMARK    2  A    between atoms: C1'_4  and  C1_5 
ROOT
ATOM      1  C1  I4B d   1       0.314   2.383   1.576  0.00  0.00    -0.075 A 
ATOM      2  C2  I4B d   1      -0.908   2.609   2.160  0.00  0.00     0.003 A 
ATOM      3  C3  I4B d   1      -0.986   3.197   3.446  0.00  0.00     0.002 A 
ATOM      4  C4  I4B d   1       0.176   3.494   4.128  0.00  0.00    -0.004 A 
ATOM      5  C5  I4B d   1       1.413   3.285   3.526  0.00  0.00     0.002 A 
ATOM      6  C6  I4B d   1       1.483   2.737   2.237  0.00  0.00     0.003 A 
ENDROOT
BRANCH   1   7
ATOM      7  C1' I4B d   1       0.361   1.730   0.231  0.00  0.00     0.060 C 
BRANCH   7   8
ATOM      8  C2' I4B d   1       0.664   0.260   0.436  0.00  0.00    -0.013 C 
ATOM      9  C4' I4B d   1      -0.580  -0.578   0.300  0.00  0.00     0.013 C 
ATOM     10  C3' I4B d   1       1.701  -0.144  -0.569  0.00  0.00     0.013 C 
ENDBRANCH   7   8
ENDBRANCH   1   7
TORSDOF 2
ENDMDL
