MODEL 1
REMARK minimizedAffinity 0.76811254
REMARK minimizedRMSD -1
REMARK  2 active torsions:
REMARK  status: ('A' for Active; 'I' for Inactive)
REMARK    1  A    between atoms: C2'_3  and  C1'_4 
REMARK    2  A    between atoms: C1'_4  and  C1_5 
ROOT
ATOM      1  C1  I4B d   1       0.630   1.507   0.924  0.00  0.00    -0.075 A 
ATOM      2  C2  I4B d   1       0.307   0.181   0.779  0.00  0.00     0.003 A 
ATOM      3  C3  I4B d   1      -1.046  -0.210   0.626  0.00  0.00     0.002 A 
ATOM      4  C4  I4B d   1      -2.039   0.746   0.674  0.00  0.00    -0.004 A 
ATOM      5  C5  I4B d   1      -1.708   2.092   0.798  0.00  0.00     0.002 A 
ATOM      6  C6  I4B d   1      -0.364   2.477   0.911  0.00  0.00     0.003 A 
ENDROOT
BRANCH   1   7
ATOM      7  C1' I4B d   1       2.065   1.882   1.116  0.00  0.00     0.060 C 
BRANCH   7   8
ATOM      8  C2' I4B d   1       2.113   3.103   2.011  0.00  0.00    -0.013 C 
ATOM      9  C4' I4B d   1       2.663   2.760   3.371  0.00  0.00     0.013 C 
ATOM     10  C3' I4B d   1       2.955   4.142   1.333  0.00  0.00     0.013 C 
ENDBRANCH   7   8
ENDBRANCH   1   7
TORSDOF 2
ENDMDL
