MODEL 1
REMARK minimizedAffinity 5.38603401
REMARK minimizedRMSD -1
REMARK  2 active torsions:
REMARK  status: ('A' for Active; 'I' for Inactive)
REMARK    1  A    between atoms: C2'_3  and  C1'_4 
REMARK    2  A    between atoms: C1'_4  and  C1_5 
ROOT
ATOM      1  C1  I4B d   1      -0.705   1.691   0.920  0.00  0.00    -0.075 A 
ATOM      2  C2  I4B d   1      -1.759   2.350   0.339  0.00  0.00     0.003 A 
ATOM      3  C3  I4B d   1      -2.947   1.650   0.016  0.00  0.00     0.002 A 
ATOM      4  C4  I4B d   1      -3.018   0.291   0.244  0.00  0.00    -0.004 A 
ATOM      5  C5  I4B d   1      -1.957  -0.371   0.855  0.00  0.00     0.002 A 
ATOM      6  C6  I4B d   1      -0.798   0.335   1.207  0.00  0.00     0.003 A 
ENDROOT
BRANCH   1   7
ATOM      7  C1' I4B d   1       0.547   2.455   1.218  0.00  0.00     0.060 C 
BRANCH   7   8
ATOM      8  C2' I4B d   1       1.647   1.453   1.504  0.00  0.00    -0.013 C 
ATOM      9  C4' I4B d   1       1.912   0.578   0.308  0.00  0.00     0.013 C 
ATOM     10  C3' I4B d   1       2.876   2.216   1.900  0.00  0.00     0.013 C 
ENDBRANCH   7   8
ENDBRANCH   1   7
TORSDOF 2
ENDMDL
