MODEL 1
REMARK minimizedAffinity 4.7690568
REMARK minimizedRMSD -1
REMARK  2 active torsions:
REMARK  status: ('A' for Active; 'I' for Inactive)
REMARK    1  A    between atoms: C2'_3  and  C1'_4 
REMARK    2  A    between atoms: C1'_4  and  C1_5 
ROOT
ATOM      1  C1  I4B d   1       0.696   0.023   0.227  0.00  0.00    -0.075 A 
ATOM      2  C2  I4B d   1       0.076  -1.156   0.556  0.00  0.00     0.003 A 
ATOM      3  C3  I4B d   1      -1.267  -1.154   1.005  0.00  0.00     0.002 A 
ATOM      4  C4  I4B d   1      -1.931   0.046   1.156  0.00  0.00    -0.004 A 
ATOM      5  C5  I4B d   1      -1.308   1.239   0.799  0.00  0.00     0.002 A 
ATOM      6  C6  I4B d   1       0.010   1.227   0.320  0.00  0.00     0.003 A 
ENDROOT
BRANCH   1   7
ATOM      7  C1' I4B d   1       2.126  -0.012  -0.212  0.00  0.00     0.060 C 
BRANCH   7   8
ATOM      8  C2' I4B d   1       2.269  -1.108  -1.248  0.00  0.00    -0.013 C 
ATOM      9  C4' I4B d   1       2.686  -0.547  -2.582  0.00  0.00     0.013 C 
ATOM     10  C3' I4B d   1       3.275  -2.098  -0.739  0.00  0.00     0.013 C 
ENDBRANCH   7   8
ENDBRANCH   1   7
TORSDOF 2
ENDMDL
