MODEL 1
REMARK minimizedAffinity 3.66667223
REMARK minimizedRMSD -1
REMARK  2 active torsions:
REMARK  status: ('A' for Active; 'I' for Inactive)
REMARK    1  A    between atoms: C2'_3  and  C1'_4 
REMARK    2  A    between atoms: C1'_4  and  C1_5 
ROOT
ATOM      1  C1  I4B d   1       3.782   1.883  -0.276  0.00  0.00    -0.075 A 
ATOM      2  C2  I4B d   1       2.661   1.396   0.348  0.00  0.00     0.003 A 
ATOM      3  C3  I4B d   1       1.901   0.364  -0.255  0.00  0.00     0.002 A 
ATOM      4  C4  I4B d   1       2.268  -0.114  -1.497  0.00  0.00    -0.004 A 
ATOM      5  C5  I4B d   1       3.418   0.365  -2.117  0.00  0.00     0.002 A 
ATOM      6  C6  I4B d   1       4.188   1.361  -1.498  0.00  0.00     0.003 A 
ENDROOT
BRANCH   1   7
ATOM      7  C1' I4B d   1       4.542   2.996   0.373  0.00  0.00     0.060 C 
BRANCH   7   8
ATOM      8  C2' I4B d   1       4.643   2.690   1.854  0.00  0.00    -0.013 C 
ATOM      9  C4' I4B d   1       5.999   3.058   2.395  0.00  0.00     0.013 C 
ATOM     10  C3' I4B d   1       3.556   3.446   2.557  0.00  0.00     0.013 C 
ENDBRANCH   7   8
ENDBRANCH   1   7
TORSDOF 2
ENDMDL
