MODEL 1
REMARK minimizedAffinity 7.14095306
REMARK minimizedRMSD -1
REMARK  2 active torsions:
REMARK  status: ('A' for Active; 'I' for Inactive)
REMARK    1  A    between atoms: C2'_3  and  C1'_4 
REMARK    2  A    between atoms: C1'_4  and  C1_5 
ROOT
ATOM      1  C1  I4B d   1       0.630   0.459  -0.056  0.00  0.00    -0.075 A 
ATOM      2  C2  I4B d   1       0.089   1.706   0.134  0.00  0.00     0.003 A 
ATOM      3  C3  I4B d   1      -1.255   1.843   0.557  0.00  0.00     0.002 A 
ATOM      4  C4  I4B d   1      -2.032   0.715   0.728  0.00  0.00    -0.004 A 
ATOM      5  C5  I4B d   1      -1.475  -0.549   0.557  0.00  0.00     0.002 A 
ATOM      6  C6  I4B d   1      -0.132  -0.679   0.174  0.00  0.00     0.003 A 
ENDROOT
BRANCH   1   7
ATOM      7  C1' I4B d   1       2.043   0.352  -0.535  0.00  0.00     0.060 C 
BRANCH   7   8
ATOM      8  C2' I4B d   1       2.025   0.371  -2.050  0.00  0.00    -0.013 C 
ATOM      9  C4' I4B d   1       2.953   1.425  -2.594  0.00  0.00     0.013 C 
ATOM     10  C3' I4B d   1       2.413  -0.994  -2.535  0.00  0.00     0.013 C 
ENDBRANCH   7   8
ENDBRANCH   1   7
TORSDOF 2
ENDMDL
