MODEL 1
REMARK minimizedAffinity 8.79536438
REMARK minimizedRMSD -1
REMARK  0 active torsions:
REMARK  status: ('A' for Active; 'I' for Inactive)
ROOT
ATOM      1  C4' PXY d   1       4.881  -1.137   2.486  0.00  0.00     0.077 C 
ATOM      2  C1' PXY d   1       4.873   3.292  -1.229  0.00  0.00     0.077 C 
ATOM      3  C1  PXY d   1       4.863   2.132  -0.253  0.00  0.00    -0.082 A 
ATOM      4  C2  PXY d   1       5.985   1.774   0.350  0.00  0.00     0.003 A 
ATOM      5  C3  PXY d   1       6.000   0.707   1.211  0.00  0.00     0.003 A 
ATOM      6  C4  PXY d   1       4.843   0.034   1.500  0.00  0.00    -0.082 A 
ATOM      7  C5  PXY d   1       3.692   0.400   0.898  0.00  0.00     0.003 A 
ATOM      8  C6  PXY d   1       3.706   1.460  -0.005  0.00  0.00     0.003 A 
ENDROOT
TORSDOF 0
ENDMDL
