MODEL 1
REMARK minimizedAffinity 5.61812115
REMARK minimizedRMSD -1
REMARK  0 active torsions:
REMARK  status: ('A' for Active; 'I' for Inactive)
ROOT
ATOM      1  C4' PXY d   1      -3.642   0.627   3.139  0.00  0.00     0.077 C 
ATOM      2  C1' PXY d   1       1.868   1.668   1.736  0.00  0.00     0.077 C 
ATOM      3  C1  PXY d   1       0.421   1.408   2.106  0.00  0.00    -0.082 A 
ATOM      4  C2  PXY d   1       0.067   0.219   2.568  0.00  0.00     0.003 A 
ATOM      5  C3  PXY d   1      -1.243  -0.043   2.877  0.00  0.00     0.003 A 
ATOM      6  C4  PXY d   1      -2.191   0.937   2.762  0.00  0.00    -0.082 A 
ATOM      7  C5  PXY d   1      -1.837   2.156   2.302  0.00  0.00     0.003 A 
ATOM      8  C6  PXY d   1      -0.509   2.389   1.954  0.00  0.00     0.003 A 
ENDROOT
TORSDOF 0
ENDMDL
