MODEL 1
REMARK minimizedAffinity 5.4641366
REMARK minimizedRMSD -1
REMARK  0 active torsions:
REMARK  status: ('A' for Active; 'I' for Inactive)
ROOT
ATOM      1  C4' PXY d   1       0.526   3.349   1.533  0.00  0.00     0.077 C 
ATOM      2  C1' PXY d   1       4.665  -0.683   1.382  0.00  0.00     0.077 C 
ATOM      3  C1  PXY d   1       3.571   0.365   1.422  0.00  0.00    -0.082 A 
ATOM      4  C2  PXY d   1       3.811   1.580   0.956  0.00  0.00     0.003 A 
ATOM      5  C3  PXY d   1       2.843   2.549   1.014  0.00  0.00     0.003 A 
ATOM      6  C4  PXY d   1       1.598   2.257   1.505  0.00  0.00    -0.082 A 
ATOM      7  C5  PXY d   1       1.342   1.016   1.971  0.00  0.00     0.003 A 
ATOM      8  C6  PXY d   1       2.351   0.058   1.942  0.00  0.00     0.003 A 
ENDROOT
TORSDOF 0
ENDMDL
