MODEL 1
REMARK minimizedAffinity 9.83305073
REMARK minimizedRMSD -1
REMARK  0 active torsions:
REMARK  status: ('A' for Active; 'I' for Inactive)
ROOT
ATOM      1  C4' PXY d   1       4.460  -0.409   1.290  0.00  0.00     0.077 C 
ATOM      2  C1' PXY d   1      -0.553   2.356   2.090  0.00  0.00     0.077 C 
ATOM      3  C1  PXY d   1       0.764   1.638   1.870  0.00  0.00    -0.082 A 
ATOM      4  C2  PXY d   1       0.940   0.427   2.372  0.00  0.00     0.003 A 
ATOM      5  C3  PXY d   1       2.136  -0.224   2.209  0.00  0.00     0.003 A 
ATOM      6  C4  PXY d   1       3.143   0.349   1.480  0.00  0.00    -0.082 A 
ATOM      7  C5  PXY d   1       2.967   1.581   0.955  0.00  0.00     0.003 A 
ATOM      8  C6  PXY d   1       1.760   2.241   1.167  0.00  0.00     0.003 A 
ENDROOT
TORSDOF 0
ENDMDL
