MODEL 1
REMARK minimizedAffinity 3.32719445
REMARK minimizedRMSD -1
REMARK  0 active torsions:
REMARK  status: ('A' for Active; 'I' for Inactive)
ROOT
ATOM      1  C4' PXY d   1      -1.186  -1.479  -1.778  0.00  0.00     0.077 C 
ATOM      2  C1' PXY d   1      -5.275  -5.246  -3.359  0.00  0.00     0.077 C 
ATOM      3  C1  PXY d   1      -4.195  -4.263  -2.954  0.00  0.00    -0.082 A 
ATOM      4  C2  PXY d   1      -4.176  -3.783  -1.721  0.00  0.00     0.003 A 
ATOM      5  C3  PXY d   1      -3.225  -2.869  -1.347  0.00  0.00     0.003 A 
ATOM      6  C4  PXY d   1      -2.252  -2.481  -2.229  0.00  0.00    -0.082 A 
ATOM      7  C5  PXY d   1      -2.258  -2.974  -3.485  0.00  0.00     0.003 A 
ATOM      8  C6  PXY d   1      -3.256  -3.870  -3.857  0.00  0.00     0.003 A 
ENDROOT
TORSDOF 0
ENDMDL
