MODEL 1
REMARK minimizedAffinity -1.32095337
REMARK minimizedRMSD -1
REMARK  0 active torsions:
REMARK  status: ('A' for Active; 'I' for Inactive)
ROOT
ATOM      1  C4' PXY d   1       3.493   3.986   0.853  0.00  0.00     0.077 C 
ATOM      2  C1' PXY d   1       5.999  -1.131   1.830  0.00  0.00     0.077 C 
ATOM      3  C1  PXY d   1       5.334   0.206   1.565  0.00  0.00    -0.082 A 
ATOM      4  C2  PXY d   1       6.000   1.325   1.797  0.00  0.00     0.003 A 
ATOM      5  C3  PXY d   1       5.402   2.543   1.593  0.00  0.00     0.003 A 
ATOM      6  C4  PXY d   1       4.128   2.615   1.097  0.00  0.00    -0.082 A 
ATOM      7  C5  PXY d   1       3.446   1.477   0.848  0.00  0.00     0.003 A 
ATOM      8  C6  PXY d   1       4.056   0.251   1.100  0.00  0.00     0.003 A 
ENDROOT
TORSDOF 0
ENDMDL
