MODEL 1
REMARK minimizedAffinity 3.67524886
REMARK minimizedRMSD -1
REMARK  0 active torsions:
REMARK  status: ('A' for Active; 'I' for Inactive)
ROOT
ATOM      1  C4' PXY d   1       1.851   2.665  -0.006  0.00  0.00     0.077 C 
ATOM      2  C1' PXY d   1       5.999  -0.482   2.504  0.00  0.00     0.077 C 
ATOM      3  C1  PXY d   1       4.904   0.332   1.845  0.00  0.00    -0.082 A 
ATOM      4  C2  PXY d   1       5.203   1.485   1.269  0.00  0.00     0.003 A 
ATOM      5  C3  PXY d   1       4.220   2.250   0.695  0.00  0.00     0.003 A 
ATOM      6  C4  PXY d   1       2.926   1.805   0.664  0.00  0.00    -0.082 A 
ATOM      7  C5  PXY d   1       2.614   0.624   1.241  0.00  0.00     0.003 A 
ATOM      8  C6  PXY d   1       3.620  -0.117   1.853  0.00  0.00     0.003 A 
ENDROOT
TORSDOF 0
ENDMDL
