MODEL 1
REMARK minimizedAffinity -2.71213436
REMARK minimizedRMSD -1
REMARK  0 active torsions:
REMARK  status: ('A' for Active; 'I' for Inactive)
ROOT
ATOM      1  C4' PXY d   1      -4.937   0.806   3.400  0.00  0.00     0.077 C 
ATOM      2  C1' PXY d   1      -5.913   5.999   5.745  0.00  0.00     0.077 C 
ATOM      3  C1  PXY d   1      -5.651   4.634   5.141  0.00  0.00    -0.082 A 
ATOM      4  C2  PXY d   1      -5.630   4.493   3.825  0.00  0.00     0.003 A 
ATOM      5  C3  PXY d   1      -5.427   3.260   3.262  0.00  0.00     0.003 A 
ATOM      6  C4  PXY d   1      -5.189   2.168   4.054  0.00  0.00    -0.082 A 
ATOM      7  C5  PXY d   1      -5.198   2.305   5.397  0.00  0.00     0.003 A 
ATOM      8  C6  PXY d   1      -5.448   3.558   5.949  0.00  0.00     0.003 A 
ENDROOT
TORSDOF 0
ENDMDL
