MODEL 1
REMARK minimizedAffinity 5.55694723
REMARK minimizedRMSD -1
REMARK  0 active torsions:
REMARK  status: ('A' for Active; 'I' for Inactive)
ROOT
ATOM      1  C4' PXY d   1      -5.999  -2.828   5.451  0.00  0.00     0.077 C 
ATOM      2  C1' PXY d   1      -4.034   2.159   3.287  0.00  0.00     0.077 C 
ATOM      3  C1  PXY d   1      -4.547   0.855   3.867  0.00  0.00    -0.082 A 
ATOM      4  C2  PXY d   1      -4.560  -0.234   3.116  0.00  0.00     0.003 A 
ATOM      5  C3  PXY d   1      -5.050  -1.414   3.614  0.00  0.00     0.003 A 
ATOM      6  C4  PXY d   1      -5.482  -1.492   4.911  0.00  0.00    -0.082 A 
ATOM      7  C5  PXY d   1      -5.461  -0.388   5.687  0.00  0.00     0.003 A 
ATOM      8  C6  PXY d   1      -4.998   0.810   5.150  0.00  0.00     0.003 A 
ENDROOT
TORSDOF 0
ENDMDL
