MODEL 1
REMARK minimizedAffinity 12.2794228
REMARK minimizedRMSD -1
REMARK  0 active torsions:
REMARK  status: ('A' for Active; 'I' for Inactive)
ROOT
ATOM      1  C4' PXY d   1       1.518  -3.106  -0.415  0.00  0.00     0.077 C 
ATOM      2  C1' PXY d   1      -3.793  -3.031  -2.697  0.00  0.00     0.077 C 
ATOM      3  C1  PXY d   1      -2.402  -3.039  -2.093  0.00  0.00    -0.082 A 
ATOM      4  C2  PXY d   1      -1.445  -3.752  -2.664  0.00  0.00     0.003 A 
ATOM      5  C3  PXY d   1      -0.190  -3.796  -2.113  0.00  0.00     0.003 A 
ATOM      6  C4  PXY d   1       0.102  -3.061  -0.996  0.00  0.00    -0.082 A 
ATOM      7  C5  PXY d   1      -0.867  -2.322  -0.413  0.00  0.00     0.003 A 
ATOM      8  C6  PXY d   1      -2.145  -2.324  -0.965  0.00  0.00     0.003 A 
ENDROOT
TORSDOF 0
ENDMDL
