MODEL 1
REMARK minimizedAffinity 15.7276745
REMARK minimizedRMSD -1
REMARK  0 active torsions:
REMARK  status: ('A' for Active; 'I' for Inactive)
ROOT
ATOM      1  C4' PXY d   1       1.117  -0.950   0.601  0.00  0.00     0.077 C 
ATOM      2  C1' PXY d   1       3.520   4.203   1.644  0.00  0.00     0.077 C 
ATOM      3  C1  PXY d   1       2.896   2.851   1.359  0.00  0.00    -0.082 A 
ATOM      4  C2  PXY d   1       1.762   2.516   1.952  0.00  0.00     0.003 A 
ATOM      5  C3  PXY d   1       1.200   1.284   1.730  0.00  0.00     0.003 A 
ATOM      6  C4  PXY d   1       1.778   0.408   0.851  0.00  0.00    -0.082 A 
ATOM      7  C5  PXY d   1       2.930   0.747   0.234  0.00  0.00     0.003 A 
ATOM      8  C6  PXY d   1       3.505   1.985   0.504  0.00  0.00     0.003 A 
ENDROOT
TORSDOF 0
ENDMDL
