MODEL 1
REMARK minimizedAffinity 9.72016239
REMARK minimizedRMSD -1
REMARK  0 active torsions:
REMARK  status: ('A' for Active; 'I' for Inactive)
ROOT
ATOM      1  C4' PXY d   1      -1.716  -3.580  -4.229  0.00  0.00     0.077 C 
ATOM      2  C1' PXY d   1      -1.257  -3.058   1.509  0.00  0.00     0.077 C 
ATOM      3  C1  PXY d   1      -1.390  -3.196   0.006  0.00  0.00    -0.082 A 
ATOM      4  C2  PXY d   1      -0.361  -3.628  -0.705  0.00  0.00     0.003 A 
ATOM      5  C3  PXY d   1      -0.454  -3.728  -2.070  0.00  0.00     0.003 A 
ATOM      6  C4  PXY d   1      -1.629  -3.435  -2.707  0.00  0.00    -0.082 A 
ATOM      7  C5  PXY d   1      -2.687  -3.004  -1.988  0.00  0.00     0.003 A 
ATOM      8  C6  PXY d   1      -2.559  -2.869  -0.608  0.00  0.00     0.003 A 
ENDROOT
TORSDOF 0
ENDMDL
