MODEL 1
REMARK minimizedAffinity 12.58951
REMARK minimizedRMSD -1
REMARK  0 active torsions:
REMARK  status: ('A' for Active; 'I' for Inactive)
ROOT
ATOM      1  C4' PXY d   1      -2.292  -2.649  -3.427  0.00  0.00     0.077 C 
ATOM      2  C1' PXY d   1       2.878  -2.907  -6.000  0.00  0.00     0.077 C 
ATOM      3  C1  PXY d   1       1.519  -2.829  -5.333  0.00  0.00    -0.082 A 
ATOM      4  C2  PXY d   1       1.360  -3.316  -4.113  0.00  0.00     0.003 A 
ATOM      5  C3  PXY d   1       0.130  -3.283  -3.507  0.00  0.00     0.003 A 
ATOM      6  C4  PXY d   1      -0.936  -2.697  -4.136  0.00  0.00    -0.082 A 
ATOM      7  C5  PXY d   1      -0.779  -2.189  -5.377  0.00  0.00     0.003 A 
ATOM      8  C6  PXY d   1       0.467  -2.269  -5.990  0.00  0.00     0.003 A 
ENDROOT
TORSDOF 0
ENDMDL
