MODEL 1
REMARK minimizedAffinity 4.95707321
REMARK minimizedRMSD -1
REMARK  0 active torsions:
REMARK  status: ('A' for Active; 'I' for Inactive)
ROOT
ATOM      1  C4' PXY d   1       3.721   5.673  -6.000  0.00  0.00     0.077 C 
ATOM      2  C1' PXY d   1       4.919   0.731  -3.250  0.00  0.00     0.077 C 
ATOM      3  C1  PXY d   1       4.609   2.022  -3.982  0.00  0.00    -0.082 A 
ATOM      4  C2  PXY d   1       4.552   3.159  -3.308  0.00  0.00     0.003 A 
ATOM      5  C3  PXY d   1       4.241   4.331  -3.949  0.00  0.00     0.003 A 
ATOM      6  C4  PXY d   1       4.039   4.347  -5.303  0.00  0.00    -0.082 A 
ATOM      7  C5  PXY d   1       4.107   3.193  -6.000  0.00  0.00     0.003 A 
ATOM      8  C6  PXY d   1       4.383   2.008  -5.324  0.00  0.00     0.003 A 
ENDROOT
TORSDOF 0
ENDMDL
