MODEL 1
REMARK minimizedAffinity 15.8402967
REMARK minimizedRMSD -1
REMARK  0 active torsions:
REMARK  status: ('A' for Active; 'I' for Inactive)
ROOT
ATOM      1  C4' PXY d   1       3.001   1.070   1.104  0.00  0.00     0.077 C 
ATOM      2  C1' PXY d   1      -0.011   0.458   6.000  0.00  0.00     0.077 C 
ATOM      3  C1  PXY d   1       0.768   0.623   4.710  0.00  0.00    -0.082 A 
ATOM      4  C2  PXY d   1       1.836  -0.127   4.490  0.00  0.00     0.003 A 
ATOM      5  C3  PXY d   1       2.571   0.032   3.343  0.00  0.00     0.003 A 
ATOM      6  C4  PXY d   1       2.178   0.931   2.388  0.00  0.00    -0.082 A 
ATOM      7  C5  PXY d   1       1.084   1.692   2.600  0.00  0.00     0.003 A 
ATOM      8  C6  PXY d   1       0.376   1.545   3.789  0.00  0.00     0.003 A 
ENDROOT
TORSDOF 0
ENDMDL
