MODEL 1
REMARK minimizedAffinity 13.0103569
REMARK minimizedRMSD -1
REMARK  0 active torsions:
REMARK  status: ('A' for Active; 'I' for Inactive)
ROOT
ATOM      1  C4' PXY d   1      -1.396  -2.740   2.753  0.00  0.00     0.077 C 
ATOM      2  C1' PXY d   1      -1.910  -2.735  -3.005  0.00  0.00     0.077 C 
ATOM      3  C1  PXY d   1      -1.787  -2.733  -1.494  0.00  0.00    -0.082 A 
ATOM      4  C2  PXY d   1      -0.599  -2.575  -0.934  0.00  0.00     0.003 A 
ATOM      5  C3  PXY d   1      -0.466  -2.603   0.431  0.00  0.00     0.003 A 
ATOM      6  C4  PXY d   1      -1.568  -2.740   1.231  0.00  0.00    -0.082 A 
ATOM      7  C5  PXY d   1      -2.786  -2.890   0.668  0.00  0.00     0.003 A 
ATOM      8  C6  PXY d   1      -2.894  -2.901  -0.720  0.00  0.00     0.003 A 
ENDROOT
TORSDOF 0
ENDMDL
