MODEL 1
REMARK minimizedAffinity 7.19250679
REMARK minimizedRMSD -1
REMARK  0 active torsions:
REMARK  status: ('A' for Active; 'I' for Inactive)
ROOT
ATOM      1  C4' PXY d   1      -1.782  -2.721  -5.073  0.00  0.00     0.077 C 
ATOM      2  C1' PXY d   1      -1.722  -3.519   0.652  0.00  0.00     0.077 C 
ATOM      3  C1  PXY d   1      -1.729  -3.320  -0.851  0.00  0.00    -0.082 A 
ATOM      4  C2  PXY d   1      -2.070  -2.144  -1.353  0.00  0.00     0.003 A 
ATOM      5  C3  PXY d   1      -2.113  -1.955  -2.710  0.00  0.00     0.003 A 
ATOM      6  C4  PXY d   1      -1.752  -2.965  -3.561  0.00  0.00    -0.082 A 
ATOM      7  C5  PXY d   1      -1.392  -4.164  -3.057  0.00  0.00     0.003 A 
ATOM      8  C6  PXY d   1      -1.395  -4.348  -1.677  0.00  0.00     0.003 A 
ENDROOT
TORSDOF 0
ENDMDL
