MODEL 1
REMARK minimizedAffinity 2.31579137
REMARK minimizedRMSD -1
REMARK  0 active torsions:
REMARK  status: ('A' for Active; 'I' for Inactive)
ROOT
ATOM      1  C   UNL d   1       4.978   3.729  -0.680  0.00  0.00     0.020 A 
ATOM      2  C1  UNL d   1       4.517   5.015  -0.400  0.00  0.00     0.020 A 
ATOM      3  C2  UNL d   1       4.167   5.362   0.907  0.00  0.00     0.034 A 
ATOM      4  C3  UNL d   1       4.277   4.422   1.938  0.00  0.00     0.017 A 
ATOM      5  C4  UNL d   1       4.740   3.131   1.656  0.00  0.00     0.017 A 
ATOM      6  C5  UNL d   1       5.088   2.789   0.345  0.00  0.00     0.034 A 
ATOM      7 Cl   UNL d   1       4.902   1.918   2.875  0.00  0.00    -0.070 Cl
ATOM      8 Cl1  UNL d   1       3.828   4.920   3.530  0.00  0.00    -0.070 Cl
ENDROOT
TORSDOF 0
ENDMDL
