MODEL 1
REMARK minimizedAffinity 0.551587701
REMARK minimizedRMSD -1
REMARK  0 active torsions:
REMARK  status: ('A' for Active; 'I' for Inactive)
ROOT
ATOM      1  C   UNL d   1      -0.703  -3.582  -0.455  0.00  0.00     0.020 A 
ATOM      2  C1  UNL d   1      -1.372  -3.626  -1.677  0.00  0.00     0.020 A 
ATOM      3  C2  UNL d   1      -2.367  -2.689  -1.963  0.00  0.00     0.034 A 
ATOM      4  C3  UNL d   1      -2.696  -1.703  -1.025  0.00  0.00     0.017 A 
ATOM      5  C4  UNL d   1      -2.024  -1.659   0.201  0.00  0.00     0.017 A 
ATOM      6  C5  UNL d   1      -1.028  -2.600   0.482  0.00  0.00     0.034 A 
ATOM      7 Cl   UNL d   1      -2.374  -0.473   1.409  0.00  0.00    -0.070 Cl
ATOM      8 Cl1  UNL d   1      -3.937  -0.576  -1.445  0.00  0.00    -0.070 Cl
ENDROOT
TORSDOF 0
ENDMDL
