MODEL 1
REMARK minimizedAffinity -2.64929652
REMARK minimizedRMSD -1
REMARK  0 active torsions:
REMARK  status: ('A' for Active; 'I' for Inactive)
ROOT
ATOM      1  C   UNL d   1      -2.608  -4.259  -0.230  0.00  0.00     0.020 A 
ATOM      2  C1  UNL d   1      -1.374  -4.636  -0.758  0.00  0.00     0.020 A 
ATOM      3  C2  UNL d   1      -0.255  -3.823  -0.565  0.00  0.00     0.034 A 
ATOM      4  C3  UNL d   1      -0.368  -2.629   0.157  0.00  0.00     0.017 A 
ATOM      5  C4  UNL d   1      -1.608  -2.252   0.687  0.00  0.00     0.017 A 
ATOM      6  C5  UNL d   1      -2.725  -3.070   0.491  0.00  0.00     0.034 A 
ATOM      7 Cl   UNL d   1      -1.825  -0.794   1.589  0.00  0.00    -0.070 Cl
ATOM      8 Cl1  UNL d   1       1.057  -1.673   0.356  0.00  0.00    -0.070 Cl
ENDROOT
TORSDOF 0
ENDMDL
