MODEL 1
REMARK minimizedAffinity -0.83875674
REMARK minimizedRMSD -1
REMARK  0 active torsions:
REMARK  status: ('A' for Active; 'I' for Inactive)
ROOT
ATOM      1  C   UNL d   1      -3.045  -4.313  -1.138  0.00  0.00     0.020 A 
ATOM      2  C1  UNL d   1      -2.712  -5.617  -1.503  0.00  0.00     0.020 A 
ATOM      3  C2  UNL d   1      -1.371  -5.996  -1.590  0.00  0.00     0.034 A 
ATOM      4  C3  UNL d   1      -0.358  -5.071  -1.312  0.00  0.00     0.017 A 
ATOM      5  C4  UNL d   1      -0.694  -3.763  -0.946  0.00  0.00     0.017 A 
ATOM      6  C5  UNL d   1      -2.038  -3.388  -0.860  0.00  0.00     0.034 A 
ATOM      7 Cl   UNL d   1       0.500  -2.565  -0.587  0.00  0.00    -0.070 Cl
ATOM      8 Cl1  UNL d   1       1.279  -5.609  -1.439  0.00  0.00    -0.070 Cl
ENDROOT
TORSDOF 0
ENDMDL
