MODEL 1
REMARK minimizedAffinity 9.1063509
REMARK minimizedRMSD -1
REMARK  0 active torsions:
REMARK  status: ('A' for Active; 'I' for Inactive)
ROOT
ATOM      1  C   UNL d   1       3.628   1.737   1.400  0.00  0.00     0.020 A 
ATOM      2  C1  UNL d   1       2.248   1.543   1.396  0.00  0.00     0.020 A 
ATOM      3  C2  UNL d   1       1.432   2.314   2.227  0.00  0.00     0.034 A 
ATOM      4  C3  UNL d   1       1.996   3.283   3.065  0.00  0.00     0.017 A 
ATOM      5  C4  UNL d   1       3.382   3.478   3.067  0.00  0.00     0.017 A 
ATOM      6  C5  UNL d   1       4.194   2.703   2.233  0.00  0.00     0.034 A 
ATOM      7 Cl   UNL d   1       4.151   4.654   4.073  0.00  0.00    -0.070 Cl
ATOM      8 Cl1  UNL d   1       0.928   4.201   4.066  0.00  0.00    -0.070 Cl
ENDROOT
TORSDOF 0
ENDMDL
