MODEL 1
REMARK minimizedAffinity 7.00224686
REMARK minimizedRMSD -1
REMARK  0 active torsions:
REMARK  status: ('A' for Active; 'I' for Inactive)
ROOT
ATOM      1  C   UNL d   1       1.756  -3.397   0.002  0.00  0.00     0.020 A 
ATOM      2  C1  UNL d   1       2.877  -2.574  -0.098  0.00  0.00     0.020 A 
ATOM      3  C2  UNL d   1       2.789  -1.227   0.258  0.00  0.00     0.034 A 
ATOM      4  C3  UNL d   1       1.576  -0.698   0.716  0.00  0.00     0.017 A 
ATOM      5  C4  UNL d   1       0.452  -1.525   0.817  0.00  0.00     0.017 A 
ATOM      6  C5  UNL d   1       0.546  -2.873   0.459  0.00  0.00     0.034 A 
ATOM      7 Cl   UNL d   1      -1.078  -0.945   1.374  0.00  0.00    -0.070 Cl
ATOM      8 Cl1  UNL d   1       1.539   0.977   1.139  0.00  0.00    -0.070 Cl
ENDROOT
TORSDOF 0
ENDMDL
