MODEL 1
REMARK minimizedAffinity 5.6513772
REMARK minimizedRMSD -1
REMARK  0 active torsions:
REMARK  status: ('A' for Active; 'I' for Inactive)
ROOT
ATOM      1  C   UNL d   1       2.094   1.415   1.356  0.00  0.00     0.020 A 
ATOM      2  C1  UNL d   1       3.461   1.639   1.198  0.00  0.00     0.020 A 
ATOM      3  C2  UNL d   1       4.040   2.807   1.699  0.00  0.00     0.034 A 
ATOM      4  C3  UNL d   1       3.252   3.755   2.360  0.00  0.00     0.017 A 
ATOM      5  C4  UNL d   1       1.880   3.530   2.518  0.00  0.00     0.017 A 
ATOM      6  C5  UNL d   1       1.305   2.358   2.015  0.00  0.00     0.034 A 
ATOM      7 Cl   UNL d   1       0.842   4.654   3.323  0.00  0.00    -0.070 Cl
ATOM      8 Cl1  UNL d   1       4.034   5.177   2.954  0.00  0.00    -0.070 Cl
ENDROOT
TORSDOF 0
ENDMDL
