MODEL 1
REMARK minimizedAffinity 4.16534758
REMARK minimizedRMSD -1
REMARK  0 active torsions:
REMARK  status: ('A' for Active; 'I' for Inactive)
ROOT
ATOM      1  C   UNL d   1       2.848   2.188   2.060  0.00  0.00     0.020 A 
ATOM      2  C1  UNL d   1       2.023   1.962   3.161  0.00  0.00     0.020 A 
ATOM      3  C2  UNL d   1       1.786   2.988   4.078  0.00  0.00     0.034 A 
ATOM      4  C3  UNL d   1       2.375   4.245   3.896  0.00  0.00     0.017 A 
ATOM      5  C4  UNL d   1       3.203   4.470   2.790  0.00  0.00     0.017 A 
ATOM      6  C5  UNL d   1       3.436   3.439   1.875  0.00  0.00     0.034 A 
ATOM      7 Cl   UNL d   1       3.965   5.994   2.498  0.00  0.00    -0.070 Cl
ATOM      8 Cl1  UNL d   1       2.039   5.468   5.069  0.00  0.00    -0.070 Cl
ENDROOT
TORSDOF 0
ENDMDL
