MODEL 1
REMARK minimizedAffinity 10.6600008
REMARK minimizedRMSD -1
REMARK  0 active torsions:
REMARK  status: ('A' for Active; 'I' for Inactive)
ROOT
ATOM      1  C   UNL d   1       1.964   3.490   1.671  0.00  0.00     0.020 A 
ATOM      2  C1  UNL d   1       2.540   2.296   1.241  0.00  0.00     0.020 A 
ATOM      3  C2  UNL d   1       3.728   1.845   1.820  0.00  0.00     0.034 A 
ATOM      4  C3  UNL d   1       4.344   2.590   2.833  0.00  0.00     0.017 A 
ATOM      5  C4  UNL d   1       3.764   3.789   3.264  0.00  0.00     0.017 A 
ATOM      6  C5  UNL d   1       2.575   4.235   2.680  0.00  0.00     0.034 A 
ATOM      7 Cl   UNL d   1       4.465   4.762   4.508  0.00  0.00    -0.070 Cl
ATOM      8 Cl1  UNL d   1       5.811   1.972   3.505  0.00  0.00    -0.070 Cl
ENDROOT
TORSDOF 0
ENDMDL
