MODEL 1
REMARK minimizedAffinity 7.20610523
REMARK minimizedRMSD -1
REMARK  0 active torsions:
REMARK  status: ('A' for Active; 'I' for Inactive)
ROOT
ATOM      1  C   UNL d   1       2.109   1.284   1.601  0.00  0.00     0.020 A 
ATOM      2  C1  UNL d   1       1.517   2.540   1.721  0.00  0.00     0.020 A 
ATOM      3  C2  UNL d   1       2.280   3.637   2.125  0.00  0.00     0.034 A 
ATOM      4  C3  UNL d   1       3.641   3.480   2.412  0.00  0.00     0.017 A 
ATOM      5  C4  UNL d   1       4.235   2.218   2.292  0.00  0.00     0.017 A 
ATOM      6  C5  UNL d   1       3.466   1.123   1.886  0.00  0.00     0.034 A 
ATOM      7 Cl   UNL d   1       5.909   1.946   2.628  0.00  0.00    -0.070 Cl
ATOM      8 Cl1  UNL d   1       4.525   4.879   2.907  0.00  0.00    -0.070 Cl
ENDROOT
TORSDOF 0
ENDMDL
