MODEL 1
REMARK minimizedAffinity -1.74459946
REMARK minimizedRMSD -1
REMARK  0 active torsions:
REMARK  status: ('A' for Active; 'I' for Inactive)
ROOT
ATOM      1  C   UNL d   1       2.771  -3.585  -0.441  0.00  0.00     0.020 A 
ATOM      2  C1  UNL d   1       1.554  -4.256  -0.321  0.00  0.00     0.020 A 
ATOM      3  C2  UNL d   1       0.395  -3.548   0.002  0.00  0.00     0.034 A 
ATOM      4  C3  UNL d   1       0.450  -2.164   0.207  0.00  0.00     0.017 A 
ATOM      5  C4  UNL d   1       1.671  -1.492   0.087  0.00  0.00     0.017 A 
ATOM      6  C5  UNL d   1       2.829  -2.206  -0.237  0.00  0.00     0.034 A 
ATOM      7 Cl   UNL d   1       1.818   0.214   0.325  0.00  0.00    -0.070 Cl
ATOM      8 Cl1  UNL d   1      -1.023  -1.352   0.604  0.00  0.00    -0.070 Cl
ENDROOT
TORSDOF 0
ENDMDL
