MODEL 1
REMARK minimizedAffinity 11.8991899
REMARK minimizedRMSD -1
REMARK  0 active torsions:
REMARK  status: ('A' for Active; 'I' for Inactive)
ROOT
ATOM      1  C   UNL d   1      -4.297  -1.380   2.912  0.00  0.00     0.020 A 
ATOM      2  C1  UNL d   1      -2.979  -1.824   2.807  0.00  0.00     0.020 A 
ATOM      3  C2  UNL d   1      -2.136  -1.285   1.832  0.00  0.00     0.034 A 
ATOM      4  C3  UNL d   1      -2.609  -0.299   0.960  0.00  0.00     0.017 A 
ATOM      5  C4  UNL d   1      -3.932   0.147   1.066  0.00  0.00     0.017 A 
ATOM      6  C5  UNL d   1      -4.772  -0.396   2.043  0.00  0.00     0.034 A 
ATOM      7 Cl   UNL d   1      -4.587   1.361   0.025  0.00  0.00    -0.070 Cl
ATOM      8 Cl1  UNL d   1      -1.511   0.323  -0.221  0.00  0.00    -0.070 Cl
ENDROOT
TORSDOF 0
ENDMDL
