MODEL 1
REMARK minimizedAffinity 11.0884676
REMARK minimizedRMSD -1
REMARK  0 active torsions:
REMARK  status: ('A' for Active; 'I' for Inactive)
ROOT
ATOM      1  C   UNL d   1       1.041   2.250   2.138  0.00  0.00     0.020 A 
ATOM      2  C1  UNL d   1       1.799   1.255   1.522  0.00  0.00     0.020 A 
ATOM      3  C2  UNL d   1       3.193   1.313   1.565  0.00  0.00     0.034 A 
ATOM      4  C3  UNL d   1       3.834   2.367   2.226  0.00  0.00     0.017 A 
ATOM      5  C4  UNL d   1       3.072   3.365   2.845  0.00  0.00     0.017 A 
ATOM      6  C5  UNL d   1       1.676   3.303   2.798  0.00  0.00     0.034 A 
ATOM      7 Cl   UNL d   1       3.791   4.697   3.679  0.00  0.00    -0.070 Cl
ATOM      8 Cl1  UNL d   1       5.562   2.374   2.241  0.00  0.00    -0.070 Cl
ENDROOT
TORSDOF 0
ENDMDL
