MODEL 1
REMARK minimizedAffinity 14.4051399
REMARK minimizedRMSD -1
REMARK  0 active torsions:
REMARK  status: ('A' for Active; 'I' for Inactive)
ROOT
ATOM      1  C   UNL d   1       1.978   2.875   1.263  0.00  0.00     0.020 A 
ATOM      2  C1  UNL d   1       2.200   2.215   2.471  0.00  0.00     0.020 A 
ATOM      3  C2  UNL d   1       3.173   2.686   3.355  0.00  0.00     0.034 A 
ATOM      4  C3  UNL d   1       3.928   3.819   3.032  0.00  0.00     0.017 A 
ATOM      5  C4  UNL d   1       3.705   4.481   1.819  0.00  0.00     0.017 A 
ATOM      6  C5  UNL d   1       2.729   4.005   0.938  0.00  0.00     0.034 A 
ATOM      7 Cl   UNL d   1       4.597   5.886   1.351  0.00  0.00    -0.070 Cl
ATOM      8 Cl1  UNL d   1       5.115   4.346   4.173  0.00  0.00    -0.070 Cl
ENDROOT
TORSDOF 0
ENDMDL
