MODEL 1
REMARK minimizedAffinity 2.43865418
REMARK minimizedRMSD -1
REMARK  0 active torsions:
REMARK  status: ('A' for Active; 'I' for Inactive)
ROOT
ATOM      1  C   UNL d   1       2.322   5.968   3.519  0.00  0.00     0.020 A 
ATOM      2  C1  UNL d   1       3.633   5.889   3.050  0.00  0.00     0.020 A 
ATOM      3  C2  UNL d   1       4.130   4.677   2.567  0.00  0.00     0.034 A 
ATOM      4  C3  UNL d   1       3.316   3.538   2.553  0.00  0.00     0.017 A 
ATOM      5  C4  UNL d   1       2.001   3.618   3.024  0.00  0.00     0.017 A 
ATOM      6  C5  UNL d   1       1.508   4.835   3.506  0.00  0.00     0.034 A 
ATOM      7 Cl   UNL d   1       0.937   2.256   3.038  0.00  0.00    -0.070 Cl
ATOM      8 Cl1  UNL d   1       3.997   2.072   1.942  0.00  0.00    -0.070 Cl
ENDROOT
TORSDOF 0
ENDMDL
