MODEL 1
REMARK minimizedAffinity 8.53341007
REMARK minimizedRMSD -1
REMARK  0 active torsions:
REMARK  status: ('A' for Active; 'I' for Inactive)
ROOT
ATOM      1  C   UNL d   1       1.586   4.855   4.388  0.00  0.00     0.020 A 
ATOM      2  C1  UNL d   1       1.513   3.507   4.737  0.00  0.00     0.020 A 
ATOM      3  C2  UNL d   1       1.851   2.525   3.803  0.00  0.00     0.034 A 
ATOM      4  C3  UNL d   1       2.263   2.890   2.516  0.00  0.00     0.017 A 
ATOM      5  C4  UNL d   1       2.336   4.243   2.167  0.00  0.00     0.017 A 
ATOM      6  C5  UNL d   1       1.996   5.222   3.106  0.00  0.00     0.034 A 
ATOM      7 Cl   UNL d   1       2.835   4.771   0.599  0.00  0.00    -0.070 Cl
ATOM      8 Cl1  UNL d   1       2.666   1.623   1.413  0.00  0.00    -0.070 Cl
ENDROOT
TORSDOF 0
ENDMDL
