MODEL 1
REMARK minimizedAffinity 11.4670906
REMARK minimizedRMSD -1
REMARK  0 active torsions:
REMARK  status: ('A' for Active; 'I' for Inactive)
ROOT
ATOM      1  C   UNL d   1       1.875   3.042   1.555  0.00  0.00     0.020 A 
ATOM      2  C1  UNL d   1       2.615   1.867   1.428  0.00  0.00     0.020 A 
ATOM      3  C2  UNL d   1       3.887   1.779   1.998  0.00  0.00     0.034 A 
ATOM      4  C3  UNL d   1       4.422   2.867   2.698  0.00  0.00     0.017 A 
ATOM      5  C4  UNL d   1       3.677   4.046   2.825  0.00  0.00     0.017 A 
ATOM      6  C5  UNL d   1       2.405   4.128   2.251  0.00  0.00     0.034 A 
ATOM      7 Cl   UNL d   1       4.270   5.430   3.673  0.00  0.00    -0.070 Cl
ATOM      8 Cl1  UNL d   1       6.000   2.688   3.378  0.00  0.00    -0.070 Cl
ENDROOT
TORSDOF 0
ENDMDL
