MODEL 1
REMARK minimizedAffinity 10.8871078
REMARK minimizedRMSD -1
REMARK  0 active torsions:
REMARK  status: ('A' for Active; 'I' for Inactive)
ROOT
ATOM      1  C   UNL d   1       5.490   2.623   1.760  0.00  0.00     0.020 A 
ATOM      2  C1  UNL d   1       5.632   4.010   1.776  0.00  0.00     0.020 A 
ATOM      3  C2  UNL d   1       4.565   4.817   2.177  0.00  0.00     0.034 A 
ATOM      4  C3  UNL d   1       3.351   4.237   2.563  0.00  0.00     0.017 A 
ATOM      5  C4  UNL d   1       3.210   2.844   2.547  0.00  0.00     0.017 A 
ATOM      6  C5  UNL d   1       4.282   2.042   2.144  0.00  0.00     0.034 A 
ATOM      7 Cl   UNL d   1       1.743   2.056   3.010  0.00  0.00    -0.070 Cl
ATOM      8 Cl1  UNL d   1       2.074   5.294   3.048  0.00  0.00    -0.070 Cl
ENDROOT
TORSDOF 0
ENDMDL
