MODEL 1
REMARK minimizedAffinity 2.16241288
REMARK minimizedRMSD -1
REMARK  0 active torsions:
REMARK  status: ('A' for Active; 'I' for Inactive)
ROOT
ATOM      1  C   UNL d   1       1.262  -3.439   0.651  0.00  0.00     0.020 A 
ATOM      2  C1  UNL d   1       1.741  -4.664   0.188  0.00  0.00     0.020 A 
ATOM      3  C2  UNL d   1       0.962  -5.439  -0.673  0.00  0.00     0.034 A 
ATOM      4  C3  UNL d   1      -0.302  -4.990  -1.074  0.00  0.00     0.017 A 
ATOM      5  C4  UNL d   1      -0.783  -3.761  -0.609  0.00  0.00     0.017 A 
ATOM      6  C5  UNL d   1       0.002  -2.989   0.253  0.00  0.00     0.034 A 
ATOM      7 Cl   UNL d   1      -2.332  -3.141  -1.059  0.00  0.00    -0.070 Cl
ATOM      8 Cl1  UNL d   1      -1.212  -6.000  -2.141  0.00  0.00    -0.070 Cl
ENDROOT
TORSDOF 0
ENDMDL
