MODEL 1
REMARK minimizedAffinity 4.23754215
REMARK minimizedRMSD -1
REMARK  0 active torsions:
REMARK  status: ('A' for Active; 'I' for Inactive)
ROOT
ATOM      1  C   UNL d   1       4.117   5.405   5.913  0.00  0.00     0.020 A 
ATOM      2  C1  UNL d   1       3.178   5.999   5.072  0.00  0.00     0.020 A 
ATOM      3  C2  UNL d   1       2.965   5.487   3.790  0.00  0.00     0.034 A 
ATOM      4  C3  UNL d   1       3.693   4.377   3.346  0.00  0.00     0.017 A 
ATOM      5  C4  UNL d   1       4.636   3.781   4.192  0.00  0.00     0.017 A 
ATOM      6  C5  UNL d   1       4.845   4.298   5.474  0.00  0.00     0.034 A 
ATOM      7 Cl   UNL d   1       5.572   2.409   3.714  0.00  0.00    -0.070 Cl
ATOM      8 Cl1  UNL d   1       3.379   3.796   1.749  0.00  0.00    -0.070 Cl
ENDROOT
TORSDOF 0
ENDMDL
