MODEL 1
REMARK minimizedAffinity -4.00463724
REMARK minimizedRMSD -1
REMARK  1 active torsions:
REMARK  status: ('A' for Active; 'I' for Inactive)
REMARK    1  A    between atoms: C1_2  and  C2_3 
ROOT
ATOM      1  C2  UNL d   1      -0.475   0.418  -0.663  0.00  0.00    -0.077 A 
ATOM      2  C3  UNL d   1       0.415   1.275  -0.000  0.00  0.00     0.002 A 
ATOM      3  C4  UNL d   1       1.727   0.872   0.253  0.00  0.00     0.002 A 
ATOM      4  C5  UNL d   1       2.163  -0.387  -0.157  0.00  0.00    -0.004 A 
ATOM      5  C6  UNL d   1       1.285  -1.247  -0.815  0.00  0.00     0.002 A 
ATOM      6  C7  UNL d   1      -0.028  -0.846  -1.068  0.00  0.00     0.002 A 
ENDROOT
BRANCH   1   7
ATOM      7  C1  UNL d   1      -1.876   0.870  -0.981  0.00  0.00     0.055 C 
ATOM      8  C   UNL d   1      -1.949   1.528  -2.351  0.00  0.00     0.019 C 
ENDBRANCH   1   7
TORSDOF 1
ENDMDL
