MODEL 1
REMARK minimizedAffinity -4.57216597
REMARK minimizedRMSD -1
REMARK  1 active torsions:
REMARK  status: ('A' for Active; 'I' for Inactive)
REMARK    1  A    between atoms: C1_2  and  C2_3 
ROOT
ATOM      1  C2  UNL d   1       0.692   0.384  -0.223  0.00  0.00    -0.077 A 
ATOM      2  C3  UNL d   1       1.899   0.492  -0.928  0.00  0.00     0.002 A 
ATOM      3  C4  UNL d   1       2.885  -0.488  -0.794  0.00  0.00     0.002 A 
ATOM      4  C5  UNL d   1       2.672  -1.583   0.041  0.00  0.00    -0.004 A 
ATOM      5  C6  UNL d   1       1.476  -1.698   0.747  0.00  0.00     0.002 A 
ATOM      6  C7  UNL d   1       0.490  -0.720   0.616  0.00  0.00     0.002 A 
ENDROOT
BRANCH   1   7
ATOM      7  C1  UNL d   1      -0.392   1.414  -0.404  0.00  0.00     0.055 C 
ATOM      8  C   UNL d   1      -1.262   1.096  -1.612  0.00  0.00     0.019 C 
ENDBRANCH   1   7
TORSDOF 1
ENDMDL
