MODEL 1
REMARK minimizedAffinity -4.9855051
REMARK minimizedRMSD -1
REMARK  1 active torsions:
REMARK  status: ('A' for Active; 'I' for Inactive)
REMARK    1  A    between atoms: C1_2  and  C2_3 
ROOT
ATOM      1  C2  UNL d   1       0.998  -0.339   0.570  0.00  0.00    -0.077 A 
ATOM      2  C3  UNL d   1       1.688  -1.195   1.440  0.00  0.00     0.002 A 
ATOM      3  C4  UNL d   1       3.082  -1.262   1.407  0.00  0.00     0.002 A 
ATOM      4  C5  UNL d   1       3.798  -0.473   0.508  0.00  0.00    -0.004 A 
ATOM      5  C6  UNL d   1       3.120   0.380  -0.362  0.00  0.00     0.002 A 
ATOM      6  C7  UNL d   1       1.727   0.447  -0.331  0.00  0.00     0.002 A 
ENDROOT
BRANCH   1   7
ATOM      7  C1  UNL d   1      -0.503  -0.229   0.639  0.00  0.00     0.055 C 
ATOM      8  C   UNL d   1      -1.040  -0.795   1.945  0.00  0.00     0.019 C 
ENDBRANCH   1   7
TORSDOF 1
ENDMDL
