MODEL 1
REMARK minimizedAffinity -5.39691496
REMARK minimizedRMSD -1
REMARK  1 active torsions:
REMARK  status: ('A' for Active; 'I' for Inactive)
REMARK    1  A    between atoms: C1_2  and  C2_3 
ROOT
ATOM      1  C2  UNL d   1       0.825   0.265   0.143  0.00  0.00    -0.077 A 
ATOM      2  C3  UNL d   1       0.453  -0.997   0.627  0.00  0.00     0.002 A 
ATOM      3  C4  UNL d   1       1.422  -1.968   0.886  0.00  0.00     0.002 A 
ATOM      4  C5  UNL d   1       2.769  -1.686   0.668  0.00  0.00    -0.004 A 
ATOM      5  C6  UNL d   1       3.149  -0.435   0.185  0.00  0.00     0.002 A 
ATOM      6  C7  UNL d   1       2.182   0.537  -0.076  0.00  0.00     0.002 A 
ENDROOT
BRANCH   1   7
ATOM      7  C1  UNL d   1      -0.214   1.330  -0.091  0.00  0.00     0.055 C 
ATOM      8  C   UNL d   1       0.277   2.375  -1.083  0.00  0.00     0.019 C 
ENDBRANCH   1   7
TORSDOF 1
ENDMDL
