MODEL 1
REMARK minimizedAffinity -4.88566399
REMARK minimizedRMSD -1
REMARK  1 active torsions:
REMARK  status: ('A' for Active; 'I' for Inactive)
REMARK    1  A    between atoms: C1_2  and  C2_3 
ROOT
ATOM      1  C2  UNL d   1      -0.697   1.150  -1.247  0.00  0.00    -0.077 A 
ATOM      2  C3  UNL d   1      -1.477   0.030  -1.569  0.00  0.00     0.002 A 
ATOM      3  C4  UNL d   1      -2.254   0.021  -2.729  0.00  0.00     0.002 A 
ATOM      4  C5  UNL d   1      -2.255   1.125  -3.578  0.00  0.00    -0.004 A 
ATOM      5  C6  UNL d   1      -1.485   2.245  -3.266  0.00  0.00     0.002 A 
ATOM      6  C7  UNL d   1      -0.708   2.257  -2.106  0.00  0.00     0.002 A 
ENDROOT
BRANCH   1   7
ATOM      7  C1  UNL d   1       0.180   1.143  -0.023  0.00  0.00     0.055 C 
ATOM      8  C   UNL d   1       1.212   0.027  -0.087  0.00  0.00     0.019 C 
ENDBRANCH   1   7
TORSDOF 1
ENDMDL
