MODEL 1
REMARK minimizedAffinity -5.5646224
REMARK minimizedRMSD -1
REMARK  1 active torsions:
REMARK  status: ('A' for Active; 'I' for Inactive)
REMARK    1  A    between atoms: C1_2  and  C2_3 
ROOT
ATOM      1  C2  UNL d   1       0.003   0.181   0.214  0.00  0.00    -0.077 A 
ATOM      2  C3  UNL d   1      -0.369  -1.129   0.546  0.00  0.00     0.002 A 
ATOM      3  C4  UNL d   1       0.588  -2.144   0.599  0.00  0.00     0.002 A 
ATOM      4  C5  UNL d   1       1.924  -1.859   0.326  0.00  0.00    -0.004 A 
ATOM      5  C6  UNL d   1       2.304  -0.559  -0.008  0.00  0.00     0.002 A 
ATOM      6  C7  UNL d   1       1.349   0.456  -0.063  0.00  0.00     0.002 A 
ENDROOT
BRANCH   1   7
ATOM      7  C1  UNL d   1      -1.020   1.287   0.204  0.00  0.00     0.055 C 
ATOM      8  C   UNL d   1      -1.508   1.577  -1.208  0.00  0.00     0.019 C 
ENDBRANCH   1   7
TORSDOF 1
ENDMDL
