MODEL 1
REMARK minimizedAffinity -4.89516878
REMARK minimizedRMSD -1
REMARK  1 active torsions:
REMARK  status: ('A' for Active; 'I' for Inactive)
REMARK    1  A    between atoms: C1_2  and  C2_3 
ROOT
ATOM      1  C2  UNL d   1      -0.530   0.009  -0.832  0.00  0.00    -0.077 A 
ATOM      2  C3  UNL d   1      -1.375  -0.384  -1.879  0.00  0.00     0.002 A 
ATOM      3  C4  UNL d   1      -2.122   0.566  -2.578  0.00  0.00     0.002 A 
ATOM      4  C5  UNL d   1      -2.028   1.915  -2.241  0.00  0.00    -0.004 A 
ATOM      5  C6  UNL d   1      -1.192   2.315  -1.200  0.00  0.00     0.002 A 
ATOM      6  C7  UNL d   1      -0.445   1.367  -0.499  0.00  0.00     0.002 A 
ENDROOT
BRANCH   1   7
ATOM      7  C1  UNL d   1       0.314  -1.008  -0.109  0.00  0.00     0.055 C 
ATOM      8  C   UNL d   1      -0.233  -1.293   1.282  0.00  0.00     0.019 C 
ENDBRANCH   1   7
TORSDOF 1
ENDMDL
