MODEL 1
REMARK minimizedAffinity -4.61082268
REMARK minimizedRMSD -1
REMARK  1 active torsions:
REMARK  status: ('A' for Active; 'I' for Inactive)
REMARK    1  A    between atoms: C1_2  and  C2_3 
ROOT
ATOM      1  C2  UNL d   1       0.169   0.444   0.425  0.00  0.00    -0.077 A 
ATOM      2  C3  UNL d   1      -0.385  -0.644   1.115  0.00  0.00     0.002 A 
ATOM      3  C4  UNL d   1       0.404  -1.749   1.441  0.00  0.00     0.002 A 
ATOM      4  C5  UNL d   1       1.751  -1.775   1.084  0.00  0.00    -0.004 A 
ATOM      5  C6  UNL d   1       2.310  -0.699   0.395  0.00  0.00     0.002 A 
ATOM      6  C7  UNL d   1       1.522   0.405   0.068  0.00  0.00     0.002 A 
ENDROOT
BRANCH   1   7
ATOM      7  C1  UNL d   1      -0.668   1.657   0.116  0.00  0.00     0.055 C 
ATOM      8  C   UNL d   1      -1.265   1.578  -1.281  0.00  0.00     0.019 C 
ENDBRANCH   1   7
TORSDOF 1
ENDMDL
