MODEL 1
REMARK minimizedAffinity -4.50062609
REMARK minimizedRMSD -1
REMARK  1 active torsions:
REMARK  status: ('A' for Active; 'I' for Inactive)
REMARK    1  A    between atoms: C1_2  and  C2_3 
ROOT
ATOM      1  C2  UNL d   1       0.332  -0.655   0.229  0.00  0.00    -0.077 A 
ATOM      2  C3  UNL d   1      -0.191  -1.859   0.721  0.00  0.00     0.002 A 
ATOM      3  C4  UNL d   1       0.635  -2.769   1.384  0.00  0.00     0.002 A 
ATOM      4  C5  UNL d   1       1.986  -2.482   1.565  0.00  0.00    -0.004 A 
ATOM      5  C6  UNL d   1       2.516  -1.288   1.077  0.00  0.00     0.002 A 
ATOM      6  C7  UNL d   1       1.693  -0.378   0.413  0.00  0.00     0.002 A 
ENDROOT
BRANCH   1   7
ATOM      7  C1  UNL d   1      -0.567   0.350  -0.443  0.00  0.00     0.055 C 
ATOM      8  C   UNL d   1      -0.778   1.576   0.432  0.00  0.00     0.019 C 
ENDBRANCH   1   7
TORSDOF 1
ENDMDL
