MODEL 1
REMARK minimizedAffinity -3.44611859
REMARK minimizedRMSD -1
REMARK  1 active torsions:
REMARK  status: ('A' for Active; 'I' for Inactive)
REMARK    1  A    between atoms: C1_2  and  C2_3 
ROOT
ATOM      1  C2  UNL d   1      -0.492   0.808  -0.263  0.00  0.00    -0.077 A 
ATOM      2  C3  UNL d   1       0.848   0.775  -0.675  0.00  0.00     0.002 A 
ATOM      3  C4  UNL d   1       1.689  -0.260  -0.262  0.00  0.00     0.002 A 
ATOM      4  C5  UNL d   1       1.199  -1.272   0.561  0.00  0.00    -0.004 A 
ATOM      5  C6  UNL d   1      -0.131  -1.247   0.978  0.00  0.00     0.002 A 
ATOM      6  C7  UNL d   1      -0.973  -0.213   0.567  0.00  0.00     0.002 A 
ENDROOT
BRANCH   1   7
ATOM      7  C1  UNL d   1      -1.413   1.897  -0.746  0.00  0.00     0.055 C 
ATOM      8  C   UNL d   1      -2.271   1.420  -1.910  0.00  0.00     0.019 C 
ENDBRANCH   1   7
TORSDOF 1
ENDMDL
