MODEL 1
REMARK minimizedAffinity -6.24916744
REMARK minimizedRMSD -1
REMARK  0 active torsions:
REMARK  status: ('A' for Active; 'I' for Inactive)
ROOT
ATOM      1  C1  DEN d   1       1.755  -1.769   1.258  0.00  0.00     0.130 A 
ATOM      2  C2  DEN d   1       1.690  -1.592   2.707  0.00  0.00    -0.031 A 
ATOM      3  C3  DEN d   1       0.922  -0.361   2.982  0.00  0.00     0.027 A 
ATOM      4  C4  DEN d   1      -0.172   1.276   1.316  0.00  0.00     0.027 A 
ATOM      5  C5  DEN d   1      -0.376   1.550  -0.019  0.00  0.00    -0.003 A 
ATOM      6  C6  DEN d   1       0.141   0.763  -1.013  0.00  0.00     0.001 A 
ATOM      7  C7  DEN d   1       0.850  -0.363  -0.688  0.00  0.00     0.017 A 
ATOM      8  C8  DEN d   1       1.066  -0.643   0.655  0.00  0.00    -0.094 A 
ATOM      9  C9  DEN d   1       0.525   0.159   1.646  0.00  0.00    -0.072 A 
ENDROOT
TORSDOF 0
ENDMDL
