MODEL 1
REMARK minimizedAffinity -2.43533707
REMARK minimizedRMSD -1
REMARK  0 active torsions:
REMARK  status: ('A' for Active; 'I' for Inactive)
ROOT
ATOM      1  C1  DEN d   1       1.844  -1.742   1.598  0.00  0.00     0.130 A 
ATOM      2  C2  DEN d   1       1.156  -1.577   2.876  0.00  0.00    -0.031 A 
ATOM      3  C3  DEN d   1      -0.113  -0.866   2.623  0.00  0.00     0.027 A 
ATOM      4  C4  DEN d   1      -1.078  -0.014   0.388  0.00  0.00     0.027 A 
ATOM      5  C5  DEN d   1      -0.851   0.089  -0.966  0.00  0.00    -0.003 A 
ATOM      6  C6  DEN d   1       0.297  -0.377  -1.552  0.00  0.00     0.001 A 
ATOM      7  C7  DEN d   1       1.241  -1.008  -0.786  0.00  0.00     0.017 A 
ATOM      8  C8  DEN d   1       1.022  -1.109   0.582  0.00  0.00    -0.094 A 
ATOM      9  C9  DEN d   1      -0.150  -0.643   1.153  0.00  0.00    -0.072 A 
ENDROOT
TORSDOF 0
ENDMDL
