MODEL 1
REMARK minimizedAffinity -1.58662426
REMARK minimizedRMSD -1
REMARK  0 active torsions:
REMARK  status: ('A' for Active; 'I' for Inactive)
ROOT
ATOM      1  C1  DEN d   1       0.328   0.709   0.876  0.00  0.00     0.130 A 
ATOM      2  C2  DEN d   1      -0.594  -0.328   1.330  0.00  0.00    -0.031 A 
ATOM      3  C3  DEN d   1      -1.604  -0.535   0.273  0.00  0.00     0.027 A 
ATOM      4  C4  DEN d   1      -1.827   0.641  -2.012  0.00  0.00     0.027 A 
ATOM      5  C5  DEN d   1      -1.285   1.601  -2.838  0.00  0.00    -0.003 A 
ATOM      6  C6  DEN d   1      -0.197   2.348  -2.473  0.00  0.00     0.001 A 
ATOM      7  C7  DEN d   1       0.412   2.117  -1.268  0.00  0.00     0.017 A 
ATOM      8  C8  DEN d   1      -0.133   1.156  -0.426  0.00  0.00    -0.094 A 
ATOM      9  C9  DEN d   1      -1.226   0.402  -0.819  0.00  0.00    -0.072 A 
ENDROOT
TORSDOF 0
ENDMDL
