MODEL 1
REMARK minimizedAffinity -5.62817764
REMARK minimizedRMSD -1
REMARK  0 active torsions:
REMARK  status: ('A' for Active; 'I' for Inactive)
ROOT
ATOM      1  C1  DEN d   1       0.545  -0.553  -0.819  0.00  0.00     0.130 A 
ATOM      2  C2  DEN d   1      -0.422   0.432  -0.343  0.00  0.00    -0.031 A 
ATOM      3  C3  DEN d   1      -0.251   0.572   1.117  0.00  0.00     0.027 A 
ATOM      4  C4  DEN d   1       1.412  -0.632   2.678  0.00  0.00     0.027 A 
ATOM      5  C5  DEN d   1       2.424  -1.565   2.735  0.00  0.00    -0.003 A 
ATOM      6  C6  DEN d   1       2.854  -2.244   1.627  0.00  0.00     0.001 A 
ATOM      7  C7  DEN d   1       2.301  -1.969   0.404  0.00  0.00     0.017 A 
ATOM      8  C8  DEN d   1       1.275  -1.035   0.340  0.00  0.00    -0.094 A 
ATOM      9  C9  DEN d   1       0.863  -0.349   1.470  0.00  0.00    -0.072 A 
ENDROOT
TORSDOF 0
ENDMDL
