MODEL 1
REMARK minimizedAffinity -5.34337187
REMARK minimizedRMSD -1
REMARK  0 active torsions:
REMARK  status: ('A' for Active; 'I' for Inactive)
ROOT
ATOM      1  C1  DEN d   1      -1.818  -0.445   0.798  0.00  0.00     0.130 A 
ATOM      2  C2  DEN d   1      -1.660   0.065  -0.561  0.00  0.00    -0.031 A 
ATOM      3  C3  DEN d   1      -0.249  -0.121  -0.957  0.00  0.00     0.027 A 
ATOM      4  C4  DEN d   1       1.693  -1.150   0.393  0.00  0.00     0.027 A 
ATOM      5  C5  DEN d   1       2.047  -1.713   1.600  0.00  0.00    -0.003 A 
ATOM      6  C6  DEN d   1       1.153  -1.860   2.627  0.00  0.00     0.001 A 
ATOM      7  C7  DEN d   1      -0.151  -1.481   2.451  0.00  0.00     0.017 A 
ATOM      8  C8  DEN d   1      -0.514  -0.906   1.241  0.00  0.00    -0.094 A 
ATOM      9  C9  DEN d   1       0.401  -0.777   0.210  0.00  0.00    -0.072 A 
ENDROOT
TORSDOF 0
ENDMDL
