MODEL 1
REMARK minimizedAffinity -6.26016998
REMARK minimizedRMSD -1
REMARK  0 active torsions:
REMARK  status: ('A' for Active; 'I' for Inactive)
ROOT
ATOM      1  C1  DEN d   1       2.566  -2.365   0.752  0.00  0.00     0.130 A 
ATOM      2  C2  DEN d   1       2.536  -2.299  -0.707  0.00  0.00    -0.031 A 
ATOM      3  C3  DEN d   1       1.352  -1.510  -1.103  0.00  0.00     0.027 A 
ATOM      4  C4  DEN d   1      -0.424  -0.386   0.393  0.00  0.00     0.027 A 
ATOM      5  C5  DEN d   1      -0.827  -0.176   1.693  0.00  0.00    -0.003 A 
ATOM      6  C6  DEN d   1      -0.151  -0.705   2.761  0.00  0.00     0.001 A 
ATOM      7  C7  DEN d   1       0.990  -1.433   2.549  0.00  0.00     0.017 A 
ATOM      8  C8  DEN d   1       1.398  -1.655   1.240  0.00  0.00    -0.094 A 
ATOM      9  C9  DEN d   1       0.708  -1.102   0.175  0.00  0.00    -0.072 A 
ENDROOT
TORSDOF 0
ENDMDL
