MODEL 1
REMARK minimizedAffinity -4.63456631
REMARK minimizedRMSD -1
REMARK  0 active torsions:
REMARK  status: ('A' for Active; 'I' for Inactive)
ROOT
ATOM      1  C1  DEN d   1       0.225   0.299  -0.996  0.00  0.00     0.130 A 
ATOM      2  C2  DEN d   1      -1.199  -0.018  -1.068  0.00  0.00    -0.031 A 
ATOM      3  C3  DEN d   1      -1.596  -0.630   0.215  0.00  0.00     0.027 A 
ATOM      4  C4  DEN d   1      -0.154  -1.113   2.298  0.00  0.00     0.027 A 
ATOM      5  C5  DEN d   1       1.115  -1.030   2.829  0.00  0.00    -0.003 A 
ATOM      6  C6  DEN d   1       2.174  -0.535   2.115  0.00  0.00     0.001 A 
ATOM      7  C7  DEN d   1       1.974  -0.060   0.846  0.00  0.00     0.017 A 
ATOM      8  C8  DEN d   1       0.700  -0.146   0.302  0.00  0.00    -0.094 A 
ATOM      9  C9  DEN d   1      -0.360  -0.639   1.043  0.00  0.00    -0.072 A 
ENDROOT
TORSDOF 0
ENDMDL
