MODEL 1
REMARK minimizedAffinity 2.24606395
REMARK minimizedRMSD -1
REMARK  0 active torsions:
REMARK  status: ('A' for Active; 'I' for Inactive)
ROOT
ATOM      1  C   UNL d   1      -5.984  -4.141   3.523  0.00  0.00     0.077 C 
ATOM      2  C1  UNL d   1      -5.967  -2.733   3.006  0.00  0.00    -0.074 A 
ATOM      3  C2  UNL d   1      -5.999  -2.471   1.633  0.00  0.00    -0.005 A 
ATOM      4  C3  UNL d   1      -5.993  -1.156   1.168  0.00  0.00     0.006 A 
ATOM      5  C4  UNL d   1      -5.953  -0.092   2.070  0.00  0.00    -0.005 A 
ATOM      6  C5  UNL d   1      -5.921  -0.335   3.447  0.00  0.00    -0.074 A 
ATOM      7  C6  UNL d   1      -5.889   0.797   4.430  0.00  0.00     0.077 C 
ATOM      8  C7  UNL d   1      -5.936  -1.659   3.906  0.00  0.00    -0.001 A 
ENDROOT
TORSDOF 0
ENDMDL
