MODEL 1
REMARK minimizedAffinity -0.0799518749
REMARK minimizedRMSD -1
REMARK  0 active torsions:
REMARK  status: ('A' for Active; 'I' for Inactive)
ROOT
ATOM      1  C   UNL d   1      -1.832   0.715  -1.276  0.00  0.00     0.077 C 
ATOM      2  C1  UNL d   1      -1.311   1.011   0.099  0.00  0.00    -0.074 A 
ATOM      3  C2  UNL d   1      -1.977   1.906   0.942  0.00  0.00    -0.005 A 
ATOM      4  C3  UNL d   1      -1.487   2.165   2.222  0.00  0.00     0.006 A 
ATOM      5  C4  UNL d   1      -0.327   1.532   2.671  0.00  0.00    -0.005 A 
ATOM      6  C5  UNL d   1       0.352   0.633   1.842  0.00  0.00    -0.074 A 
ATOM      7  C6  UNL d   1       1.595  -0.063   2.313  0.00  0.00     0.077 C 
ATOM      8  C7  UNL d   1      -0.151   0.373   0.560  0.00  0.00    -0.001 A 
ENDROOT
TORSDOF 0
ENDMDL
