MODEL 1
REMARK minimizedAffinity -2.50292754
REMARK minimizedRMSD -1
REMARK  0 active torsions:
REMARK  status: ('A' for Active; 'I' for Inactive)
ROOT
ATOM      1  C   UNL d   1       1.628   3.107   2.677  0.00  0.00     0.077 C 
ATOM      2  C1  UNL d   1       0.534   2.269   2.087  0.00  0.00    -0.074 A 
ATOM      3  C2  UNL d   1      -0.807   2.649   2.206  0.00  0.00    -0.005 A 
ATOM      4  C3  UNL d   1      -1.813   1.864   1.644  0.00  0.00     0.006 A 
ATOM      5  C4  UNL d   1      -1.490   0.693   0.957  0.00  0.00    -0.005 A 
ATOM      6  C5  UNL d   1      -0.155   0.297   0.827  0.00  0.00    -0.074 A 
ATOM      7  C6  UNL d   1       0.211  -0.953   0.084  0.00  0.00     0.077 C 
ATOM      8  C7  UNL d   1       0.851   1.095   1.389  0.00  0.00    -0.001 A 
ENDROOT
TORSDOF 0
ENDMDL
