MODEL 1
REMARK minimizedAffinity -3.70825458
REMARK minimizedRMSD -1
REMARK  0 active torsions:
REMARK  status: ('A' for Active; 'I' for Inactive)
ROOT
ATOM      1  C   UNL d   1       0.085  -1.941  -0.855  0.00  0.00     0.077 C 
ATOM      2  C1  UNL d   1      -0.226  -0.608  -0.241  0.00  0.00    -0.074 A 
ATOM      3  C2  UNL d   1       0.022  -0.366   1.114  0.00  0.00    -0.005 A 
ATOM      4  C3  UNL d   1      -0.263   0.881   1.669  0.00  0.00     0.006 A 
ATOM      5  C4  UNL d   1      -0.798   1.897   0.877  0.00  0.00    -0.005 A 
ATOM      6  C5  UNL d   1      -1.052   1.674  -0.480  0.00  0.00    -0.074 A 
ATOM      7  C6  UNL d   1      -1.618   2.758  -1.348  0.00  0.00     0.077 C 
ATOM      8  C7  UNL d   1      -0.756   0.420  -1.032  0.00  0.00    -0.001 A 
ENDROOT
TORSDOF 0
ENDMDL
