MODEL 1
REMARK minimizedAffinity -1.3894347
REMARK minimizedRMSD -1
REMARK  0 active torsions:
REMARK  status: ('A' for Active; 'I' for Inactive)
ROOT
ATOM      1  C   UNL d   1      -0.041  -1.109  -1.068  0.00  0.00     0.077 C 
ATOM      2  C1  UNL d   1       0.209  -0.307   0.175  0.00  0.00    -0.074 A 
ATOM      3  C2  UNL d   1       1.003  -0.814   1.209  0.00  0.00    -0.005 A 
ATOM      4  C3  UNL d   1       1.234  -0.053   2.355  0.00  0.00     0.006 A 
ATOM      5  C4  UNL d   1       0.676   1.220   2.478  0.00  0.00    -0.005 A 
ATOM      6  C5  UNL d   1      -0.119   1.744   1.453  0.00  0.00    -0.074 A 
ATOM      7  C6  UNL d   1      -0.719   3.114   1.565  0.00  0.00     0.077 C 
ATOM      8  C7  UNL d   1      -0.342   0.976   0.302  0.00  0.00    -0.001 A 
ENDROOT
TORSDOF 0
ENDMDL
