MODEL 1
REMARK minimizedAffinity -2.54612088
REMARK minimizedRMSD -1
REMARK  0 active torsions:
REMARK  status: ('A' for Active; 'I' for Inactive)
ROOT
ATOM      1  C   UNL d   1      -1.202   2.204   1.258  0.00  0.00     0.077 C 
ATOM      2  C1  UNL d   1      -0.536   1.446   0.148  0.00  0.00    -0.074 A 
ATOM      3  C2  UNL d   1      -0.392   2.012  -1.123  0.00  0.00    -0.005 A 
ATOM      4  C3  UNL d   1       0.238   1.298  -2.143  0.00  0.00     0.006 A 
ATOM      5  C4  UNL d   1       0.730   0.015  -1.902  0.00  0.00    -0.005 A 
ATOM      6  C5  UNL d   1       0.596  -0.566  -0.637  0.00  0.00    -0.074 A 
ATOM      7  C6  UNL d   1       1.128  -1.941  -0.359  0.00  0.00     0.077 C 
ATOM      8  C7  UNL d   1      -0.032   0.160   0.384  0.00  0.00    -0.001 A 
ENDROOT
TORSDOF 0
ENDMDL
