MODEL 1
REMARK minimizedAffinity -2.61810017
REMARK minimizedRMSD -1
REMARK  0 active torsions:
REMARK  status: ('A' for Active; 'I' for Inactive)
ROOT
ATOM      1  C   UNL d   1      -1.882  -2.782  -1.030  0.00  0.00     0.077 C 
ATOM      2  C1  UNL d   1      -0.764  -1.900  -0.558  0.00  0.00    -0.074 A 
ATOM      3  C2  UNL d   1       0.511  -1.990  -1.124  0.00  0.00    -0.005 A 
ATOM      4  C3  UNL d   1       1.538  -1.156  -0.682  0.00  0.00     0.006 A 
ATOM      5  C4  UNL d   1       1.300  -0.225   0.330  0.00  0.00    -0.005 A 
ATOM      6  C5  UNL d   1       0.031  -0.120   0.908  0.00  0.00    -0.074 A 
ATOM      7  C6  UNL d   1      -0.244   0.882   1.990  0.00  0.00     0.077 C 
ATOM      8  C7  UNL d   1      -0.997  -0.956   0.453  0.00  0.00    -0.001 A 
ENDROOT
TORSDOF 0
ENDMDL
