MODEL 1
REMARK minimizedAffinity -2.41660166
REMARK minimizedRMSD -1
REMARK  0 active torsions:
REMARK  status: ('A' for Active; 'I' for Inactive)
ROOT
ATOM      1  C   UNL d   1      -1.858   2.804   1.350  0.00  0.00     0.077 C 
ATOM      2  C1  UNL d   1      -0.883   1.665   1.355  0.00  0.00    -0.074 A 
ATOM      3  C2  UNL d   1      -0.005   1.475   2.427  0.00  0.00    -0.005 A 
ATOM      4  C3  UNL d   1       0.890   0.405   2.422  0.00  0.00     0.006 A 
ATOM      5  C4  UNL d   1       0.917  -0.483   1.347  0.00  0.00    -0.005 A 
ATOM      6  C5  UNL d   1       0.047  -0.310   0.266  0.00  0.00    -0.074 A 
ATOM      7  C6  UNL d   1       0.056  -1.262  -0.893  0.00  0.00     0.077 C 
ATOM      8  C7  UNL d   1      -0.855   0.763   0.282  0.00  0.00    -0.001 A 
ENDROOT
TORSDOF 0
ENDMDL
