MODEL 1
REMARK minimizedAffinity -2.86906242
REMARK minimizedRMSD -1
REMARK  0 active torsions:
REMARK  status: ('A' for Active; 'I' for Inactive)
ROOT
ATOM      1  C1  BNZ d   1      -0.143  -1.297  -1.492  0.00  0.00     0.000 A 
ATOM      2  C2  BNZ d   1       0.305  -1.901  -2.636  0.00  0.00     0.000 A 
ATOM      3  C3  BNZ d   1       1.033  -1.201  -3.557  0.00  0.00     0.000 A 
ATOM      4  C4  BNZ d   1       1.278   0.109  -3.352  0.00  0.00     0.000 A 
ATOM      5  C5  BNZ d   1       0.825   0.734  -2.208  0.00  0.00     0.000 A 
ATOM      6  C6  BNZ d   1       0.126   0.017  -1.264  0.00  0.00     0.000 A 
ENDROOT
TORSDOF 0
ENDMDL
