MODEL 1
REMARK minimizedAffinity -4.0428834
REMARK minimizedRMSD -1
REMARK  0 active torsions:
REMARK  status: ('A' for Active; 'I' for Inactive)
ROOT
ATOM      1  C1  BNZ d   1       1.311   0.391   1.451  0.00  0.00     0.000 A 
ATOM      2  C2  BNZ d   1       0.711   0.081   2.642  0.00  0.00     0.000 A 
ATOM      3  C3  BNZ d   1      -0.585  -0.352   2.682  0.00  0.00     0.000 A 
ATOM      4  C4  BNZ d   1      -1.291  -0.436   1.536  0.00  0.00     0.000 A 
ATOM      5  C5  BNZ d   1      -0.703  -0.118   0.328  0.00  0.00     0.000 A 
ATOM      6  C6  BNZ d   1       0.613   0.280   0.287  0.00  0.00     0.000 A 
ENDROOT
TORSDOF 0
ENDMDL
