MODEL 1
REMARK minimizedAffinity -3.09954381
REMARK minimizedRMSD -1
REMARK  0 active torsions:
REMARK  status: ('A' for Active; 'I' for Inactive)
ROOT
ATOM      1  C1  BNZ d   1       0.512  -0.552   0.418  0.00  0.00     0.000 A 
ATOM      2  C2  BNZ d   1       1.404  -0.505   1.457  0.00  0.00     0.000 A 
ATOM      3  C3  BNZ d   1       0.968  -0.452   2.751  0.00  0.00     0.000 A 
ATOM      4  C4  BNZ d   1      -0.356  -0.406   3.004  0.00  0.00     0.000 A 
ATOM      5  C5  BNZ d   1      -1.267  -0.442   1.967  0.00  0.00     0.000 A 
ATOM      6  C6  BNZ d   1      -0.825  -0.535   0.667  0.00  0.00     0.000 A 
ENDROOT
TORSDOF 0
ENDMDL
