MODEL 1
REMARK minimizedAffinity -4.20732212
REMARK minimizedRMSD -1
REMARK  0 active torsions:
REMARK  status: ('A' for Active; 'I' for Inactive)
ROOT
ATOM      1  C1  BNZ d   1       1.221   0.460   0.119  0.00  0.00     0.000 A 
ATOM      2  C2  BNZ d   1       0.630   0.038   1.280  0.00  0.00     0.000 A 
ATOM      3  C3  BNZ d   1      -0.694  -0.299   1.310  0.00  0.00     0.000 A 
ATOM      4  C4  BNZ d   1      -1.435  -0.175   0.190  0.00  0.00     0.000 A 
ATOM      5  C5  BNZ d   1      -0.856   0.258  -0.987  0.00  0.00     0.000 A 
ATOM      6  C6  BNZ d   1       0.486   0.559  -1.022  0.00  0.00     0.000 A 
ENDROOT
TORSDOF 0
ENDMDL
