MODEL 1
REMARK minimizedAffinity -3.37531066
REMARK minimizedRMSD -1
REMARK  0 active torsions:
REMARK  status: ('A' for Active; 'I' for Inactive)
ROOT
ATOM      1  C1  BNZ d   1       0.834   0.550   2.608  0.00  0.00     0.000 A 
ATOM      2  C2  BNZ d   1       1.415   0.822   1.398  0.00  0.00     0.000 A 
ATOM      3  C3  BNZ d   1       0.814   0.439   0.232  0.00  0.00     0.000 A 
ATOM      4  C4  BNZ d   1      -0.346  -0.248   0.277  0.00  0.00     0.000 A 
ATOM      5  C5  BNZ d   1      -0.939  -0.537   1.490  0.00  0.00     0.000 A 
ATOM      6  C6  BNZ d   1      -0.351  -0.117   2.661  0.00  0.00     0.000 A 
ENDROOT
TORSDOF 0
ENDMDL
