MODEL 1
REMARK minimizedAffinity -3.76769829
REMARK minimizedRMSD -1
REMARK  0 active torsions:
REMARK  status: ('A' for Active; 'I' for Inactive)
ROOT
ATOM      1  C1  BNZ d   1      -1.204  -0.546   0.420  0.00  0.00     0.000 A 
ATOM      2  C2  BNZ d   1      -1.181  -0.731   1.776  0.00  0.00     0.000 A 
ATOM      3  C3  BNZ d   1      -0.064  -0.434   2.505  0.00  0.00     0.000 A 
ATOM      4  C4  BNZ d   1       1.042   0.009   1.872  0.00  0.00     0.000 A 
ATOM      5  C5  BNZ d   1       1.038   0.191   0.503  0.00  0.00     0.000 A 
ATOM      6  C6  BNZ d   1      -0.101  -0.071  -0.222  0.00  0.00     0.000 A 
ENDROOT
TORSDOF 0
ENDMDL
