MODEL 1
REMARK minimizedAffinity -2.65229583
REMARK minimizedRMSD -1
REMARK  0 active torsions:
REMARK  status: ('A' for Active; 'I' for Inactive)
ROOT
ATOM      1  C1  BNZ d   1       1.098   1.092   0.875  0.00  0.00     0.000 A 
ATOM      2  C2  BNZ d   1       0.942   0.436   2.067  0.00  0.00     0.000 A 
ATOM      3  C3  BNZ d   1      -0.048  -0.492   2.231  0.00  0.00     0.000 A 
ATOM      4  C4  BNZ d   1      -0.904  -0.735   1.217  0.00  0.00     0.000 A 
ATOM      5  C5  BNZ d   1      -0.765  -0.076   0.012  0.00  0.00     0.000 A 
ATOM      6  C6  BNZ d   1       0.257   0.830  -0.162  0.00  0.00     0.000 A 
ENDROOT
TORSDOF 0
ENDMDL
