MODEL 1
REMARK minimizedAffinity -3.99747753
REMARK minimizedRMSD -1
REMARK  0 active torsions:
REMARK  status: ('A' for Active; 'I' for Inactive)
ROOT
ATOM      1  C1  BNZ d   1      -0.867  -1.101   0.986  0.00  0.00     0.000 A 
ATOM      2  C2  BNZ d   1      -0.866  -1.078   2.356  0.00  0.00     0.000 A 
ATOM      3  C3  BNZ d   1      -0.131  -0.151   3.040  0.00  0.00     0.000 A 
ATOM      4  C4  BNZ d   1       0.633   0.725   2.356  0.00  0.00     0.000 A 
ATOM      5  C5  BNZ d   1       0.650   0.709   0.975  0.00  0.00     0.000 A 
ATOM      6  C6  BNZ d   1      -0.122  -0.201   0.289  0.00  0.00     0.000 A 
ENDROOT
TORSDOF 0
ENDMDL
