MODEL 1
REMARK minimizedAffinity -3.0489099
REMARK minimizedRMSD -1
REMARK  0 active torsions:
REMARK  status: ('A' for Active; 'I' for Inactive)
ROOT
ATOM      1  C1  BNZ d   1       0.841   0.322   0.627  0.00  0.00     0.000 A 
ATOM      2  C2  BNZ d   1       0.795   0.661  -0.699  0.00  0.00     0.000 A 
ATOM      3  C3  BNZ d   1      -0.352   0.498  -1.424  0.00  0.00     0.000 A 
ATOM      4  C4  BNZ d   1      -1.439  -0.040  -0.834  0.00  0.00     0.000 A 
ATOM      5  C5  BNZ d   1      -1.406  -0.396   0.500  0.00  0.00     0.000 A 
ATOM      6  C6  BNZ d   1      -0.261  -0.194   1.237  0.00  0.00     0.000 A 
ENDROOT
TORSDOF 0
ENDMDL
