MODEL 1
REMARK minimizedAffinity -3.4845345
REMARK minimizedRMSD -1
REMARK  0 active torsions:
REMARK  status: ('A' for Active; 'I' for Inactive)
ROOT
ATOM      1  C1  BNZ d   1      -1.393   0.362  -0.734  0.00  0.00     0.000 A 
ATOM      2  C2  BNZ d   1      -0.026   0.311  -0.683  0.00  0.00     0.000 A 
ATOM      3  C3  BNZ d   1       0.622   0.070   0.496  0.00  0.00     0.000 A 
ATOM      4  C4  BNZ d   1      -0.095  -0.079   1.629  0.00  0.00     0.000 A 
ATOM      5  C5  BNZ d   1      -1.474  -0.021   1.595  0.00  0.00     0.000 A 
ATOM      6  C6  BNZ d   1      -2.124   0.183   0.400  0.00  0.00     0.000 A 
ENDROOT
TORSDOF 0
ENDMDL
