MODEL 1
REMARK minimizedAffinity -5.15609646
REMARK minimizedRMSD -1
REMARK  0 active torsions:
REMARK  status: ('A' for Active; 'I' for Inactive)
ROOT
ATOM      1  C1  BNZ d   1      -2.201  -0.094   1.055  0.00  0.00     0.000 A 
ATOM      2  C2  BNZ d   1      -0.906  -0.339   0.684  0.00  0.00     0.000 A 
ATOM      3  C3  BNZ d   1       0.064  -0.548   1.624  0.00  0.00     0.000 A 
ATOM      4  C4  BNZ d   1      -0.254  -0.472   2.932  0.00  0.00     0.000 A 
ATOM      5  C5  BNZ d   1      -1.553  -0.216   3.322  0.00  0.00     0.000 A 
ATOM      6  C6  BNZ d   1      -2.534  -0.045   2.373  0.00  0.00     0.000 A 
ENDROOT
TORSDOF 0
ENDMDL
