MODEL 1
REMARK minimizedAffinity -4.36047411
REMARK minimizedRMSD -1
REMARK  0 active torsions:
REMARK  status: ('A' for Active; 'I' for Inactive)
ROOT
ATOM      1  C1  BNZ d   1       1.099   0.040   1.510  0.00  0.00     0.000 A 
ATOM      2  C2  BNZ d   1       0.051  -0.408   2.268  0.00  0.00     0.000 A 
ATOM      3  C3  BNZ d   1      -1.108  -0.830   1.680  0.00  0.00     0.000 A 
ATOM      4  C4  BNZ d   1      -1.233  -0.766   0.339  0.00  0.00     0.000 A 
ATOM      5  C5  BNZ d   1      -0.188  -0.308  -0.439  0.00  0.00     0.000 A 
ATOM      6  C6  BNZ d   1       0.991   0.080   0.154  0.00  0.00     0.000 A 
ENDROOT
TORSDOF 0
ENDMDL
