MODEL 1
REMARK minimizedAffinity -2.87715268
REMARK minimizedRMSD -1
REMARK  0 active torsions:
REMARK  status: ('A' for Active; 'I' for Inactive)
ROOT
ATOM      1  C1  BNZ d   1       0.933   0.174  -0.189  0.00  0.00     0.000 A 
ATOM      2  C2  BNZ d   1       1.255   0.141   1.142  0.00  0.00     0.000 A 
ATOM      3  C3  BNZ d   1       0.291  -0.055   2.091  0.00  0.00     0.000 A 
ATOM      4  C4  BNZ d   1      -0.997  -0.178   1.711  0.00  0.00     0.000 A 
ATOM      5  C5  BNZ d   1      -1.339  -0.138   0.374  0.00  0.00     0.000 A 
ATOM      6  C6  BNZ d   1      -0.361   0.021  -0.581  0.00  0.00     0.000 A 
ENDROOT
TORSDOF 0
ENDMDL
