MODEL 1
REMARK minimizedAffinity 6.6212554
REMARK minimizedRMSD -1
REMARK  0 active torsions:
REMARK  status: ('A' for Active; 'I' for Inactive)
ROOT
ATOM      1  O1  BZF d   1       0.124  -1.887   3.173  0.00  0.00    -0.204 OA
ATOM      2  C2  BZF d   1       1.269  -1.357   3.737  0.00  0.00     0.174 A 
ATOM      3  C3  BZF d   1       1.172  -0.017   3.846  0.00  0.00    -0.012 A 
ATOM      4  C3A BZF d   1      -0.151   0.302   3.402  0.00  0.00    -0.107 A 
ATOM      5  C4  BZF d   1      -0.848   1.471   3.291  0.00  0.00     0.055 A 
ATOM      6  C5  BZF d   1      -2.095   1.448   2.753  0.00  0.00    -0.016 A 
ATOM      7  C6  BZF d   1      -2.673   0.277   2.310  0.00  0.00     0.022 A 
ATOM      8  C7  BZF d   1      -2.023  -0.909   2.404  0.00  0.00     0.029 A 
ATOM      9  C7A BZF d   1      -0.775  -0.894   2.978  0.00  0.00     0.058 A 
ENDROOT
TORSDOF 0
ENDMDL
