MODEL 1
REMARK minimizedAffinity 12.8583078
REMARK minimizedRMSD -1
REMARK  0 active torsions:
REMARK  status: ('A' for Active; 'I' for Inactive)
ROOT
ATOM      1  O1  BZF d   1      -2.474   0.453   2.616  0.00  0.00    -0.204 OA
ATOM      2  C2  BZF d   1      -3.289  -0.620   2.922  0.00  0.00     0.174 A 
ATOM      3  C3  BZF d   1      -2.554  -1.721   3.181  0.00  0.00    -0.012 A 
ATOM      4  C3A BZF d   1      -1.192  -1.287   3.117  0.00  0.00    -0.107 A 
ATOM      5  C4  BZF d   1       0.004  -1.920   3.300  0.00  0.00     0.055 A 
ATOM      6  C5  BZF d   1       1.156  -1.229   3.093  0.00  0.00    -0.016 A 
ATOM      7  C6  BZF d   1       1.148   0.093   2.699  0.00  0.00     0.022 A 
ATOM      8  C7  BZF d   1      -0.014   0.765   2.510  0.00  0.00     0.029 A 
ATOM      9  C7A BZF d   1      -1.179   0.078   2.751  0.00  0.00     0.058 A 
ENDROOT
TORSDOF 0
ENDMDL
