MODEL 1
REMARK minimizedAffinity 13.0536718
REMARK minimizedRMSD -1
REMARK  0 active torsions:
REMARK  status: ('A' for Active; 'I' for Inactive)
ROOT
ATOM      1  O1  BZF d   1       3.938   1.691  -5.312  0.00  0.00    -0.204 OA
ATOM      2  C2  BZF d   1       4.997   1.101  -5.976  0.00  0.00     0.174 A 
ATOM      3  C3  BZF d   1       4.881  -0.242  -5.963  0.00  0.00    -0.012 A 
ATOM      4  C3A BZF d   1       3.627  -0.506  -5.325  0.00  0.00    -0.107 A 
ATOM      5  C4  BZF d   1       2.946  -1.652  -5.031  0.00  0.00     0.055 A 
ATOM      6  C5  BZF d   1       1.781  -1.569  -4.337  0.00  0.00    -0.016 A 
ATOM      7  C6  BZF d   1       1.270  -0.357  -3.919  0.00  0.00     0.022 A 
ATOM      8  C7  BZF d   1       1.907   0.807  -4.192  0.00  0.00     0.029 A 
ATOM      9  C7A BZF d   1       3.068   0.729  -4.921  0.00  0.00     0.058 A 
ENDROOT
TORSDOF 0
ENDMDL
