MODEL 1
REMARK minimizedAffinity 13.2880497
REMARK minimizedRMSD -1
REMARK  0 active torsions:
REMARK  status: ('A' for Active; 'I' for Inactive)
ROOT
ATOM      1  O1  BZF d   1       0.008  -2.244  -5.452  0.00  0.00    -0.204 OA
ATOM      2  C2  BZF d   1       1.370  -2.473  -5.513  0.00  0.00     0.174 A 
ATOM      3  C3  BZF d   1       1.628  -3.788  -5.667  0.00  0.00    -0.012 A 
ATOM      4  C3A BZF d   1       0.346  -4.410  -5.797  0.00  0.00    -0.107 A 
ATOM      5  C4  BZF d   1      -0.056  -5.701  -5.990  0.00  0.00     0.055 A 
ATOM      6  C5  BZF d   1      -1.385  -5.984  -6.000  0.00  0.00    -0.016 A 
ATOM      7  C6  BZF d   1      -2.338  -5.004  -5.815  0.00  0.00     0.022 A 
ATOM      8  C7  BZF d   1      -1.988  -3.709  -5.625  0.00  0.00     0.029 A 
ATOM      9  C7A BZF d   1      -0.647  -3.414  -5.647  0.00  0.00     0.058 A 
ENDROOT
TORSDOF 0
ENDMDL
