MODEL 1
REMARK minimizedAffinity 10.2046289
REMARK minimizedRMSD -1
REMARK  0 active torsions:
REMARK  status: ('A' for Active; 'I' for Inactive)
ROOT
ATOM      1  O1  BZF d   1      -2.075   1.020   2.491  0.00  0.00    -0.204 OA
ATOM      2  C2  BZF d   1      -2.961   0.114   1.943  0.00  0.00     0.174 A 
ATOM      3  C3  BZF d   1      -2.366  -1.081   1.749  0.00  0.00    -0.012 A 
ATOM      4  C3A BZF d   1      -1.049  -0.936   2.289  0.00  0.00    -0.107 A 
ATOM      5  C4  BZF d   1       0.016  -1.784   2.407  0.00  0.00     0.055 A 
ATOM      6  C5  BZF d   1       1.183  -1.311   2.917  0.00  0.00    -0.016 A 
ATOM      7  C6  BZF d   1       1.323   0.003   3.313  0.00  0.00     0.022 A 
ATOM      8  C7  BZF d   1       0.294   0.880   3.221  0.00  0.00     0.029 A 
ATOM      9  C7A BZF d   1      -0.897   0.397   2.737  0.00  0.00     0.058 A 
ENDROOT
TORSDOF 0
ENDMDL
