MODEL 1
REMARK minimizedAffinity 19.0165462
REMARK minimizedRMSD -1
REMARK  0 active torsions:
REMARK  status: ('A' for Active; 'I' for Inactive)
ROOT
ATOM      1  O1  BZF d   1      -1.397   3.376   4.838  0.00  0.00    -0.204 OA
ATOM      2  C2  BZF d   1      -0.650   3.263   5.995  0.00  0.00     0.174 A 
ATOM      3  C3  BZF d   1       0.054   2.113   6.000  0.00  0.00    -0.012 A 
ATOM      4  C3A BZF d   1      -0.202   1.509   4.728  0.00  0.00    -0.107 A 
ATOM      5  C4  BZF d   1       0.226   0.358   4.132  0.00  0.00     0.055 A 
ATOM      6  C5  BZF d   1      -0.268   0.022   2.912  0.00  0.00    -0.016 A 
ATOM      7  C6  BZF d   1      -1.195   0.811   2.262  0.00  0.00     0.022 A 
ATOM      8  C7  BZF d   1      -1.646   1.965   2.811  0.00  0.00     0.029 A 
ATOM      9  C7A BZF d   1      -1.123   2.324   4.030  0.00  0.00     0.058 A 
ENDROOT
TORSDOF 0
ENDMDL
