MODEL 1
REMARK minimizedAffinity -3.02689624
REMARK minimizedRMSD -1
REMARK  1 active torsions:
REMARK  status: ('A' for Active; 'I' for Inactive)
REMARK    1  A    between atoms: N_2  and  C1_3 
ROOT
ATOM      1  C1  UNL d   1       2.110  -2.503  -0.032  0.00  0.00     0.143 A 
ATOM      2  C2  UNL d   1       0.973  -3.243   0.308  0.00  0.00    -0.057 A 
ATOM      3  C3  UNL d   1      -0.198  -2.615   0.749  0.00  0.00     0.033 A 
ATOM      4  C4  UNL d   1      -0.243  -1.231   0.885  0.00  0.00    -0.042 A 
ATOM      5  C5  UNL d   1       0.883  -0.477   0.577  0.00  0.00     0.033 A 
ATOM      6  C6  UNL d   1       2.048  -1.110   0.131  0.00  0.00    -0.057 A 
ENDROOT
BRANCH   1   7
ATOM      7  N   UNL d   1       3.336  -3.075  -0.381  0.00  0.00    -0.732 N 
ATOM      8  C   UNL d   1       3.642  -4.441  -0.016  0.00  0.00     0.284 C 
ATOM      9  H3  UNL d   1       3.629  -2.820  -1.322  0.00  0.00     0.395 HD
ENDBRANCH   1   7
TORSDOF 1
ENDMDL
