MODEL 1
REMARK minimizedAffinity -5.31879759
REMARK minimizedRMSD -1
REMARK  1 active torsions:
REMARK  status: ('A' for Active; 'I' for Inactive)
REMARK    1  A    between atoms: N_2  and  C1_3 
ROOT
ATOM      1  C1  UNL d   1       1.775  -3.193   0.369  0.00  0.00     0.143 A 
ATOM      2  C2  UNL d   1       0.386  -3.059   0.269  0.00  0.00    -0.057 A 
ATOM      3  C3  UNL d   1      -0.226  -1.800   0.296  0.00  0.00     0.033 A 
ATOM      4  C4  UNL d   1       0.541  -0.650   0.453  0.00  0.00    -0.042 A 
ATOM      5  C5  UNL d   1       1.921  -0.761   0.580  0.00  0.00     0.033 A 
ATOM      6  C6  UNL d   1       2.527  -2.021   0.546  0.00  0.00    -0.057 A 
ENDROOT
BRANCH   1   7
ATOM      7  N   UNL d   1       2.434  -4.422   0.448  0.00  0.00    -0.732 N 
ATOM      8  C   UNL d   1       3.755  -4.587  -0.119  0.00  0.00     0.284 C 
ATOM      9  H3  UNL d   1       2.310  -4.872   1.351  0.00  0.00     0.395 HD
ENDBRANCH   1   7
TORSDOF 1
ENDMDL
