MODEL 1
REMARK minimizedAffinity -1.34873891
REMARK minimizedRMSD -1
REMARK  1 active torsions:
REMARK  status: ('A' for Active; 'I' for Inactive)
REMARK    1  A    between atoms: N_2  and  C1_3 
ROOT
ATOM      1  C1  UNL d   1       1.217  -3.003   0.255  0.00  0.00     0.143 A 
ATOM      2  C2  UNL d   1      -0.028  -2.970   0.892  0.00  0.00    -0.057 A 
ATOM      3  C3  UNL d   1      -0.631  -1.757   1.245  0.00  0.00     0.033 A 
ATOM      4  C4  UNL d   1       0.016  -0.552   0.992  0.00  0.00    -0.042 A 
ATOM      5  C5  UNL d   1       1.265  -0.562   0.383  0.00  0.00     0.033 A 
ATOM      6  C6  UNL d   1       1.860  -1.776   0.026  0.00  0.00    -0.057 A 
ENDROOT
BRANCH   1   7
ATOM      7  N   UNL d   1       1.913  -4.180  -0.032  0.00  0.00    -0.732 N 
ATOM      8  C   UNL d   1       3.359  -4.181  -0.110  0.00  0.00     0.284 C 
ATOM      9  H3  UNL d   1       1.522  -4.989   0.445  0.00  0.00     0.395 HD
ENDBRANCH   1   7
TORSDOF 1
ENDMDL
