MODEL 1
REMARK minimizedAffinity 0.771046519
REMARK minimizedRMSD -1
REMARK  1 active torsions:
REMARK  status: ('A' for Active; 'I' for Inactive)
REMARK    1  A    between atoms: N_2  and  C1_3 
ROOT
ATOM      1  C1  UNL d   1      -0.437  -1.201   1.082  0.00  0.00     0.143 A 
ATOM      2  C2  UNL d   1      -0.238  -2.506   0.619  0.00  0.00    -0.057 A 
ATOM      3  C3  UNL d   1       1.050  -3.016   0.416  0.00  0.00     0.033 A 
ATOM      4  C4  UNL d   1       2.165  -2.217   0.646  0.00  0.00    -0.042 A 
ATOM      5  C5  UNL d   1       1.990  -0.909   1.083  0.00  0.00     0.033 A 
ATOM      6  C6  UNL d   1       0.702  -0.408   1.290  0.00  0.00    -0.057 A 
ENDROOT
BRANCH   1   7
ATOM      7  N   UNL d   1      -1.694  -0.604   1.209  0.00  0.00    -0.732 N 
ATOM      8  C   UNL d   1      -1.817   0.767   1.654  0.00  0.00     0.284 C 
ATOM      9  H3  UNL d   1      -2.320  -0.851   0.445  0.00  0.00     0.395 HD
ENDBRANCH   1   7
TORSDOF 1
ENDMDL
