MODEL 1
REMARK minimizedAffinity -5.31163311
REMARK minimizedRMSD -1
REMARK  1 active torsions:
REMARK  status: ('A' for Active; 'I' for Inactive)
REMARK    1  A    between atoms: N_2  and  C1_3 
ROOT
ATOM      1  C1  UNL d   1       1.624  -3.061   0.238  0.00  0.00     0.143 A 
ATOM      2  C2  UNL d   1       0.299  -3.060   0.689  0.00  0.00    -0.057 A 
ATOM      3  C3  UNL d   1      -0.389  -1.862   0.918  0.00  0.00     0.033 A 
ATOM      4  C4  UNL d   1       0.247  -0.640   0.727  0.00  0.00    -0.042 A 
ATOM      5  C5  UNL d   1       1.571  -0.617   0.304  0.00  0.00     0.033 A 
ATOM      6  C6  UNL d   1       2.251  -1.816   0.070  0.00  0.00    -0.057 A 
ENDROOT
BRANCH   1   7
ATOM      7  N   UNL d   1       2.393  -4.217   0.087  0.00  0.00    -0.732 N 
ATOM      8  C   UNL d   1       3.798  -4.129  -0.248  0.00  0.00     0.284 C 
ATOM      9  H3  UNL d   1       2.176  -4.922   0.787  0.00  0.00     0.395 HD
ENDBRANCH   1   7
TORSDOF 1
ENDMDL
