MODEL 1
REMARK minimizedAffinity -3.67436814
REMARK minimizedRMSD -1
REMARK  1 active torsions:
REMARK  status: ('A' for Active; 'I' for Inactive)
REMARK    1  A    between atoms: N_2  and  C1_3 
ROOT
ATOM      1  C1  UNL d   1       1.548  -3.263   0.252  0.00  0.00     0.143 A 
ATOM      2  C2  UNL d   1       0.266  -3.159   0.804  0.00  0.00    -0.057 A 
ATOM      3  C3  UNL d   1      -0.314  -1.911   1.063  0.00  0.00     0.033 A 
ATOM      4  C4  UNL d   1       0.392  -0.741   0.800  0.00  0.00    -0.042 A 
ATOM      5  C5  UNL d   1       1.676  -0.821   0.274  0.00  0.00     0.033 A 
ATOM      6  C6  UNL d   1       2.248  -2.070   0.012  0.00  0.00    -0.057 A 
ENDROOT
BRANCH   1   7
ATOM      7  N   UNL d   1       2.217  -4.474   0.064  0.00  0.00    -0.732 N 
ATOM      8  C   UNL d   1       3.628  -4.494  -0.258  0.00  0.00     0.284 C 
ATOM      9  H3  UNL d   1       1.935  -5.183   0.737  0.00  0.00     0.395 HD
ENDBRANCH   1   7
TORSDOF 1
ENDMDL
