MODEL 1
REMARK minimizedAffinity 0.12773256
REMARK minimizedRMSD -1
REMARK  1 active torsions:
REMARK  status: ('A' for Active; 'I' for Inactive)
REMARK    1  A    between atoms: N_2  and  C1_3 
ROOT
ATOM      1  C1  UNL d   1       3.975   3.308  -1.980  0.00  0.00     0.143 A 
ATOM      2  C2  UNL d   1       3.101   3.742  -2.982  0.00  0.00    -0.057 A 
ATOM      3  C3  UNL d   1       2.391   2.828  -3.771  0.00  0.00     0.033 A 
ATOM      4  C4  UNL d   1       2.566   1.460  -3.589  0.00  0.00    -0.042 A 
ATOM      5  C5  UNL d   1       3.448   1.007  -2.615  0.00  0.00     0.033 A 
ATOM      6  C6  UNL d   1       4.150   1.924  -1.826  0.00  0.00    -0.057 A 
ENDROOT
BRANCH   1   7
ATOM      7  N   UNL d   1       4.784   4.165  -1.229  0.00  0.00    -0.732 N 
ATOM      8  C   UNL d   1       4.768   5.592  -1.470  0.00  0.00     0.284 C 
ATOM      9  H3  UNL d   1       4.812   3.910  -0.244  0.00  0.00     0.395 HD
ENDBRANCH   1   7
TORSDOF 1
ENDMDL
