MODEL 1
REMARK minimizedAffinity -3.29111075
REMARK minimizedRMSD -1
REMARK  1 active torsions:
REMARK  status: ('A' for Active; 'I' for Inactive)
REMARK    1  A    between atoms: N_2  and  C1_3 
ROOT
ATOM      1  C1  UNL d   1       1.530  -2.388   0.003  0.00  0.00     0.143 A 
ATOM      2  C2  UNL d   1       2.055  -1.100   0.155  0.00  0.00    -0.057 A 
ATOM      3  C3  UNL d   1       1.346  -0.101   0.832  0.00  0.00     0.033 A 
ATOM      4  C4  UNL d   1       0.081  -0.366   1.348  0.00  0.00    -0.042 A 
ATOM      5  C5  UNL d   1      -0.472  -1.631   1.187  0.00  0.00     0.033 A 
ATOM      6  C6  UNL d   1       0.245  -2.626   0.515  0.00  0.00    -0.057 A 
ENDROOT
BRANCH   1   7
ATOM      7  N   UNL d   1       2.143  -3.395  -0.745  0.00  0.00    -0.732 N 
ATOM      8  C   UNL d   1       3.474  -3.855  -0.411  0.00  0.00     0.284 C 
ATOM      9  H3  UNL d   1       1.497  -4.139  -0.998  0.00  0.00     0.395 HD
ENDBRANCH   1   7
TORSDOF 1
ENDMDL
