MODEL 1
REMARK minimizedAffinity -1.20567024
REMARK minimizedRMSD -1
REMARK  1 active torsions:
REMARK  status: ('A' for Active; 'I' for Inactive)
REMARK    1  A    between atoms: N_2  and  C1_3 
ROOT
ATOM      1  C1  UNL d   1       1.159  -2.247   0.082  0.00  0.00     0.143 A 
ATOM      2  C2  UNL d   1      -0.055  -1.613   0.366  0.00  0.00    -0.057 A 
ATOM      3  C3  UNL d   1      -0.093  -0.292   0.829  0.00  0.00     0.033 A 
ATOM      4  C4  UNL d   1       1.088   0.410   1.045  0.00  0.00    -0.042 A 
ATOM      5  C5  UNL d   1       2.307  -0.209   0.793  0.00  0.00     0.033 A 
ATOM      6  C6  UNL d   1       2.339  -1.525   0.324  0.00  0.00    -0.057 A 
ENDROOT
BRANCH   1   7
ATOM      7  N   UNL d   1       1.268  -3.590  -0.287  0.00  0.00    -0.732 N 
ATOM      8  C   UNL d   1       2.513  -4.305  -0.109  0.00  0.00     0.284 C 
ATOM      9  H3  UNL d   1       0.440  -4.128  -0.042  0.00  0.00     0.395 HD
ENDBRANCH   1   7
TORSDOF 1
ENDMDL
