MODEL 1
REMARK minimizedAffinity 1.23935783
REMARK minimizedRMSD -1
REMARK  1 active torsions:
REMARK  status: ('A' for Active; 'I' for Inactive)
REMARK    1  A    between atoms: N_2  and  C1_3 
ROOT
ATOM      1  C1  UNL d   1       0.760  -2.836   0.406  0.00  0.00     0.143 A 
ATOM      2  C2  UNL d   1       1.596  -1.895   1.016  0.00  0.00    -0.057 A 
ATOM      3  C3  UNL d   1       1.141  -0.605   1.315  0.00  0.00     0.033 A 
ATOM      4  C4  UNL d   1      -0.154  -0.223   0.983  0.00  0.00    -0.042 A 
ATOM      5  C5  UNL d   1      -0.995  -1.134   0.353  0.00  0.00     0.033 A 
ATOM      6  C6  UNL d   1      -0.537  -2.423   0.063  0.00  0.00    -0.057 A 
ENDROOT
BRANCH   1   7
ATOM      7  N   UNL d   1       1.183  -4.102  -0.006  0.00  0.00    -0.732 N 
ATOM      8  C   UNL d   1       2.490  -4.599   0.366  0.00  0.00     0.284 C 
ATOM      9  H3  UNL d   1       0.443  -4.797   0.050  0.00  0.00     0.395 HD
ENDBRANCH   1   7
TORSDOF 1
ENDMDL
