MODEL 1
REMARK minimizedAffinity -4.66329336
REMARK minimizedRMSD -1
REMARK  1 active torsions:
REMARK  status: ('A' for Active; 'I' for Inactive)
REMARK    1  A    between atoms: N_2  and  C1_3 
ROOT
ATOM      1  C1  UNL d   1       2.645  -3.302   0.120  0.00  0.00     0.143 A 
ATOM      2  C2  UNL d   1       3.178  -2.020   0.293  0.00  0.00    -0.057 A 
ATOM      3  C3  UNL d   1       2.356  -0.925   0.581  0.00  0.00     0.033 A 
ATOM      4  C4  UNL d   1       0.977  -1.087   0.673  0.00  0.00    -0.042 A 
ATOM      5  C5  UNL d   1       0.423  -2.347   0.480  0.00  0.00     0.033 A 
ATOM      6  C6  UNL d   1       1.250  -3.439   0.199  0.00  0.00    -0.057 A 
ENDROOT
BRANCH   1   7
ATOM      7  N   UNL d   1       3.399  -4.413  -0.266  0.00  0.00    -0.732 N 
ATOM      8  C   UNL d   1       4.706  -4.651   0.307  0.00  0.00     0.284 C 
ATOM      9  H3  UNL d   1       2.831  -5.251  -0.369  0.00  0.00     0.395 HD
ENDBRANCH   1   7
TORSDOF 1
ENDMDL
