MODEL 1
REMARK minimizedAffinity -5.14396906
REMARK minimizedRMSD -1
REMARK  1 active torsions:
REMARK  status: ('A' for Active; 'I' for Inactive)
REMARK    1  A    between atoms: N_2  and  C1_3 
ROOT
ATOM      1  C1  UNL d   1       1.522  -2.762   0.543  0.00  0.00     0.143 A 
ATOM      2  C2  UNL d   1       2.166  -1.537   0.749  0.00  0.00    -0.057 A 
ATOM      3  C3  UNL d   1       1.442  -0.343   0.845  0.00  0.00     0.033 A 
ATOM      4  C4  UNL d   1       0.058  -0.348   0.706  0.00  0.00    -0.042 A 
ATOM      5  C5  UNL d   1      -0.601  -1.550   0.475  0.00  0.00     0.033 A 
ATOM      6  C6  UNL d   1       0.127  -2.741   0.387  0.00  0.00    -0.057 A 
ENDROOT
BRANCH   1   7
ATOM      7  N   UNL d   1       2.194  -3.970   0.340  0.00  0.00    -0.732 N 
ATOM      8  C   UNL d   1       3.580  -3.982  -0.077  0.00  0.00     0.284 C 
ATOM      9  H3  UNL d   1       1.967  -4.664   1.049  0.00  0.00     0.395 HD
ENDBRANCH   1   7
TORSDOF 1
ENDMDL
