MODEL 1
REMARK minimizedAffinity -0.181966007
REMARK minimizedRMSD -1
REMARK  1 active torsions:
REMARK  status: ('A' for Active; 'I' for Inactive)
REMARK    1  A    between atoms: C1_2  and  C2_3 
ROOT
ATOM      1  C2  UNL d   1       1.672  -2.028   0.710  0.00  0.00    -0.081 A 
ATOM      2  C3  UNL d   1       1.732  -1.163   1.810  0.00  0.00     0.006 A 
ATOM      3  C4  UNL d   1       0.706  -0.246   2.048  0.00  0.00     0.002 A 
ATOM      4  C5  UNL d   1      -0.401  -0.183   1.195  0.00  0.00    -0.080 A 
ATOM      5  C6  UNL d   1      -1.525   0.776   1.456  0.00  0.00     0.076 C 
ATOM      6  C7  UNL d   1      -0.454  -1.035   0.086  0.00  0.00     0.002 A 
ATOM      7  C8  UNL d   1       0.573  -1.951  -0.152  0.00  0.00     0.006 A 
ENDROOT
BRANCH   1   8
ATOM      8  C1  UNL d   1       2.745  -3.062   0.487  0.00  0.00     0.054 C 
ATOM      9  C   UNL d   1       2.148  -4.451   0.313  0.00  0.00     0.018 C 
ENDBRANCH   1   8
TORSDOF 1
ENDMDL
