MODEL 1
REMARK minimizedAffinity 2.67189837
REMARK minimizedRMSD -1
REMARK  1 active torsions:
REMARK  status: ('A' for Active; 'I' for Inactive)
REMARK    1  A    between atoms: C1_2  and  C2_3 
ROOT
ATOM      1  C2  UNL d   1       1.895  -3.923   0.646  0.00  0.00    -0.081 A 
ATOM      2  C3  UNL d   1       1.562  -2.563   0.687  0.00  0.00     0.006 A 
ATOM      3  C4  UNL d   1       0.434  -2.131   1.387  0.00  0.00     0.002 A 
ATOM      4  C5  UNL d   1      -0.376  -3.048   2.065  0.00  0.00    -0.080 A 
ATOM      5  C6  UNL d   1      -1.573  -2.594   2.845  0.00  0.00     0.076 C 
ATOM      6  C7  UNL d   1      -0.054  -4.409   2.010  0.00  0.00     0.002 A 
ATOM      7  C8  UNL d   1       1.073  -4.842   1.309  0.00  0.00     0.006 A 
ENDROOT
BRANCH   1   8
ATOM      8  C1  UNL d   1       3.147  -4.386  -0.054  0.00  0.00     0.054 C 
ATOM      9  C   UNL d   1       4.011  -5.238   0.864  0.00  0.00     0.018 C 
ENDBRANCH   1   8
TORSDOF 1
ENDMDL
