MODEL 1
REMARK minimizedAffinity 3.51407123
REMARK minimizedRMSD -1
REMARK  1 active torsions:
REMARK  status: ('A' for Active; 'I' for Inactive)
REMARK    1  A    between atoms: C1_2  and  C2_3 
ROOT
ATOM      1  C2  UNL d   1       1.320  -3.247   1.164  0.00  0.00    -0.081 A 
ATOM      2  C3  UNL d   1       1.486  -2.072   0.422  0.00  0.00     0.006 A 
ATOM      3  C4  UNL d   1       0.645  -0.977   0.632  0.00  0.00     0.002 A 
ATOM      4  C5  UNL d   1      -0.370  -1.036   1.593  0.00  0.00    -0.080 A 
ATOM      5  C6  UNL d   1      -1.261   0.143   1.850  0.00  0.00     0.076 C 
ATOM      6  C7  UNL d   1      -0.547  -2.216   2.323  0.00  0.00     0.002 A 
ATOM      7  C8  UNL d   1       0.293  -3.312   2.112  0.00  0.00     0.006 A 
ENDROOT
BRANCH   1   8
ATOM      8  C1  UNL d   1       2.267  -4.407   0.986  0.00  0.00     0.054 C 
ATOM      9  C   UNL d   1       3.453  -4.023   0.112  0.00  0.00     0.018 C 
ENDBRANCH   1   8
TORSDOF 1
ENDMDL
