MODEL 1
REMARK minimizedAffinity 5.99971485
REMARK minimizedRMSD -1
REMARK  1 active torsions:
REMARK  status: ('A' for Active; 'I' for Inactive)
REMARK    1  A    between atoms: C1_2  and  C2_3 
ROOT
ATOM      1  C2  UNL d   1       5.088   0.805   3.671  0.00  0.00    -0.081 A 
ATOM      2  C3  UNL d   1       4.513   0.151   2.575  0.00  0.00     0.006 A 
ATOM      3  C4  UNL d   1       3.755   0.864   1.643  0.00  0.00     0.002 A 
ATOM      4  C5  UNL d   1       3.566   2.242   1.787  0.00  0.00    -0.080 A 
ATOM      5  C6  UNL d   1       2.780   3.025   0.777  0.00  0.00     0.076 C 
ATOM      6  C7  UNL d   1       4.126   2.893   2.892  0.00  0.00     0.002 A 
ATOM      7  C8  UNL d   1       4.883   2.180   3.825  0.00  0.00     0.006 A 
ENDROOT
BRANCH   1   8
ATOM      8  C1  UNL d   1       5.960   0.050   4.643  0.00  0.00     0.054 C 
ATOM      9  C   UNL d   1       5.999   0.738   6.000  0.00  0.00     0.018 C 
ENDBRANCH   1   8
TORSDOF 1
ENDMDL
