MODEL 1
REMARK minimizedAffinity 10.2029142
REMARK minimizedRMSD -1
REMARK  1 active torsions:
REMARK  status: ('A' for Active; 'I' for Inactive)
REMARK    1  A    between atoms: C1_2  and  C2_3 
ROOT
ATOM      1  C2  UNL d   1       5.310   3.953   4.028  0.00  0.00    -0.081 A 
ATOM      2  C3  UNL d   1       6.000   3.130   4.927  0.00  0.00     0.006 A 
ATOM      3  C4  UNL d   1       5.740   1.758   4.974  0.00  0.00     0.002 A 
ATOM      4  C5  UNL d   1       4.794   1.186   4.118  0.00  0.00    -0.080 A 
ATOM      5  C6  UNL d   1       4.527  -0.290   4.137  0.00  0.00     0.076 C 
ATOM      6  C7  UNL d   1       4.092   2.010   3.232  0.00  0.00     0.002 A 
ATOM      7  C8  UNL d   1       4.351   3.382   3.185  0.00  0.00     0.006 A 
ENDROOT
BRANCH   1   8
ATOM      8  C1  UNL d   1       5.634   5.422   3.930  0.00  0.00     0.054 C 
ATOM      9  C   UNL d   1       6.000   6.000   5.290  0.00  0.00     0.018 C 
ENDBRANCH   1   8
TORSDOF 1
ENDMDL
