MODEL 1
REMARK minimizedAffinity 4.45386171
REMARK minimizedRMSD -1
REMARK  1 active torsions:
REMARK  status: ('A' for Active; 'I' for Inactive)
REMARK    1  A    between atoms: C1_2  and  C2_3 
ROOT
ATOM      1  C2  UNL d   1      -2.401   1.595  -0.629  0.00  0.00    -0.081 A 
ATOM      2  C3  UNL d   1      -3.198   0.461  -0.429  0.00  0.00     0.006 A 
ATOM      3  C4  UNL d   1      -2.616  -0.804  -0.321  0.00  0.00     0.002 A 
ATOM      4  C5  UNL d   1      -1.228  -0.956  -0.403  0.00  0.00    -0.080 A 
ATOM      5  C6  UNL d   1      -0.588  -2.305  -0.259  0.00  0.00     0.076 C 
ATOM      6  C7  UNL d   1      -0.433   0.174  -0.621  0.00  0.00     0.002 A 
ATOM      7  C8  UNL d   1      -1.014   1.440  -0.729  0.00  0.00     0.006 A 
ENDROOT
BRANCH   1   8
ATOM      8  C1  UNL d   1      -3.020   2.968  -0.680  0.00  0.00     0.054 C 
ATOM      9  C   UNL d   1      -4.539   2.889  -0.732  0.00  0.00     0.018 C 
ENDBRANCH   1   8
TORSDOF 1
ENDMDL
