MODEL 1
REMARK minimizedAffinity 2.55736113
REMARK minimizedRMSD -1
REMARK  1 active torsions:
REMARK  status: ('A' for Active; 'I' for Inactive)
REMARK    1  A    between atoms: C1_2  and  C2_3 
ROOT
ATOM      1  C2  UNL d   1      -1.616   2.773  -0.612  0.00  0.00    -0.081 A 
ATOM      2  C3  UNL d   1      -1.988   4.123  -0.647  0.00  0.00     0.006 A 
ATOM      3  C4  UNL d   1      -3.238   4.525  -0.169  0.00  0.00     0.002 A 
ATOM      4  C5  UNL d   1      -4.132   3.586   0.357  0.00  0.00    -0.080 A 
ATOM      5  C6  UNL d   1      -5.465   4.009   0.900  0.00  0.00     0.076 C 
ATOM      6  C7  UNL d   1      -3.767   2.236   0.375  0.00  0.00     0.002 A 
ATOM      7  C8  UNL d   1      -2.518   1.833  -0.102  0.00  0.00     0.006 A 
ENDROOT
BRANCH   1   8
ATOM      8  C1  UNL d   1      -0.244   2.345  -1.066  0.00  0.00     0.054 C 
ATOM      9  C   UNL d   1       0.805   3.394  -0.722  0.00  0.00     0.018 C 
ENDBRANCH   1   8
TORSDOF 1
ENDMDL
