MODEL 1
REMARK minimizedAffinity -4.00320482
REMARK minimizedRMSD -1
REMARK  1 active torsions:
REMARK  status: ('A' for Active; 'I' for Inactive)
REMARK    1  A    between atoms: C1_2  and  C2_3 
ROOT
ATOM      1  C2  UNL d   1      -2.500   1.983   1.147  0.00  0.00    -0.081 A 
ATOM      2  C3  UNL d   1      -2.055   1.481  -0.083  0.00  0.00     0.006 A 
ATOM      3  C4  UNL d   1      -1.877   0.108  -0.264  0.00  0.00     0.002 A 
ATOM      4  C5  UNL d   1      -2.147  -0.787   0.777  0.00  0.00    -0.080 A 
ATOM      5  C6  UNL d   1      -1.988  -2.266   0.586  0.00  0.00     0.076 C 
ATOM      6  C7  UNL d   1      -2.574  -0.284   2.011  0.00  0.00     0.002 A 
ATOM      7  C8  UNL d   1      -2.752   1.089   2.193  0.00  0.00     0.006 A 
ENDROOT
BRANCH   1   8
ATOM      8  C1  UNL d   1      -2.755   3.458   1.326  0.00  0.00     0.054 C 
ATOM      9  C   UNL d   1      -3.634   4.006   0.211  0.00  0.00     0.018 C 
ENDBRANCH   1   8
TORSDOF 1
ENDMDL
