MODEL 1
REMARK minimizedAffinity -3.11276913
REMARK minimizedRMSD -1
REMARK  1 active torsions:
REMARK  status: ('A' for Active; 'I' for Inactive)
REMARK    1  A    between atoms: C1_2  and  C2_3 
ROOT
ATOM      1  C2  UNL d   1      -2.863  -0.170   0.815  0.00  0.00    -0.081 A 
ATOM      2  C3  UNL d   1      -3.753   0.260  -0.177  0.00  0.00     0.006 A 
ATOM      3  C4  UNL d   1      -3.893   1.620  -0.461  0.00  0.00     0.002 A 
ATOM      4  C5  UNL d   1      -3.141   2.572   0.235  0.00  0.00    -0.080 A 
ATOM      5  C6  UNL d   1      -3.259   4.033  -0.081  0.00  0.00     0.076 C 
ATOM      6  C7  UNL d   1      -2.264   2.144   1.238  0.00  0.00     0.002 A 
ATOM      7  C8  UNL d   1      -2.124   0.784   1.523  0.00  0.00     0.006 A 
ENDROOT
BRANCH   1   8
ATOM      8  C1  UNL d   1      -2.662  -1.641   1.079  0.00  0.00     0.054 C 
ATOM      9  C   UNL d   1      -1.825  -2.290  -0.014  0.00  0.00     0.018 C 
ENDBRANCH   1   8
TORSDOF 1
ENDMDL
