MODEL 1
REMARK minimizedAffinity -1.95265329
REMARK minimizedRMSD -1
REMARK  1 active torsions:
REMARK  status: ('A' for Active; 'I' for Inactive)
REMARK    1  A    between atoms: C1_2  and  C2_3 
ROOT
ATOM      1  C2  UNL d   1      -2.888   0.556   1.662  0.00  0.00    -0.081 A 
ATOM      2  C3  UNL d   1      -2.774   0.533   0.266  0.00  0.00     0.006 A 
ATOM      3  C4  UNL d   1      -3.002   1.691  -0.482  0.00  0.00     0.002 A 
ATOM      4  C5  UNL d   1      -3.339   2.891   0.153  0.00  0.00    -0.080 A 
ATOM      5  C6  UNL d   1      -3.557   4.148  -0.636  0.00  0.00     0.076 C 
ATOM      6  C7  UNL d   1      -3.470   2.910   1.545  0.00  0.00     0.002 A 
ATOM      7  C8  UNL d   1      -3.244   1.753   2.294  0.00  0.00     0.006 A 
ENDROOT
BRANCH   1   8
ATOM      8  C1  UNL d   1      -2.580  -0.675   2.476  0.00  0.00     0.054 C 
ATOM      9  C   UNL d   1      -2.862  -0.445   3.954  0.00  0.00     0.018 C 
ENDBRANCH   1   8
TORSDOF 1
ENDMDL
