MODEL 1
REMARK minimizedAffinity -0.615434289
REMARK minimizedRMSD -1
REMARK  1 active torsions:
REMARK  status: ('A' for Active; 'I' for Inactive)
REMARK    1  A    between atoms: C1_2  and  C2_3 
ROOT
ATOM      1  C2  UNL d   1      -2.505   1.247   0.828  0.00  0.00    -0.081 A 
ATOM      2  C3  UNL d   1      -3.112   1.573   2.047  0.00  0.00     0.006 A 
ATOM      3  C4  UNL d   1      -3.107   0.662   3.106  0.00  0.00     0.002 A 
ATOM      4  C5  UNL d   1      -2.489  -0.585   2.967  0.00  0.00    -0.080 A 
ATOM      5  C6  UNL d   1      -2.450  -1.560   4.106  0.00  0.00     0.076 C 
ATOM      6  C7  UNL d   1      -1.898  -0.918   1.743  0.00  0.00     0.002 A 
ATOM      7  C8  UNL d   1      -1.903  -0.008   0.684  0.00  0.00     0.006 A 
ENDROOT
BRANCH   1   8
ATOM      8  C1  UNL d   1      -2.453   2.252  -0.295  0.00  0.00     0.054 C 
ATOM      9  C   UNL d   1      -3.519   3.325  -0.128  0.00  0.00     0.018 C 
ENDBRANCH   1   8
TORSDOF 1
ENDMDL
