MODEL 1
REMARK minimizedAffinity 1.05059946
REMARK minimizedRMSD -1
REMARK  1 active torsions:
REMARK  status: ('A' for Active; 'I' for Inactive)
REMARK    1  A    between atoms: C1_2  and  C2_3 
ROOT
ATOM      1  C2  UNL d   1      -2.879   0.678   2.174  0.00  0.00    -0.081 A 
ATOM      2  C3  UNL d   1      -2.872   1.951   2.757  0.00  0.00     0.006 A 
ATOM      3  C4  UNL d   1      -3.155   3.083   1.989  0.00  0.00     0.002 A 
ATOM      4  C5  UNL d   1      -3.458   2.960   0.629  0.00  0.00    -0.080 A 
ATOM      5  C6  UNL d   1      -3.794   4.165  -0.200  0.00  0.00     0.076 C 
ATOM      6  C7  UNL d   1      -3.449   1.690   0.042  0.00  0.00     0.002 A 
ATOM      7  C8  UNL d   1      -3.164   0.558   0.809  0.00  0.00     0.006 A 
ENDROOT
BRANCH   1   8
ATOM      8  C1  UNL d   1      -2.637  -0.551   3.013  0.00  0.00     0.054 C 
ATOM      9  C   UNL d   1      -3.798  -0.809   3.963  0.00  0.00     0.018 C 
ENDBRANCH   1   8
TORSDOF 1
ENDMDL
