MODEL 1
REMARK minimizedAffinity -0.23132357
REMARK minimizedRMSD -1
REMARK  1 active torsions:
REMARK  status: ('A' for Active; 'I' for Inactive)
REMARK    1  A    between atoms: C1_2  and  C2_3 
ROOT
ATOM      1  C2  UNL d   1       3.652  -0.367   2.601  0.00  0.00    -0.081 A 
ATOM      2  C3  UNL d   1       3.036  -1.230   3.516  0.00  0.00     0.006 A 
ATOM      3  C4  UNL d   1       2.326  -2.347   3.069  0.00  0.00     0.002 A 
ATOM      4  C5  UNL d   1       2.227  -2.624   1.701  0.00  0.00    -0.080 A 
ATOM      5  C6  UNL d   1       1.493  -3.836   1.210  0.00  0.00     0.076 C 
ATOM      6  C7  UNL d   1       2.827  -1.753   0.786  0.00  0.00     0.002 A 
ATOM      7  C8  UNL d   1       3.536  -0.635   1.232  0.00  0.00     0.006 A 
ENDROOT
BRANCH   1   8
ATOM      8  C1  UNL d   1       4.473   0.802   3.082  0.00  0.00     0.054 C 
ATOM      9  C   UNL d   1       5.763   0.337   3.743  0.00  0.00     0.018 C 
ENDBRANCH   1   8
TORSDOF 1
ENDMDL
