MODEL 1
REMARK minimizedAffinity 5.78853226
REMARK minimizedRMSD -1
REMARK  1 active torsions:
REMARK  status: ('A' for Active; 'I' for Inactive)
REMARK    1  A    between atoms: C1_2  and  C2_3 
ROOT
ATOM      1  C2  UNL d   1       5.181   1.175   3.485  0.00  0.00    -0.081 A 
ATOM      2  C3  UNL d   1       4.941   2.553   3.430  0.00  0.00     0.006 A 
ATOM      3  C4  UNL d   1       4.133   3.092   2.426  0.00  0.00     0.002 A 
ATOM      4  C5  UNL d   1       3.546   2.261   1.465  0.00  0.00    -0.080 A 
ATOM      5  C6  UNL d   1       2.653   2.823   0.400  0.00  0.00     0.076 C 
ATOM      6  C7  UNL d   1       3.800   0.886   1.510  0.00  0.00     0.002 A 
ATOM      7  C8  UNL d   1       4.609   0.347   2.513  0.00  0.00     0.006 A 
ENDROOT
BRANCH   1   8
ATOM      8  C1  UNL d   1       5.999   0.583   4.604  0.00  0.00     0.054 C 
ATOM      9  C   UNL d   1       6.000   1.489   5.827  0.00  0.00     0.018 C 
ENDBRANCH   1   8
TORSDOF 1
ENDMDL
