MODEL 1
REMARK minimizedAffinity -2.07944059
REMARK minimizedRMSD -1
REMARK  1 active torsions:
REMARK  status: ('A' for Active; 'I' for Inactive)
REMARK    1  A    between atoms: C1_2  and  C2_3 
ROOT
ATOM      1  C2  UNL d   1       3.119  -0.540   1.729  0.00  0.00    -0.081 A 
ATOM      2  C3  UNL d   1       4.020  -1.345   2.437  0.00  0.00     0.006 A 
ATOM      3  C4  UNL d   1       4.962  -0.768   3.293  0.00  0.00     0.002 A 
ATOM      4  C5  UNL d   1       5.014   0.620   3.461  0.00  0.00    -0.080 A 
ATOM      5  C6  UNL d   1       6.000   1.249   4.399  0.00  0.00     0.076 C 
ATOM      6  C7  UNL d   1       4.125   1.424   2.739  0.00  0.00     0.002 A 
ATOM      7  C8  UNL d   1       3.184   0.849   1.883  0.00  0.00     0.006 A 
ENDROOT
BRANCH   1   8
ATOM      8  C1  UNL d   1       2.060  -1.162   0.855  0.00  0.00     0.054 C 
ATOM      9  C   UNL d   1       2.312  -2.650   0.654  0.00  0.00     0.018 C 
ENDBRANCH   1   8
TORSDOF 1
ENDMDL
