MODEL 1
REMARK minimizedAffinity -0.267574221
REMARK minimizedRMSD -1
REMARK  1 active torsions:
REMARK  status: ('A' for Active; 'I' for Inactive)
REMARK    1  A    between atoms: C1_2  and  C2_3 
ROOT
ATOM      1  C2  UNL d   1       5.486   4.063   4.123  0.00  0.00    -0.081 A 
ATOM      2  C3  UNL d   1       4.978   3.450   2.971  0.00  0.00     0.006 A 
ATOM      3  C4  UNL d   1       4.977   2.058   2.852  0.00  0.00     0.002 A 
ATOM      4  C5  UNL d   1       5.474   1.257   3.884  0.00  0.00    -0.080 A 
ATOM      5  C6  UNL d   1       5.450  -0.240   3.782  0.00  0.00     0.076 C 
ATOM      6  C7  UNL d   1       5.997   1.869   5.028  0.00  0.00     0.002 A 
ATOM      7  C8  UNL d   1       6.000   3.261   5.148  0.00  0.00     0.006 A 
ENDROOT
BRANCH   1   8
ATOM      8  C1  UNL d   1       5.430   5.561   4.282  0.00  0.00     0.054 C 
ATOM      9  C   UNL d   1       5.926   5.990   5.655  0.00  0.00     0.018 C 
ENDBRANCH   1   8
TORSDOF 1
ENDMDL
