MODEL 1
REMARK minimizedAffinity 12.8512354
REMARK minimizedRMSD -1
REMARK  1 active torsions:
REMARK  status: ('A' for Active; 'I' for Inactive)
REMARK    1  A    between atoms: C1_2  and  C2_3 
ROOT
ATOM      1  C2  UNL d   1       5.079   3.862   3.416  0.00  0.00    -0.081 A 
ATOM      2  C3  UNL d   1       6.000   3.147   4.191  0.00  0.00     0.006 A 
ATOM      3  C4  UNL d   1       6.000   1.750   4.183  0.00  0.00     0.002 A 
ATOM      4  C5  UNL d   1       5.085   1.045   3.393  0.00  0.00    -0.080 A 
ATOM      5  C6  UNL d   1       5.094  -0.454   3.351  0.00  0.00     0.076 C 
ATOM      6  C7  UNL d   1       4.153   1.759   2.632  0.00  0.00     0.002 A 
ATOM      7  C8  UNL d   1       4.152   3.156   2.641  0.00  0.00     0.006 A 
ENDROOT
BRANCH   1   8
ATOM      8  C1  UNL d   1       5.118   5.368   3.374  0.00  0.00     0.054 C 
ATOM      9  C   UNL d   1       4.891   5.967   4.755  0.00  0.00     0.018 C 
ENDBRANCH   1   8
TORSDOF 1
ENDMDL
