MODEL 1
REMARK minimizedAffinity 3.80867267
REMARK minimizedRMSD -1
REMARK  1 active torsions:
REMARK  status: ('A' for Active; 'I' for Inactive)
REMARK    1  A    between atoms: C1_2  and  C2_3 
ROOT
ATOM      1  C2  UNL d   1       3.950   3.117  -5.581  0.00  0.00    -0.081 A 
ATOM      2  C3  UNL d   1       3.215   1.934  -5.722  0.00  0.00     0.006 A 
ATOM      3  C4  UNL d   1       3.868   0.708  -5.870  0.00  0.00     0.002 A 
ATOM      4  C5  UNL d   1       5.265   0.643  -5.872  0.00  0.00    -0.080 A 
ATOM      5  C6  UNL d   1       5.978  -0.670  -6.000  0.00  0.00     0.076 C 
ATOM      6  C7  UNL d   1       6.000   1.827  -5.749  0.00  0.00     0.002 A 
ATOM      7  C8  UNL d   1       5.348   3.054  -5.601  0.00  0.00     0.006 A 
ENDROOT
BRANCH   1   8
ATOM      8  C1  UNL d   1       3.250   4.433  -5.356  0.00  0.00     0.054 C 
ATOM      9  C   UNL d   1       3.585   5.012  -3.989  0.00  0.00     0.018 C 
ENDBRANCH   1   8
TORSDOF 1
ENDMDL
