MODEL 1
REMARK minimizedAffinity 2.00803924
REMARK minimizedRMSD -1
REMARK  1 active torsions:
REMARK  status: ('A' for Active; 'I' for Inactive)
REMARK    1  A    between atoms: C1_2  and  C2_3 
ROOT
ATOM      1  C2  UNL d   1       5.254   4.016   3.941  0.00  0.00    -0.081 A 
ATOM      2  C3  UNL d   1       6.000   3.238   4.835  0.00  0.00     0.006 A 
ATOM      3  C4  UNL d   1       6.000   1.845   4.734  0.00  0.00     0.002 A 
ATOM      4  C5  UNL d   1       5.262   1.207   3.732  0.00  0.00    -0.080 A 
ATOM      5  C6  UNL d   1       5.277  -0.287   3.592  0.00  0.00     0.076 C 
ATOM      6  C7  UNL d   1       4.503   1.982   2.848  0.00  0.00     0.002 A 
ATOM      7  C8  UNL d   1       4.502   3.375   2.950  0.00  0.00     0.006 A 
ENDROOT
BRANCH   1   8
ATOM      8  C1  UNL d   1       5.303   5.521   4.007  0.00  0.00     0.054 C 
ATOM      9  C   UNL d   1       5.956   5.996   5.297  0.00  0.00     0.018 C 
ENDBRANCH   1   8
TORSDOF 1
ENDMDL
