MODEL 1
REMARK minimizedAffinity -1.55064476
REMARK minimizedRMSD -1
REMARK  1 active torsions:
REMARK  status: ('A' for Active; 'I' for Inactive)
REMARK    1  A    between atoms: C1_2  and  C2_3 
ROOT
ATOM      1  C2  UNL d   1      -4.382  -0.849  -4.072  0.00  0.00    -0.077 A 
ATOM      2  C3  UNL d   1      -3.330  -0.323  -4.834  0.00  0.00     0.002 A 
ATOM      3  C4  UNL d   1      -3.576   0.660  -5.796  0.00  0.00     0.002 A 
ATOM      4  C5  UNL d   1      -4.873   1.127  -6.000  0.00  0.00    -0.004 A 
ATOM      5  C6  UNL d   1      -5.926   0.609  -5.248  0.00  0.00     0.002 A 
ATOM      6  C7  UNL d   1      -5.682  -0.374  -4.288  0.00  0.00     0.002 A 
ENDROOT
BRANCH   1   7
ATOM      7  C1  UNL d   1      -4.112  -1.873  -3.001  0.00  0.00     0.055 C 
ATOM      8  C   UNL d   1      -3.378  -1.257  -1.819  0.00  0.00     0.019 C 
ENDBRANCH   1   7
TORSDOF 1
ENDMDL
