MODEL 1
REMARK minimizedAffinity -2.61394882
REMARK minimizedRMSD -1
REMARK  1 active torsions:
REMARK  status: ('A' for Active; 'I' for Inactive)
REMARK    1  A    between atoms: C1_2  and  C2_3 
ROOT
ATOM      1  C2  UNL d   1      -3.133   1.021  -3.300  0.00  0.00    -0.077 A 
ATOM      2  C3  UNL d   1      -3.616   1.220  -4.600  0.00  0.00     0.002 A 
ATOM      3  C4  UNL d   1      -4.082   0.141  -5.354  0.00  0.00     0.002 A 
ATOM      4  C5  UNL d   1      -4.073  -1.143  -4.814  0.00  0.00    -0.004 A 
ATOM      5  C6  UNL d   1      -3.593  -1.352  -3.522  0.00  0.00     0.002 A 
ATOM      6  C7  UNL d   1      -3.125  -0.275  -2.768  0.00  0.00     0.002 A 
ENDROOT
BRANCH   1   7
ATOM      7  C1  UNL d   1      -2.676   2.190  -2.467  0.00  0.00     0.055 C 
ATOM      8  C   UNL d   1      -2.726   3.488  -3.261  0.00  0.00     0.019 C 
ENDBRANCH   1   7
TORSDOF 1
ENDMDL
