MODEL 1
REMARK minimizedAffinity -0.169910759
REMARK minimizedRMSD -1
REMARK  1 active torsions:
REMARK  status: ('A' for Active; 'I' for Inactive)
REMARK    1  A    between atoms: C1_2  and  C2_3 
ROOT
ATOM      1  C2  UNL d   1       3.708  -1.365   0.210  0.00  0.00    -0.077 A 
ATOM      2  C3  UNL d   1       2.482  -1.987   0.485  0.00  0.00     0.002 A 
ATOM      3  C4  UNL d   1       2.449  -3.235   1.110  0.00  0.00     0.002 A 
ATOM      4  C5  UNL d   1       3.637  -3.869   1.469  0.00  0.00    -0.004 A 
ATOM      5  C6  UNL d   1       4.861  -3.259   1.198  0.00  0.00     0.002 A 
ATOM      6  C7  UNL d   1       4.896  -2.012   0.573  0.00  0.00     0.002 A 
ENDROOT
BRANCH   1   7
ATOM      7  C1  UNL d   1       3.745   0.004  -0.419  0.00  0.00     0.055 C 
ATOM      8  C   UNL d   1       5.170   0.419  -0.756  0.00  0.00     0.019 C 
ENDBRANCH   1   7
TORSDOF 1
ENDMDL
