MODEL 1
REMARK minimizedAffinity -2.21289182
REMARK minimizedRMSD -1
REMARK  1 active torsions:
REMARK  status: ('A' for Active; 'I' for Inactive)
REMARK    1  A    between atoms: C1_2  and  C2_3 
ROOT
ATOM      1  C2  UNL d   1      -3.948  -0.587  -3.978  0.00  0.00    -0.077 A 
ATOM      2  C3  UNL d   1      -3.109  -0.139  -5.008  0.00  0.00     0.002 A 
ATOM      3  C4  UNL d   1      -3.600   0.713  -5.999  0.00  0.00     0.002 A 
ATOM      4  C5  UNL d   1      -4.930   1.126  -5.969  0.00  0.00    -0.004 A 
ATOM      5  C6  UNL d   1      -5.773   0.684  -4.950  0.00  0.00     0.002 A 
ATOM      6  C7  UNL d   1      -5.284  -0.167  -3.958  0.00  0.00     0.002 A 
ENDROOT
BRANCH   1   7
ATOM      7  C1  UNL d   1      -3.407  -1.465  -2.880  0.00  0.00     0.055 C 
ATOM      8  C   UNL d   1      -2.740  -0.641  -1.789  0.00  0.00     0.019 C 
ENDBRANCH   1   7
TORSDOF 1
ENDMDL
