MODEL 1
REMARK minimizedAffinity 4.28640413
REMARK minimizedRMSD -1
REMARK  0 active torsions:
REMARK  status: ('A' for Active; 'I' for Inactive)
ROOT
ATOM      1  C   UNL d   1      -1.813  -0.325   3.034  0.00  0.00     0.023 A 
ATOM      2  C1  UNL d   1      -1.889  -0.685   1.689  0.00  0.00     0.003 A 
ATOM      3  C2  UNL d   1      -0.908  -1.505   1.128  0.00  0.00     0.048 A 
ATOM      4  C3  UNL d   1       0.146  -1.962   1.918  0.00  0.00     0.023 A 
ATOM      5  C4  UNL d   1       0.226  -1.605   3.265  0.00  0.00     0.048 A 
ATOM      6  C5  UNL d   1      -0.757  -0.784   3.821  0.00  0.00     0.003 A 
ATOM      7  I   UNL d   1       1.608  -3.183   1.085  0.00  0.00    -0.146 I 
ENDROOT
TORSDOF 0
ENDMDL
