MODEL 1
REMARK minimizedAffinity 4.98557711
REMARK minimizedRMSD -1
REMARK  0 active torsions:
REMARK  status: ('A' for Active; 'I' for Inactive)
ROOT
ATOM      1  C   UNL d   1       2.567  -3.044   1.186  0.00  0.00     0.023 A 
ATOM      2  C1  UNL d   1       2.018  -4.326   1.187  0.00  0.00     0.003 A 
ATOM      3  C2  UNL d   1       0.794  -4.563   1.816  0.00  0.00     0.048 A 
ATOM      4  C3  UNL d   1       0.125  -3.512   2.442  0.00  0.00     0.023 A 
ATOM      5  C4  UNL d   1       0.670  -2.227   2.443  0.00  0.00     0.048 A 
ATOM      6  C5  UNL d   1       1.894  -1.996   1.814  0.00  0.00     0.003 A 
ATOM      7  I   UNL d   1      -1.697  -3.861   3.380  0.00  0.00    -0.146 I 
ENDROOT
TORSDOF 0
ENDMDL
