MODEL 1
REMARK minimizedAffinity 7.2657299
REMARK minimizedRMSD -1
REMARK  0 active torsions:
REMARK  status: ('A' for Active; 'I' for Inactive)
ROOT
ATOM      1  C   UNL d   1       2.875  -2.799   2.494  0.00  0.00     0.023 A 
ATOM      2  C1  UNL d   1       3.641  -2.269   1.456  0.00  0.00     0.003 A 
ATOM      3  C2  UNL d   1       3.018  -1.773   0.308  0.00  0.00     0.048 A 
ATOM      4  C3  UNL d   1       1.628  -1.809   0.207  0.00  0.00     0.023 A 
ATOM      5  C4  UNL d   1       0.857  -2.336   1.243  0.00  0.00     0.048 A 
ATOM      6  C5  UNL d   1       1.484  -2.832   2.388  0.00  0.00     0.003 A 
ATOM      7  I   UNL d   1       0.699  -1.071  -1.500  0.00  0.00    -0.146 I 
ENDROOT
TORSDOF 0
ENDMDL
