MODEL 1
REMARK minimizedAffinity 0.824023962
REMARK minimizedRMSD -1
REMARK  0 active torsions:
REMARK  status: ('A' for Active; 'I' for Inactive)
ROOT
ATOM      1  C   UNL d   1       2.071  -2.868   1.874  0.00  0.00     0.023 A 
ATOM      2  C1  UNL d   1       2.224  -2.017   2.969  0.00  0.00     0.003 A 
ATOM      3  C2  UNL d   1       1.157  -1.219   3.389  0.00  0.00     0.048 A 
ATOM      4  C3  UNL d   1      -0.060  -1.279   2.711  0.00  0.00     0.023 A 
ATOM      5  C4  UNL d   1      -0.218  -2.130   1.616  0.00  0.00     0.048 A 
ATOM      6  C5  UNL d   1       0.852  -2.924   1.199  0.00  0.00     0.003 A 
ATOM      7  I   UNL d   1      -1.649  -0.093   3.335  0.00  0.00    -0.146 I 
ENDROOT
TORSDOF 0
ENDMDL
