MODEL 1
REMARK minimizedAffinity 3.9802711
REMARK minimizedRMSD -1
REMARK  0 active torsions:
REMARK  status: ('A' for Active; 'I' for Inactive)
ROOT
ATOM      1  C   UNL d   1       2.800  -3.916   0.111  0.00  0.00     0.023 A 
ATOM      2  C1  UNL d   1       2.093  -4.547   1.134  0.00  0.00     0.003 A 
ATOM      3  C2  UNL d   1       1.341  -3.789   2.035  0.00  0.00     0.048 A 
ATOM      4  C3  UNL d   1       1.301  -2.401   1.906  0.00  0.00     0.023 A 
ATOM      5  C4  UNL d   1       2.006  -1.766   0.882  0.00  0.00     0.048 A 
ATOM      6  C5  UNL d   1       2.756  -2.528  -0.015  0.00  0.00     0.003 A 
ATOM      7  I   UNL d   1       0.183  -1.272   3.245  0.00  0.00    -0.146 I 
ENDROOT
TORSDOF 0
ENDMDL
