MODEL 1
REMARK minimizedAffinity 4.02147484
REMARK minimizedRMSD -1
REMARK  0 active torsions:
REMARK  status: ('A' for Active; 'I' for Inactive)
ROOT
ATOM      1  C   UNL d   1      -3.008   0.387   2.923  0.00  0.00     0.023 A 
ATOM      2  C1  UNL d   1      -2.888  -0.084   1.615  0.00  0.00     0.003 A 
ATOM      3  C2  UNL d   1      -1.781  -0.850   1.246  0.00  0.00     0.048 A 
ATOM      4  C3  UNL d   1      -0.797  -1.144   2.191  0.00  0.00     0.023 A 
ATOM      5  C4  UNL d   1      -0.913  -0.675   3.501  0.00  0.00     0.048 A 
ATOM      6  C5  UNL d   1      -2.022   0.092   3.864  0.00  0.00     0.003 A 
ATOM      7  I   UNL d   1       0.852  -2.285   1.644  0.00  0.00    -0.146 I 
ENDROOT
TORSDOF 0
ENDMDL
