MODEL 1
REMARK minimizedAffinity 2.59247994
REMARK minimizedRMSD -1
REMARK  0 active torsions:
REMARK  status: ('A' for Active; 'I' for Inactive)
ROOT
ATOM      1  C   UNL d   1       1.666  -4.991   1.724  0.00  0.00     0.023 A 
ATOM      2  C1  UNL d   1       2.117  -3.680   1.879  0.00  0.00     0.003 A 
ATOM      3  C2  UNL d   1       1.262  -2.702   2.390  0.00  0.00     0.048 A 
ATOM      4  C3  UNL d   1      -0.043  -3.041   2.745  0.00  0.00     0.023 A 
ATOM      5  C4  UNL d   1      -0.499  -4.351   2.592  0.00  0.00     0.048 A 
ATOM      6  C5  UNL d   1       0.359  -5.326   2.080  0.00  0.00     0.003 A 
ATOM      7  I   UNL d   1      -1.318  -1.586   3.506  0.00  0.00    -0.146 I 
ENDROOT
TORSDOF 0
ENDMDL
