MODEL 1
REMARK minimizedAffinity 7.93744183
REMARK minimizedRMSD -1
REMARK  0 active torsions:
REMARK  status: ('A' for Active; 'I' for Inactive)
ROOT
ATOM      1  C   UNL d   1       3.746  -5.203   2.109  0.00  0.00     0.023 A 
ATOM      2  C1  UNL d   1       2.918  -5.233   0.986  0.00  0.00     0.003 A 
ATOM      3  C2  UNL d   1       2.164  -4.109   0.644  0.00  0.00     0.048 A 
ATOM      4  C3  UNL d   1       2.243  -2.958   1.427  0.00  0.00     0.023 A 
ATOM      5  C4  UNL d   1       3.071  -2.923   2.550  0.00  0.00     0.048 A 
ATOM      6  C5  UNL d   1       3.823  -4.050   2.890  0.00  0.00     0.003 A 
ATOM      7  I   UNL d   1       1.121  -1.284   0.919  0.00  0.00    -0.146 I 
ENDROOT
TORSDOF 0
ENDMDL
