MODEL 1
REMARK minimizedAffinity -3.2280879
REMARK minimizedRMSD -1
REMARK  2 active torsions:
REMARK  status: ('A' for Active; 'I' for Inactive)
REMARK    1  A    between atoms: C2'_3  and  C1'_4 
REMARK    2  A    between atoms: C1'_4  and  C1_5 
ROOT
ATOM      1  C1  I4B d   1       0.269  -0.455   0.023  0.00  0.00    -0.075 A 
ATOM      2  C2  I4B d   1      -0.356   0.227  -0.991  0.00  0.00     0.003 A 
ATOM      3  C3  I4B d   1      -1.695  -0.078  -1.335  0.00  0.00     0.002 A 
ATOM      4  C4  I4B d   1      -2.351  -1.098  -0.677  0.00  0.00    -0.004 A 
ATOM      5  C5  I4B d   1      -1.724  -1.773   0.366  0.00  0.00     0.002 A 
ATOM      6  C6  I4B d   1      -0.410  -1.441   0.728  0.00  0.00     0.003 A 
ENDROOT
BRANCH   1   7
ATOM      7  C1' I4B d   1       1.695  -0.131   0.339  0.00  0.00     0.060 C 
BRANCH   7   8
ATOM      8  C2' I4B d   1       1.781   1.352   0.637  0.00  0.00    -0.013 C 
ATOM      9  C4' I4B d   1       1.908   1.604   2.116  0.00  0.00     0.013 C 
ATOM     10  C3' I4B d   1       2.958   1.907  -0.109  0.00  0.00     0.013 C 
ENDBRANCH   7   8
ENDBRANCH   1   7
TORSDOF 2
ENDMDL
