MODEL 1
REMARK minimizedAffinity -4.57215166
REMARK minimizedRMSD -1
REMARK  2 active torsions:
REMARK  status: ('A' for Active; 'I' for Inactive)
REMARK    1  A    between atoms: C2'_3  and  C1'_4 
REMARK    2  A    between atoms: C1'_4  and  C1_5 
ROOT
ATOM      1  C1  I4B d   1      -1.625  -0.798   0.604  0.00  0.00    -0.075 A 
ATOM      2  C2  I4B d   1      -1.125  -1.838   1.347  0.00  0.00     0.003 A 
ATOM      3  C3  I4B d   1      -1.879  -3.025   1.510  0.00  0.00     0.002 A 
ATOM      4  C4  I4B d   1      -3.141  -3.110   0.958  0.00  0.00    -0.004 A 
ATOM      5  C5  I4B d   1      -3.637  -2.063   0.186  0.00  0.00     0.002 A 
ATOM      6  C6  I4B d   1      -2.870  -0.905  -0.002  0.00  0.00     0.003 A 
ENDROOT
BRANCH   1   7
ATOM      7  C1' I4B d   1      -0.816   0.454   0.480  0.00  0.00     0.060 C 
BRANCH   7   8
ATOM      8  C2' I4B d   1       0.384   0.150  -0.394  0.00  0.00    -0.013 C 
ATOM      9  C4' I4B d   1       0.112   0.497  -1.834  0.00  0.00     0.013 C 
ATOM     10  C3' I4B d   1       1.552   0.924   0.139  0.00  0.00     0.013 C 
ENDBRANCH   7   8
ENDBRANCH   1   7
TORSDOF 2
ENDMDL
