MODEL 1
REMARK minimizedAffinity -5.56045055
REMARK minimizedRMSD -1
REMARK  2 active torsions:
REMARK  status: ('A' for Active; 'I' for Inactive)
REMARK    1  A    between atoms: C2'_3  and  C1'_4 
REMARK    2  A    between atoms: C1'_4  and  C1_5 
ROOT
ATOM      1  C1  I4B d   1      -0.201  -0.499   0.630  0.00  0.00    -0.075 A 
ATOM      2  C2  I4B d   1      -0.406  -1.439   1.609  0.00  0.00     0.003 A 
ATOM      3  C3  I4B d   1      -1.705  -1.952   1.843  0.00  0.00     0.002 A 
ATOM      4  C4  I4B d   1      -2.770  -1.465   1.114  0.00  0.00    -0.004 A 
ATOM      5  C5  I4B d   1      -2.556  -0.529   0.106  0.00  0.00     0.002 A 
ATOM      6  C6  I4B d   1      -1.262  -0.052  -0.147  0.00  0.00     0.003 A 
ENDROOT
BRANCH   1   7
ATOM      7  C1' I4B d   1       1.178   0.046   0.432  0.00  0.00     0.060 C 
BRANCH   7   8
ATOM      8  C2' I4B d   1       1.249   1.396   1.115  0.00  0.00    -0.013 C 
ATOM      9  C4' I4B d   1       1.525   1.248   2.588  0.00  0.00     0.013 C 
ATOM     10  C3' I4B d   1       2.321   2.200   0.442  0.00  0.00     0.013 C 
ENDBRANCH   7   8
ENDBRANCH   1   7
TORSDOF 2
ENDMDL
