MODEL 1
REMARK minimizedAffinity -5.15122318
REMARK minimizedRMSD -1
REMARK  2 active torsions:
REMARK  status: ('A' for Active; 'I' for Inactive)
REMARK    1  A    between atoms: C2'_3  and  C1'_4 
REMARK    2  A    between atoms: C1'_4  and  C1_5 
ROOT
ATOM      1  C1  I4B d   1       0.522   0.351   0.030  0.00  0.00    -0.075 A 
ATOM      2  C2  I4B d   1       0.170  -0.446   1.090  0.00  0.00     0.003 A 
ATOM      3  C3  I4B d   1      -1.042  -1.179   1.059  0.00  0.00     0.002 A 
ATOM      4  C4  I4B d   1      -1.889  -1.046  -0.022  0.00  0.00    -0.004 A 
ATOM      5  C5  I4B d   1      -1.519  -0.256  -1.106  0.00  0.00     0.002 A 
ATOM      6  C6  I4B d   1      -0.300   0.438  -1.086  0.00  0.00     0.003 A 
ENDROOT
BRANCH   1   7
ATOM      7  C1' I4B d   1       1.793   1.137   0.110  0.00  0.00     0.060 C 
BRANCH   7   8
ATOM      8  C2' I4B d   1       1.548   2.329   1.012  0.00  0.00    -0.013 C 
ATOM      9  C4' I4B d   1       2.412   2.267   2.243  0.00  0.00     0.013 C 
ATOM     10  C3' I4B d   1       1.822   3.573   0.220  0.00  0.00     0.013 C 
ENDBRANCH   7   8
ENDBRANCH   1   7
TORSDOF 2
ENDMDL
