MODEL 1
REMARK minimizedAffinity 1.67693591
REMARK minimizedRMSD -1
REMARK  2 active torsions:
REMARK  status: ('A' for Active; 'I' for Inactive)
REMARK    1  A    between atoms: C2'_3  and  C1'_4 
REMARK    2  A    between atoms: C1'_4  and  C1_5 
ROOT
ATOM      1  C1  I4B d   1       0.475   0.090  -0.192  0.00  0.00    -0.075 A 
ATOM      2  C2  I4B d   1       0.603   0.595   1.077  0.00  0.00     0.003 A 
ATOM      3  C3  I4B d   1       0.723  -0.280   2.184  0.00  0.00     0.002 A 
ATOM      4  C4  I4B d   1       0.659  -1.644   1.982  0.00  0.00    -0.004 A 
ATOM      5  C5  I4B d   1       0.552  -2.154   0.692  0.00  0.00     0.002 A 
ATOM      6  C6  I4B d   1       0.472  -1.283  -0.404  0.00  0.00     0.003 A 
ENDROOT
BRANCH   1   7
ATOM      7  C1' I4B d   1       0.319   1.043  -1.335  0.00  0.00     0.060 C 
BRANCH   7   8
ATOM      8  C2' I4B d   1      -0.331   0.294  -2.481  0.00  0.00    -0.013 C 
ATOM      9  C4' I4B d   1      -1.691  -0.222  -2.094  0.00  0.00     0.013 C 
ATOM     10  C3' I4B d   1      -0.419   1.227  -3.652  0.00  0.00     0.013 C 
ENDBRANCH   7   8
ENDBRANCH   1   7
TORSDOF 2
ENDMDL
