MODEL 1
REMARK minimizedAffinity -1.33998609
REMARK minimizedRMSD -1
REMARK  2 active torsions:
REMARK  status: ('A' for Active; 'I' for Inactive)
REMARK    1  A    between atoms: C2'_3  and  C1'_4 
REMARK    2  A    between atoms: C1'_4  and  C1_5 
ROOT
ATOM      1  C1  I4B d   1       1.673   1.621   0.502  0.00  0.00    -0.075 A 
ATOM      2  C2  I4B d   1       2.421   2.646  -0.019  0.00  0.00     0.003 A 
ATOM      3  C3  I4B d   1       2.804   3.737   0.799  0.00  0.00     0.002 A 
ATOM      4  C4  I4B d   1       2.376   3.786   2.110  0.00  0.00    -0.004 A 
ATOM      5  C5  I4B d   1       1.636   2.735   2.643  0.00  0.00     0.002 A 
ATOM      6  C6  I4B d   1       1.292   1.639   1.838  0.00  0.00     0.003 A 
ENDROOT
BRANCH   1   7
ATOM      7  C1' I4B d   1       1.258   0.501  -0.399  0.00  0.00     0.060 C 
BRANCH   7   8
ATOM      8  C2' I4B d   1      -0.085  -0.011   0.081  0.00  0.00    -0.013 C 
ATOM      9  C4' I4B d   1      -1.065  -0.119  -1.058  0.00  0.00     0.013 C 
ATOM     10  C3' I4B d   1       0.134  -1.343   0.734  0.00  0.00     0.013 C 
ENDBRANCH   7   8
ENDBRANCH   1   7
TORSDOF 2
ENDMDL
