MODEL 1
REMARK minimizedAffinity -2.63491797
REMARK minimizedRMSD -1
REMARK  2 active torsions:
REMARK  status: ('A' for Active; 'I' for Inactive)
REMARK    1  A    between atoms: C2'_3  and  C1'_4 
REMARK    2  A    between atoms: C1'_4  and  C1_5 
ROOT
ATOM      1  C1  I4B d   1      -0.215  -1.116  -0.087  0.00  0.00    -0.075 A 
ATOM      2  C2  I4B d   1      -0.268  -2.069   0.900  0.00  0.00     0.003 A 
ATOM      3  C3  I4B d   1      -1.353  -2.976   0.957  0.00  0.00     0.002 A 
ATOM      4  C4  I4B d   1      -2.383  -2.864   0.045  0.00  0.00    -0.004 A 
ATOM      5  C5  I4B d   1      -2.316  -1.912  -0.969  0.00  0.00     0.002 A 
ATOM      6  C6  I4B d   1      -1.220  -1.041  -1.043  0.00  0.00     0.003 A 
ENDROOT
BRANCH   1   7
ATOM      7  C1' I4B d   1       0.929  -0.153  -0.099  0.00  0.00     0.060 C 
BRANCH   7   8
ATOM      8  C2' I4B d   1       0.553   1.029   0.771  0.00  0.00    -0.013 C 
ATOM      9  C4' I4B d   1       1.760   1.865   1.106  0.00  0.00     0.013 C 
ATOM     10  C3' I4B d   1      -0.477   1.835   0.036  0.00  0.00     0.013 C 
ENDBRANCH   7   8
ENDBRANCH   1   7
TORSDOF 2
ENDMDL
