MODEL 1
REMARK minimizedAffinity -2.95309043
REMARK minimizedRMSD -1
REMARK  2 active torsions:
REMARK  status: ('A' for Active; 'I' for Inactive)
REMARK    1  A    between atoms: C2'_3  and  C1'_4 
REMARK    2  A    between atoms: C1'_4  and  C1_5 
ROOT
ATOM      1  C1  I4B d   1       0.778  -0.024   0.296  0.00  0.00    -0.075 A 
ATOM      2  C2  I4B d   1       0.088  -0.696   1.274  0.00  0.00     0.003 A 
ATOM      3  C3  I4B d   1      -1.271  -1.040   1.079  0.00  0.00     0.002 A 
ATOM      4  C4  I4B d   1      -1.911  -0.651  -0.080  0.00  0.00    -0.004 A 
ATOM      5  C5  I4B d   1      -1.204   0.010  -1.080  0.00  0.00     0.002 A 
ATOM      6  C6  I4B d   1       0.153   0.315  -0.897  0.00  0.00     0.003 A 
ENDROOT
BRANCH   1   7
ATOM      7  C1' I4B d   1       2.204   0.353   0.549  0.00  0.00     0.060 C 
BRANCH   7   8
ATOM      8  C2' I4B d   1       2.249   1.839   0.841  0.00  0.00    -0.013 C 
ATOM      9  C4' I4B d   1       2.694   2.104   2.255  0.00  0.00     0.013 C 
ATOM     10  C3' I4B d   1       3.178   2.477  -0.149  0.00  0.00     0.013 C 
ENDBRANCH   7   8
ENDBRANCH   1   7
TORSDOF 2
ENDMDL
