MODEL 1
REMARK minimizedAffinity -1.54335856
REMARK minimizedRMSD -1
REMARK  2 active torsions:
REMARK  status: ('A' for Active; 'I' for Inactive)
REMARK    1  A    between atoms: C2'_3  and  C1'_4 
REMARK    2  A    between atoms: C1'_4  and  C1_5 
ROOT
ATOM      1  C1  I4B d   1      -1.439  -0.737  -0.275  0.00  0.00    -0.075 A 
ATOM      2  C2  I4B d   1      -1.051  -1.660   0.665  0.00  0.00     0.003 A 
ATOM      3  C3  I4B d   1       0.178  -1.504   1.350  0.00  0.00     0.002 A 
ATOM      4  C4  I4B d   1       1.006  -0.447   1.031  0.00  0.00    -0.004 A 
ATOM      5  C5  I4B d   1       0.600   0.499   0.094  0.00  0.00     0.002 A 
ATOM      6  C6  I4B d   1      -0.636   0.360  -0.554  0.00  0.00     0.003 A 
ENDROOT
BRANCH   1   7
ATOM      7  C1' I4B d   1      -2.728  -0.950  -1.004  0.00  0.00     0.060 C 
BRANCH   7   8
ATOM      8  C2' I4B d   1      -3.177  -2.375  -0.753  0.00  0.00    -0.013 C 
ATOM      9  C4' I4B d   1      -4.628  -2.429  -0.357  0.00  0.00     0.013 C 
ATOM     10  C3' I4B d   1      -2.928  -3.165  -2.004  0.00  0.00     0.013 C 
ENDBRANCH   7   8
ENDBRANCH   1   7
TORSDOF 2
ENDMDL
