MODEL 1
REMARK minimizedAffinity -2.20389938
REMARK minimizedRMSD -1
REMARK  0 active torsions:
REMARK  status: ('A' for Active; 'I' for Inactive)
ROOT
ATOM      1  C   UNL d   1      -1.524   1.699   1.472  0.00  0.00     0.077 C 
ATOM      2  C1  UNL d   1      -0.581   1.219   0.409  0.00  0.00    -0.074 A 
ATOM      3  C2  UNL d   1      -0.064   2.101  -0.545  0.00  0.00    -0.005 A 
ATOM      4  C3  UNL d   1       0.820   1.642  -1.522  0.00  0.00     0.006 A 
ATOM      5  C4  UNL d   1       1.195   0.298  -1.554  0.00  0.00    -0.005 A 
ATOM      6  C5  UNL d   1       0.690  -0.598  -0.607  0.00  0.00    -0.074 A 
ATOM      7  C6  UNL d   1       1.091  -2.043  -0.621  0.00  0.00     0.077 C 
ATOM      8  C7  UNL d   1      -0.193  -0.128   0.375  0.00  0.00    -0.001 A 
ENDROOT
TORSDOF 0
ENDMDL
