MODEL 1
REMARK minimizedAffinity -2.07309818
REMARK minimizedRMSD -1
REMARK  0 active torsions:
REMARK  status: ('A' for Active; 'I' for Inactive)
ROOT
ATOM      1  C   UNL d   1       0.680  -1.256   1.846  0.00  0.00     0.077 C 
ATOM      2  C1  UNL d   1       0.208  -0.256   0.833  0.00  0.00    -0.074 A 
ATOM      3  C2  UNL d   1      -1.156  -0.025   0.632  0.00  0.00    -0.005 A 
ATOM      4  C3  UNL d   1      -1.580   0.915  -0.307  0.00  0.00     0.006 A 
ATOM      5  C4  UNL d   1      -0.645   1.633  -1.054  0.00  0.00    -0.005 A 
ATOM      6  C5  UNL d   1       0.724   1.416  -0.867  0.00  0.00    -0.074 A 
ATOM      7  C6  UNL d   1       1.742   2.185  -1.654  0.00  0.00     0.077 C 
ATOM      8  C7  UNL d   1       1.142   0.474   0.084  0.00  0.00    -0.001 A 
ENDROOT
TORSDOF 0
ENDMDL
