MODEL 1
REMARK minimizedAffinity -3.1838119
REMARK minimizedRMSD -1
REMARK  0 active torsions:
REMARK  status: ('A' for Active; 'I' for Inactive)
ROOT
ATOM      1  C   UNL d   1       1.220  -0.963   2.828  0.00  0.00     0.077 C 
ATOM      2  C1  UNL d   1       0.468  -0.295   1.716  0.00  0.00    -0.074 A 
ATOM      3  C2  UNL d   1       0.824  -0.505   0.380  0.00  0.00    -0.005 A 
ATOM      4  C3  UNL d   1       0.110   0.115  -0.645  0.00  0.00     0.006 A 
ATOM      5  C4  UNL d   1      -0.966   0.951  -0.345  0.00  0.00    -0.005 A 
ATOM      6  C5  UNL d   1      -1.338   1.173   0.985  0.00  0.00    -0.074 A 
ATOM      7  C6  UNL d   1      -2.498   2.061   1.325  0.00  0.00     0.077 C 
ATOM      8  C7  UNL d   1      -0.619   0.540   2.009  0.00  0.00    -0.001 A 
ENDROOT
TORSDOF 0
ENDMDL
