MODEL 1
REMARK minimizedAffinity -0.578208268
REMARK minimizedRMSD -1
REMARK  0 active torsions:
REMARK  status: ('A' for Active; 'I' for Inactive)
ROOT
ATOM      1  C   UNL d   1       0.176  -0.203   2.433  0.00  0.00     0.077 C 
ATOM      2  C1  UNL d   1      -0.237   0.561   1.210  0.00  0.00    -0.074 A 
ATOM      3  C2  UNL d   1      -1.580   0.874   0.978  0.00  0.00    -0.005 A 
ATOM      4  C3  UNL d   1      -1.949   1.593  -0.159  0.00  0.00     0.006 A 
ATOM      5  C4  UNL d   1      -0.979   2.006  -1.074  0.00  0.00    -0.005 A 
ATOM      6  C5  UNL d   1       0.369   1.703  -0.858  0.00  0.00    -0.074 A 
ATOM      7  C6  UNL d   1       1.425   2.148  -1.826  0.00  0.00     0.077 C 
ATOM      8  C7  UNL d   1       0.732   0.986   0.290  0.00  0.00    -0.001 A 
ENDROOT
TORSDOF 0
ENDMDL
