MODEL 1
REMARK minimizedAffinity -3.86705852
REMARK minimizedRMSD -1
REMARK  0 active torsions:
REMARK  status: ('A' for Active; 'I' for Inactive)
ROOT
ATOM      1  C   UNL d   1      -0.419  -1.932  -1.021  0.00  0.00     0.077 C 
ATOM      2  C1  UNL d   1      -0.352  -0.855   0.021  0.00  0.00    -0.074 A 
ATOM      3  C2  UNL d   1       0.618  -0.888   1.027  0.00  0.00    -0.005 A 
ATOM      4  C3  UNL d   1       0.673   0.126   1.984  0.00  0.00     0.006 A 
ATOM      5  C4  UNL d   1      -0.240   1.180   1.944  0.00  0.00    -0.005 A 
ATOM      6  C5  UNL d   1      -1.217   1.230   0.944  0.00  0.00    -0.074 A 
ATOM      7  C6  UNL d   1      -2.199   2.361   0.880  0.00  0.00     0.077 C 
ATOM      8  C7  UNL d   1      -1.261   0.211  -0.018  0.00  0.00    -0.001 A 
ENDROOT
TORSDOF 0
ENDMDL
