MODEL 1
REMARK minimizedAffinity -2.81975579
REMARK minimizedRMSD -1
REMARK  0 active torsions:
REMARK  status: ('A' for Active; 'I' for Inactive)
ROOT
ATOM      1  C   UNL d   1       1.530  -2.505  -0.754  0.00  0.00     0.077 C 
ATOM      2  C1  UNL d   1       0.972  -1.136  -0.501  0.00  0.00    -0.074 A 
ATOM      3  C2  UNL d   1       1.176  -0.096  -1.414  0.00  0.00    -0.005 A 
ATOM      4  C3  UNL d   1       0.642   1.169  -1.170  0.00  0.00     0.006 A 
ATOM      5  C4  UNL d   1      -0.099   1.407  -0.012  0.00  0.00    -0.005 A 
ATOM      6  C5  UNL d   1      -0.314   0.380   0.912  0.00  0.00    -0.074 A 
ATOM      7  C6  UNL d   1      -1.117   0.616   2.156  0.00  0.00     0.077 C 
ATOM      8  C7  UNL d   1       0.219  -0.891   0.656  0.00  0.00    -0.001 A 
ENDROOT
TORSDOF 0
ENDMDL
