MODEL 1
REMARK minimizedAffinity -4.94552612
REMARK minimizedRMSD -1
REMARK  0 active torsions:
REMARK  status: ('A' for Active; 'I' for Inactive)
ROOT
ATOM      1  C   UNL d   1      -1.330   1.337   0.196  0.00  0.00     0.077 C 
ATOM      2  C1  UNL d   1      -0.367   0.347  -0.389  0.00  0.00    -0.074 A 
ATOM      3  C2  UNL d   1       0.977   0.681  -0.584  0.00  0.00    -0.005 A 
ATOM      4  C3  UNL d   1       1.863  -0.254  -1.121  0.00  0.00     0.006 A 
ATOM      5  C4  UNL d   1       1.415  -1.529  -1.468  0.00  0.00    -0.005 A 
ATOM      6  C5  UNL d   1       0.074  -1.880  -1.279  0.00  0.00    -0.074 A 
ATOM      7  C6  UNL d   1      -0.422  -3.250  -1.638  0.00  0.00     0.077 C 
ATOM      8  C7  UNL d   1      -0.808  -0.938  -0.733  0.00  0.00    -0.001 A 
ENDROOT
TORSDOF 0
ENDMDL
