MODEL 1
REMARK minimizedAffinity -1.63946652
REMARK minimizedRMSD -1
REMARK  0 active torsions:
REMARK  status: ('A' for Active; 'I' for Inactive)
ROOT
ATOM      1  C   UNL d   1      -1.735   1.906   2.211  0.00  0.00     0.077 C 
ATOM      2  C1  UNL d   1      -0.913   1.105   1.245  0.00  0.00    -0.074 A 
ATOM      3  C2  UNL d   1      -0.682  -0.258   1.455  0.00  0.00    -0.005 A 
ATOM      4  C3  UNL d   1       0.076  -0.992   0.543  0.00  0.00     0.006 A 
ATOM      5  C4  UNL d   1       0.610  -0.371  -0.587  0.00  0.00    -0.005 A 
ATOM      6  C5  UNL d   1       0.389   0.991  -0.814  0.00  0.00    -0.074 A 
ATOM      7  C6  UNL d   1       0.948   1.672  -2.028  0.00  0.00     0.077 C 
ATOM      8  C7  UNL d   1      -0.380   1.720   0.104  0.00  0.00    -0.001 A 
ENDROOT
TORSDOF 0
ENDMDL
