MODEL 1
REMARK minimizedAffinity -1.40073752
REMARK minimizedRMSD -1
REMARK  0 active torsions:
REMARK  status: ('A' for Active; 'I' for Inactive)
ROOT
ATOM      1  C   UNL d   1      -1.869   2.671   1.870  0.00  0.00     0.077 C 
ATOM      2  C1  UNL d   1      -0.992   1.855   0.966  0.00  0.00    -0.074 A 
ATOM      3  C2  UNL d   1      -0.852   0.477   1.154  0.00  0.00    -0.005 A 
ATOM      4  C3  UNL d   1      -0.040  -0.270   0.300  0.00  0.00     0.006 A 
ATOM      5  C4  UNL d   1       0.637   0.353  -0.748  0.00  0.00    -0.005 A 
ATOM      6  C5  UNL d   1       0.508   1.730  -0.952  0.00  0.00    -0.074 A 
ATOM      7  C6  UNL d   1       1.222   2.414  -2.081  0.00  0.00     0.077 C 
ATOM      8  C7  UNL d   1      -0.314   2.473  -0.094  0.00  0.00    -0.001 A 
ENDROOT
TORSDOF 0
ENDMDL
