MODEL 1
REMARK minimizedAffinity -4.5097127
REMARK minimizedRMSD -1
REMARK  0 active torsions:
REMARK  status: ('A' for Active; 'I' for Inactive)
ROOT
ATOM      1  C   UNL d   1       1.494   0.738  -1.121  0.00  0.00     0.077 C 
ATOM      2  C1  UNL d   1       0.334   0.955  -0.195  0.00  0.00    -0.074 A 
ATOM      3  C2  UNL d   1      -0.708   1.823  -0.539  0.00  0.00    -0.005 A 
ATOM      4  C3  UNL d   1      -1.784   2.007   0.329  0.00  0.00     0.006 A 
ATOM      5  C4  UNL d   1      -1.829   1.328   1.547  0.00  0.00    -0.005 A 
ATOM      6  C5  UNL d   1      -0.797   0.456   1.907  0.00  0.00    -0.074 A 
ATOM      7  C6  UNL d   1      -0.835  -0.289   3.208  0.00  0.00     0.077 C 
ATOM      8  C7  UNL d   1       0.278   0.271   1.027  0.00  0.00    -0.001 A 
ENDROOT
TORSDOF 0
ENDMDL
