MODEL 1
REMARK minimizedAffinity -4.25109577
REMARK minimizedRMSD -1
REMARK  0 active torsions:
REMARK  status: ('A' for Active; 'I' for Inactive)
ROOT
ATOM      1  C   UNL d   1      -0.216   1.819   3.507  0.00  0.00     0.077 C 
ATOM      2  C1  UNL d   1      -0.671   1.214   2.213  0.00  0.00    -0.074 A 
ATOM      3  C2  UNL d   1      -1.932   1.510   1.685  0.00  0.00    -0.005 A 
ATOM      4  C3  UNL d   1      -2.337   0.947   0.475  0.00  0.00     0.006 A 
ATOM      5  C4  UNL d   1      -1.488   0.084  -0.218  0.00  0.00    -0.005 A 
ATOM      6  C5  UNL d   1      -0.223  -0.223   0.293  0.00  0.00    -0.074 A 
ATOM      7  C6  UNL d   1       0.706  -1.141  -0.444  0.00  0.00     0.077 C 
ATOM      8  C7  UNL d   1       0.180   0.352   1.506  0.00  0.00    -0.001 A 
ENDROOT
TORSDOF 0
ENDMDL
