MODEL 1
REMARK minimizedAffinity -3.47819543
REMARK minimizedRMSD -1
REMARK  0 active torsions:
REMARK  status: ('A' for Active; 'I' for Inactive)
ROOT
ATOM      1  C   UNL d   1      -2.238   2.042   1.449  0.00  0.00     0.077 C 
ATOM      2  C1  UNL d   1      -1.229   1.572   0.444  0.00  0.00    -0.074 A 
ATOM      3  C2  UNL d   1      -0.836   2.393  -0.617  0.00  0.00    -0.005 A 
ATOM      4  C3  UNL d   1       0.111   1.946  -1.539  0.00  0.00     0.006 A 
ATOM      5  C4  UNL d   1       0.674   0.676  -1.408  0.00  0.00    -0.005 A 
ATOM      6  C5  UNL d   1       0.294  -0.159  -0.352  0.00  0.00    -0.074 A 
ATOM      7  C6  UNL d   1       0.896  -1.523  -0.192  0.00  0.00     0.077 C 
ATOM      8  C7  UNL d   1      -0.653   0.300   0.573  0.00  0.00    -0.001 A 
ENDROOT
TORSDOF 0
ENDMDL
