MODEL 1
REMARK minimizedAffinity -4.76332808
REMARK minimizedRMSD -1
REMARK  0 active torsions:
REMARK  status: ('A' for Active; 'I' for Inactive)
ROOT
ATOM      1  C   UNL d   1       1.744  -1.934  -0.717  0.00  0.00     0.077 C 
ATOM      2  C1  UNL d   1       1.153  -0.560  -0.838  0.00  0.00    -0.074 A 
ATOM      3  C2  UNL d   1       1.778   0.426  -1.608  0.00  0.00    -0.005 A 
ATOM      4  C3  UNL d   1       1.212   1.696  -1.719  0.00  0.00     0.006 A 
ATOM      5  C4  UNL d   1       0.017   1.992  -1.062  0.00  0.00    -0.005 A 
ATOM      6  C5  UNL d   1      -0.623   1.018  -0.288  0.00  0.00    -0.074 A 
ATOM      7  C6  UNL d   1      -1.913   1.317   0.416  0.00  0.00     0.077 C 
ATOM      8  C7  UNL d   1      -0.051  -0.257  -0.187  0.00  0.00    -0.001 A 
ENDROOT
TORSDOF 0
ENDMDL
