MODEL 1
REMARK minimizedAffinity -3.20568943
REMARK minimizedRMSD -1
REMARK  0 active torsions:
REMARK  status: ('A' for Active; 'I' for Inactive)
ROOT
ATOM      1  C   UNL d   1       1.030   1.139  -2.154  0.00  0.00     0.077 C 
ATOM      2  C1  UNL d   1       0.534   0.618  -0.837  0.00  0.00    -0.074 A 
ATOM      3  C2  UNL d   1       0.983  -0.606  -0.333  0.00  0.00    -0.005 A 
ATOM      4  C3  UNL d   1       0.520  -1.073   0.897  0.00  0.00     0.006 A 
ATOM      5  C4  UNL d   1      -0.396  -0.321   1.634  0.00  0.00    -0.005 A 
ATOM      6  C5  UNL d   1      -0.856   0.906   1.146  0.00  0.00    -0.074 A 
ATOM      7  C6  UNL d   1      -1.833   1.731   1.930  0.00  0.00     0.077 C 
ATOM      8  C7  UNL d   1      -0.381   1.371  -0.087  0.00  0.00    -0.001 A 
ENDROOT
TORSDOF 0
ENDMDL
