MODEL 1
REMARK minimizedAffinity 7.2906785
REMARK minimizedRMSD -1
REMARK  1 active torsions:
REMARK  status: ('A' for Active; 'I' for Inactive)
REMARK    1  A    between atoms: C1_2  and  C2_3 
ROOT
ATOM      1  C2  UNL d   1       2.595  -0.672  -0.437  0.00  0.00    -0.077 A 
ATOM      2  C3  UNL d   1       1.720   0.201   0.224  0.00  0.00     0.002 A 
ATOM      3  C4  UNL d   1       2.082   1.532   0.443  0.00  0.00     0.002 A 
ATOM      4  C5  UNL d   1       3.317   2.002  -0.001  0.00  0.00    -0.004 A 
ATOM      5  C6  UNL d   1       4.195   1.140  -0.657  0.00  0.00     0.002 A 
ATOM      6  C7  UNL d   1       3.835  -0.191  -0.875  0.00  0.00     0.002 A 
ENDROOT
BRANCH   1   7
ATOM      7  C1  UNL d   1       2.186  -2.095  -0.717  0.00  0.00     0.055 C 
ATOM      8  C   UNL d   1       2.173  -2.383  -2.211  0.00  0.00     0.019 C 
ENDBRANCH   1   7
TORSDOF 1
ENDMDL
