MODEL 1
REMARK minimizedAffinity 9.27132225
REMARK minimizedRMSD -1
REMARK  1 active torsions:
REMARK  status: ('A' for Active; 'I' for Inactive)
REMARK    1  A    between atoms: C1_2  and  C2_3 
ROOT
ATOM      1  C2  UNL d   1       3.841   0.998  -0.111  0.00  0.00    -0.077 A 
ATOM      2  C3  UNL d   1       3.459  -0.341  -0.274  0.00  0.00     0.002 A 
ATOM      3  C4  UNL d   1       2.115  -0.707  -0.188  0.00  0.00     0.002 A 
ATOM      4  C5  UNL d   1       1.142   0.260   0.056  0.00  0.00    -0.004 A 
ATOM      5  C6  UNL d   1       1.512   1.594   0.222  0.00  0.00     0.002 A 
ATOM      6  C7  UNL d   1       2.855   1.962   0.137  0.00  0.00     0.002 A 
ENDROOT
BRANCH   1   7
ATOM      7  C1  UNL d   1       5.285   1.403  -0.253  0.00  0.00     0.055 C 
ATOM      8  C   UNL d   1       5.464   2.445  -1.347  0.00  0.00     0.019 C 
ENDBRANCH   1   7
TORSDOF 1
ENDMDL
