MODEL 1
REMARK minimizedAffinity 0.847083926
REMARK minimizedRMSD -1
REMARK  1 active torsions:
REMARK  status: ('A' for Active; 'I' for Inactive)
REMARK    1  A    between atoms: C1_2  and  C2_3 
ROOT
ATOM      1  C2  UNL d   1      -4.887   5.300   3.152  0.00  0.00    -0.077 A 
ATOM      2  C3  UNL d   1      -3.558   5.658   3.416  0.00  0.00     0.002 A 
ATOM      3  C4  UNL d   1      -2.694   5.989   2.370  0.00  0.00     0.002 A 
ATOM      4  C5  UNL d   1      -3.152   5.971   1.054  0.00  0.00    -0.004 A 
ATOM      5  C6  UNL d   1      -4.472   5.615   0.781  0.00  0.00     0.002 A 
ATOM      6  C7  UNL d   1      -5.336   5.282   1.825  0.00  0.00     0.002 A 
ENDROOT
BRANCH   1   7
ATOM      7  C1  UNL d   1      -5.833   4.990   4.283  0.00  0.00     0.055 C 
ATOM      8  C   UNL d   1      -5.654   5.965   5.438  0.00  0.00     0.019 C 
ENDBRANCH   1   7
TORSDOF 1
ENDMDL
