MODEL 1
REMARK minimizedAffinity 7.61932802
REMARK minimizedRMSD -1
REMARK  1 active torsions:
REMARK  status: ('A' for Active; 'I' for Inactive)
REMARK    1  A    between atoms: C1_2  and  C2_3 
ROOT
ATOM      1  C2  UNL d   1      -4.598   5.947   1.800  0.00  0.00    -0.077 A 
ATOM      2  C3  UNL d   1      -5.867   5.915   2.396  0.00  0.00     0.002 A 
ATOM      3  C4  UNL d   1      -5.995   5.924   3.787  0.00  0.00     0.002 A 
ATOM      4  C5  UNL d   1      -4.859   5.969   4.592  0.00  0.00    -0.004 A 
ATOM      5  C6  UNL d   1      -3.593   5.999   4.009  0.00  0.00     0.002 A 
ATOM      6  C7  UNL d   1      -3.463   5.989   2.620  0.00  0.00     0.002 A 
ENDROOT
BRANCH   1   7
ATOM      7  C1  UNL d   1      -4.460   5.987   0.301  0.00  0.00     0.055 C 
ATOM      8  C   UNL d   1      -4.275   4.590  -0.275  0.00  0.00     0.019 C 
ENDBRANCH   1   7
TORSDOF 1
ENDMDL
