MODEL 1
REMARK minimizedAffinity 0.521540403
REMARK minimizedRMSD -1
REMARK  1 active torsions:
REMARK  status: ('A' for Active; 'I' for Inactive)
REMARK    1  A    between atoms: C1_2  and  C2_3 
ROOT
ATOM      1  C2  UNL d   1      -0.292  -4.326   4.880  0.00  0.00    -0.077 A 
ATOM      2  C3  UNL d   1       0.680  -4.639   5.841  0.00  0.00     0.002 A 
ATOM      3  C4  UNL d   1       1.804  -3.825   6.000  0.00  0.00     0.002 A 
ATOM      4  C5  UNL d   1       1.963  -2.692   5.205  0.00  0.00    -0.004 A 
ATOM      5  C6  UNL d   1       1.003  -2.374   4.245  0.00  0.00     0.002 A 
ATOM      6  C7  UNL d   1      -0.120  -3.187   4.084  0.00  0.00     0.002 A 
ENDROOT
BRANCH   1   7
ATOM      7  C1  UNL d   1      -1.528  -5.176   4.741  0.00  0.00     0.055 C 
ATOM      8  C   UNL d   1      -1.783  -5.993   6.000  0.00  0.00     0.019 C 
ENDBRANCH   1   7
TORSDOF 1
ENDMDL
