MODEL 1
REMARK minimizedAffinity -3.5168705
REMARK minimizedRMSD -1
REMARK  1 active torsions:
REMARK  status: ('A' for Active; 'I' for Inactive)
REMARK    1  A    between atoms: C1_2  and  C2_3 
ROOT
ATOM      1  C2  UNL d   1      -4.150   5.777   2.726  0.00  0.00    -0.077 A 
ATOM      2  C3  UNL d   1      -5.502   5.480   2.947  0.00  0.00     0.002 A 
ATOM      3  C4  UNL d   1      -5.987   5.319   4.246  0.00  0.00     0.002 A 
ATOM      4  C5  UNL d   1      -5.127   5.457   5.334  0.00  0.00    -0.004 A 
ATOM      5  C6  UNL d   1      -3.780   5.750   5.125  0.00  0.00     0.002 A 
ATOM      6  C7  UNL d   1      -3.294   5.910   3.826  0.00  0.00     0.002 A 
ENDROOT
BRANCH   1   7
ATOM      7  C1  UNL d   1      -3.636   6.000   1.327  0.00  0.00     0.055 C 
ATOM      8  C   UNL d   1      -4.771   5.996   0.313  0.00  0.00     0.019 C 
ENDBRANCH   1   7
TORSDOF 1
ENDMDL
