MODEL 1
REMARK minimizedAffinity 1.82421863
REMARK minimizedRMSD -1
REMARK  1 active torsions:
REMARK  status: ('A' for Active; 'I' for Inactive)
REMARK    1  A    between atoms: C1_2  and  C2_3 
ROOT
ATOM      1  C2  UNL d   1      -4.520   0.510  -2.322  0.00  0.00    -0.077 A 
ATOM      2  C3  UNL d   1      -3.366   0.180  -3.046  0.00  0.00     0.002 A 
ATOM      3  C4  UNL d   1      -3.017   0.904  -4.188  0.00  0.00     0.002 A 
ATOM      4  C5  UNL d   1      -3.813   1.965  -4.612  0.00  0.00    -0.004 A 
ATOM      5  C6  UNL d   1      -4.964   2.301  -3.900  0.00  0.00     0.002 A 
ATOM      6  C7  UNL d   1      -5.315   1.577  -2.759  0.00  0.00     0.002 A 
ENDROOT
BRANCH   1   7
ATOM      7  C1  UNL d   1      -4.872  -0.238  -1.063  0.00  0.00     0.055 C 
ATOM      8  C   UNL d   1      -5.794   0.581  -0.172  0.00  0.00     0.019 C 
ENDBRANCH   1   7
TORSDOF 1
ENDMDL
