MODEL 1
REMARK minimizedAffinity 12.0931072
REMARK minimizedRMSD -1
REMARK  0 active torsions:
REMARK  status: ('A' for Active; 'I' for Inactive)
ROOT
ATOM      1  C   UNL d   1      -2.494   0.876   2.155  0.00  0.00    -0.002 A 
ATOM      2  C1  UNL d   1      -3.680   0.211   1.879  0.00  0.00     0.010 A 
ATOM      3  C2  UNL d   1      -3.686  -1.167   1.655  0.00  0.00     0.041 A 
ATOM      4  C3  UNL d   1      -2.468  -1.873   1.717  0.00  0.00    -0.075 A 
ATOM      5  S   UNL d   1      -2.234  -3.564   1.478  0.00  0.00     0.015 SA
ATOM      6  C4  UNL d   1      -0.554  -3.444   1.739  0.00  0.00     0.022 A 
ATOM      7  C5  UNL d   1      -0.164  -2.152   2.002  0.00  0.00     0.026 A 
ATOM      8  C6  UNL d   1      -1.261  -1.226   1.994  0.00  0.00    -0.082 A 
ATOM      9  C7  UNL d   1      -1.288   0.172   2.216  0.00  0.00     0.045 A 
ENDROOT
TORSDOF 0
ENDMDL
