MODEL 1
REMARK minimizedAffinity 9.64279175
REMARK minimizedRMSD -1
REMARK  0 active torsions:
REMARK  status: ('A' for Active; 'I' for Inactive)
ROOT
ATOM      1  C   UNL d   1       4.479   0.653  -2.447  0.00  0.00    -0.002 A 
ATOM      2  C1  UNL d   1       3.940   1.553  -1.539  0.00  0.00     0.010 A 
ATOM      3  C2  UNL d   1       3.084   1.114  -0.527  0.00  0.00     0.041 A 
ATOM      4  C3  UNL d   1       2.778  -0.259  -0.441  0.00  0.00    -0.075 A 
ATOM      5  S   UNL d   1       1.754  -1.025   0.716  0.00  0.00     0.015 SA
ATOM      6  C4  UNL d   1       2.009  -2.565   0.032  0.00  0.00     0.022 A 
ATOM      7  C5  UNL d   1       2.851  -2.514  -1.053  0.00  0.00     0.026 A 
ATOM      8  C6  UNL d   1       3.309  -1.184  -1.344  0.00  0.00    -0.082 A 
ATOM      9  C7  UNL d   1       4.172  -0.708  -2.359  0.00  0.00     0.045 A 
ENDROOT
TORSDOF 0
ENDMDL
