MODEL 1
REMARK minimizedAffinity 8.44699574
REMARK minimizedRMSD -1
REMARK  0 active torsions:
REMARK  status: ('A' for Active; 'I' for Inactive)
ROOT
ATOM      1  C   UNL d   1       0.249  -0.592   1.421  0.00  0.00    -0.002 A 
ATOM      2  C1  UNL d   1       0.874   0.640   1.287  0.00  0.00     0.010 A 
ATOM      3  C2  UNL d   1       1.840   0.842   0.300  0.00  0.00     0.041 A 
ATOM      4  C3  UNL d   1       2.169  -0.224  -0.561  0.00  0.00    -0.075 A 
ATOM      5  S   UNL d   1       3.322  -0.207  -1.843  0.00  0.00     0.015 SA
ATOM      6  C4  UNL d   1       3.010  -1.834  -2.244  0.00  0.00     0.022 A 
ATOM      7  C5  UNL d   1       2.053  -2.392  -1.430  0.00  0.00     0.026 A 
ATOM      8  C6  UNL d   1       1.553  -1.473  -0.446  0.00  0.00    -0.082 A 
ATOM      9  C7  UNL d   1       0.578  -1.647   0.566  0.00  0.00     0.045 A 
ENDROOT
TORSDOF 0
ENDMDL
