MODEL 1
REMARK minimizedAffinity 2.41840744
REMARK minimizedRMSD -1
REMARK  0 active torsions:
REMARK  status: ('A' for Active; 'I' for Inactive)
ROOT
ATOM      1  C   UNL d   1       1.268  -1.615   0.457  0.00  0.00    -0.002 A 
ATOM      2  C1  UNL d   1       2.059  -1.742  -0.676  0.00  0.00     0.010 A 
ATOM      3  C2  UNL d   1       2.517  -0.610  -1.353  0.00  0.00     0.041 A 
ATOM      4  C3  UNL d   1       2.165   0.664  -0.866  0.00  0.00    -0.075 A 
ATOM      5  S   UNL d   1       2.611   2.191  -1.532  0.00  0.00     0.015 SA
ATOM      6  C4  UNL d   1       1.763   3.048  -0.327  0.00  0.00     0.022 A 
ATOM      7  C5  UNL d   1       1.149   2.205   0.569  0.00  0.00     0.026 A 
ATOM      8  C6  UNL d   1       1.370   0.818   0.273  0.00  0.00    -0.082 A 
ATOM      9  C7  UNL d   1       0.921  -0.349   0.937  0.00  0.00     0.045 A 
ENDROOT
TORSDOF 0
ENDMDL
