MODEL 1
REMARK minimizedAffinity 1.95715809
REMARK minimizedRMSD -1
REMARK  0 active torsions:
REMARK  status: ('A' for Active; 'I' for Inactive)
ROOT
ATOM      1  C   UNL d   1       1.023   0.416   1.354  0.00  0.00    -0.002 A 
ATOM      2  C1  UNL d   1       0.722  -0.929   1.187  0.00  0.00     0.010 A 
ATOM      3  C2  UNL d   1       1.201  -1.631   0.079  0.00  0.00     0.041 A 
ATOM      4  C3  UNL d   1       1.997  -0.953  -0.865  0.00  0.00    -0.075 A 
ATOM      5  S   UNL d   1       2.694  -1.610  -2.299  0.00  0.00     0.015 SA
ATOM      6  C4  UNL d   1       3.408  -0.121  -2.723  0.00  0.00     0.022 A 
ATOM      7  C5  UNL d   1       3.131   0.863  -1.804  0.00  0.00     0.026 A 
ATOM      8  C6  UNL d   1       2.314   0.400  -0.718  0.00  0.00    -0.082 A 
ATOM      9  C7  UNL d   1       1.812   1.085   0.415  0.00  0.00     0.045 A 
ENDROOT
TORSDOF 0
ENDMDL
