MODEL 1
REMARK minimizedAffinity 2.16596484
REMARK minimizedRMSD -1
REMARK  0 active torsions:
REMARK  status: ('A' for Active; 'I' for Inactive)
ROOT
ATOM      1  C   UNL d   1      -1.651   3.767  -3.424  0.00  0.00    -0.002 A 
ATOM      2  C1  UNL d   1      -2.216   3.803  -4.691  0.00  0.00     0.010 A 
ATOM      3  C2  UNL d   1      -3.559   3.472  -4.879  0.00  0.00     0.041 A 
ATOM      4  C3  UNL d   1      -4.333   3.103  -3.762  0.00  0.00    -0.075 A 
ATOM      5  S   UNL d   1      -5.999   2.658  -3.752  0.00  0.00     0.015 SA
ATOM      6  C4  UNL d   1      -6.000   2.410  -2.066  0.00  0.00     0.022 A 
ATOM      7  C5  UNL d   1      -4.768   2.656  -1.508  0.00  0.00     0.026 A 
ATOM      8  C6  UNL d   1      -3.787   3.060  -2.476  0.00  0.00    -0.082 A 
ATOM      9  C7  UNL d   1      -2.422   3.400  -2.318  0.00  0.00     0.045 A 
ENDROOT
TORSDOF 0
ENDMDL
