MODEL 1
REMARK minimizedAffinity 0.823451459
REMARK minimizedRMSD -1
REMARK  0 active torsions:
REMARK  status: ('A' for Active; 'I' for Inactive)
ROOT
ATOM      1  C   UNL d   1       0.373  -1.123   1.837  0.00  0.00    -0.002 A 
ATOM      2  C1  UNL d   1       0.381   0.259   1.705  0.00  0.00     0.010 A 
ATOM      3  C2  UNL d   1       1.089   0.869   0.667  0.00  0.00     0.041 A 
ATOM      4  C3  UNL d   1       1.794   0.059  -0.245  0.00  0.00    -0.075 A 
ATOM      5  S   UNL d   1       2.730   0.585  -1.594  0.00  0.00     0.015 SA
ATOM      6  C4  UNL d   1       3.140  -1.011  -2.027  0.00  0.00     0.022 A 
ATOM      7  C5  UNL d   1       2.585  -1.936  -1.174  0.00  0.00     0.026 A 
ATOM      8  C6  UNL d   1       1.800  -1.334  -0.133  0.00  0.00    -0.082 A 
ATOM      9  C7  UNL d   1       1.074  -1.922   0.930  0.00  0.00     0.045 A 
ENDROOT
TORSDOF 0
ENDMDL
