MODEL 1
REMARK minimizedAffinity 0.688018262
REMARK minimizedRMSD -1
REMARK  0 active torsions:
REMARK  status: ('A' for Active; 'I' for Inactive)
ROOT
ATOM      1  C   UNL d   1      -0.557  -1.040   1.684  0.00  0.00    -0.002 A 
ATOM      2  C1  UNL d   1      -0.246   0.274   2.004  0.00  0.00     0.010 A 
ATOM      3  C2  UNL d   1       0.785   0.941   1.340  0.00  0.00     0.041 A 
ATOM      4  C3  UNL d   1       1.503   0.260   0.337  0.00  0.00    -0.075 A 
ATOM      5  S   UNL d   1       2.805   0.877  -0.609  0.00  0.00     0.015 SA
ATOM      6  C4  UNL d   1       2.978  -0.588  -1.462  0.00  0.00     0.022 A 
ATOM      7  C5  UNL d   1       2.073  -1.536  -1.047  0.00  0.00     0.026 A 
ATOM      8  C6  UNL d   1       1.207  -1.062  -0.004  0.00  0.00    -0.082 A 
ATOM      9  C7  UNL d   1       0.157  -1.712   0.688  0.00  0.00     0.045 A 
ENDROOT
TORSDOF 0
ENDMDL
