MODEL 1
REMARK minimizedAffinity 0.650476992
REMARK minimizedRMSD -1
REMARK  0 active torsions:
REMARK  status: ('A' for Active; 'I' for Inactive)
ROOT
ATOM      1  C   UNL d   1       2.455   0.023  -1.362  0.00  0.00    -0.002 A 
ATOM      2  C1  UNL d   1       1.952   1.182  -0.788  0.00  0.00     0.010 A 
ATOM      3  C2  UNL d   1       1.160   1.120   0.361  0.00  0.00     0.041 A 
ATOM      4  C3  UNL d   1       0.881  -0.138   0.929  0.00  0.00    -0.075 A 
ATOM      5  S   UNL d   1      -0.064  -0.458   2.335  0.00  0.00     0.015 SA
ATOM      6  C4  UNL d   1       0.178  -2.140   2.207  0.00  0.00     0.022 A 
ATOM      7  C5  UNL d   1       0.958  -2.468   1.124  0.00  0.00     0.026 A 
ATOM      8  C6  UNL d   1       1.377  -1.319   0.370  0.00  0.00    -0.082 A 
ATOM      9  C7  UNL d   1       2.176  -1.223  -0.795  0.00  0.00     0.045 A 
ENDROOT
TORSDOF 0
ENDMDL
