MODEL 1
REMARK minimizedAffinity 0.445964843
REMARK minimizedRMSD -1
REMARK  0 active torsions:
REMARK  status: ('A' for Active; 'I' for Inactive)
ROOT
ATOM      1  C   UNL d   1       0.029  -0.181   1.860  0.00  0.00    -0.002 A 
ATOM      2  C1  UNL d   1      -0.458  -1.461   1.635  0.00  0.00     0.010 A 
ATOM      3  C2  UNL d   1       0.154  -2.300   0.702  0.00  0.00     0.041 A 
ATOM      4  C3  UNL d   1       1.276  -1.827  -0.007  0.00  0.00    -0.075 A 
ATOM      5  S   UNL d   1       2.187  -2.678  -1.198  0.00  0.00     0.015 SA
ATOM      6  C4  UNL d   1       3.245  -1.364  -1.436  0.00  0.00     0.022 A 
ATOM      7  C5  UNL d   1       2.925  -0.293  -0.635  0.00  0.00     0.026 A 
ATOM      8  C6  UNL d   1       1.785  -0.543   0.202  0.00  0.00    -0.082 A 
ATOM      9  C7  UNL d   1       1.142   0.285   1.154  0.00  0.00     0.045 A 
ENDROOT
TORSDOF 0
ENDMDL
