MODEL 1
REMARK minimizedAffinity 0.658424973
REMARK minimizedRMSD -1
REMARK  0 active torsions:
REMARK  status: ('A' for Active; 'I' for Inactive)
ROOT
ATOM      1  C   UNL d   1       1.171  -1.446   0.415  0.00  0.00    -0.002 A 
ATOM      2  C1  UNL d   1       0.902  -0.085   0.431  0.00  0.00     0.010 A 
ATOM      3  C2  UNL d   1       1.665   0.799  -0.335  0.00  0.00     0.041 A 
ATOM      4  C3  UNL d   1       2.711   0.287  -1.127  0.00  0.00    -0.075 A 
ATOM      5  S   UNL d   1       3.776   1.180  -2.147  0.00  0.00     0.015 SA
ATOM      6  C4  UNL d   1       4.612  -0.224  -2.629  0.00  0.00     0.022 A 
ATOM      7  C5  UNL d   1       4.105  -1.356  -2.036  0.00  0.00     0.026 A 
ATOM      8  C6  UNL d   1       3.000  -1.080  -1.161  0.00  0.00    -0.082 A 
ATOM      9  C7  UNL d   1       2.210  -1.950  -0.372  0.00  0.00     0.045 A 
ENDROOT
TORSDOF 0
ENDMDL
