MODEL 1
REMARK minimizedAffinity 0.291164726
REMARK minimizedRMSD -1
REMARK  0 active torsions:
REMARK  status: ('A' for Active; 'I' for Inactive)
ROOT
ATOM      1  C   UNL d   1       3.058  -1.538  -1.961  0.00  0.00    -0.002 A 
ATOM      2  C1  UNL d   1       3.464  -0.215  -2.068  0.00  0.00     0.010 A 
ATOM      3  C2  UNL d   1       2.943   0.759  -1.214  0.00  0.00     0.041 A 
ATOM      4  C3  UNL d   1       1.999   0.378  -0.241  0.00  0.00    -0.075 A 
ATOM      5  S   UNL d   1       1.225   1.399   0.913  0.00  0.00     0.015 SA
ATOM      6  C4  UNL d   1       0.338   0.104   1.576  0.00  0.00     0.022 A 
ATOM      7  C5  UNL d   1       0.613  -1.086   0.944  0.00  0.00     0.026 A 
ATOM      8  C6  UNL d   1       1.575  -0.948  -0.113  0.00  0.00    -0.082 A 
ATOM      9  C7  UNL d   1       2.121  -1.912  -0.994  0.00  0.00     0.045 A 
ENDROOT
TORSDOF 0
ENDMDL
