MODEL 1
REMARK minimizedAffinity -4.12514257
REMARK minimizedRMSD -1
REMARK  0 active torsions:
REMARK  status: ('A' for Active; 'I' for Inactive)
ROOT
ATOM      1  C1  BNZ d   1      -2.543  -0.531   0.240  0.00  0.00     0.000 A 
ATOM      2  C2  BNZ d   1      -1.497  -0.177   1.050  0.00  0.00     0.000 A 
ATOM      3  C3  BNZ d   1      -0.254   0.051   0.528  0.00  0.00     0.000 A 
ATOM      4  C4  BNZ d   1      -0.049  -0.116  -0.794  0.00  0.00     0.000 A 
ATOM      5  C5  BNZ d   1      -1.092  -0.483  -1.622  0.00  0.00     0.000 A 
ATOM      6  C6  BNZ d   1      -2.350  -0.673  -1.100  0.00  0.00     0.000 A 
ENDROOT
TORSDOF 0
ENDMDL
