MODEL 1
REMARK minimizedAffinity -4.10143757
REMARK minimizedRMSD -1
REMARK  0 active torsions:
REMARK  status: ('A' for Active; 'I' for Inactive)
ROOT
ATOM      1  C1  BNZ d   1       0.041   0.286   0.525  0.00  0.00     0.000 A 
ATOM      2  C2  BNZ d   1      -1.162  -0.247   0.902  0.00  0.00     0.000 A 
ATOM      3  C3  BNZ d   1      -2.178  -0.391  -0.001  0.00  0.00     0.000 A 
ATOM      4  C4  BNZ d   1      -2.003   0.033  -1.269  0.00  0.00     0.000 A 
ATOM      5  C5  BNZ d   1      -0.799   0.581  -1.663  0.00  0.00     0.000 A 
ATOM      6  C6  BNZ d   1       0.235   0.689  -0.761  0.00  0.00     0.000 A 
ENDROOT
TORSDOF 0
ENDMDL
