MODEL 1
REMARK minimizedAffinity -2.63371634
REMARK minimizedRMSD -1
REMARK  0 active torsions:
REMARK  status: ('A' for Active; 'I' for Inactive)
ROOT
ATOM      1  C1  BNZ d   1      -0.153   0.485  -1.522  0.00  0.00     0.000 A 
ATOM      2  C2  BNZ d   1       0.876   0.498  -0.618  0.00  0.00     0.000 A 
ATOM      3  C3  BNZ d   1       0.762  -0.146   0.582  0.00  0.00     0.000 A 
ATOM      4  C4  BNZ d   1      -0.393  -0.768   0.894  0.00  0.00     0.000 A 
ATOM      5  C5  BNZ d   1      -1.443  -0.783  -0.002  0.00  0.00     0.000 A 
ATOM      6  C6  BNZ d   1      -1.311  -0.166  -1.226  0.00  0.00     0.000 A 
ENDROOT
TORSDOF 0
ENDMDL
