MODEL 1
REMARK minimizedAffinity -2.56912589
REMARK minimizedRMSD -1
REMARK  0 active torsions:
REMARK  status: ('A' for Active; 'I' for Inactive)
ROOT
ATOM      1  C1  BNZ d   1       3.008   1.530   0.318  0.00  0.00     0.000 A 
ATOM      2  C2  BNZ d   1       2.257   0.443  -0.042  0.00  0.00     0.000 A 
ATOM      3  C3  BNZ d   1       1.068   0.179   0.577  0.00  0.00     0.000 A 
ATOM      4  C4  BNZ d   1       0.650   0.978   1.580  0.00  0.00     0.000 A 
ATOM      5  C5  BNZ d   1       1.401   2.072   1.960  0.00  0.00     0.000 A 
ATOM      6  C6  BNZ d   1       2.579   2.358   1.309  0.00  0.00     0.000 A 
ENDROOT
TORSDOF 0
ENDMDL
