MODEL 1
REMARK minimizedAffinity -1.74214745
REMARK minimizedRMSD -1
REMARK  0 active torsions:
REMARK  status: ('A' for Active; 'I' for Inactive)
ROOT
ATOM      1  C1  BNZ d   1      -0.904   0.590  -0.438  0.00  0.00     0.000 A 
ATOM      2  C2  BNZ d   1       0.381   1.060  -0.394  0.00  0.00     0.000 A 
ATOM      3  C3  BNZ d   1       1.348   0.390   0.302  0.00  0.00     0.000 A 
ATOM      4  C4  BNZ d   1       1.021  -0.726   0.985  0.00  0.00     0.000 A 
ATOM      5  C5  BNZ d   1      -0.273  -1.208   0.958  0.00  0.00     0.000 A 
ATOM      6  C6  BNZ d   1      -1.235  -0.552   0.225  0.00  0.00     0.000 A 
ENDROOT
TORSDOF 0
ENDMDL
