MODEL 1
REMARK minimizedAffinity -0.534118176
REMARK minimizedRMSD -1
REMARK  0 active torsions:
REMARK  status: ('A' for Active; 'I' for Inactive)
ROOT
ATOM      1  C1  BNZ d   1       0.175  -0.786  -0.792  0.00  0.00     0.000 A 
ATOM      2  C2  BNZ d   1      -0.398  -0.635   0.443  0.00  0.00     0.000 A 
ATOM      3  C3  BNZ d   1      -0.166   0.486   1.190  0.00  0.00     0.000 A 
ATOM      4  C4  BNZ d   1       0.669   1.435   0.720  0.00  0.00     0.000 A 
ATOM      5  C5  BNZ d   1       1.263   1.293  -0.518  0.00  0.00     0.000 A 
ATOM      6  C6  BNZ d   1       0.996   0.181  -1.285  0.00  0.00     0.000 A 
ENDROOT
TORSDOF 0
ENDMDL
