MODEL 1
REMARK minimizedAffinity -4.20149899
REMARK minimizedRMSD -1
REMARK  0 active torsions:
REMARK  status: ('A' for Active; 'I' for Inactive)
ROOT
ATOM      1  C1  BNZ d   1      -0.054   0.425  -1.256  0.00  0.00     0.000 A 
ATOM      2  C2  BNZ d   1      -1.322   0.047  -0.904  0.00  0.00     0.000 A 
ATOM      3  C3  BNZ d   1      -1.556  -0.615   0.268  0.00  0.00     0.000 A 
ATOM      4  C4  BNZ d   1      -0.518  -0.933   1.068  0.00  0.00     0.000 A 
ATOM      5  C5  BNZ d   1       0.768  -0.567   0.723  0.00  0.00     0.000 A 
ATOM      6  C6  BNZ d   1       0.995   0.133  -0.439  0.00  0.00     0.000 A 
ENDROOT
TORSDOF 0
ENDMDL
