MODEL 1
REMARK minimizedAffinity -4.28272533
REMARK minimizedRMSD -1
REMARK  0 active torsions:
REMARK  status: ('A' for Active; 'I' for Inactive)
ROOT
ATOM      1  C1  BNZ d   1      -0.784   0.033  -1.195  0.00  0.00     0.000 A 
ATOM      2  C2  BNZ d   1      -2.093  -0.283  -1.447  0.00  0.00     0.000 A 
ATOM      3  C3  BNZ d   1      -2.956  -0.558  -0.424  0.00  0.00     0.000 A 
ATOM      4  C4  BNZ d   1      -2.501  -0.557   0.846  0.00  0.00     0.000 A 
ATOM      5  C5  BNZ d   1      -1.183  -0.250   1.116  0.00  0.00     0.000 A 
ATOM      6  C6  BNZ d   1      -0.326   0.065   0.086  0.00  0.00     0.000 A 
ENDROOT
TORSDOF 0
ENDMDL
