MODEL 1
REMARK minimizedAffinity -4.48339033
REMARK minimizedRMSD -1
REMARK  0 active torsions:
REMARK  status: ('A' for Active; 'I' for Inactive)
ROOT
ATOM      1  C1  BNZ d   1      -0.726   0.201  -0.358  0.00  0.00     0.000 A 
ATOM      2  C2  BNZ d   1      -1.420  -0.086   0.787  0.00  0.00     0.000 A 
ATOM      3  C3  BNZ d   1      -2.530  -0.884   0.751  0.00  0.00     0.000 A 
ATOM      4  C4  BNZ d   1      -2.966  -1.360  -0.433  0.00  0.00     0.000 A 
ATOM      5  C5  BNZ d   1      -2.282  -1.073  -1.597  0.00  0.00     0.000 A 
ATOM      6  C6  BNZ d   1      -1.143  -0.301  -1.552  0.00  0.00     0.000 A 
ENDROOT
TORSDOF 0
ENDMDL
