MODEL 1
REMARK minimizedAffinity -4.31300068
REMARK minimizedRMSD -1
REMARK  0 active torsions:
REMARK  status: ('A' for Active; 'I' for Inactive)
ROOT
ATOM      1  C1  BNZ d   1      -0.258   0.014  -0.446  0.00  0.00     0.000 A 
ATOM      2  C2  BNZ d   1      -1.354   0.305  -1.213  0.00  0.00     0.000 A 
ATOM      3  C3  BNZ d   1      -2.586  -0.190  -0.889  0.00  0.00     0.000 A 
ATOM      4  C4  BNZ d   1      -2.713  -1.007   0.177  0.00  0.00     0.000 A 
ATOM      5  C5  BNZ d   1      -1.616  -1.317   0.955  0.00  0.00     0.000 A 
ATOM      6  C6  BNZ d   1      -0.384  -0.785   0.648  0.00  0.00     0.000 A 
ENDROOT
TORSDOF 0
ENDMDL
