MODEL 1
REMARK minimizedAffinity -4.11560869
REMARK minimizedRMSD -1
REMARK  0 active torsions:
REMARK  status: ('A' for Active; 'I' for Inactive)
ROOT
ATOM      1  C1  BNZ d   1       0.464  -0.013  -0.528  0.00  0.00     0.000 A 
ATOM      2  C2  BNZ d   1      -0.386   0.057  -1.600  0.00  0.00     0.000 A 
ATOM      3  C3  BNZ d   1      -1.661  -0.430  -1.515  0.00  0.00     0.000 A 
ATOM      4  C4  BNZ d   1      -2.070  -1.021  -0.374  0.00  0.00     0.000 A 
ATOM      5  C5  BNZ d   1      -1.222  -1.108   0.712  0.00  0.00     0.000 A 
ATOM      6  C6  BNZ d   1       0.048  -0.582   0.636  0.00  0.00     0.000 A 
ENDROOT
TORSDOF 0
ENDMDL
