MODEL 1
REMARK minimizedAffinity -1.18244743
REMARK minimizedRMSD -1
REMARK  0 active torsions:
REMARK  status: ('A' for Active; 'I' for Inactive)
ROOT
ATOM      1  C1  BNZ d   1       0.064   0.422   0.018  0.00  0.00     0.000 A 
ATOM      2  C2  BNZ d   1      -1.112  -0.172   0.391  0.00  0.00     0.000 A 
ATOM      3  C3  BNZ d   1      -1.121  -1.210   1.280  0.00  0.00     0.000 A 
ATOM      4  C4  BNZ d   1       0.048  -1.679   1.763  0.00  0.00     0.000 A 
ATOM      5  C5  BNZ d   1       1.243  -1.097   1.390  0.00  0.00     0.000 A 
ATOM      6  C6  BNZ d   1       1.245  -0.026   0.525  0.00  0.00     0.000 A 
ENDROOT
TORSDOF 0
ENDMDL
