MODEL 1
REMARK minimizedAffinity -3.34640193
REMARK minimizedRMSD -1
REMARK  0 active torsions:
REMARK  status: ('A' for Active; 'I' for Inactive)
ROOT
ATOM      1  C1  BNZ d   1       0.350  -1.358   1.596  0.00  0.00     0.000 A 
ATOM      2  C2  BNZ d   1       0.976  -0.469   0.764  0.00  0.00     0.000 A 
ATOM      3  C3  BNZ d   1       0.259   0.279  -0.127  0.00  0.00     0.000 A 
ATOM      4  C4  BNZ d   1      -1.076   0.109  -0.214  0.00  0.00     0.000 A 
ATOM      5  C5  BNZ d   1      -1.720  -0.791   0.612  0.00  0.00     0.000 A 
ATOM      6  C6  BNZ d   1      -1.000  -1.514   1.535  0.00  0.00     0.000 A 
ENDROOT
TORSDOF 0
ENDMDL
