MODEL 1
REMARK minimizedAffinity -1.23539662
REMARK minimizedRMSD -1
REMARK  0 active torsions:
REMARK  status: ('A' for Active; 'I' for Inactive)
ROOT
ATOM      1  C1  BNZ d   1      -1.759  -0.385   1.152  0.00  0.00     0.000 A 
ATOM      2  C2  BNZ d   1      -0.857   0.351   0.430  0.00  0.00     0.000 A 
ATOM      3  C3  BNZ d   1       0.438  -0.067   0.295  0.00  0.00     0.000 A 
ATOM      4  C4  BNZ d   1       0.838  -1.197   0.913  0.00  0.00     0.000 A 
ATOM      5  C5  BNZ d   1      -0.057  -1.944   1.652  0.00  0.00     0.000 A 
ATOM      6  C6  BNZ d   1      -1.369  -1.541   1.754  0.00  0.00     0.000 A 
ENDROOT
TORSDOF 0
ENDMDL
