MODEL 1
REMARK minimizedAffinity -1.86715543
REMARK minimizedRMSD -1
REMARK  0 active torsions:
REMARK  status: ('A' for Active; 'I' for Inactive)
ROOT
ATOM      1  C1  BNZ d   1      -1.306  -0.084  -0.069  0.00  0.00     0.000 A 
ATOM      2  C2  BNZ d   1      -0.082   0.396  -0.452  0.00  0.00     0.000 A 
ATOM      3  C3  BNZ d   1       1.066  -0.260  -0.106  0.00  0.00     0.000 A 
ATOM      4  C4  BNZ d   1       0.992  -1.371   0.655  0.00  0.00     0.000 A 
ATOM      5  C5  BNZ d   1      -0.234  -1.862   1.057  0.00  0.00     0.000 A 
ATOM      6  C6  BNZ d   1      -1.390  -1.221   0.674  0.00  0.00     0.000 A 
ENDROOT
TORSDOF 0
ENDMDL
