MODEL 1
REMARK minimizedAffinity -4.44545364
REMARK minimizedRMSD -1
REMARK  0 active torsions:
REMARK  status: ('A' for Active; 'I' for Inactive)
ROOT
ATOM      1  C   UNL d   1       0.998   1.840   2.132  0.00  0.00     0.020 A 
ATOM      2  C1  UNL d   1      -0.246   1.276   1.852  0.00  0.00     0.020 A 
ATOM      3  C2  UNL d   1      -0.458   0.621   0.637  0.00  0.00     0.034 A 
ATOM      4  C3  UNL d   1       0.575   0.529  -0.303  0.00  0.00     0.017 A 
ATOM      5  C4  UNL d   1       1.824   1.096  -0.021  0.00  0.00     0.017 A 
ATOM      6  C5  UNL d   1       2.031   1.750   1.197  0.00  0.00     0.034 A 
ATOM      7 Cl   UNL d   1       3.147   1.023  -1.131  0.00  0.00    -0.070 Cl
ATOM      8 Cl1  UNL d   1       0.243  -0.295  -1.785  0.00  0.00    -0.070 Cl
ENDROOT
TORSDOF 0
ENDMDL
