MODEL 1
REMARK minimizedAffinity -3.86899209
REMARK minimizedRMSD -1
REMARK  0 active torsions:
REMARK  status: ('A' for Active; 'I' for Inactive)
ROOT
ATOM      1  C   UNL d   1       1.625  -0.595  -0.804  0.00  0.00     0.020 A 
ATOM      2  C1  UNL d   1       0.453  -1.234  -0.402  0.00  0.00     0.020 A 
ATOM      3  C2  UNL d   1      -0.413  -0.604   0.495  0.00  0.00     0.034 A 
ATOM      4  C3  UNL d   1      -0.107   0.669   0.992  0.00  0.00     0.017 A 
ATOM      5  C4  UNL d   1       1.070   1.309   0.588  0.00  0.00     0.017 A 
ATOM      6  C5  UNL d   1       1.933   0.673  -0.311  0.00  0.00     0.034 A 
ATOM      7 Cl   UNL d   1       1.514   2.879   1.158  0.00  0.00    -0.070 Cl
ATOM      8 Cl1  UNL d   1      -1.223   1.389   2.098  0.00  0.00    -0.070 Cl
ENDROOT
TORSDOF 0
ENDMDL
