MODEL 1
REMARK minimizedAffinity -1.78740752
REMARK minimizedRMSD -1
REMARK  0 active torsions:
REMARK  status: ('A' for Active; 'I' for Inactive)
ROOT
ATOM      1  C   UNL d   1      -5.711   5.981  -4.587  0.00  0.00     0.020 A 
ATOM      2  C1  UNL d   1      -5.128   5.981  -5.853  0.00  0.00     0.020 A 
ATOM      3  C2  UNL d   1      -3.738   5.987  -5.982  0.00  0.00     0.034 A 
ATOM      4  C3  UNL d   1      -2.926   5.992  -4.842  0.00  0.00     0.017 A 
ATOM      5  C4  UNL d   1      -3.512   5.992  -3.571  0.00  0.00     0.017 A 
ATOM      6  C5  UNL d   1      -4.905   5.986  -3.448  0.00  0.00     0.034 A 
ATOM      7 Cl   UNL d   1      -2.576   5.998  -2.118  0.00  0.00    -0.070 Cl
ATOM      8 Cl1  UNL d   1      -1.214   5.999  -5.075  0.00  0.00    -0.070 Cl
ENDROOT
TORSDOF 0
ENDMDL
