MODEL 1
REMARK minimizedAffinity -3.21617651
REMARK minimizedRMSD -1
REMARK  0 active torsions:
REMARK  status: ('A' for Active; 'I' for Inactive)
ROOT
ATOM      1  C   UNL d   1      -0.055   2.188   1.940  0.00  0.00     0.020 A 
ATOM      2  C1  UNL d   1       1.242   2.643   1.706  0.00  0.00     0.020 A 
ATOM      3  C2  UNL d   1       2.094   1.923   0.866  0.00  0.00     0.034 A 
ATOM      4  C3  UNL d   1       1.650   0.744   0.256  0.00  0.00     0.017 A 
ATOM      5  C4  UNL d   1       0.348   0.288   0.491  0.00  0.00     0.017 A 
ATOM      6  C5  UNL d   1      -0.501   1.013   1.333  0.00  0.00     0.034 A 
ATOM      7 Cl   UNL d   1      -0.271  -1.157  -0.226  0.00  0.00    -0.070 Cl
ATOM      8 Cl1  UNL d   1       2.757  -0.095  -0.771  0.00  0.00    -0.070 Cl
ENDROOT
TORSDOF 0
ENDMDL
