MODEL 1
REMARK minimizedAffinity -4.44681263
REMARK minimizedRMSD -1
REMARK  0 active torsions:
REMARK  status: ('A' for Active; 'I' for Inactive)
ROOT
ATOM      1  C   UNL d   1       1.284   2.188   0.583  0.00  0.00     0.020 A 
ATOM      2  C1  UNL d   1       2.622   2.087   0.203  0.00  0.00     0.020 A 
ATOM      3  C2  UNL d   1       3.088   0.923  -0.411  0.00  0.00     0.034 A 
ATOM      4  C3  UNL d   1       2.215  -0.146  -0.647  0.00  0.00     0.017 A 
ATOM      5  C4  UNL d   1       0.873  -0.045  -0.265  0.00  0.00     0.017 A 
ATOM      6  C5  UNL d   1       0.412   1.124   0.350  0.00  0.00     0.034 A 
ATOM      7 Cl   UNL d   1      -0.263  -1.321  -0.522  0.00  0.00    -0.070 Cl
ATOM      8 Cl1  UNL d   1       2.860  -1.556  -1.410  0.00  0.00    -0.070 Cl
ENDROOT
TORSDOF 0
ENDMDL
