MODEL 1
REMARK minimizedAffinity -3.28052592
REMARK minimizedRMSD -1
REMARK  0 active torsions:
REMARK  status: ('A' for Active; 'I' for Inactive)
ROOT
ATOM      1  C   UNL d   1       2.050   2.635   1.360  0.00  0.00     0.020 A 
ATOM      2  C1  UNL d   1       3.140   2.280   0.566  0.00  0.00     0.020 A 
ATOM      3  C2  UNL d   1       3.158   1.045  -0.084  0.00  0.00     0.034 A 
ATOM      4  C3  UNL d   1       2.084   0.159   0.057  0.00  0.00     0.017 A 
ATOM      5  C4  UNL d   1       0.989   0.516   0.853  0.00  0.00     0.017 A 
ATOM      6  C5  UNL d   1       0.977   1.754   1.502  0.00  0.00     0.034 A 
ATOM      7 Cl   UNL d   1      -0.374  -0.524   1.075  0.00  0.00    -0.070 Cl
ATOM      8 Cl1  UNL d   1       2.172  -1.352  -0.777  0.00  0.00    -0.070 Cl
ENDROOT
TORSDOF 0
ENDMDL
