MODEL 1
REMARK minimizedAffinity -3.7687366
REMARK minimizedRMSD -1
REMARK  0 active torsions:
REMARK  status: ('A' for Active; 'I' for Inactive)
ROOT
ATOM      1  C   UNL d   1       0.085   2.125   1.926  0.00  0.00     0.020 A 
ATOM      2  C1  UNL d   1      -0.990   1.263   1.710  0.00  0.00     0.020 A 
ATOM      3  C2  UNL d   1      -0.845   0.165   0.860  0.00  0.00     0.034 A 
ATOM      4  C3  UNL d   1       0.378  -0.076   0.223  0.00  0.00     0.017 A 
ATOM      5  C4  UNL d   1       1.457   0.790   0.441  0.00  0.00     0.017 A 
ATOM      6  C5  UNL d   1       1.305   1.888   1.292  0.00  0.00     0.034 A 
ATOM      7 Cl   UNL d   1       2.997   0.558  -0.309  0.00  0.00    -0.070 Cl
ATOM      8 Cl1  UNL d   1       0.487  -1.453  -0.813  0.00  0.00    -0.070 Cl
ENDROOT
TORSDOF 0
ENDMDL
