MODEL 1
REMARK minimizedAffinity -2.80669355
REMARK minimizedRMSD -1
REMARK  0 active torsions:
REMARK  status: ('A' for Active; 'I' for Inactive)
ROOT
ATOM      1  C   UNL d   1      -0.081  -1.294  -0.358  0.00  0.00     0.020 A 
ATOM      2  C1  UNL d   1      -0.830  -0.543   0.546  0.00  0.00     0.020 A 
ATOM      3  C2  UNL d   1      -0.334   0.674   1.021  0.00  0.00     0.034 A 
ATOM      4  C3  UNL d   1       0.913   1.142   0.592  0.00  0.00     0.017 A 
ATOM      5  C4  UNL d   1       1.664   0.386  -0.316  0.00  0.00     0.017 A 
ATOM      6  C5  UNL d   1       1.163  -0.831  -0.789  0.00  0.00     0.034 A 
ATOM      7 Cl   UNL d   1       3.211   0.898  -0.892  0.00  0.00    -0.070 Cl
ATOM      8 Cl1  UNL d   1       1.463   2.654   1.220  0.00  0.00    -0.070 Cl
ENDROOT
TORSDOF 0
ENDMDL
