MODEL 1
REMARK minimizedAffinity -0.942982197
REMARK minimizedRMSD -1
REMARK  0 active torsions:
REMARK  status: ('A' for Active; 'I' for Inactive)
ROOT
ATOM      1  C   UNL d   1       1.224   2.300  -0.116  0.00  0.00     0.020 A 
ATOM      2  C1  UNL d   1       0.585   2.821   1.009  0.00  0.00     0.020 A 
ATOM      3  C2  UNL d   1      -0.400   2.076   1.659  0.00  0.00     0.034 A 
ATOM      4  C3  UNL d   1      -0.750   0.806   1.186  0.00  0.00     0.017 A 
ATOM      5  C4  UNL d   1      -0.108   0.284   0.057  0.00  0.00     0.017 A 
ATOM      6  C5  UNL d   1       0.878   1.035  -0.591  0.00  0.00     0.034 A 
ATOM      7 Cl   UNL d   1      -0.486  -1.275  -0.587  0.00  0.00    -0.070 Cl
ATOM      8 Cl1  UNL d   1      -1.977  -0.060   2.040  0.00  0.00    -0.070 Cl
ENDROOT
TORSDOF 0
ENDMDL
