MODEL 1
REMARK minimizedAffinity -1.53690565
REMARK minimizedRMSD -1
REMARK  0 active torsions:
REMARK  status: ('A' for Active; 'I' for Inactive)
ROOT
ATOM      1  C   UNL d   1      -0.025  -1.211  -0.782  0.00  0.00     0.020 A 
ATOM      2  C1  UNL d   1       1.071  -0.350  -0.789  0.00  0.00     0.020 A 
ATOM      3  C2  UNL d   1       1.157   0.678   0.152  0.00  0.00     0.034 A 
ATOM      4  C3  UNL d   1       0.145   0.848   1.104  0.00  0.00     0.017 A 
ATOM      5  C4  UNL d   1      -0.955  -0.017   1.110  0.00  0.00     0.017 A 
ATOM      6  C5  UNL d   1      -1.036  -1.045   0.166  0.00  0.00     0.034 A 
ATOM      7 Cl   UNL d   1      -2.243   0.130   2.253  0.00  0.00    -0.070 Cl
ATOM      8 Cl1  UNL d   1       0.317   2.140   2.238  0.00  0.00    -0.070 Cl
ENDROOT
TORSDOF 0
ENDMDL
