MODEL 1
REMARK minimizedAffinity -1.55976665
REMARK minimizedRMSD -1
REMARK  0 active torsions:
REMARK  status: ('A' for Active; 'I' for Inactive)
ROOT
ATOM      1  C   UNL d   1      -1.794  -0.122  -3.663  0.00  0.00     0.020 A 
ATOM      2  C1  UNL d   1      -2.317  -0.285  -2.381  0.00  0.00     0.020 A 
ATOM      3  C2  UNL d   1      -3.182  -1.347  -2.109  0.00  0.00     0.034 A 
ATOM      4  C3  UNL d   1      -3.527  -2.250  -3.121  0.00  0.00     0.017 A 
ATOM      5  C4  UNL d   1      -3.002  -2.085  -4.408  0.00  0.00     0.017 A 
ATOM      6  C5  UNL d   1      -2.136  -1.020  -4.675  0.00  0.00     0.034 A 
ATOM      7 Cl   UNL d   1      -3.382  -3.159  -5.708  0.00  0.00    -0.070 Cl
ATOM      8 Cl1  UNL d   1      -4.602  -3.540  -2.714  0.00  0.00    -0.070 Cl
ENDROOT
TORSDOF 0
ENDMDL
