MODEL 1
REMARK minimizedAffinity -5.4835434
REMARK minimizedRMSD -1
REMARK  0 active torsions:
REMARK  status: ('A' for Active; 'I' for Inactive)
ROOT
ATOM      1  C   UNL d   1       0.474   2.503   1.435  0.00  0.00     0.020 A 
ATOM      2  C1  UNL d   1       1.824   2.800   1.254  0.00  0.00     0.020 A 
ATOM      3  C2  UNL d   1       2.637   1.937   0.516  0.00  0.00     0.034 A 
ATOM      4  C3  UNL d   1       2.100   0.772  -0.044  0.00  0.00     0.017 A 
ATOM      5  C4  UNL d   1       0.744   0.474   0.138  0.00  0.00     0.017 A 
ATOM      6  C5  UNL d   1      -0.064   1.342   0.878  0.00  0.00     0.034 A 
ATOM      7 Cl   UNL d   1       0.010  -0.944  -0.522  0.00  0.00    -0.070 Cl
ATOM      8 Cl1  UNL d   1       3.162  -0.250  -0.945  0.00  0.00    -0.070 Cl
ENDROOT
TORSDOF 0
ENDMDL
