MODEL 1
REMARK minimizedAffinity -2.95310974
REMARK minimizedRMSD -1
REMARK  0 active torsions:
REMARK  status: ('A' for Active; 'I' for Inactive)
ROOT
ATOM      1  C   UNL d   1      -2.329  -1.682  -3.638  0.00  0.00     0.020 A 
ATOM      2  C1  UNL d   1      -1.155  -0.998  -3.325  0.00  0.00     0.020 A 
ATOM      3  C2  UNL d   1      -0.698  -0.963  -2.006  0.00  0.00     0.034 A 
ATOM      4  C3  UNL d   1      -1.415  -1.612  -0.995  0.00  0.00     0.017 A 
ATOM      5  C4  UNL d   1      -2.594  -2.298  -1.309  0.00  0.00     0.017 A 
ATOM      6  C5  UNL d   1      -3.047  -2.330  -2.632  0.00  0.00     0.034 A 
ATOM      7 Cl   UNL d   1      -3.534  -3.122  -0.116  0.00  0.00    -0.070 Cl
ATOM      8 Cl1  UNL d   1      -0.791  -1.527   0.614  0.00  0.00    -0.070 Cl
ENDROOT
TORSDOF 0
ENDMDL
