MODEL 1
REMARK minimizedAffinity -0.963190079
REMARK minimizedRMSD -1
REMARK  0 active torsions:
REMARK  status: ('A' for Active; 'I' for Inactive)
ROOT
ATOM      1  C   UNL d   1       0.949   2.575   1.270  0.00  0.00     0.020 A 
ATOM      2  C1  UNL d   1       1.469   2.145   0.049  0.00  0.00     0.020 A 
ATOM      3  C2  UNL d   1       0.956   1.001  -0.564  0.00  0.00     0.034 A 
ATOM      4  C3  UNL d   1      -0.081   0.282   0.042  0.00  0.00     0.017 A 
ATOM      5  C4  UNL d   1      -0.603   0.715   1.267  0.00  0.00     0.017 A 
ATOM      6  C5  UNL d   1      -0.085   1.861   1.877  0.00  0.00     0.034 A 
ATOM      7 Cl   UNL d   1      -1.883  -0.119   2.075  0.00  0.00    -0.070 Cl
ATOM      8 Cl1  UNL d   1      -0.669  -1.123  -0.773  0.00  0.00    -0.070 Cl
ENDROOT
TORSDOF 0
ENDMDL
