MODEL 1
REMARK minimizedAffinity -3.81859016
REMARK minimizedRMSD -1
REMARK  0 active torsions:
REMARK  status: ('A' for Active; 'I' for Inactive)
ROOT
ATOM      1  C   UNL d   1       2.932   1.454   0.280  0.00  0.00     0.020 A 
ATOM      2  C1  UNL d   1       2.370   2.454   1.073  0.00  0.00     0.020 A 
ATOM      3  C2  UNL d   1       1.009   2.418   1.382  0.00  0.00     0.034 A 
ATOM      4  C3  UNL d   1       0.204   1.380   0.898  0.00  0.00     0.017 A 
ATOM      5  C4  UNL d   1       0.769   0.377   0.102  0.00  0.00     0.017 A 
ATOM      6  C5  UNL d   1       2.133   0.418  -0.204  0.00  0.00     0.034 A 
ATOM      7 Cl   UNL d   1      -0.160  -0.936  -0.532  0.00  0.00    -0.070 Cl
ATOM      8 Cl1  UNL d   1      -1.471   1.399   1.319  0.00  0.00    -0.070 Cl
ENDROOT
TORSDOF 0
ENDMDL
