MODEL 1
REMARK minimizedAffinity -3.00065231
REMARK minimizedRMSD -1
REMARK  0 active torsions:
REMARK  status: ('A' for Active; 'I' for Inactive)
ROOT
ATOM      1  C   UNL d   1      -1.791   1.137   1.086  0.00  0.00     0.020 A 
ATOM      2  C1  UNL d   1      -0.541   0.936   1.670  0.00  0.00     0.020 A 
ATOM      3  C2  UNL d   1       0.330  -0.020   1.143  0.00  0.00     0.034 A 
ATOM      4  C3  UNL d   1      -0.049  -0.780   0.030  0.00  0.00     0.017 A 
ATOM      5  C4  UNL d   1      -1.304  -0.577  -0.555  0.00  0.00     0.017 A 
ATOM      6  C5  UNL d   1      -2.172   0.382  -0.023  0.00  0.00     0.034 A 
ATOM      7 Cl   UNL d   1      -1.841  -1.476  -1.930  0.00  0.00    -0.070 Cl
ATOM      8 Cl1  UNL d   1       1.078  -1.945  -0.568  0.00  0.00    -0.070 Cl
ENDROOT
TORSDOF 0
ENDMDL
