MODEL 1
REMARK minimizedAffinity -3.38490486
REMARK minimizedRMSD -1
REMARK  0 active torsions:
REMARK  status: ('A' for Active; 'I' for Inactive)
ROOT
ATOM      1  C   UNL d   1      -0.781  -0.174   0.679  0.00  0.00     0.020 A 
ATOM      2  C1  UNL d   1      -0.464   0.831   1.593  0.00  0.00     0.020 A 
ATOM      3  C2  UNL d   1       0.869   1.194   1.797  0.00  0.00     0.034 A 
ATOM      4  C3  UNL d   1       1.890   0.552   1.087  0.00  0.00     0.017 A 
ATOM      5  C4  UNL d   1       1.571  -0.456   0.170  0.00  0.00     0.017 A 
ATOM      6  C5  UNL d   1       0.235  -0.816  -0.030  0.00  0.00     0.034 A 
ATOM      7 Cl   UNL d   1       2.776  -1.294  -0.743  0.00  0.00    -0.070 Cl
ATOM      8 Cl1  UNL d   1       3.516   1.052   1.389  0.00  0.00    -0.070 Cl
ENDROOT
TORSDOF 0
ENDMDL
