MODEL 1
REMARK minimizedAffinity -4.67757845
REMARK minimizedRMSD -1
REMARK  0 active torsions:
REMARK  status: ('A' for Active; 'I' for Inactive)
ROOT
ATOM      1  C   UNL d   1       2.319   0.677   0.283  0.00  0.00     0.020 A 
ATOM      2  C1  UNL d   1       1.867   1.345   1.421  0.00  0.00     0.020 A 
ATOM      3  C2  UNL d   1       0.568   1.131   1.887  0.00  0.00     0.034 A 
ATOM      4  C3  UNL d   1      -0.283   0.246   1.216  0.00  0.00     0.017 A 
ATOM      5  C4  UNL d   1       0.171  -0.424   0.074  0.00  0.00     0.017 A 
ATOM      6  C5  UNL d   1       1.472  -0.206  -0.388  0.00  0.00     0.034 A 
ATOM      7 Cl   UNL d   1      -0.822  -1.531  -0.807  0.00  0.00    -0.070 Cl
ATOM      8 Cl1  UNL d   1      -1.877   0.029   1.848  0.00  0.00    -0.070 Cl
ENDROOT
TORSDOF 0
ENDMDL
