MODEL 1
REMARK minimizedAffinity -4.85156107
REMARK minimizedRMSD -1
REMARK  0 active torsions:
REMARK  status: ('A' for Active; 'I' for Inactive)
ROOT
ATOM      1  C   UNL d   1       0.401  -1.034  -1.519  0.00  0.00     0.020 A 
ATOM      2  C1  UNL d   1       1.353  -0.051  -1.790  0.00  0.00     0.020 A 
ATOM      3  C2  UNL d   1       1.535   1.009  -0.900  0.00  0.00     0.034 A 
ATOM      4  C3  UNL d   1       0.766   1.089   0.267  0.00  0.00     0.017 A 
ATOM      5  C4  UNL d   1      -0.189   0.102   0.538  0.00  0.00     0.017 A 
ATOM      6  C5  UNL d   1      -0.368  -0.957  -0.357  0.00  0.00     0.034 A 
ATOM      7 Cl   UNL d   1      -1.176   0.133   1.957  0.00  0.00    -0.070 Cl
ATOM      8 Cl1  UNL d   1       1.045   2.427   1.323  0.00  0.00    -0.070 Cl
ENDROOT
TORSDOF 0
ENDMDL
