MODEL 1
REMARK minimizedAffinity -2.87398815
REMARK minimizedRMSD -1
REMARK  1 active torsions:
REMARK  status: ('A' for Active; 'I' for Inactive)
REMARK    1  A    between atoms: N_2  and  C1_3 
ROOT
ATOM      1  C1  UNL d   1       0.161  -1.414   0.678  0.00  0.00     0.143 A 
ATOM      2  C2  UNL d   1       0.019  -0.311  -0.170  0.00  0.00    -0.057 A 
ATOM      3  C3  UNL d   1       1.135   0.335  -0.715  0.00  0.00     0.033 A 
ATOM      4  C4  UNL d   1       2.419  -0.095  -0.396  0.00  0.00    -0.042 A 
ATOM      5  C5  UNL d   1       2.585  -1.174   0.465  0.00  0.00     0.033 A 
ATOM      6  C6  UNL d   1       1.466  -1.819   1.000  0.00  0.00    -0.057 A 
ENDROOT
BRANCH   1   7
ATOM      7  N   UNL d   1      -0.906  -2.037   1.330  0.00  0.00    -0.732 N 
ATOM      8  C   UNL d   1      -1.708  -1.312   2.292  0.00  0.00     0.284 C 
ATOM      9  H3  UNL d   1      -1.444  -2.636   0.708  0.00  0.00     0.395 HD
ENDBRANCH   1   7
TORSDOF 1
ENDMDL
