MODEL 1
REMARK minimizedAffinity -2.29830551
REMARK minimizedRMSD -1
REMARK  1 active torsions:
REMARK  status: ('A' for Active; 'I' for Inactive)
REMARK    1  A    between atoms: N_2  and  C1_3 
ROOT
ATOM      1  C1  UNL d   1      -0.690   0.644  -0.947  0.00  0.00     0.143 A 
ATOM      2  C2  UNL d   1      -1.240   0.086  -2.106  0.00  0.00    -0.057 A 
ATOM      3  C3  UNL d   1      -2.203   0.771  -2.856  0.00  0.00     0.033 A 
ATOM      4  C4  UNL d   1      -2.656   2.020  -2.442  0.00  0.00    -0.042 A 
ATOM      5  C5  UNL d   1      -2.142   2.583  -1.280  0.00  0.00     0.033 A 
ATOM      6  C6  UNL d   1      -1.175   1.896  -0.539  0.00  0.00    -0.057 A 
ENDROOT
BRANCH   1   7
ATOM      7  N   UNL d   1       0.198  -0.030  -0.105  0.00  0.00    -0.732 N 
ATOM      8  C   UNL d   1      -0.193  -1.262   0.545  0.00  0.00     0.284 C 
ATOM      9  H3  UNL d   1       1.149  -0.035  -0.468  0.00  0.00     0.395 HD
ENDBRANCH   1   7
TORSDOF 1
ENDMDL
