MODEL 1
REMARK minimizedAffinity -4.19568825
REMARK minimizedRMSD -1
REMARK  1 active torsions:
REMARK  status: ('A' for Active; 'I' for Inactive)
REMARK    1  A    between atoms: N_2  and  C1_3 
ROOT
ATOM      1  C1  UNL d   1       0.285   0.227  -0.015  0.00  0.00     0.143 A 
ATOM      2  C2  UNL d   1       1.540   0.093  -0.617  0.00  0.00    -0.057 A 
ATOM      3  C3  UNL d   1       2.322  -1.051  -0.417  0.00  0.00     0.033 A 
ATOM      4  C4  UNL d   1       1.873  -2.072   0.415  0.00  0.00    -0.042 A 
ATOM      5  C5  UNL d   1       0.639  -1.948   1.044  0.00  0.00     0.033 A 
ATOM      6  C6  UNL d   1      -0.140  -0.806   0.835  0.00  0.00    -0.057 A 
ENDROOT
BRANCH   1   7
ATOM      7  N   UNL d   1      -0.497   1.383  -0.096  0.00  0.00    -0.732 N 
ATOM      8  C   UNL d   1      -1.143   1.750  -1.337  0.00  0.00     0.284 C 
ATOM      9  H3  UNL d   1      -1.075   1.519   0.730  0.00  0.00     0.395 HD
ENDBRANCH   1   7
TORSDOF 1
ENDMDL
