MODEL 1
REMARK minimizedAffinity -4.67514467
REMARK minimizedRMSD -1
REMARK  1 active torsions:
REMARK  status: ('A' for Active; 'I' for Inactive)
REMARK    1  A    between atoms: N_2  and  C1_3 
ROOT
ATOM      1  C1  UNL d   1      -0.304   0.496   0.090  0.00  0.00     0.143 A 
ATOM      2  C2  UNL d   1      -1.055   0.499   1.270  0.00  0.00    -0.057 A 
ATOM      3  C3  UNL d   1      -1.140  -0.641   2.079  0.00  0.00     0.033 A 
ATOM      4  C4  UNL d   1      -0.497  -1.816   1.705  0.00  0.00    -0.042 A 
ATOM      5  C5  UNL d   1       0.235  -1.849   0.524  0.00  0.00     0.033 A 
ATOM      6  C6  UNL d   1       0.322  -0.706  -0.277  0.00  0.00    -0.057 A 
ENDROOT
BRANCH   1   7
ATOM      7  N   UNL d   1      -0.261   1.566  -0.807  0.00  0.00    -0.732 N 
ATOM      8  C   UNL d   1      -1.371   1.827  -1.698  0.00  0.00     0.284 C 
ATOM      9  H3  UNL d   1       0.147   2.402  -0.395  0.00  0.00     0.395 HD
ENDBRANCH   1   7
TORSDOF 1
ENDMDL
