MODEL 1
REMARK minimizedAffinity -0.398971856
REMARK minimizedRMSD -1
REMARK  1 active torsions:
REMARK  status: ('A' for Active; 'I' for Inactive)
REMARK    1  A    between atoms: N_2  and  C1_3 
ROOT
ATOM      1  C1  UNL d   1       1.234  -1.036   0.558  0.00  0.00     0.143 A 
ATOM      2  C2  UNL d   1       1.622   0.090  -0.177  0.00  0.00    -0.057 A 
ATOM      3  C3  UNL d   1       0.691   1.063  -0.560  0.00  0.00     0.033 A 
ATOM      4  C4  UNL d   1      -0.654   0.912  -0.238  0.00  0.00    -0.042 A 
ATOM      5  C5  UNL d   1      -1.066  -0.211   0.471  0.00  0.00     0.033 A 
ATOM      6  C6  UNL d   1      -0.130  -1.176   0.856  0.00  0.00    -0.057 A 
ENDROOT
BRANCH   1   7
ATOM      7  N   UNL d   1       2.095  -2.087   0.883  0.00  0.00    -0.732 N 
ATOM      8  C   UNL d   1       1.573  -3.403   1.180  0.00  0.00     0.284 C 
ATOM      9  H3  UNL d   1       2.935  -2.093   0.309  0.00  0.00     0.395 HD
ENDBRANCH   1   7
TORSDOF 1
ENDMDL
