MODEL 1
REMARK minimizedAffinity -3.68770313
REMARK minimizedRMSD -1
REMARK  1 active torsions:
REMARK  status: ('A' for Active; 'I' for Inactive)
REMARK    1  A    between atoms: N_2  and  C1_3 
ROOT
ATOM      1  C1  UNL d   1      -1.566   2.990  -3.807  0.00  0.00     0.143 A 
ATOM      2  C2  UNL d   1      -2.945   3.221  -3.757  0.00  0.00    -0.057 A 
ATOM      3  C3  UNL d   1      -3.808   2.324  -3.115  0.00  0.00     0.033 A 
ATOM      4  C4  UNL d   1      -3.308   1.163  -2.535  0.00  0.00    -0.042 A 
ATOM      5  C5  UNL d   1      -1.944   0.901  -2.595  0.00  0.00     0.033 A 
ATOM      6  C6  UNL d   1      -1.087   1.803  -3.232  0.00  0.00    -0.057 A 
ENDROOT
BRANCH   1   7
ATOM      7  N   UNL d   1      -0.669   3.794  -4.515  0.00  0.00    -0.732 N 
ATOM      8  C   UNL d   1      -0.017   4.914  -3.873  0.00  0.00     0.284 C 
ATOM      9  H3  UNL d   1      -0.060   3.252  -5.125  0.00  0.00     0.395 HD
ENDBRANCH   1   7
TORSDOF 1
ENDMDL
