MODEL 1
REMARK minimizedAffinity -3.36123466
REMARK minimizedRMSD -1
REMARK  1 active torsions:
REMARK  status: ('A' for Active; 'I' for Inactive)
REMARK    1  A    between atoms: N_2  and  C1_3 
ROOT
ATOM      1  C1  UNL d   1       0.911  -0.488   0.214  0.00  0.00     0.143 A 
ATOM      2  C2  UNL d   1       1.938  -1.341   0.633  0.00  0.00    -0.057 A 
ATOM      3  C3  UNL d   1       1.658  -2.540   1.300  0.00  0.00     0.033 A 
ATOM      4  C4  UNL d   1       0.344  -2.894   1.585  0.00  0.00    -0.042 A 
ATOM      5  C5  UNL d   1      -0.691  -2.049   1.200  0.00  0.00     0.033 A 
ATOM      6  C6  UNL d   1      -0.406  -0.857   0.528  0.00  0.00    -0.057 A 
ENDROOT
BRANCH   1   7
ATOM      7  N   UNL d   1       1.129   0.765  -0.366  0.00  0.00    -0.732 N 
ATOM      8  C   UNL d   1       0.060   1.737  -0.442  0.00  0.00     0.284 C 
ATOM      9  H3  UNL d   1       2.032   1.158  -0.112  0.00  0.00     0.395 HD
ENDBRANCH   1   7
TORSDOF 1
ENDMDL
