MODEL 1
REMARK minimizedAffinity -3.39929748
REMARK minimizedRMSD -1
REMARK  1 active torsions:
REMARK  status: ('A' for Active; 'I' for Inactive)
REMARK    1  A    between atoms: N_2  and  C1_3 
ROOT
ATOM      1  C1  UNL d   1       0.090  -0.486  -0.176  0.00  0.00     0.143 A 
ATOM      2  C2  UNL d   1       1.469  -0.322  -0.010  0.00  0.00    -0.057 A 
ATOM      3  C3  UNL d   1       2.267  -1.355   0.499  0.00  0.00     0.033 A 
ATOM      4  C4  UNL d   1       1.691  -2.563   0.880  0.00  0.00    -0.042 A 
ATOM      5  C5  UNL d   1       0.319  -2.739   0.746  0.00  0.00     0.033 A 
ATOM      6  C6  UNL d   1      -0.471  -1.706   0.231  0.00  0.00    -0.057 A 
ENDROOT
BRANCH   1   7
ATOM      7  N   UNL d   1      -0.770   0.536  -0.584  0.00  0.00    -0.732 N 
ATOM      8  C   UNL d   1      -1.321   0.546  -1.923  0.00  0.00     0.284 C 
ATOM      9  H3  UNL d   1      -1.435   0.797   0.141  0.00  0.00     0.395 HD
ENDBRANCH   1   7
TORSDOF 1
ENDMDL
