MODEL 1
REMARK minimizedAffinity -4.68207455
REMARK minimizedRMSD -1
REMARK  1 active torsions:
REMARK  status: ('A' for Active; 'I' for Inactive)
REMARK    1  A    between atoms: N_2  and  C1_3 
ROOT
ATOM      1  C1  UNL d   1      -0.070   0.182   0.174  0.00  0.00     0.143 A 
ATOM      2  C2  UNL d   1      -0.812  -0.562   1.097  0.00  0.00    -0.057 A 
ATOM      3  C3  UNL d   1      -0.374  -1.817   1.538  0.00  0.00     0.033 A 
ATOM      4  C4  UNL d   1       0.803  -2.364   1.039  0.00  0.00    -0.042 A 
ATOM      5  C5  UNL d   1       1.544  -1.653   0.101  0.00  0.00     0.033 A 
ATOM      6  C6  UNL d   1       1.105  -0.398  -0.330  0.00  0.00    -0.057 A 
ENDROOT
BRANCH   1   7
ATOM      7  N   UNL d   1      -0.502   1.391  -0.377  0.00  0.00    -0.732 N 
ATOM      8  C   UNL d   1      -1.373   1.405  -1.533  0.00  0.00     0.284 C 
ATOM      9  H3  UNL d   1      -0.744   2.077   0.334  0.00  0.00     0.395 HD
ENDBRANCH   1   7
TORSDOF 1
ENDMDL
