MODEL 1
REMARK minimizedAffinity 10.672925
REMARK minimizedRMSD -1
REMARK  0 active torsions:
REMARK  status: ('A' for Active; 'I' for Inactive)
ROOT
ATOM      1  C   UNL d   1      -5.241  -3.024  -6.000  0.00  0.00     0.023 A 
ATOM      2  C1  UNL d   1      -5.248  -4.415  -5.895  0.00  0.00     0.003 A 
ATOM      3  C2  UNL d   1      -4.356  -5.057  -5.034  0.00  0.00     0.048 A 
ATOM      4  C3  UNL d   1      -3.460  -4.302  -4.279  0.00  0.00     0.023 A 
ATOM      5  C4  UNL d   1      -3.449  -2.910  -4.380  0.00  0.00     0.048 A 
ATOM      6  C5  UNL d   1      -4.342  -2.272  -5.243  0.00  0.00     0.003 A 
ATOM      7  I   UNL d   1      -2.131  -5.254  -2.995  0.00  0.00    -0.146 I 
ENDROOT
TORSDOF 0
ENDMDL
