MODEL 1
REMARK minimizedAffinity 14.0027189
REMARK minimizedRMSD -1
REMARK  0 active torsions:
REMARK  status: ('A' for Active; 'I' for Inactive)
ROOT
ATOM      1  C   UNL d   1      -4.355  -2.629  -6.000  0.00  0.00     0.023 A 
ATOM      2  C1  UNL d   1      -4.168  -4.012  -6.000  0.00  0.00     0.003 A 
ATOM      3  C2  UNL d   1      -3.326  -4.604  -5.057  0.00  0.00     0.048 A 
ATOM      4  C3  UNL d   1      -2.674  -3.808  -4.116  0.00  0.00     0.023 A 
ATOM      5  C4  UNL d   1      -2.859  -2.424  -4.111  0.00  0.00     0.048 A 
ATOM      6  C5  UNL d   1      -3.701  -1.837  -5.057  0.00  0.00     0.003 A 
ATOM      7  I   UNL d   1      -1.419  -4.687  -2.711  0.00  0.00    -0.146 I 
ENDROOT
TORSDOF 0
ENDMDL
