MODEL 1
REMARK minimizedAffinity 7.34464788
REMARK minimizedRMSD -1
REMARK  0 active torsions:
REMARK  status: ('A' for Active; 'I' for Inactive)
ROOT
ATOM      1  C   UNL d   1       2.156  -0.189  -2.792  0.00  0.00     0.023 A 
ATOM      2  C1  UNL d   1       3.094   0.442  -1.975  0.00  0.00     0.003 A 
ATOM      3  C2  UNL d   1       2.742   0.837  -0.682  0.00  0.00     0.048 A 
ATOM      4  C3  UNL d   1       1.451   0.597  -0.213  0.00  0.00     0.023 A 
ATOM      5  C4  UNL d   1       0.509  -0.035  -1.027  0.00  0.00     0.048 A 
ATOM      6  C5  UNL d   1       0.865  -0.427  -2.319  0.00  0.00     0.003 A 
ATOM      7  I   UNL d   1       0.925   1.183   1.710  0.00  0.00    -0.146 I 
ENDROOT
TORSDOF 0
ENDMDL
