MODEL 1
REMARK minimizedAffinity 9.34546471
REMARK minimizedRMSD -1
REMARK  0 active torsions:
REMARK  status: ('A' for Active; 'I' for Inactive)
ROOT
ATOM      1  C   UNL d   1      -0.603  -4.624  -2.196  0.00  0.00     0.023 A 
ATOM      2  C1  UNL d   1      -0.034  -4.080  -3.348  0.00  0.00     0.003 A 
ATOM      3  C2  UNL d   1      -0.842  -3.751  -4.439  0.00  0.00     0.048 A 
ATOM      4  C3  UNL d   1      -2.217  -3.967  -4.371  0.00  0.00     0.023 A 
ATOM      5  C4  UNL d   1      -2.791  -4.510  -3.220  0.00  0.00     0.048 A 
ATOM      6  C5  UNL d   1      -1.980  -4.839  -2.132  0.00  0.00     0.003 A 
ATOM      7  I   UNL d   1      -3.421  -3.478  -5.993  0.00  0.00    -0.146 I 
ENDROOT
TORSDOF 0
ENDMDL
