MODEL 1
REMARK minimizedAffinity 12.4622793
REMARK minimizedRMSD -1
REMARK  0 active torsions:
REMARK  status: ('A' for Active; 'I' for Inactive)
ROOT
ATOM      1  C   UNL d   1      -2.156   0.670   2.282  0.00  0.00     0.023 A 
ATOM      2  C1  UNL d   1      -3.378   0.142   2.698  0.00  0.00     0.003 A 
ATOM      3  C2  UNL d   1      -4.110   0.780   3.701  0.00  0.00     0.048 A 
ATOM      4  C3  UNL d   1      -3.615   1.946   4.283  0.00  0.00     0.023 A 
ATOM      5  C4  UNL d   1      -2.393   2.479   3.869  0.00  0.00     0.048 A 
ATOM      6  C5  UNL d   1      -1.664   1.837   2.866  0.00  0.00     0.003 A 
ATOM      7  I   UNL d   1      -4.703   2.898   5.776  0.00  0.00    -0.146 I 
ENDROOT
TORSDOF 0
ENDMDL
