MODEL 1
REMARK minimizedAffinity 2.04496837
REMARK minimizedRMSD -1
REMARK  0 active torsions:
REMARK  status: ('A' for Active; 'I' for Inactive)
ROOT
ATOM      1  C   UNL d   1      -0.522  -5.283  -2.368  0.00  0.00     0.023 A 
ATOM      2  C1  UNL d   1      -1.912  -5.391  -2.340  0.00  0.00     0.003 A 
ATOM      3  C2  UNL d   1      -2.681  -4.786  -3.337  0.00  0.00     0.048 A 
ATOM      4  C3  UNL d   1      -2.052  -4.076  -4.359  0.00  0.00     0.023 A 
ATOM      5  C4  UNL d   1      -0.661  -3.966  -4.391  0.00  0.00     0.048 A 
ATOM      6  C5  UNL d   1       0.103  -4.571  -3.392  0.00  0.00     0.003 A 
ATOM      7  I   UNL d   1      -3.194  -3.176  -5.845  0.00  0.00    -0.146 I 
ENDROOT
TORSDOF 0
ENDMDL
