MODEL 1
REMARK minimizedAffinity 15.7188568
REMARK minimizedRMSD -1
REMARK  0 active torsions:
REMARK  status: ('A' for Active; 'I' for Inactive)
ROOT
ATOM      1  C   UNL d   1      -6.000  -2.747   3.011  0.00  0.00     0.023 A 
ATOM      2  C1  UNL d   1      -5.999  -1.826   1.963  0.00  0.00     0.003 A 
ATOM      3  C2  UNL d   1      -5.052  -0.801   1.932  0.00  0.00     0.048 A 
ATOM      4  C3  UNL d   1      -4.106  -0.703   2.953  0.00  0.00     0.023 A 
ATOM      5  C4  UNL d   1      -4.102  -1.623   4.003  0.00  0.00     0.048 A 
ATOM      6  C5  UNL d   1      -5.052  -2.645   4.030  0.00  0.00     0.003 A 
ATOM      7  I   UNL d   1      -2.694   0.821   2.909  0.00  0.00    -0.146 I 
ENDROOT
TORSDOF 0
ENDMDL
