MODEL 1
REMARK minimizedAffinity 6.14727688
REMARK minimizedRMSD -1
REMARK  0 active torsions:
REMARK  status: ('A' for Active; 'I' for Inactive)
ROOT
ATOM      1  C   UNL d   1       2.858  -2.029  -1.179  0.00  0.00     0.023 A 
ATOM      2  C1  UNL d   1       1.951  -1.316  -1.963  0.00  0.00     0.003 A 
ATOM      3  C2  UNL d   1       0.817  -1.952  -2.474  0.00  0.00     0.048 A 
ATOM      4  C3  UNL d   1       0.596  -3.300  -2.196  0.00  0.00     0.023 A 
ATOM      5  C4  UNL d   1       1.501  -4.018  -1.411  0.00  0.00     0.048 A 
ATOM      6  C5  UNL d   1       2.633  -3.378  -0.903  0.00  0.00     0.003 A 
ATOM      7  I   UNL d   1      -1.090  -4.248  -2.954  0.00  0.00    -0.146 I 
ENDROOT
TORSDOF 0
ENDMDL
