MODEL 1
REMARK minimizedAffinity 14.9313049
REMARK minimizedRMSD -1
REMARK  0 active torsions:
REMARK  status: ('A' for Active; 'I' for Inactive)
ROOT
ATOM      1  C   UNL d   1      -5.323   2.767   5.420  0.00  0.00     0.023 A 
ATOM      2  C1  UNL d   1      -4.057   2.674   5.999  0.00  0.00     0.003 A 
ATOM      3  C2  UNL d   1      -3.000   2.111   5.281  0.00  0.00     0.048 A 
ATOM      4  C3  UNL d   1      -3.215   1.645   3.985  0.00  0.00     0.023 A 
ATOM      5  C4  UNL d   1      -4.479   1.737   3.401  0.00  0.00     0.048 A 
ATOM      6  C5  UNL d   1      -5.534   2.300   4.123  0.00  0.00     0.003 A 
ATOM      7  I   UNL d   1      -1.642   0.807   2.915  0.00  0.00    -0.146 I 
ENDROOT
TORSDOF 0
ENDMDL
