MODEL 1
REMARK minimizedAffinity 16.8308811
REMARK minimizedRMSD -1
REMARK  0 active torsions:
REMARK  status: ('A' for Active; 'I' for Inactive)
ROOT
ATOM      1  C   UNL d   1       0.138   0.918   5.484  0.00  0.00     0.023 A 
ATOM      2  C1  UNL d   1       1.397   1.511   5.580  0.00  0.00     0.003 A 
ATOM      3  C2  UNL d   1       2.120   1.809   4.423  0.00  0.00     0.048 A 
ATOM      4  C3  UNL d   1       1.578   1.513   3.173  0.00  0.00     0.023 A 
ATOM      5  C4  UNL d   1       0.318   0.921   3.072  0.00  0.00     0.048 A 
ATOM      6  C5  UNL d   1      -0.401   0.624   4.231  0.00  0.00     0.003 A 
ATOM      7  I   UNL d   1       2.652   1.956   1.450  0.00  0.00    -0.146 I 
ENDROOT
TORSDOF 0
ENDMDL
