MODEL 1
REMARK minimizedAffinity 17.7251644
REMARK minimizedRMSD -1
REMARK  0 active torsions:
REMARK  status: ('A' for Active; 'I' for Inactive)
ROOT
ATOM      1  C   UNL d   1      -4.875   2.247   5.067  0.00  0.00     0.023 A 
ATOM      2  C1  UNL d   1      -4.622   1.662   3.826  0.00  0.00     0.003 A 
ATOM      3  C2  UNL d   1      -3.324   1.275   3.487  0.00  0.00     0.048 A 
ATOM      4  C3  UNL d   1      -2.284   1.475   4.393  0.00  0.00     0.023 A 
ATOM      5  C4  UNL d   1      -2.532   2.058   5.637  0.00  0.00     0.048 A 
ATOM      6  C5  UNL d   1      -3.831   2.444   5.971  0.00  0.00     0.003 A 
ATOM      7  I   UNL d   1      -0.351   0.899   3.890  0.00  0.00    -0.146 I 
ENDROOT
TORSDOF 0
ENDMDL
