MODEL 1
REMARK minimizedAffinity -1.51826584
REMARK minimizedRMSD -1
REMARK  0 active torsions:
REMARK  status: ('A' for Active; 'I' for Inactive)
ROOT
ATOM      1  C   UNL d   1       2.165  -1.081  -3.589  0.00  0.00     0.023 A 
ATOM      2  C1  UNL d   1       2.688  -2.281  -4.072  0.00  0.00     0.003 A 
ATOM      3  C2  UNL d   1       2.903  -3.351  -3.200  0.00  0.00     0.048 A 
ATOM      4  C3  UNL d   1       2.591  -3.215  -1.848  0.00  0.00     0.023 A 
ATOM      5  C4  UNL d   1       2.066  -2.017  -1.361  0.00  0.00     0.048 A 
ATOM      6  C5  UNL d   1       1.854  -0.949  -2.236  0.00  0.00     0.003 A 
ATOM      7  I   UNL d   1       2.909  -4.806  -0.550  0.00  0.00    -0.146 I 
ENDROOT
TORSDOF 0
ENDMDL
