MODEL 1
REMARK minimizedAffinity 19.7209358
REMARK minimizedRMSD -1
REMARK  0 active torsions:
REMARK  status: ('A' for Active; 'I' for Inactive)
ROOT
ATOM      1  C   UNL d   1      -3.740   1.846   4.831  0.00  0.00     0.023 A 
ATOM      2  C1  UNL d   1      -3.399   1.149   5.990  0.00  0.00     0.003 A 
ATOM      3  C2  UNL d   1      -3.423  -0.247   6.000  0.00  0.00     0.048 A 
ATOM      4  C3  UNL d   1      -3.787  -0.940   4.846  0.00  0.00     0.023 A 
ATOM      5  C4  UNL d   1      -4.128  -0.247   3.683  0.00  0.00     0.048 A 
ATOM      6  C5  UNL d   1      -4.104   1.149   3.679  0.00  0.00     0.003 A 
ATOM      7  I   UNL d   1      -3.823  -3.018   4.857  0.00  0.00    -0.146 I 
ENDROOT
TORSDOF 0
ENDMDL
