MODEL 1
REMARK minimizedAffinity 12.0376234
REMARK minimizedRMSD -1
REMARK  0 active torsions:
REMARK  status: ('A' for Active; 'I' for Inactive)
ROOT
ATOM      1  C   UNL d   1      -3.528  -5.207  -2.733  0.00  0.00     0.023 A 
ATOM      2  C1  UNL d   1      -3.655  -4.099  -3.571  0.00  0.00     0.003 A 
ATOM      3  C2  UNL d   1      -2.688  -3.092  -3.552  0.00  0.00     0.048 A 
ATOM      4  C3  UNL d   1      -1.595  -3.200  -2.692  0.00  0.00     0.023 A 
ATOM      5  C4  UNL d   1      -1.463  -4.307  -1.852  0.00  0.00     0.048 A 
ATOM      6  C5  UNL d   1      -2.433  -5.311  -1.874  0.00  0.00     0.003 A 
ATOM      7  I   UNL d   1      -0.155  -1.702  -2.661  0.00  0.00    -0.146 I 
ENDROOT
TORSDOF 0
ENDMDL
