MODEL 1
REMARK minimizedAffinity 8.05434036
REMARK minimizedRMSD -1
REMARK  0 active torsions:
REMARK  status: ('A' for Active; 'I' for Inactive)
ROOT
ATOM      1  C   UNL d   1       1.618  -3.820  -1.861  0.00  0.00     0.023 A 
ATOM      2  C1  UNL d   1       1.530  -2.687  -2.670  0.00  0.00     0.003 A 
ATOM      3  C2  UNL d   1       1.936  -1.444  -2.180  0.00  0.00     0.048 A 
ATOM      4  C3  UNL d   1       2.431  -1.342  -0.880  0.00  0.00     0.023 A 
ATOM      5  C4  UNL d   1       2.523  -2.473  -0.067  0.00  0.00     0.048 A 
ATOM      6  C5  UNL d   1       2.114  -3.713  -0.561  0.00  0.00     0.003 A 
ATOM      7  I   UNL d   1       3.037   0.507  -0.149  0.00  0.00    -0.146 I 
ENDROOT
TORSDOF 0
ENDMDL
