MODEL 1
REMARK minimizedAffinity 6.23250818
REMARK minimizedRMSD -1
REMARK  0 active torsions:
REMARK  status: ('A' for Active; 'I' for Inactive)
ROOT
ATOM      1  C   UNL d   1       1.770  -1.533  -2.887  0.00  0.00     0.023 A 
ATOM      2  C1  UNL d   1       2.207  -1.902  -1.615  0.00  0.00     0.003 A 
ATOM      3  C2  UNL d   1       2.798  -0.954  -0.777  0.00  0.00     0.048 A 
ATOM      4  C3  UNL d   1       2.948   0.361  -1.217  0.00  0.00     0.023 A 
ATOM      5  C4  UNL d   1       2.510   0.734  -2.489  0.00  0.00     0.048 A 
ATOM      6  C5  UNL d   1       1.921  -0.217  -3.324  0.00  0.00     0.003 A 
ATOM      7  I   UNL d   1       3.827   1.773   0.028  0.00  0.00    -0.146 I 
ENDROOT
TORSDOF 0
ENDMDL
