MODEL 1
REMARK minimizedAffinity 16.9197979
REMARK minimizedRMSD -1
REMARK  0 active torsions:
REMARK  status: ('A' for Active; 'I' for Inactive)
ROOT
ATOM      1  C1  DEN d   1       4.875  -2.507  -5.029  0.00  0.00     0.130 A 
ATOM      2  C2  DEN d   1       3.765  -2.683  -4.096  0.00  0.00    -0.031 A 
ATOM      3  C3  DEN d   1       3.267  -1.343  -3.722  0.00  0.00     0.027 A 
ATOM      4  C4  DEN d   1       4.098   0.972  -4.499  0.00  0.00     0.027 A 
ATOM      5  C5  DEN d   1       5.023   1.628  -5.280  0.00  0.00    -0.003 A 
ATOM      6  C6  DEN d   1       5.978   0.959  -5.999  0.00  0.00     0.001 A 
ATOM      7  C7  DEN d   1       6.000  -0.410  -5.988  0.00  0.00     0.017 A 
ATOM      8  C8  DEN d   1       5.075  -1.079  -5.198  0.00  0.00    -0.094 A 
ATOM      9  C9  DEN d   1       4.110  -0.385  -4.487  0.00  0.00    -0.072 A 
ENDROOT
TORSDOF 0
ENDMDL
