MODEL 1
REMARK minimizedAffinity 5.10106945
REMARK minimizedRMSD -1
REMARK  0 active torsions:
REMARK  status: ('A' for Active; 'I' for Inactive)
ROOT
ATOM      1  C1  DEN d   1      -3.756  -6.000  -4.645  0.00  0.00     0.130 A 
ATOM      2  C2  DEN d   1      -4.275  -5.838  -6.000  0.00  0.00    -0.031 A 
ATOM      3  C3  DEN d   1      -5.250  -4.729  -5.985  0.00  0.00     0.027 A 
ATOM      4  C4  DEN d   1      -5.999  -3.252  -4.007  0.00  0.00     0.027 A 
ATOM      5  C5  DEN d   1      -5.844  -3.020  -2.659  0.00  0.00    -0.003 A 
ATOM      6  C6  DEN d   1      -5.015  -3.780  -1.877  0.00  0.00     0.001 A 
ATOM      7  C7  DEN d   1      -4.274  -4.781  -2.447  0.00  0.00     0.017 A 
ATOM      8  C8  DEN d   1      -4.430  -5.026  -3.805  0.00  0.00    -0.094 A 
ATOM      9  C9  DEN d   1      -5.264  -4.239  -4.581  0.00  0.00    -0.072 A 
ENDROOT
TORSDOF 0
ENDMDL
