MODEL 1
REMARK minimizedAffinity 13.9158745
REMARK minimizedRMSD -1
REMARK  0 active torsions:
REMARK  status: ('A' for Active; 'I' for Inactive)
ROOT
ATOM      1  C1  DEN d   1      -2.546   2.594   1.902  0.00  0.00     0.130 A 
ATOM      2  C2  DEN d   1      -1.939   2.342   0.598  0.00  0.00    -0.031 A 
ATOM      3  C3  DEN d   1      -2.801   2.952  -0.434  0.00  0.00     0.027 A 
ATOM      4  C4  DEN d   1      -5.005   4.260  -0.140  0.00  0.00     0.027 A 
ATOM      5  C5  DEN d   1      -5.923   4.721   0.777  0.00  0.00    -0.003 A 
ATOM      6  C6  DEN d   1      -5.799   4.478   2.120  0.00  0.00     0.001 A 
ATOM      7  C7  DEN d   1      -4.709   3.793   2.588  0.00  0.00     0.017 A 
ATOM      8  C8  DEN d   1      -3.783   3.319   1.668  0.00  0.00    -0.094 A 
ATOM      9  C9  DEN d   1      -3.919   3.586   0.316  0.00  0.00    -0.072 A 
ENDROOT
TORSDOF 0
ENDMDL
