MODEL 1
REMARK minimizedAffinity 3.34618378
REMARK minimizedRMSD -1
REMARK  0 active torsions:
REMARK  status: ('A' for Active; 'I' for Inactive)
ROOT
ATOM      1  C1  DEN d   1       3.782  -2.896  -4.024  0.00  0.00     0.130 A 
ATOM      2  C2  DEN d   1       2.416  -2.763  -3.524  0.00  0.00    -0.031 A 
ATOM      3  C3  DEN d   1       1.896  -1.451  -3.960  0.00  0.00     0.027 A 
ATOM      4  C4  DEN d   1       3.066   0.375  -5.357  0.00  0.00     0.027 A 
ATOM      5  C5  DEN d   1       4.235   0.720  -6.000  0.00  0.00    -0.003 A 
ATOM      6  C6  DEN d   1       5.336  -0.094  -6.000  0.00  0.00     0.001 A 
ATOM      7  C7  DEN d   1       5.278  -1.315  -5.382  0.00  0.00     0.017 A 
ATOM      8  C8  DEN d   1       4.106  -1.668  -4.726  0.00  0.00    -0.094 A 
ATOM      9  C9  DEN d   1       2.999  -0.836  -4.748  0.00  0.00    -0.072 A 
ENDROOT
TORSDOF 0
ENDMDL
