MODEL 1
REMARK minimizedAffinity 12.2086363
REMARK minimizedRMSD -1
REMARK  0 active torsions:
REMARK  status: ('A' for Active; 'I' for Inactive)
ROOT
ATOM      1  C1  DEN d   1       2.974   0.898   0.300  0.00  0.00     0.130 A 
ATOM      2  C2  DEN d   1       2.211   0.300   1.392  0.00  0.00    -0.031 A 
ATOM      3  C3  DEN d   1       1.152   1.251   1.783  0.00  0.00     0.027 A 
ATOM      4  C4  DEN d   1       0.619   3.578   0.806  0.00  0.00     0.027 A 
ATOM      5  C5  DEN d   1       0.999   4.518  -0.127  0.00  0.00    -0.003 A 
ATOM      6  C6  DEN d   1       2.076   4.333  -0.952  0.00  0.00     0.001 A 
ATOM      7  C7  DEN d   1       2.784   3.162  -0.893  0.00  0.00     0.017 A 
ATOM      8  C8  DEN d   1       2.411   2.212   0.050  0.00  0.00    -0.094 A 
ATOM      9  C9  DEN d   1       1.312   2.413   0.867  0.00  0.00    -0.072 A 
ENDROOT
TORSDOF 0
ENDMDL
