MODEL 1
REMARK minimizedAffinity 14.7972317
REMARK minimizedRMSD -1
REMARK  0 active torsions:
REMARK  status: ('A' for Active; 'I' for Inactive)
ROOT
ATOM      1  C1  DEN d   1       1.963  -2.205   3.266  0.00  0.00     0.130 A 
ATOM      2  C2  DEN d   1       1.390  -1.127   2.465  0.00  0.00    -0.031 A 
ATOM      3  C3  DEN d   1       0.997  -1.689   1.157  0.00  0.00     0.027 A 
ATOM      4  C4  DEN d   1       1.214  -4.113   0.302  0.00  0.00     0.027 A 
ATOM      5  C5  DEN d   1       1.649  -5.381   0.620  0.00  0.00    -0.003 A 
ATOM      6  C6  DEN d   1       2.245  -5.669   1.819  0.00  0.00     0.001 A 
ATOM      7  C7  DEN d   1       2.382  -4.686   2.763  0.00  0.00     0.017 A 
ATOM      8  C8  DEN d   1       1.952  -3.404   2.447  0.00  0.00    -0.094 A 
ATOM      9  C9  DEN d   1       1.341  -3.135   1.234  0.00  0.00    -0.072 A 
ENDROOT
TORSDOF 0
ENDMDL
