MODEL 1
REMARK minimizedAffinity 7.6830163
REMARK minimizedRMSD -1
REMARK  0 active torsions:
REMARK  status: ('A' for Active; 'I' for Inactive)
ROOT
ATOM      1  C1  DEN d   1       0.706  -2.394   2.306  0.00  0.00     0.130 A 
ATOM      2  C2  DEN d   1       1.029  -2.940   0.991  0.00  0.00    -0.031 A 
ATOM      3  C3  DEN d   1       1.980  -2.021   0.335  0.00  0.00     0.027 A 
ATOM      4  C4  DEN d   1       2.985   0.181   1.227  0.00  0.00     0.027 A 
ATOM      5  C5  DEN d   1       3.001   1.059   2.288  0.00  0.00    -0.003 A 
ATOM      6  C6  DEN d   1       2.233   0.867   3.406  0.00  0.00     0.001 A 
ATOM      7  C7  DEN d   1       1.451  -0.253   3.508  0.00  0.00     0.017 A 
ATOM      8  C8  DEN d   1       1.424  -1.139   2.439  0.00  0.00    -0.094 A 
ATOM      9  C9  DEN d   1       2.217  -0.933   1.323  0.00  0.00    -0.072 A 
ENDROOT
TORSDOF 0
ENDMDL
