MODEL 1
REMARK minimizedAffinity 15.657752
REMARK minimizedRMSD -1
REMARK  0 active torsions:
REMARK  status: ('A' for Active; 'I' for Inactive)
ROOT
ATOM      1  C1  DEN d   1       1.114  -2.573   3.925  0.00  0.00     0.130 A 
ATOM      2  C2  DEN d   1       2.449  -2.778   4.481  0.00  0.00    -0.031 A 
ATOM      3  C3  DEN d   1       3.385  -1.895   3.757  0.00  0.00     0.027 A 
ATOM      4  C4  DEN d   1       2.901  -0.235   1.844  0.00  0.00     0.027 A 
ATOM      5  C5  DEN d   1       1.919   0.279   1.025  0.00  0.00    -0.003 A 
ATOM      6  C6  DEN d   1       0.618  -0.143   1.092  0.00  0.00     0.001 A 
ATOM      7  C7  DEN d   1       0.253  -1.074   2.028  0.00  0.00     0.017 A 
ATOM      8  C8  DEN d   1       1.239  -1.603   2.852  0.00  0.00    -0.094 A 
ATOM      9  C9  DEN d   1       2.546  -1.154   2.777  0.00  0.00    -0.072 A 
ENDROOT
TORSDOF 0
ENDMDL
