MODEL 1
REMARK minimizedAffinity 4.67395067
REMARK minimizedRMSD -1
REMARK  0 active torsions:
REMARK  status: ('A' for Active; 'I' for Inactive)
ROOT
ATOM      1  C1  DEN d   1       3.758  -3.275  -4.867  0.00  0.00     0.130 A 
ATOM      2  C2  DEN d   1       4.915  -3.745  -5.625  0.00  0.00    -0.031 A 
ATOM      3  C3  DEN d   1       5.999  -2.755  -5.463  0.00  0.00     0.027 A 
ATOM      4  C4  DEN d   1       5.999  -0.555  -4.117  0.00  0.00     0.027 A 
ATOM      5  C5  DEN d   1       5.241   0.273  -3.318  0.00  0.00    -0.003 A 
ATOM      6  C6  DEN d   1       3.936  -0.005  -3.010  0.00  0.00     0.001 A 
ATOM      7  C7  DEN d   1       3.362  -1.162  -3.467  0.00  0.00     0.017 A 
ATOM      8  C8  DEN d   1       4.118  -1.998  -4.279  0.00  0.00    -0.094 A 
ATOM      9  C9  DEN d   1       5.440  -1.705  -4.569  0.00  0.00    -0.072 A 
ENDROOT
TORSDOF 0
ENDMDL
