MODEL 1
REMARK minimizedAffinity 4.58024979
REMARK minimizedRMSD -1
REMARK  0 active torsions:
REMARK  status: ('A' for Active; 'I' for Inactive)
ROOT
ATOM      1  C1  DEN d   1       4.034  -1.692  -3.900  0.00  0.00     0.130 A 
ATOM      2  C2  DEN d   1       4.336  -0.745  -4.970  0.00  0.00    -0.031 A 
ATOM      3  C3  DEN d   1       5.160  -1.442  -5.978  0.00  0.00     0.027 A 
ATOM      4  C4  DEN d   1       5.991  -3.884  -5.987  0.00  0.00     0.027 A 
ATOM      5  C5  DEN d   1       5.998  -5.069  -5.286  0.00  0.00    -0.003 A 
ATOM      6  C6  DEN d   1       5.386  -5.201  -4.068  0.00  0.00     0.001 A 
ATOM      7  C7  DEN d   1       4.701  -4.142  -3.534  0.00  0.00     0.017 A 
ATOM      8  C8  DEN d   1       4.695  -2.941  -4.232  0.00  0.00    -0.094 A 
ATOM      9  C9  DEN d   1       5.310  -2.831  -5.467  0.00  0.00    -0.072 A 
ENDROOT
TORSDOF 0
ENDMDL
