MODEL 1
REMARK minimizedAffinity 14.7351542
REMARK minimizedRMSD -1
REMARK  1 active torsions:
REMARK  status: ('A' for Active; 'I' for Inactive)
REMARK    1  A    between atoms: C1_2  and  C2_3 
ROOT
ATOM      1  C2  UNL d   1       2.182   0.042   2.757  0.00  0.00    -0.073 A 
ATOM      2  C3  UNL d   1       1.811   1.336   3.142  0.00  0.00    -0.002 A 
ATOM      3  C4  UNL d   1       2.113   2.428   2.327  0.00  0.00     0.004 A 
ATOM      4  C5  UNL d   1       2.781   2.237   1.117  0.00  0.00    -0.004 A 
ATOM      5  C6  UNL d   1       3.149   0.951   0.710  0.00  0.00    -0.075 A 
ATOM      6  C7  UNL d   1       3.870   0.729  -0.588  0.00  0.00     0.076 C 
ATOM      7  C8  UNL d   1       2.845  -0.140   1.535  0.00  0.00     0.001 A 
ENDROOT
BRANCH   1   8
ATOM      8  C1  UNL d   1       1.852  -1.140   3.630  0.00  0.00     0.053 C 
ATOM      9  C   UNL d   1       2.642  -2.378   3.236  0.00  0.00     0.018 C 
ENDBRANCH   1   8
TORSDOF 1
ENDMDL
