MODEL 1
REMARK minimizedAffinity 0.258608013
REMARK minimizedRMSD -1
REMARK  1 active torsions:
REMARK  status: ('A' for Active; 'I' for Inactive)
REMARK    1  A    between atoms: C1_2  and  C2_3 
ROOT
ATOM      1  C2  UNL d   1       2.194   1.913   1.155  0.00  0.00    -0.073 A 
ATOM      2  C3  UNL d   1       3.280   1.573   0.340  0.00  0.00    -0.002 A 
ATOM      3  C4  UNL d   1       3.986   0.391   0.563  0.00  0.00     0.004 A 
ATOM      4  C5  UNL d   1       3.610  -0.466   1.598  0.00  0.00    -0.004 A 
ATOM      5  C6  UNL d   1       2.521  -0.150   2.416  0.00  0.00    -0.075 A 
ATOM      6  C7  UNL d   1       2.106  -1.060   3.534  0.00  0.00     0.076 C 
ATOM      7  C8  UNL d   1       1.818   1.041   2.187  0.00  0.00     0.001 A 
ENDROOT
BRANCH   1   8
ATOM      8  C1  UNL d   1       1.424   3.186   0.913  0.00  0.00     0.053 C 
ATOM      9  C   UNL d   1       1.871   3.890  -0.358  0.00  0.00     0.018 C 
ENDBRANCH   1   8
TORSDOF 1
ENDMDL
