MODEL 1
REMARK minimizedAffinity 17.6325607
REMARK minimizedRMSD -1
REMARK  1 active torsions:
REMARK  status: ('A' for Active; 'I' for Inactive)
REMARK    1  A    between atoms: C1_2  and  C2_3 
ROOT
ATOM      1  C2  UNL d   1       3.390  -3.015   4.670  0.00  0.00    -0.073 A 
ATOM      2  C3  UNL d   1       3.274  -3.959   3.643  0.00  0.00    -0.002 A 
ATOM      3  C4  UNL d   1       2.695  -3.606   2.424  0.00  0.00     0.004 A 
ATOM      4  C5  UNL d   1       2.234  -2.306   2.215  0.00  0.00    -0.004 A 
ATOM      5  C6  UNL d   1       2.353  -1.346   3.225  0.00  0.00    -0.075 A 
ATOM      6  C7  UNL d   1       1.860   0.056   3.017  0.00  0.00     0.076 C 
ATOM      7  C8  UNL d   1       2.932  -1.709   4.448  0.00  0.00     0.001 A 
ENDROOT
BRANCH   1   8
ATOM      8  C1  UNL d   1       4.020  -3.390   5.987  0.00  0.00     0.053 C 
ATOM      9  C   UNL d   1       5.517  -3.122   5.999  0.00  0.00     0.018 C 
ENDBRANCH   1   8
TORSDOF 1
ENDMDL
