MODEL 1
REMARK minimizedAffinity 17.1618004
REMARK minimizedRMSD -1
REMARK  1 active torsions:
REMARK  status: ('A' for Active; 'I' for Inactive)
REMARK    1  A    between atoms: C1_2  and  C2_3 
ROOT
ATOM      1  C2  UNL d   1       2.059  -2.084   4.264  0.00  0.00    -0.073 A 
ATOM      2  C3  UNL d   1       2.847  -2.913   3.458  0.00  0.00    -0.002 A 
ATOM      3  C4  UNL d   1       3.398  -2.426   2.272  0.00  0.00     0.004 A 
ATOM      4  C5  UNL d   1       3.172  -1.105   1.884  0.00  0.00    -0.004 A 
ATOM      5  C6  UNL d   1       2.397  -0.258   2.682  0.00  0.00    -0.075 A 
ATOM      6  C7  UNL d   1       2.143   1.165   2.278  0.00  0.00     0.076 C 
ATOM      7  C8  UNL d   1       1.846  -0.755   3.871  0.00  0.00     0.001 A 
ENDROOT
BRANCH   1   8
ATOM      8  C1  UNL d   1       1.468  -2.604   5.549  0.00  0.00     0.053 C 
ATOM      9  C   UNL d   1       0.613  -3.841   5.324  0.00  0.00     0.018 C 
ENDBRANCH   1   8
TORSDOF 1
ENDMDL
