MODEL 1
REMARK minimizedAffinity 2.45048738
REMARK minimizedRMSD -1
REMARK  1 active torsions:
REMARK  status: ('A' for Active; 'I' for Inactive)
REMARK    1  A    between atoms: C1_2  and  C2_3 
ROOT
ATOM      1  C2  UNL d   1       5.997  -3.133  -4.787  0.00  0.00    -0.073 A 
ATOM      2  C3  UNL d   1       6.000  -3.837  -5.997  0.00  0.00    -0.002 A 
ATOM      3  C4  UNL d   1       5.999  -5.232  -6.000  0.00  0.00     0.004 A 
ATOM      4  C5  UNL d   1       5.987  -5.937  -4.796  0.00  0.00    -0.004 A 
ATOM      5  C6  UNL d   1       5.972  -5.252  -3.577  0.00  0.00    -0.075 A 
ATOM      6  C7  UNL d   1       5.962  -5.995  -2.274  0.00  0.00     0.076 C 
ATOM      7  C8  UNL d   1       5.976  -3.850  -3.582  0.00  0.00     0.001 A 
ENDROOT
BRANCH   1   8
ATOM      8  C1  UNL d   1       5.992  -1.626  -4.779  0.00  0.00     0.053 C 
ATOM      9  C   UNL d   1       5.290  -1.052  -5.999  0.00  0.00     0.018 C 
ENDBRANCH   1   8
TORSDOF 1
ENDMDL
