MODEL 1
REMARK minimizedAffinity 12.0870848
REMARK minimizedRMSD -1
REMARK  1 active torsions:
REMARK  status: ('A' for Active; 'I' for Inactive)
REMARK    1  A    between atoms: C1_2  and  C2_3 
ROOT
ATOM      1  C2  UNL d   1       1.393   4.065   1.651  0.00  0.00    -0.073 A 
ATOM      2  C3  UNL d   1       2.681   4.088   1.105  0.00  0.00    -0.002 A 
ATOM      3  C4  UNL d   1       2.865   4.334  -0.256  0.00  0.00     0.004 A 
ATOM      4  C5  UNL d   1       1.765   4.567  -1.083  0.00  0.00    -0.004 A 
ATOM      5  C6  UNL d   1       0.471   4.560  -0.553  0.00  0.00    -0.075 A 
ATOM      6  C7  UNL d   1      -0.723   4.806  -1.429  0.00  0.00     0.076 C 
ATOM      7  C8  UNL d   1       0.294   4.309   0.814  0.00  0.00     0.001 A 
ENDROOT
BRANCH   1   8
ATOM      8  C1  UNL d   1       1.189   3.805   3.122  0.00  0.00     0.053 C 
ATOM      9  C   UNL d   1       2.427   4.145   3.937  0.00  0.00     0.018 C 
ENDBRANCH   1   8
TORSDOF 1
ENDMDL
