MODEL 1
REMARK minimizedAffinity -0.990184605
REMARK minimizedRMSD -1
REMARK  1 active torsions:
REMARK  status: ('A' for Active; 'I' for Inactive)
REMARK    1  A    between atoms: C1_2  and  C2_3 
ROOT
ATOM      1  C2  UNL d   1       2.217  -2.580   3.560  0.00  0.00    -0.073 A 
ATOM      2  C3  UNL d   1       3.554  -2.628   3.970  0.00  0.00    -0.002 A 
ATOM      3  C4  UNL d   1       3.974  -3.586   4.894  0.00  0.00     0.004 A 
ATOM      4  C5  UNL d   1       3.065  -4.509   5.410  0.00  0.00    -0.004 A 
ATOM      5  C6  UNL d   1       1.727  -4.485   5.004  0.00  0.00    -0.075 A 
ATOM      6  C7  UNL d   1       0.737  -5.470   5.552  0.00  0.00     0.076 C 
ATOM      7  C8  UNL d   1       1.312  -3.518   4.078  0.00  0.00     0.001 A 
ENDROOT
BRANCH   1   8
ATOM      8  C1  UNL d   1       1.760  -1.552   2.558  0.00  0.00     0.053 C 
ATOM      9  C   UNL d   1       2.614  -0.295   2.602  0.00  0.00     0.018 C 
ENDBRANCH   1   8
TORSDOF 1
ENDMDL
