MODEL 1
REMARK minimizedAffinity 7.46405077
REMARK minimizedRMSD -1
REMARK  1 active torsions:
REMARK  status: ('A' for Active; 'I' for Inactive)
REMARK    1  A    between atoms: C1_2  and  C2_3 
ROOT
ATOM      1  C2  UNL d   1       2.586   0.806   1.997  0.00  0.00    -0.073 A 
ATOM      2  C3  UNL d   1       2.235  -0.512   1.680  0.00  0.00    -0.002 A 
ATOM      3  C4  UNL d   1       2.076  -1.461   2.691  0.00  0.00     0.004 A 
ATOM      4  C5  UNL d   1       2.257  -1.102   4.026  0.00  0.00    -0.004 A 
ATOM      5  C6  UNL d   1       2.596   0.213   4.363  0.00  0.00    -0.075 A 
ATOM      6  C7  UNL d   1       2.797   0.615   5.795  0.00  0.00     0.076 C 
ATOM      7  C8  UNL d   1       2.757   1.160   3.343  0.00  0.00     0.001 A 
ENDROOT
BRANCH   1   8
ATOM      8  C1  UNL d   1       2.753   1.835   0.909  0.00  0.00     0.053 C 
ATOM      9  C   UNL d   1       2.188   3.188   1.314  0.00  0.00     0.018 C 
ENDBRANCH   1   8
TORSDOF 1
ENDMDL
