MODEL 1
REMARK minimizedAffinity 4.48104811
REMARK minimizedRMSD -1
REMARK  1 active torsions:
REMARK  status: ('A' for Active; 'I' for Inactive)
REMARK    1  A    between atoms: C1_2  and  C2_3 
ROOT
ATOM      1  C2  UNL d   1       3.433   5.324  -1.274  0.00  0.00    -0.073 A 
ATOM      2  C3  UNL d   1       2.212   5.993  -1.128  0.00  0.00    -0.002 A 
ATOM      3  C4  UNL d   1       1.135   5.366  -0.500  0.00  0.00     0.004 A 
ATOM      4  C5  UNL d   1       1.270   4.068  -0.006  0.00  0.00    -0.004 A 
ATOM      5  C6  UNL d   1       2.485   3.388  -0.132  0.00  0.00    -0.075 A 
ATOM      6  C7  UNL d   1       2.645   1.991   0.392  0.00  0.00     0.076 C 
ATOM      7  C8  UNL d   1       3.561   4.023  -0.767  0.00  0.00     0.001 A 
ENDROOT
BRANCH   1   8
ATOM      8  C1  UNL d   1       4.600   6.000  -1.946  0.00  0.00     0.053 C 
ATOM      9  C   UNL d   1       4.466   5.997  -3.461  0.00  0.00     0.018 C 
ENDBRANCH   1   8
TORSDOF 1
ENDMDL
