MODEL 1
REMARK minimizedAffinity 9.07311535
REMARK minimizedRMSD -1
REMARK  1 active torsions:
REMARK  status: ('A' for Active; 'I' for Inactive)
REMARK    1  A    between atoms: C1_2  and  C2_3 
ROOT
ATOM      1  C2  UNL d   1       2.407   0.222   4.713  0.00  0.00    -0.073 A 
ATOM      2  C3  UNL d   1       2.112   0.660   3.417  0.00  0.00    -0.002 A 
ATOM      3  C4  UNL d   1       2.291  -0.192   2.326  0.00  0.00     0.004 A 
ATOM      4  C5  UNL d   1       2.758  -1.492   2.520  0.00  0.00    -0.004 A 
ATOM      5  C6  UNL d   1       3.047  -1.952   3.809  0.00  0.00    -0.075 A 
ATOM      6  C7  UNL d   1       3.553  -3.347   4.034  0.00  0.00     0.076 C 
ATOM      7  C8  UNL d   1       2.868  -1.089   4.899  0.00  0.00     0.001 A 
ENDROOT
BRANCH   1   8
ATOM      8  C1  UNL d   1       2.209   1.136   5.894  0.00  0.00     0.053 C 
ATOM      9  C   UNL d   1       3.312   2.177   5.999  0.00  0.00     0.018 C 
ENDBRANCH   1   8
TORSDOF 1
ENDMDL
