MODEL 1
REMARK minimizedAffinity -0.781247795
REMARK minimizedRMSD -1
REMARK  0 active torsions:
REMARK  status: ('A' for Active; 'I' for Inactive)
ROOT
ATOM      1  C   UNL d   1      -0.134  -1.654   1.576  0.00  0.00     0.124 A 
ATOM      2  C1  UNL d   1       1.184  -1.284   1.807  0.00  0.00     0.062 A 
ATOM      3  C2  UNL d   1       1.695  -0.121   1.236  0.00  0.00     0.162 A 
ATOM      4  C3  UNL d   1       0.887   0.680   0.429  0.00  0.00    -0.034 A 
ATOM      5  C4  UNL d   1      -0.436   0.301   0.201  0.00  0.00     0.162 A 
ATOM      6  C5  UNL d   1      -0.942  -0.861   0.773  0.00  0.00     0.062 A 
ATOM      7  F   UNL d   1      -2.216  -1.217   0.549  0.00  0.00    -0.097 F 
ATOM      8  F1  UNL d   1      -1.240   1.049  -0.570  0.00  0.00    -0.096 F 
ATOM      9  I   UNL d   1       1.648   2.419  -0.426  0.00  0.00    -0.060 I 
ATOM     10  F2  UNL d   1       2.972   0.212   1.477  0.00  0.00    -0.096 F 
ATOM     11  F3  UNL d   1       1.967  -2.048   2.581  0.00  0.00    -0.097 F 
ATOM     12  F4  UNL d   1      -0.623  -2.773   2.125  0.00  0.00    -0.092 F 
ENDROOT
TORSDOF 0
ENDMDL
