MODEL 1
REMARK minimizedAffinity -5.2087388
REMARK minimizedRMSD -1
REMARK  0 active torsions:
REMARK  status: ('A' for Active; 'I' for Inactive)
ROOT
ATOM      1  C   UNL d   1       3.239  -1.710   1.841  0.00  0.00     0.124 A 
ATOM      2  C1  UNL d   1       3.277  -0.820   0.776  0.00  0.00     0.062 A 
ATOM      3  C2  UNL d   1       2.101  -0.254   0.294  0.00  0.00     0.162 A 
ATOM      4  C3  UNL d   1       0.875  -0.575   0.877  0.00  0.00    -0.034 A 
ATOM      5  C4  UNL d   1       0.844  -1.471   1.947  0.00  0.00     0.162 A 
ATOM      6  C5  UNL d   1       2.023  -2.034   2.425  0.00  0.00     0.062 A 
ATOM      7  F   UNL d   1       1.983  -2.894   3.454  0.00  0.00    -0.097 F 
ATOM      8  F1  UNL d   1      -0.318  -1.802   2.531  0.00  0.00    -0.096 F 
ATOM      9  I   UNL d   1      -0.887   0.270   0.159  0.00  0.00    -0.060 I 
ATOM     10  F2  UNL d   1       2.168   0.603  -0.736  0.00  0.00    -0.096 F 
ATOM     11  F3  UNL d   1       4.451  -0.505   0.210  0.00  0.00    -0.097 F 
ATOM     12  F4  UNL d   1       4.372  -2.254   2.302  0.00  0.00    -0.092 F 
ENDROOT
TORSDOF 0
ENDMDL
