MODEL 1
REMARK minimizedAffinity 8.26849365
REMARK minimizedRMSD -1
REMARK  0 active torsions:
REMARK  status: ('A' for Active; 'I' for Inactive)
ROOT
ATOM      1  C   UNL d   1       1.593  -0.227   1.775  0.00  0.00     0.124 A 
ATOM      2  C1  UNL d   1       1.679   0.976   1.088  0.00  0.00     0.062 A 
ATOM      3  C2  UNL d   1       0.719   1.309   0.137  0.00  0.00     0.162 A 
ATOM      4  C3  UNL d   1      -0.338   0.439  -0.130  0.00  0.00    -0.034 A 
ATOM      5  C4  UNL d   1      -0.417  -0.770   0.565  0.00  0.00     0.162 A 
ATOM      6  C5  UNL d   1       0.545  -1.098   1.514  0.00  0.00     0.062 A 
ATOM      7  F   UNL d   1       0.461  -2.260   2.177  0.00  0.00    -0.097 F 
ATOM      8  F1  UNL d   1      -1.420  -1.630   0.332  0.00  0.00    -0.096 F 
ATOM      9  I   UNL d   1      -1.777   0.933  -1.550  0.00  0.00    -0.060 I 
ATOM     10  F2  UNL d   1       0.827   2.478  -0.512  0.00  0.00    -0.096 F 
ATOM     11  F3  UNL d   1       2.691   1.819   1.338  0.00  0.00    -0.097 F 
ATOM     12  F4  UNL d   1       2.520  -0.545   2.688  0.00  0.00    -0.092 F 
ENDROOT
TORSDOF 0
ENDMDL
