MODEL 1
REMARK minimizedAffinity -5.780334
REMARK minimizedRMSD -1
REMARK  0 active torsions:
REMARK  status: ('A' for Active; 'I' for Inactive)
ROOT
ATOM      1  C   UNL d   1       2.187  -0.561   1.188  0.00  0.00     0.124 A 
ATOM      2  C1  UNL d   1       1.219  -1.542   1.358  0.00  0.00     0.062 A 
ATOM      3  C2  UNL d   1      -0.063  -1.356   0.850  0.00  0.00     0.162 A 
ATOM      4  C3  UNL d   1      -0.386  -0.184   0.165  0.00  0.00    -0.034 A 
ATOM      5  C4  UNL d   1       0.592   0.798  -0.001  0.00  0.00     0.162 A 
ATOM      6  C5  UNL d   1       1.873   0.607   0.509  0.00  0.00     0.062 A 
ATOM      7  F   UNL d   1       2.806   1.556   0.343  0.00  0.00    -0.097 F 
ATOM      8  F1  UNL d   1       0.316   1.937  -0.654  0.00  0.00    -0.096 F 
ATOM      9  I   UNL d   1      -2.302   0.098  -0.596  0.00  0.00    -0.060 I 
ATOM     10  F2  UNL d   1      -0.978  -2.320   1.030  0.00  0.00    -0.096 F 
ATOM     11  F3  UNL d   1       1.520  -2.672   2.015  0.00  0.00    -0.097 F 
ATOM     12  F4  UNL d   1       3.419  -0.743   1.679  0.00  0.00    -0.092 F 
ENDROOT
TORSDOF 0
ENDMDL
