MODEL 1
REMARK minimizedAffinity -4.66102839
REMARK minimizedRMSD -1
REMARK  1 active torsions:
REMARK  status: ('A' for Active; 'I' for Inactive)
REMARK    1  A    between atoms: C1_2  and  C2_3 
ROOT
ATOM      1  C2  UNL d   1       0.170   0.226  -0.408  0.00  0.00    -0.073 A 
ATOM      2  C3  UNL d   1      -0.800   0.087   0.592  0.00  0.00    -0.002 A 
ATOM      3  C4  UNL d   1      -1.278   1.208   1.271  0.00  0.00     0.004 A 
ATOM      4  C5  UNL d   1      -0.797   2.479   0.954  0.00  0.00    -0.004 A 
ATOM      5  C6  UNL d   1       0.163   2.639  -0.050  0.00  0.00    -0.075 A 
ATOM      6  C7  UNL d   1       0.692   3.999  -0.401  0.00  0.00     0.076 C 
ATOM      7  C8  UNL d   1       0.641   1.508  -0.726  0.00  0.00     0.001 A 
ENDROOT
BRANCH   1   8
ATOM      8  C1  UNL d   1       0.685  -0.981  -1.148  0.00  0.00     0.053 C 
ATOM      9  C   UNL d   1      -0.445  -1.872  -1.641  0.00  0.00     0.018 C 
ENDBRANCH   1   8
TORSDOF 1
ENDMDL
