MODEL 1
REMARK minimizedAffinity -0.334590882
REMARK minimizedRMSD -1
REMARK  1 active torsions:
REMARK  status: ('A' for Active; 'I' for Inactive)
REMARK    1  A    between atoms: C1_2  and  C2_3 
ROOT
ATOM      1  C2  UNL d   1       0.315  -1.765  -1.424  0.00  0.00    -0.073 A 
ATOM      2  C3  UNL d   1      -0.445  -2.226  -0.343  0.00  0.00    -0.002 A 
ATOM      3  C4  UNL d   1      -0.696  -1.393   0.748  0.00  0.00     0.004 A 
ATOM      4  C5  UNL d   1      -0.197  -0.091   0.766  0.00  0.00    -0.004 A 
ATOM      5  C6  UNL d   1       0.554   0.392  -0.310  0.00  0.00    -0.075 A 
ATOM      6  C7  UNL d   1       1.100   1.790  -0.305  0.00  0.00     0.076 C 
ATOM      7  C8  UNL d   1       0.804  -0.452  -1.401  0.00  0.00     0.001 A 
ENDROOT
BRANCH   1   8
ATOM      8  C1  UNL d   1       0.583  -2.659  -2.607  0.00  0.00     0.053 C 
ATOM      9  C   UNL d   1      -0.666  -3.403  -3.055  0.00  0.00     0.018 C 
ENDBRANCH   1   8
TORSDOF 1
ENDMDL
