MODEL 1
REMARK minimizedAffinity -1.35951221
REMARK minimizedRMSD -1
REMARK  1 active torsions:
REMARK  status: ('A' for Active; 'I' for Inactive)
REMARK    1  A    between atoms: C1_2  and  C2_3 
ROOT
ATOM      1  C2  UNL d   1       0.311  -0.976  -0.371  0.00  0.00    -0.073 A 
ATOM      2  C3  UNL d   1       1.498  -1.504   0.148  0.00  0.00    -0.002 A 
ATOM      3  C4  UNL d   1       2.623  -0.692   0.302  0.00  0.00     0.004 A 
ATOM      4  C5  UNL d   1       2.570   0.656  -0.054  0.00  0.00    -0.004 A 
ATOM      5  C6  UNL d   1       1.388   1.205  -0.564  0.00  0.00    -0.075 A 
ATOM      6  C7  UNL d   1       1.316   2.652  -0.953  0.00  0.00     0.076 C 
ATOM      7  C8  UNL d   1       0.264   0.382  -0.718  0.00  0.00     0.001 A 
ENDROOT
BRANCH   1   8
ATOM      8  C1  UNL d   1      -0.908  -1.847  -0.534  0.00  0.00     0.053 C 
ATOM      9  C   UNL d   1      -0.609  -3.099  -1.343  0.00  0.00     0.018 C 
ENDBRANCH   1   8
TORSDOF 1
ENDMDL
