MODEL 1
REMARK minimizedAffinity 0.272957087
REMARK minimizedRMSD -1
REMARK  1 active torsions:
REMARK  status: ('A' for Active; 'I' for Inactive)
REMARK    1  A    between atoms: C1_2  and  C2_3 
ROOT
ATOM      1  C2  UNL d   1       0.344  -2.336  -0.923  0.00  0.00    -0.073 A 
ATOM      2  C3  UNL d   1       1.096  -2.762  -2.024  0.00  0.00    -0.002 A 
ATOM      3  C4  UNL d   1       0.561  -3.676  -2.933  0.00  0.00     0.004 A 
ATOM      4  C5  UNL d   1      -0.732  -4.168  -2.754  0.00  0.00    -0.004 A 
ATOM      5  C6  UNL d   1      -1.504  -3.746  -1.667  0.00  0.00    -0.075 A 
ATOM      6  C7  UNL d   1      -2.896  -4.267  -1.460  0.00  0.00     0.076 C 
ATOM      7  C8  UNL d   1      -0.959  -2.829  -0.758  0.00  0.00     0.001 A 
ENDROOT
BRANCH   1   8
ATOM      8  C1  UNL d   1       0.915  -1.345   0.057  0.00  0.00     0.053 C 
ATOM      9  C   UNL d   1       0.225   0.007  -0.033  0.00  0.00     0.018 C 
ENDBRANCH   1   8
TORSDOF 1
ENDMDL
