MODEL 1
REMARK minimizedAffinity -1.76347482
REMARK minimizedRMSD -1
REMARK  1 active torsions:
REMARK  status: ('A' for Active; 'I' for Inactive)
REMARK    1  A    between atoms: C1_2  and  C2_3 
ROOT
ATOM      1  C2  UNL d   1       0.084  -2.103  -0.618  0.00  0.00    -0.073 A 
ATOM      2  C3  UNL d   1       0.877  -2.339  -1.747  0.00  0.00    -0.002 A 
ATOM      3  C4  UNL d   1       0.414  -3.162  -2.774  0.00  0.00     0.004 A 
ATOM      4  C5  UNL d   1      -0.847  -3.751  -2.687  0.00  0.00    -0.004 A 
ATOM      5  C6  UNL d   1      -1.660  -3.518  -1.573  0.00  0.00    -0.075 A 
ATOM      6  C7  UNL d   1      -3.018  -4.146  -1.463  0.00  0.00     0.076 C 
ATOM      7  C8  UNL d   1      -1.187  -2.693  -0.544  0.00  0.00     0.001 A 
ENDROOT
BRANCH   1   8
ATOM      8  C1  UNL d   1       0.577  -1.210   0.491  0.00  0.00     0.053 C 
ATOM      9  C   UNL d   1       1.580  -0.183  -0.009  0.00  0.00     0.018 C 
ENDBRANCH   1   8
TORSDOF 1
ENDMDL
