MODEL 1
REMARK minimizedAffinity -5.48557281
REMARK minimizedRMSD -1
REMARK  1 active torsions:
REMARK  status: ('A' for Active; 'I' for Inactive)
REMARK    1  A    between atoms: C1_2  and  C2_3 
ROOT
ATOM      1  C2  UNL d   1      -0.089  -0.281  -0.528  0.00  0.00    -0.073 A 
ATOM      2  C3  UNL d   1       1.306  -0.231  -0.427  0.00  0.00    -0.002 A 
ATOM      3  C4  UNL d   1       1.937   0.920   0.047  0.00  0.00     0.004 A 
ATOM      4  C5  UNL d   1       1.181   2.027   0.431  0.00  0.00    -0.004 A 
ATOM      5  C6  UNL d   1      -0.215   1.992   0.349  0.00  0.00    -0.075 A 
ATOM      6  C7  UNL d   1      -1.042   3.175   0.757  0.00  0.00     0.076 C 
ATOM      7  C8  UNL d   1      -0.841   0.834  -0.130  0.00  0.00     0.001 A 
ENDROOT
BRANCH   1   8
ATOM      8  C1  UNL d   1      -0.776  -1.524  -1.033  0.00  0.00     0.053 C 
ATOM      9  C   UNL d   1      -0.401  -1.836  -2.474  0.00  0.00     0.018 C 
ENDBRANCH   1   8
TORSDOF 1
ENDMDL
