MODEL 1
REMARK minimizedAffinity -0.188784257
REMARK minimizedRMSD -1
REMARK  1 active torsions:
REMARK  status: ('A' for Active; 'I' for Inactive)
REMARK    1  A    between atoms: C1_2  and  C2_3 
ROOT
ATOM      1  C2  UNL d   1      -0.482  -1.080  -0.258  0.00  0.00    -0.073 A 
ATOM      2  C3  UNL d   1      -0.619  -0.145  -1.290  0.00  0.00    -0.002 A 
ATOM      3  C4  UNL d   1      -0.755  -0.569  -2.612  0.00  0.00     0.004 A 
ATOM      4  C5  UNL d   1      -0.763  -1.931  -2.915  0.00  0.00    -0.004 A 
ATOM      5  C6  UNL d   1      -0.639  -2.881  -1.896  0.00  0.00    -0.075 A 
ATOM      6  C7  UNL d   1      -0.643  -4.349  -2.206  0.00  0.00     0.076 C 
ATOM      7  C8  UNL d   1      -0.500  -2.447  -0.571  0.00  0.00     0.001 A 
ENDROOT
BRANCH   1   8
ATOM      8  C1  UNL d   1      -0.341  -0.627   1.172  0.00  0.00     0.053 C 
ATOM      9  C   UNL d   1      -1.449   0.332   1.578  0.00  0.00     0.018 C 
ENDBRANCH   1   8
TORSDOF 1
ENDMDL
