MODEL 1
REMARK minimizedAffinity -1.63387859
REMARK minimizedRMSD -1
REMARK  1 active torsions:
REMARK  status: ('A' for Active; 'I' for Inactive)
REMARK    1  A    between atoms: C1_2  and  C2_3 
ROOT
ATOM      1  C2  UNL d   1      -0.157   0.314  -0.040  0.00  0.00    -0.073 A 
ATOM      2  C3  UNL d   1       1.139   0.218   0.481  0.00  0.00    -0.002 A 
ATOM      3  C4  UNL d   1       1.791  -1.015   0.525  0.00  0.00     0.004 A 
ATOM      4  C5  UNL d   1       1.158  -2.161   0.044  0.00  0.00    -0.004 A 
ATOM      5  C6  UNL d   1      -0.132  -2.083  -0.491  0.00  0.00    -0.075 A 
ATOM      6  C7  UNL d   1      -0.827  -3.308  -1.010  0.00  0.00     0.076 C 
ATOM      7  C8  UNL d   1      -0.781  -0.842  -0.529  0.00  0.00     0.001 A 
ENDROOT
BRANCH   1   8
ATOM      8  C1  UNL d   1      -0.863   1.644  -0.096  0.00  0.00     0.053 C 
ATOM      9  C   UNL d   1      -0.519   2.523   1.097  0.00  0.00     0.018 C 
ENDBRANCH   1   8
TORSDOF 1
ENDMDL
