MODEL 1
REMARK minimizedAffinity -4.65207148
REMARK minimizedRMSD -1
REMARK  1 active torsions:
REMARK  status: ('A' for Active; 'I' for Inactive)
REMARK    1  A    between atoms: C1_2  and  C2_3 
ROOT
ATOM      1  C2  UNL d   1       0.056  -1.200  -0.625  0.00  0.00    -0.073 A 
ATOM      2  C3  UNL d   1       0.354  -1.632  -1.923  0.00  0.00    -0.002 A 
ATOM      3  C4  UNL d   1      -0.259  -2.772  -2.445  0.00  0.00     0.004 A 
ATOM      4  C5  UNL d   1      -1.179  -3.487  -1.678  0.00  0.00    -0.004 A 
ATOM      5  C6  UNL d   1      -1.499  -3.065  -0.384  0.00  0.00    -0.075 A 
ATOM      6  C7  UNL d   1      -2.485  -3.824   0.454  0.00  0.00     0.076 C 
ATOM      7  C8  UNL d   1      -0.877  -1.921   0.134  0.00  0.00     0.001 A 
ENDROOT
BRANCH   1   8
ATOM      8  C1  UNL d   1       0.711   0.034  -0.060  0.00  0.00     0.053 C 
ATOM      9  C   UNL d   1      -0.217   1.238  -0.096  0.00  0.00     0.018 C 
ENDBRANCH   1   8
TORSDOF 1
ENDMDL
