MODEL 1
REMARK minimizedAffinity -0.215113252
REMARK minimizedRMSD -1
REMARK  1 active torsions:
REMARK  status: ('A' for Active; 'I' for Inactive)
REMARK    1  A    between atoms: C1_2  and  C2_3 
ROOT
ATOM      1  C2  UNL d   1      -2.211  -3.444  -1.260  0.00  0.00    -0.073 A 
ATOM      2  C3  UNL d   1      -1.739  -3.386  -2.576  0.00  0.00    -0.002 A 
ATOM      3  C4  UNL d   1      -0.472  -2.870  -2.849  0.00  0.00     0.004 A 
ATOM      4  C5  UNL d   1       0.338  -2.413  -1.810  0.00  0.00    -0.004 A 
ATOM      5  C6  UNL d   1      -0.110  -2.473  -0.487  0.00  0.00    -0.075 A 
ATOM      6  C7  UNL d   1       0.749  -1.983   0.642  0.00  0.00     0.076 C 
ATOM      7  C8  UNL d   1      -1.385  -2.990  -0.221  0.00  0.00     0.001 A 
ENDROOT
BRANCH   1   8
ATOM      8  C1  UNL d   1      -3.576  -4.007  -0.959  0.00  0.00     0.053 C 
ATOM      9  C   UNL d   1      -3.659  -4.581   0.446  0.00  0.00     0.018 C 
ENDBRANCH   1   8
TORSDOF 1
ENDMDL
