MODEL 1
REMARK minimizedAffinity -2.94203949
REMARK minimizedRMSD -1
REMARK  1 active torsions:
REMARK  status: ('A' for Active; 'I' for Inactive)
REMARK    1  A    between atoms: C1_2  and  C2_3 
ROOT
ATOM      1  C2  UNL d   1      -0.714   0.701   0.563  0.00  0.00    -0.073 A 
ATOM      2  C3  UNL d   1       0.030   1.447  -0.358  0.00  0.00    -0.002 A 
ATOM      3  C4  UNL d   1       0.368   2.773  -0.083  0.00  0.00     0.004 A 
ATOM      4  C5  UNL d   1      -0.028   3.363   1.118  0.00  0.00    -0.004 A 
ATOM      5  C6  UNL d   1      -0.762   2.630   2.056  0.00  0.00    -0.075 A 
ATOM      6  C7  UNL d   1      -1.197   3.251   3.351  0.00  0.00     0.076 C 
ATOM      7  C8  UNL d   1      -1.100   1.301   1.771  0.00  0.00     0.001 A 
ENDROOT
BRANCH   1   8
ATOM      8  C1  UNL d   1      -1.076  -0.732   0.272  0.00  0.00     0.053 C 
ATOM      9  C   UNL d   1       0.136  -1.555  -0.133  0.00  0.00     0.018 C 
ENDBRANCH   1   8
TORSDOF 1
ENDMDL
