MODEL 1
REMARK minimizedAffinity -4.77124166
REMARK minimizedRMSD -1
REMARK  1 active torsions:
REMARK  status: ('A' for Active; 'I' for Inactive)
REMARK    1  A    between atoms: C1_2  and  C2_3 
ROOT
ATOM      1  C2  UNL d   1       1.154   2.051   1.160  0.00  0.00    -0.073 A 
ATOM      2  C3  UNL d   1      -0.111   2.647   1.095  0.00  0.00    -0.002 A 
ATOM      3  C4  UNL d   1      -1.242   1.873   0.829  0.00  0.00     0.004 A 
ATOM      4  C5  UNL d   1      -1.121   0.498   0.632  0.00  0.00    -0.004 A 
ATOM      5  C6  UNL d   1       0.133  -0.118   0.704  0.00  0.00    -0.075 A 
ATOM      6  C7  UNL d   1       0.280  -1.596   0.492  0.00  0.00     0.076 C 
ATOM      7  C8  UNL d   1       1.264   0.666   0.970  0.00  0.00     0.001 A 
ENDROOT
BRANCH   1   8
ATOM      8  C1  UNL d   1       2.376   2.881   1.455  0.00  0.00     0.053 C 
ATOM      9  C   UNL d   1       2.907   2.637   2.859  0.00  0.00     0.018 C 
ENDBRANCH   1   8
TORSDOF 1
ENDMDL
