MODEL 1
REMARK minimizedAffinity -2.67381597
REMARK minimizedRMSD -1
REMARK  3 active torsions:
REMARK  status: ('A' for Active; 'I' for Inactive)
REMARK    1  A    between atoms: C3'_2  and  C2'_3 
REMARK    2  A    between atoms: C2'_3  and  C1'_4 
REMARK    3  A    between atoms: C1'_4  and  C1_5 
ROOT
ATOM      1  C1  N4B d   1       1.735  -1.885   0.420  0.00  0.00    -0.075 A 
ATOM      2  C2  N4B d   1       1.310  -0.668   0.996  0.00  0.00     0.002 A 
ATOM      3  C3  N4B d   1      -0.031  -0.407   1.138  0.00  0.00     0.002 A 
ATOM      4  C4  N4B d   1      -0.961  -1.336   0.695  0.00  0.00    -0.004 A 
ATOM      5  C5  N4B d   1      -0.541  -2.520   0.162  0.00  0.00     0.002 A 
ATOM      6  C6  N4B d   1       0.803  -2.797   0.018  0.00  0.00     0.002 A 
ENDROOT
BRANCH   1   7
ATOM      7  C1' N4B d   1       3.189  -2.178   0.166  0.00  0.00     0.057 C 
BRANCH   7   8
ATOM      8  C2' N4B d   1       3.354  -3.663  -0.143  0.00  0.00     0.009 C 
BRANCH   8   9
ATOM      9  C3' N4B d   1       4.796  -4.020  -0.460  0.00  0.00     0.004 C 
ATOM     10  C4' N4B d   1       5.137  -5.435  -0.098  0.00  0.00     0.003 C 
ENDBRANCH   8   9
ENDBRANCH   7   8
ENDBRANCH   1   7
TORSDOF 3
ENDMDL
