MODEL 1
REMARK minimizedAffinity -3.50785804
REMARK minimizedRMSD -1
REMARK  3 active torsions:
REMARK  status: ('A' for Active; 'I' for Inactive)
REMARK    1  A    between atoms: C3'_2  and  C2'_3 
REMARK    2  A    between atoms: C2'_3  and  C1'_4 
REMARK    3  A    between atoms: C1'_4  and  C1_5 
ROOT
ATOM      1  C1  N4B d   1      -0.304  -0.124   0.985  0.00  0.00    -0.075 A 
ATOM      2  C2  N4B d   1      -0.275  -1.092  -0.043  0.00  0.00     0.002 A 
ATOM      3  C3  N4B d   1       0.895  -1.750  -0.334  0.00  0.00     0.002 A 
ATOM      4  C4  N4B d   1       2.048  -1.444   0.373  0.00  0.00    -0.004 A 
ATOM      5  C5  N4B d   1       2.006  -0.526   1.382  0.00  0.00     0.002 A 
ATOM      6  C6  N4B d   1       0.836   0.140   1.688  0.00  0.00     0.002 A 
ENDROOT
BRANCH   1   7
ATOM      7  C1' N4B d   1      -1.539   0.682   1.282  0.00  0.00     0.057 C 
BRANCH   7   8
ATOM      8  C2' N4B d   1      -2.644   0.283   0.308  0.00  0.00     0.009 C 
BRANCH   8   9
ATOM      9  C3' N4B d   1      -3.462   1.481  -0.144  0.00  0.00     0.004 C 
ATOM     10  C4' N4B d   1      -3.061   2.751   0.544  0.00  0.00     0.003 C 
ENDBRANCH   8   9
ENDBRANCH   7   8
ENDBRANCH   1   7
TORSDOF 3
ENDMDL
