MODEL 1
REMARK minimizedAffinity 3.93537116
REMARK minimizedRMSD -1
REMARK  3 active torsions:
REMARK  status: ('A' for Active; 'I' for Inactive)
REMARK    1  A    between atoms: C3'_2  and  C2'_3 
REMARK    2  A    between atoms: C2'_3  and  C1'_4 
REMARK    3  A    between atoms: C1'_4  and  C1_5 
ROOT
ATOM      1  C1  N4B d   1       1.375  -2.163  -0.033  0.00  0.00    -0.075 A 
ATOM      2  C2  N4B d   1       0.265  -3.037  -0.048  0.00  0.00     0.002 A 
ATOM      3  C3  N4B d   1      -0.943  -2.622   0.457  0.00  0.00     0.002 A 
ATOM      4  C4  N4B d   1      -1.060  -1.350   0.997  0.00  0.00    -0.004 A 
ATOM      5  C5  N4B d   1       0.009  -0.503   0.985  0.00  0.00     0.002 A 
ATOM      6  C6  N4B d   1       1.229  -0.906   0.477  0.00  0.00     0.002 A 
ENDROOT
BRANCH   1   7
ATOM      7  C1' N4B d   1       2.738  -2.601  -0.495  0.00  0.00     0.057 C 
BRANCH   7   8
ATOM      8  C2' N4B d   1       2.818  -4.124  -0.443  0.00  0.00     0.009 C 
BRANCH   8   9
ATOM      9  C3' N4B d   1       4.222  -4.629  -0.729  0.00  0.00     0.004 C 
ATOM     10  C4' N4B d   1       4.471  -6.000  -0.174  0.00  0.00     0.003 C 
ENDBRANCH   8   9
ENDBRANCH   7   8
ENDBRANCH   1   7
TORSDOF 3
ENDMDL
