MODEL 1
REMARK minimizedAffinity -2.97321987
REMARK minimizedRMSD -1
REMARK  3 active torsions:
REMARK  status: ('A' for Active; 'I' for Inactive)
REMARK    1  A    between atoms: C3'_2  and  C2'_3 
REMARK    2  A    between atoms: C2'_3  and  C1'_4 
REMARK    3  A    between atoms: C1'_4  and  C1_5 
ROOT
ATOM      1  C1  N4B d   1      -0.605  -0.888   0.774  0.00  0.00    -0.075 A 
ATOM      2  C2  N4B d   1      -0.357  -2.012  -0.044  0.00  0.00     0.002 A 
ATOM      3  C3  N4B d   1       0.928  -2.318  -0.420  0.00  0.00     0.002 A 
ATOM      4  C4  N4B d   1       1.975  -1.507  -0.007  0.00  0.00    -0.004 A 
ATOM      5  C5  N4B d   1       1.730  -0.438   0.804  0.00  0.00     0.002 A 
ATOM      6  C6  N4B d   1       0.444  -0.121   1.193  0.00  0.00     0.002 A 
ENDROOT
BRANCH   1   7
ATOM      7  C1' N4B d   1      -2.001  -0.464   1.139  0.00  0.00     0.057 C 
BRANCH   7   8
ATOM      8  C2' N4B d   1      -1.942   0.867   1.884  0.00  0.00     0.009 C 
BRANCH   8   9
ATOM      9  C3' N4B d   1      -3.047   1.812   1.447  0.00  0.00     0.004 C 
ATOM     10  C4' N4B d   1      -3.806   1.308   0.256  0.00  0.00     0.003 C 
ENDBRANCH   8   9
ENDBRANCH   7   8
ENDBRANCH   1   7
TORSDOF 3
ENDMDL
