MODEL 1
REMARK minimizedAffinity 5.62548304
REMARK minimizedRMSD -1
REMARK  3 active torsions:
REMARK  status: ('A' for Active; 'I' for Inactive)
REMARK    1  A    between atoms: C3'_2  and  C2'_3 
REMARK    2  A    between atoms: C2'_3  and  C1'_4 
REMARK    3  A    between atoms: C1'_4  and  C1_5 
ROOT
ATOM      1  C1  N4B d   1       0.475  -1.542  -0.020  0.00  0.00    -0.075 A 
ATOM      2  C2  N4B d   1       1.442  -0.682   0.543  0.00  0.00     0.002 A 
ATOM      3  C3  N4B d   1       1.096   0.163   1.570  0.00  0.00     0.002 A 
ATOM      4  C4  N4B d   1      -0.211   0.177   2.034  0.00  0.00    -0.004 A 
ATOM      5  C5  N4B d   1      -1.133  -0.675   1.501  0.00  0.00     0.002 A 
ATOM      6  C6  N4B d   1      -0.798  -1.532   0.472  0.00  0.00     0.002 A 
ENDROOT
BRANCH   1   7
ATOM      7  C1' N4B d   1       0.786  -2.421  -1.201  0.00  0.00     0.057 C 
BRANCH   7   8
ATOM      8  C2' N4B d   1       0.366  -1.706  -2.482  0.00  0.00     0.009 C 
BRANCH   8   9
ATOM      9  C3' N4B d   1       0.148  -2.677  -3.629  0.00  0.00     0.004 C 
ATOM     10  C4' N4B d   1       1.149  -3.794  -3.643  0.00  0.00     0.003 C 
ENDBRANCH   8   9
ENDBRANCH   7   8
ENDBRANCH   1   7
TORSDOF 3
ENDMDL
