MODEL 1
REMARK minimizedAffinity -4.92449093
REMARK minimizedRMSD -1
REMARK  3 active torsions:
REMARK  status: ('A' for Active; 'I' for Inactive)
REMARK    1  A    between atoms: C3'_2  and  C2'_3 
REMARK    2  A    between atoms: C2'_3  and  C1'_4 
REMARK    3  A    between atoms: C1'_4  and  C1_5 
ROOT
ATOM      1  C1  N4B d   1      -1.236  -1.043   1.641  0.00  0.00    -0.075 A 
ATOM      2  C2  N4B d   1      -2.097  -1.899   0.920  0.00  0.00     0.002 A 
ATOM      3  C3  N4B d   1      -1.575  -2.926   0.171  0.00  0.00     0.002 A 
ATOM      4  C4  N4B d   1      -0.201  -3.103   0.113  0.00  0.00    -0.004 A 
ATOM      5  C5  N4B d   1       0.622  -2.287   0.833  0.00  0.00     0.002 A 
ATOM      6  C6  N4B d   1       0.111  -1.254   1.593  0.00  0.00     0.002 A 
ENDROOT
BRANCH   1   7
ATOM      7  C1' N4B d   1      -1.755   0.145   2.404  0.00  0.00     0.057 C 
BRANCH   7   8
ATOM      8  C2' N4B d   1      -2.071   1.271   1.425  0.00  0.00     0.009 C 
BRANCH   8   9
ATOM      9  C3' N4B d   1      -3.005   0.814   0.317  0.00  0.00     0.004 C 
ATOM     10  C4' N4B d   1      -3.935   1.897  -0.142  0.00  0.00     0.003 C 
ENDBRANCH   8   9
ENDBRANCH   7   8
ENDBRANCH   1   7
TORSDOF 3
ENDMDL
