MODEL 1
REMARK minimizedAffinity 9.04722309
REMARK minimizedRMSD -1
REMARK  0 active torsions:
REMARK  status: ('A' for Active; 'I' for Inactive)
ROOT
ATOM      1  C   UNL d   1      -1.118  -5.979  -6.000  0.00  0.00     0.077 C 
ATOM      2  C1  UNL d   1      -0.868  -5.695  -4.549  0.00  0.00    -0.074 A 
ATOM      3  C2  UNL d   1       0.362  -6.000  -3.957  0.00  0.00    -0.005 A 
ATOM      4  C3  UNL d   1       0.582  -5.720  -2.609  0.00  0.00     0.006 A 
ATOM      5  C4  UNL d   1      -0.423  -5.134  -1.839  0.00  0.00    -0.005 A 
ATOM      6  C5  UNL d   1      -1.659  -4.821  -2.413  0.00  0.00    -0.074 A 
ATOM      7  C6  UNL d   1      -2.747  -4.181  -1.603  0.00  0.00     0.077 C 
ATOM      8  C7  UNL d   1      -1.871  -5.098  -3.771  0.00  0.00    -0.001 A 
ENDROOT
TORSDOF 0
ENDMDL
