MODEL 1
REMARK minimizedAffinity -1.5340904
REMARK minimizedRMSD -1
REMARK  0 active torsions:
REMARK  status: ('A' for Active; 'I' for Inactive)
ROOT
ATOM      1  C   UNL d   1      -4.879  -5.980   1.917  0.00  0.00     0.077 C 
ATOM      2  C1  UNL d   1      -4.789  -5.994   0.420  0.00  0.00    -0.074 A 
ATOM      3  C2  UNL d   1      -5.944  -5.995  -0.369  0.00  0.00    -0.005 A 
ATOM      4  C3  UNL d   1      -5.845  -5.998  -1.760  0.00  0.00     0.006 A 
ATOM      5  C4  UNL d   1      -4.592  -6.000  -2.376  0.00  0.00    -0.005 A 
ATOM      6  C5  UNL d   1      -3.427  -5.998  -1.603  0.00  0.00    -0.074 A 
ATOM      7  C6  UNL d   1      -2.073  -5.991  -2.248  0.00  0.00     0.077 C 
ATOM      8  C7  UNL d   1      -3.535  -5.988  -0.205  0.00  0.00    -0.001 A 
ENDROOT
TORSDOF 0
ENDMDL
