MODEL 1
REMARK minimizedAffinity 9.07836246
REMARK minimizedRMSD -1
REMARK  0 active torsions:
REMARK  status: ('A' for Active; 'I' for Inactive)
ROOT
ATOM      1  C   UNL d   1      -4.175  -6.000  -1.255  0.00  0.00     0.077 C 
ATOM      2  C1  UNL d   1      -3.026  -5.238  -1.845  0.00  0.00    -0.074 A 
ATOM      3  C2  UNL d   1      -3.027  -3.839  -1.867  0.00  0.00    -0.005 A 
ATOM      4  C3  UNL d   1      -1.947  -3.144  -2.411  0.00  0.00     0.006 A 
ATOM      5  C4  UNL d   1      -0.857  -3.838  -2.936  0.00  0.00    -0.005 A 
ATOM      6  C5  UNL d   1      -0.838  -5.237  -2.922  0.00  0.00    -0.074 A 
ATOM      7  C6  UNL d   1       0.330  -5.999  -3.474  0.00  0.00     0.077 C 
ATOM      8  C7  UNL d   1      -1.924  -5.928  -2.368  0.00  0.00    -0.001 A 
ENDROOT
TORSDOF 0
ENDMDL
