MODEL 1
REMARK minimizedAffinity 4.12210178
REMARK minimizedRMSD -1
REMARK  0 active torsions:
REMARK  status: ('A' for Active; 'I' for Inactive)
ROOT
ATOM      1  C   UNL d   1       4.633  -0.388   1.753  0.00  0.00     0.077 C 
ATOM      2  C1  UNL d   1       3.384  -0.340   0.924  0.00  0.00    -0.074 A 
ATOM      3  C2  UNL d   1       3.358   0.340  -0.297  0.00  0.00    -0.005 A 
ATOM      4  C3  UNL d   1       2.192   0.368  -1.062  0.00  0.00     0.006 A 
ATOM      5  C4  UNL d   1       1.042  -0.284  -0.614  0.00  0.00    -0.005 A 
ATOM      6  C5  UNL d   1       1.050  -0.970   0.604  0.00  0.00    -0.074 A 
ATOM      7  C6  UNL d   1      -0.174  -1.684   1.096  0.00  0.00     0.077 C 
ATOM      8  C7  UNL d   1       2.227  -0.999   1.364  0.00  0.00    -0.001 A 
ENDROOT
TORSDOF 0
ENDMDL
