MODEL 1
REMARK minimizedAffinity 14.0283022
REMARK minimizedRMSD -1
REMARK  0 active torsions:
REMARK  status: ('A' for Active; 'I' for Inactive)
ROOT
ATOM      1  C   UNL d   1       3.804   0.014   2.241  0.00  0.00     0.077 C 
ATOM      2  C1  UNL d   1       2.347  -0.254   2.008  0.00  0.00    -0.074 A 
ATOM      3  C2  UNL d   1       1.802  -0.197   0.721  0.00  0.00    -0.005 A 
ATOM      4  C3  UNL d   1       0.447  -0.458   0.519  0.00  0.00     0.006 A 
ATOM      5  C4  UNL d   1      -0.376  -0.779   1.599  0.00  0.00    -0.005 A 
ATOM      6  C5  UNL d   1       0.151  -0.843   2.893  0.00  0.00    -0.074 A 
ATOM      7  C6  UNL d   1      -0.717  -1.196   4.064  0.00  0.00     0.077 C 
ATOM      8  C7  UNL d   1       1.515  -0.585   3.087  0.00  0.00    -0.001 A 
ENDROOT
TORSDOF 0
ENDMDL
