MODEL 1
REMARK minimizedAffinity 8.75604439
REMARK minimizedRMSD -1
REMARK  0 active torsions:
REMARK  status: ('A' for Active; 'I' for Inactive)
ROOT
ATOM      1  C   UNL d   1       3.257  -0.041   3.053  0.00  0.00     0.077 C 
ATOM      2  C1  UNL d   1       2.171  -0.270   2.044  0.00  0.00    -0.074 A 
ATOM      3  C2  UNL d   1       2.420  -0.127   0.675  0.00  0.00    -0.005 A 
ATOM      4  C3  UNL d   1       1.403  -0.352  -0.252  0.00  0.00     0.006 A 
ATOM      5  C4  UNL d   1       0.128  -0.721   0.179  0.00  0.00    -0.005 A 
ATOM      6  C5  UNL d   1      -0.139  -0.870   1.544  0.00  0.00    -0.074 A 
ATOM      7  C6  UNL d   1      -1.501  -1.276   2.024  0.00  0.00     0.077 C 
ATOM      8  C7  UNL d   1       0.890  -0.649   2.469  0.00  0.00    -0.001 A 
ENDROOT
TORSDOF 0
ENDMDL
