MODEL 1
REMARK minimizedAffinity 10.3795013
REMARK minimizedRMSD -1
REMARK  0 active torsions:
REMARK  status: ('A' for Active; 'I' for Inactive)
ROOT
ATOM      1  C   UNL d   1       3.650   0.139   2.159  0.00  0.00     0.077 C 
ATOM      2  C1  UNL d   1       2.183  -0.137   2.022  0.00  0.00    -0.074 A 
ATOM      3  C2  UNL d   1       1.520   0.083   0.810  0.00  0.00    -0.005 A 
ATOM      4  C3  UNL d   1       0.157  -0.188   0.695  0.00  0.00     0.006 A 
ATOM      5  C4  UNL d   1      -0.557  -0.679   1.789  0.00  0.00    -0.005 A 
ATOM      6  C5  UNL d   1       0.089  -0.906   3.008  0.00  0.00    -0.074 A 
ATOM      7  C6  UNL d   1      -0.661  -1.443   4.191  0.00  0.00     0.077 C 
ATOM      8  C7  UNL d   1       1.460  -0.638   3.114  0.00  0.00    -0.001 A 
ENDROOT
TORSDOF 0
ENDMDL
