MODEL 1
REMARK minimizedAffinity 8.78642082
REMARK minimizedRMSD -1
REMARK  0 active torsions:
REMARK  status: ('A' for Active; 'I' for Inactive)
ROOT
ATOM      1  C   UNL d   1      -3.227  -4.569   4.409  0.00  0.00     0.077 C 
ATOM      2  C1  UNL d   1      -2.436  -3.300   4.526  0.00  0.00    -0.074 A 
ATOM      3  C2  UNL d   1      -2.191  -2.719   5.774  0.00  0.00    -0.005 A 
ATOM      4  C3  UNL d   1      -1.446  -1.543   5.868  0.00  0.00     0.006 A 
ATOM      5  C4  UNL d   1      -0.939  -0.939   4.717  0.00  0.00    -0.005 A 
ATOM      6  C5  UNL d   1      -1.173  -1.507   3.461  0.00  0.00    -0.074 A 
ATOM      7  C6  UNL d   1      -0.626  -0.875   2.215  0.00  0.00     0.077 C 
ATOM      8  C7  UNL d   1      -1.917  -2.692   3.375  0.00  0.00    -0.001 A 
ENDROOT
TORSDOF 0
ENDMDL
