MODEL 1
REMARK minimizedAffinity -4.0727849
REMARK minimizedRMSD -1
REMARK  0 active torsions:
REMARK  status: ('A' for Active; 'I' for Inactive)
ROOT
ATOM      1  C   UNL d   1      -3.504  -1.737  -1.159  0.00  0.00     0.077 C 
ATOM      2  C1  UNL d   1      -2.242  -1.240  -0.519  0.00  0.00    -0.074 A 
ATOM      3  C2  UNL d   1      -2.044   0.125  -0.285  0.00  0.00    -0.005 A 
ATOM      4  C3  UNL d   1      -0.870   0.571   0.320  0.00  0.00     0.006 A 
ATOM      5  C4  UNL d   1       0.118  -0.340   0.696  0.00  0.00    -0.005 A 
ATOM      6  C5  UNL d   1      -0.063  -1.709   0.471  0.00  0.00    -0.074 A 
ATOM      7  C6  UNL d   1       0.984  -2.703   0.878  0.00  0.00     0.077 C 
ATOM      8  C7  UNL d   1      -1.249  -2.150  -0.131  0.00  0.00    -0.001 A 
ENDROOT
TORSDOF 0
ENDMDL
