MODEL 1
REMARK minimizedAffinity 1.19284892
REMARK minimizedRMSD -1
REMARK  0 active torsions:
REMARK  status: ('A' for Active; 'I' for Inactive)
ROOT
ATOM      1  C   UNL d   1       0.734  -4.095  -1.267  0.00  0.00     0.077 C 
ATOM      2  C1  UNL d   1       0.925  -2.853  -0.447  0.00  0.00    -0.074 A 
ATOM      3  C2  UNL d   1      -0.171  -2.169   0.087  0.00  0.00    -0.005 A 
ATOM      4  C3  UNL d   1       0.023  -1.021   0.855  0.00  0.00     0.006 A 
ATOM      5  C4  UNL d   1       1.313  -0.547   1.097  0.00  0.00    -0.005 A 
ATOM      6  C5  UNL d   1       2.421  -1.219   0.572  0.00  0.00    -0.074 A 
ATOM      7  C6  UNL d   1       3.815  -0.729   0.830  0.00  0.00     0.077 C 
ATOM      8  C7  UNL d   1       2.218  -2.375  -0.194  0.00  0.00    -0.001 A 
ENDROOT
TORSDOF 0
ENDMDL
