MODEL 1
REMARK minimizedAffinity 12.0726757
REMARK minimizedRMSD -1
REMARK  0 active torsions:
REMARK  status: ('A' for Active; 'I' for Inactive)
ROOT
ATOM      1  C   UNL d   1      -1.471  -2.809   3.493  0.00  0.00     0.077 C 
ATOM      2  C1  UNL d   1      -0.591  -2.260   2.411  0.00  0.00    -0.074 A 
ATOM      3  C2  UNL d   1       0.011  -1.004   2.543  0.00  0.00    -0.005 A 
ATOM      4  C3  UNL d   1       0.836  -0.510   1.532  0.00  0.00     0.006 A 
ATOM      5  C4  UNL d   1       1.066  -1.265   0.381  0.00  0.00    -0.005 A 
ATOM      6  C5  UNL d   1       0.474  -2.523   0.232  0.00  0.00    -0.074 A 
ATOM      7  C6  UNL d   1       0.719  -3.352  -0.993  0.00  0.00     0.077 C 
ATOM      8  C7  UNL d   1      -0.348  -3.016   1.256  0.00  0.00    -0.001 A 
ENDROOT
TORSDOF 0
ENDMDL
