MODEL 1
REMARK minimizedAffinity 4.14772034
REMARK minimizedRMSD -1
REMARK  0 active torsions:
REMARK  status: ('A' for Active; 'I' for Inactive)
ROOT
ATOM      1  C   UNL d   1      -0.772  -1.706   1.319  0.00  0.00     0.077 C 
ATOM      2  C1  UNL d   1      -1.439  -2.665   0.378  0.00  0.00    -0.074 A 
ATOM      3  C2  UNL d   1      -2.832  -2.697   0.253  0.00  0.00    -0.005 A 
ATOM      4  C3  UNL d   1      -3.438  -3.588  -0.633  0.00  0.00     0.006 A 
ATOM      5  C4  UNL d   1      -2.659  -4.454  -1.401  0.00  0.00    -0.005 A 
ATOM      6  C5  UNL d   1      -1.265  -4.435  -1.290  0.00  0.00    -0.074 A 
ATOM      7  C6  UNL d   1      -0.412  -5.353  -2.116  0.00  0.00     0.077 C 
ATOM      8  C7  UNL d   1      -0.663  -3.533  -0.403  0.00  0.00    -0.001 A 
ENDROOT
TORSDOF 0
ENDMDL
