MODEL 1
REMARK minimizedAffinity 1.72575021
REMARK minimizedRMSD -1
REMARK  0 active torsions:
REMARK  status: ('A' for Active; 'I' for Inactive)
ROOT
ATOM      1  C   UNL d   1       3.851   2.251  -1.711  0.00  0.00     0.077 C 
ATOM      2  C1  UNL d   1       2.478   2.149  -1.117  0.00  0.00    -0.074 A 
ATOM      3  C2  UNL d   1       1.564   3.202  -1.232  0.00  0.00    -0.005 A 
ATOM      4  C3  UNL d   1       0.287   3.088  -0.682  0.00  0.00     0.006 A 
ATOM      5  C4  UNL d   1      -0.088   1.923  -0.013  0.00  0.00    -0.005 A 
ATOM      6  C5  UNL d   1       0.811   0.860   0.112  0.00  0.00    -0.074 A 
ATOM      7  C6  UNL d   1       0.420  -0.403   0.820  0.00  0.00     0.077 C 
ATOM      8  C7  UNL d   1       2.090   0.979  -0.449  0.00  0.00    -0.001 A 
ENDROOT
TORSDOF 0
ENDMDL
