MODEL 1
REMARK minimizedAffinity 13.5541935
REMARK minimizedRMSD -1
REMARK  0 active torsions:
REMARK  status: ('A' for Active; 'I' for Inactive)
ROOT
ATOM      1  C   UNL d   1       1.402  -4.462  -2.243  0.00  0.00     0.077 C 
ATOM      2  C1  UNL d   1       1.092  -3.013  -2.010  0.00  0.00    -0.074 A 
ATOM      3  C2  UNL d   1       0.670  -2.191  -3.060  0.00  0.00    -0.005 A 
ATOM      4  C3  UNL d   1       0.376  -0.848  -2.827  0.00  0.00     0.006 A 
ATOM      5  C4  UNL d   1       0.501  -0.313  -1.544  0.00  0.00    -0.005 A 
ATOM      6  C5  UNL d   1       0.921  -1.120  -0.482  0.00  0.00    -0.074 A 
ATOM      7  C6  UNL d   1       1.052  -0.564   0.905  0.00  0.00     0.077 C 
ATOM      8  C7  UNL d   1       1.208  -2.470  -0.723  0.00  0.00    -0.001 A 
ENDROOT
TORSDOF 0
ENDMDL
