MODEL 1
REMARK minimizedAffinity 5.94256973
REMARK minimizedRMSD -1
REMARK  0 active torsions:
REMARK  status: ('A' for Active; 'I' for Inactive)
ROOT
ATOM      1  C   UNL d   1       3.582   2.324  -1.525  0.00  0.00     0.077 C 
ATOM      2  C1  UNL d   1       2.139   2.337  -1.118  0.00  0.00    -0.074 A 
ATOM      3  C2  UNL d   1       1.336   3.458  -1.354  0.00  0.00    -0.005 A 
ATOM      4  C3  UNL d   1      -0.008   3.452  -0.978  0.00  0.00     0.006 A 
ATOM      5  C4  UNL d   1      -0.560   2.328  -0.363  0.00  0.00    -0.005 A 
ATOM      6  C5  UNL d   1       0.227   1.198  -0.120  0.00  0.00    -0.074 A 
ATOM      7  C6  UNL d   1      -0.354  -0.022   0.532  0.00  0.00     0.077 C 
ATOM      8  C7  UNL d   1       1.574   1.209  -0.506  0.00  0.00    -0.001 A 
ENDROOT
TORSDOF 0
ENDMDL
