MODEL 1
REMARK minimizedAffinity 5.60826635
REMARK minimizedRMSD -1
REMARK  0 active torsions:
REMARK  status: ('A' for Active; 'I' for Inactive)
ROOT
ATOM      1  C   UNL d   1       0.956   4.006  -1.088  0.00  0.00     0.077 C 
ATOM      2  C1  UNL d   1       0.006   3.940  -2.246  0.00  0.00    -0.074 A 
ATOM      3  C2  UNL d   1       0.254   4.656  -3.421  0.00  0.00    -0.005 A 
ATOM      4  C3  UNL d   1      -0.634   4.577  -4.494  0.00  0.00     0.006 A 
ATOM      5  C4  UNL d   1      -1.776   3.782  -4.403  0.00  0.00    -0.005 A 
ATOM      6  C5  UNL d   1      -2.041   3.057  -3.237  0.00  0.00    -0.074 A 
ATOM      7  C6  UNL d   1      -3.259   2.190  -3.126  0.00  0.00     0.077 C 
ATOM      8  C7  UNL d   1      -1.140   3.137  -2.165  0.00  0.00    -0.001 A 
ENDROOT
TORSDOF 0
ENDMDL
