MODEL 1
REMARK minimizedAffinity 10.2836838
REMARK minimizedRMSD -1
REMARK  0 active torsions:
REMARK  status: ('A' for Active; 'I' for Inactive)
ROOT
ATOM      1  C   UNL d   1       3.336   0.359   2.262  0.00  0.00     0.077 C 
ATOM      2  C1  UNL d   1       1.938  -0.074   1.934  0.00  0.00    -0.074 A 
ATOM      3  C2  UNL d   1       1.524  -0.217   0.605  0.00  0.00    -0.005 A 
ATOM      4  C3  UNL d   1       0.224  -0.629   0.315  0.00  0.00     0.006 A 
ATOM      5  C4  UNL d   1      -0.674  -0.902   1.348  0.00  0.00    -0.005 A 
ATOM      6  C5  UNL d   1      -0.277  -0.765   2.682  0.00  0.00    -0.074 A 
ATOM      7  C6  UNL d   1      -1.227  -1.063   3.804  0.00  0.00     0.077 C 
ATOM      8  C7  UNL d   1       1.033  -0.357   2.966  0.00  0.00    -0.001 A 
ENDROOT
TORSDOF 0
ENDMDL
