MODEL 1
REMARK minimizedAffinity 2.27823186
REMARK minimizedRMSD -1
REMARK  0 active torsions:
REMARK  status: ('A' for Active; 'I' for Inactive)
ROOT
ATOM      1  C   UNL d   1      -1.026  -6.000  -1.037  0.00  0.00     0.077 C 
ATOM      2  C1  UNL d   1      -2.212  -5.387  -1.721  0.00  0.00    -0.074 A 
ATOM      3  C2  UNL d   1      -2.064  -4.275  -2.556  0.00  0.00    -0.005 A 
ATOM      4  C3  UNL d   1      -3.175  -3.722  -3.194  0.00  0.00     0.006 A 
ATOM      5  C4  UNL d   1      -4.442  -4.275  -3.003  0.00  0.00    -0.005 A 
ATOM      6  C5  UNL d   1      -4.608  -5.388  -2.173  0.00  0.00    -0.074 A 
ATOM      7  C6  UNL d   1      -5.962  -6.000  -1.965  0.00  0.00     0.077 C 
ATOM      8  C7  UNL d   1      -3.487  -5.942  -1.541  0.00  0.00    -0.001 A 
ENDROOT
TORSDOF 0
ENDMDL
