MODEL 1
REMARK minimizedAffinity -2.74495792
REMARK minimizedRMSD -1
REMARK  0 active torsions:
REMARK  status: ('A' for Active; 'I' for Inactive)
ROOT
ATOM      1  C   UNL d   1      -2.064   1.130   1.443  0.00  0.00    -0.002 A 
ATOM      2  C1  UNL d   1      -1.150   1.382   2.456  0.00  0.00     0.010 A 
ATOM      3  C2  UNL d   1       0.164   0.920   2.358  0.00  0.00     0.041 A 
ATOM      4  C3  UNL d   1       0.548   0.195   1.213  0.00  0.00    -0.075 A 
ATOM      5  S   UNL d   1       2.103  -0.468   0.876  0.00  0.00     0.015 SA
ATOM      6  C4  UNL d   1       1.591  -1.101  -0.622  0.00  0.00     0.022 A 
ATOM      7  C5  UNL d   1       0.269  -0.823  -0.874  0.00  0.00     0.026 A 
ATOM      8  C6  UNL d   1      -0.354  -0.071   0.179  0.00  0.00    -0.082 A 
ATOM      9  C7  UNL d   1      -1.679   0.410   0.308  0.00  0.00     0.045 A 
ENDROOT
TORSDOF 0
ENDMDL
