MODEL 1
REMARK minimizedAffinity -5.76939917
REMARK minimizedRMSD -1
REMARK  0 active torsions:
REMARK  status: ('A' for Active; 'I' for Inactive)
ROOT
ATOM      1  C   UNL d   1       0.007   0.774   3.532  0.00  0.00    -0.002 A 
ATOM      2  C1  UNL d   1       1.203   0.137   3.231  0.00  0.00     0.010 A 
ATOM      3  C2  UNL d   1       1.432  -0.377   1.953  0.00  0.00     0.041 A 
ATOM      4  C3  UNL d   1       0.431  -0.237   0.972  0.00  0.00    -0.075 A 
ATOM      5  S   UNL d   1       0.491  -0.786  -0.661  0.00  0.00     0.015 SA
ATOM      6  C4  UNL d   1      -1.069  -0.188  -0.998  0.00  0.00     0.022 A 
ATOM      7  C5  UNL d   1      -1.636   0.419   0.097  0.00  0.00     0.026 A 
ATOM      8  C6  UNL d   1      -0.781   0.402   1.251  0.00  0.00    -0.082 A 
ATOM      9  C7  UNL d   1      -0.984   0.911   2.556  0.00  0.00     0.045 A 
ENDROOT
TORSDOF 0
ENDMDL
