MODEL 1
REMARK minimizedAffinity -1.0467118
REMARK minimizedRMSD -1
REMARK  0 active torsions:
REMARK  status: ('A' for Active; 'I' for Inactive)
ROOT
ATOM      1  C   UNL d   1       1.437   0.082  -4.162  0.00  0.00    -0.002 A 
ATOM      2  C1  UNL d   1       0.136  -0.303  -4.452  0.00  0.00     0.010 A 
ATOM      3  C2  UNL d   1      -0.765  -0.595  -3.426  0.00  0.00     0.041 A 
ATOM      4  C3  UNL d   1      -0.331  -0.492  -2.089  0.00  0.00    -0.075 A 
ATOM      5  S   UNL d   1      -1.259  -0.800  -0.669  0.00  0.00     0.015 SA
ATOM      6  C4  UNL d   1       0.050  -0.427   0.357  0.00  0.00     0.022 A 
ATOM      7  C5  UNL d   1       1.175  -0.074  -0.350  0.00  0.00     0.026 A 
ATOM      8  C6  UNL d   1       0.974  -0.105  -1.771  0.00  0.00    -0.082 A 
ATOM      9  C7  UNL d   1       1.863   0.184  -2.835  0.00  0.00     0.045 A 
ENDROOT
TORSDOF 0
ENDMDL
