MODEL 1
REMARK minimizedAffinity -2.90195966
REMARK minimizedRMSD -1
REMARK  0 active torsions:
REMARK  status: ('A' for Active; 'I' for Inactive)
ROOT
ATOM      1  C   UNL d   1      -2.334   1.309   1.489  0.00  0.00    -0.002 A 
ATOM      2  C1  UNL d   1      -1.333   0.779   2.290  0.00  0.00     0.010 A 
ATOM      3  C2  UNL d   1      -0.289   0.042   1.726  0.00  0.00     0.041 A 
ATOM      4  C3  UNL d   1      -0.268  -0.153   0.331  0.00  0.00    -0.075 A 
ATOM      5  S   UNL d   1       0.912  -1.020  -0.579  0.00  0.00     0.015 SA
ATOM      6  C4  UNL d   1       0.114  -0.706  -2.053  0.00  0.00     0.022 A 
ATOM      7  C5  UNL d   1      -1.026   0.041  -1.873  0.00  0.00     0.026 A 
ATOM      8  C6  UNL d   1      -1.265   0.372  -0.496  0.00  0.00    -0.082 A 
ATOM      9  C7  UNL d   1      -2.310   1.114   0.106  0.00  0.00     0.045 A 
ENDROOT
TORSDOF 0
ENDMDL
