MODEL 1
REMARK minimizedAffinity -5.378438
REMARK minimizedRMSD -1
REMARK  1 active torsions:
REMARK  status: ('A' for Active; 'I' for Inactive)
REMARK    1  A    between atoms: C1_2  and  C2_3 
ROOT
ATOM      1  C2  UNL d   1       1.561   2.374  -0.212  0.00  0.00    -0.073 A 
ATOM      2  C3  UNL d   1       1.115   2.076  -1.505  0.00  0.00    -0.002 A 
ATOM      3  C4  UNL d   1       1.159   3.046  -2.507  0.00  0.00     0.004 A 
ATOM      4  C5  UNL d   1       1.655   4.320  -2.230  0.00  0.00    -0.004 A 
ATOM      5  C6  UNL d   1       2.117   4.633  -0.948  0.00  0.00    -0.075 A 
ATOM      6  C7  UNL d   1       2.652   6.000  -0.633  0.00  0.00     0.076 C 
ATOM      7  C8  UNL d   1       2.067   3.655   0.054  0.00  0.00     0.001 A 
ENDROOT
BRANCH   1   8
ATOM      8  C1  UNL d   1       1.522   1.328   0.871  0.00  0.00     0.053 C 
ATOM      9  C   UNL d   1       1.167  -0.045   0.325  0.00  0.00     0.018 C 
ENDBRANCH   1   8
TORSDOF 1
ENDMDL
