MODEL 1
REMARK minimizedAffinity -5.36691523
REMARK minimizedRMSD -1
REMARK  1 active torsions:
REMARK  status: ('A' for Active; 'I' for Inactive)
REMARK    1  A    between atoms: C1_2  and  C2_3 
ROOT
ATOM      1  C2  UNL d   1       1.265  -1.117  -1.143  0.00  0.00    -0.073 A 
ATOM      2  C3  UNL d   1       1.415  -0.716  -2.475  0.00  0.00    -0.002 A 
ATOM      3  C4  UNL d   1       1.310   0.632  -2.822  0.00  0.00     0.004 A 
ATOM      4  C5  UNL d   1       1.060   1.592  -1.841  0.00  0.00    -0.004 A 
ATOM      5  C6  UNL d   1       0.919   1.212  -0.502  0.00  0.00    -0.075 A 
ATOM      6  C7  UNL d   1       0.649   2.232   0.565  0.00  0.00     0.076 C 
ATOM      7  C8  UNL d   1       1.023  -0.144  -0.162  0.00  0.00     0.001 A 
ENDROOT
BRANCH   1   8
ATOM      8  C1  UNL d   1       1.384  -2.570  -0.763  0.00  0.00     0.053 C 
ATOM      9  C   UNL d   1       0.301  -3.419  -1.410  0.00  0.00     0.018 C 
ENDBRANCH   1   8
TORSDOF 1
ENDMDL
