MODEL 1
REMARK minimizedAffinity 4.98296738
REMARK minimizedRMSD -1
REMARK  1 active torsions:
REMARK  status: ('A' for Active; 'I' for Inactive)
REMARK    1  A    between atoms: C1_2  and  C2_3 
ROOT
ATOM      1  C2  UNL d   1       1.141   1.706  -1.374  0.00  0.00    -0.073 A 
ATOM      2  C3  UNL d   1       0.909   0.412  -1.853  0.00  0.00    -0.002 A 
ATOM      3  C4  UNL d   1       0.907  -0.674  -0.977  0.00  0.00     0.004 A 
ATOM      4  C5  UNL d   1       1.130  -0.477   0.386  0.00  0.00    -0.004 A 
ATOM      5  C6  UNL d   1       1.352   0.811   0.885  0.00  0.00    -0.075 A 
ATOM      6  C7  UNL d   1       1.596   1.039   2.348  0.00  0.00     0.076 C 
ATOM      7  C8  UNL d   1       1.355   1.896  -0.001  0.00  0.00     0.001 A 
ENDROOT
BRANCH   1   8
ATOM      8  C1  UNL d   1       1.138   2.883  -2.316  0.00  0.00     0.053 C 
ATOM      9  C   UNL d   1       1.780   4.112  -1.694  0.00  0.00     0.018 C 
ENDBRANCH   1   8
TORSDOF 1
ENDMDL
