MODEL 1
REMARK minimizedAffinity -1.20826638
REMARK minimizedRMSD -1
REMARK  1 active torsions:
REMARK  status: ('A' for Active; 'I' for Inactive)
REMARK    1  A    between atoms: C1_2  and  C2_3 
ROOT
ATOM      1  C2  UNL d   1       1.226   3.983  -0.310  0.00  0.00    -0.073 A 
ATOM      2  C3  UNL d   1       0.904   3.288   0.862  0.00  0.00    -0.002 A 
ATOM      3  C4  UNL d   1       0.598   1.928   0.813  0.00  0.00     0.004 A 
ATOM      4  C5  UNL d   1       0.618   1.247  -0.404  0.00  0.00    -0.004 A 
ATOM      5  C6  UNL d   1       0.948   1.921  -1.584  0.00  0.00    -0.075 A 
ATOM      6  C7  UNL d   1       0.971   1.204  -2.902  0.00  0.00     0.076 C 
ATOM      7  C8  UNL d   1       1.251   3.288  -1.527  0.00  0.00     0.001 A 
ENDROOT
BRANCH   1   8
ATOM      8  C1  UNL d   1       1.563   5.451  -0.261  0.00  0.00     0.053 C 
ATOM      9  C   UNL d   1       2.465   5.867  -1.412  0.00  0.00     0.018 C 
ENDBRANCH   1   8
TORSDOF 1
ENDMDL
