MODEL 1
REMARK minimizedAffinity 0.206572935
REMARK minimizedRMSD -1
REMARK  1 active torsions:
REMARK  status: ('A' for Active; 'I' for Inactive)
REMARK    1  A    between atoms: C1_2  and  C2_3 
ROOT
ATOM      1  C2  UNL d   1       1.409   0.770  -0.583  0.00  0.00    -0.073 A 
ATOM      2  C3  UNL d   1       1.517   1.382  -1.837  0.00  0.00    -0.002 A 
ATOM      3  C4  UNL d   1       1.370   2.765  -1.961  0.00  0.00     0.004 A 
ATOM      4  C5  UNL d   1       1.121   3.549  -0.835  0.00  0.00    -0.004 A 
ATOM      5  C6  UNL d   1       1.021   2.957   0.428  0.00  0.00    -0.075 A 
ATOM      6  C7  UNL d   1       0.752   3.786   1.650  0.00  0.00     0.076 C 
ATOM      7  C8  UNL d   1       1.168   1.568   0.545  0.00  0.00     0.001 A 
ENDROOT
BRANCH   1   8
ATOM      8  C1  UNL d   1       1.573  -0.721  -0.442  0.00  0.00     0.053 C 
ATOM      9  C   UNL d   1       0.300  -1.471  -0.800  0.00  0.00     0.018 C 
ENDBRANCH   1   8
TORSDOF 1
ENDMDL
