MODEL 1
REMARK minimizedAffinity -1.92176592
REMARK minimizedRMSD -1
REMARK  1 active torsions:
REMARK  status: ('A' for Active; 'I' for Inactive)
REMARK    1  A    between atoms: C1_2  and  C2_3 
ROOT
ATOM      1  C2  UNL d   1       1.089   1.817  -0.915  0.00  0.00    -0.073 A 
ATOM      2  C3  UNL d   1       1.609   1.886   0.382  0.00  0.00    -0.002 A 
ATOM      3  C4  UNL d   1       1.807   0.722   1.125  0.00  0.00     0.004 A 
ATOM      4  C5  UNL d   1       1.494  -0.522   0.577  0.00  0.00    -0.004 A 
ATOM      5  C6  UNL d   1       0.984  -0.613  -0.722  0.00  0.00    -0.075 A 
ATOM      6  C7  UNL d   1       0.640  -1.943  -1.325  0.00  0.00     0.076 C 
ATOM      7  C8  UNL d   1       0.786   0.562  -1.461  0.00  0.00     0.001 A 
ENDROOT
BRANCH   1   8
ATOM      8  C1  UNL d   1       0.879   3.072  -1.724  0.00  0.00     0.053 C 
ATOM      9  C   UNL d   1       1.605   4.265  -1.122  0.00  0.00     0.018 C 
ENDBRANCH   1   8
TORSDOF 1
ENDMDL
