MODEL 1
REMARK minimizedAffinity -1.41623127
REMARK minimizedRMSD -1
REMARK  1 active torsions:
REMARK  status: ('A' for Active; 'I' for Inactive)
REMARK    1  A    between atoms: C1_2  and  C2_3 
ROOT
ATOM      1  C2  UNL d   1       1.532   3.474  -1.098  0.00  0.00    -0.073 A 
ATOM      2  C3  UNL d   1       1.566   3.329   0.294  0.00  0.00    -0.002 A 
ATOM      3  C4  UNL d   1       1.248   2.105   0.883  0.00  0.00     0.004 A 
ATOM      4  C5  UNL d   1       0.901   1.012   0.088  0.00  0.00    -0.004 A 
ATOM      5  C6  UNL d   1       0.873   1.134  -1.305  0.00  0.00    -0.075 A 
ATOM      6  C7  UNL d   1       0.499  -0.031  -2.174  0.00  0.00     0.076 C 
ATOM      7  C8  UNL d   1       1.190   2.368  -1.889  0.00  0.00     0.001 A 
ENDROOT
BRANCH   1   8
ATOM      8  C1  UNL d   1       1.880   4.792  -1.739  0.00  0.00     0.053 C 
ATOM      9  C   UNL d   1       2.229   5.853  -0.707  0.00  0.00     0.018 C 
ENDBRANCH   1   8
TORSDOF 1
ENDMDL
