MODEL 1
REMARK minimizedAffinity -4.59130192
REMARK minimizedRMSD -1
REMARK  1 active torsions:
REMARK  status: ('A' for Active; 'I' for Inactive)
REMARK    1  A    between atoms: C1_2  and  C2_3 
ROOT
ATOM      1  C2  UNL d   1       0.926   1.816   0.280  0.00  0.00    -0.073 A 
ATOM      2  C3  UNL d   1       0.987   2.471  -0.954  0.00  0.00    -0.002 A 
ATOM      3  C4  UNL d   1       1.414   1.789  -2.095  0.00  0.00     0.004 A 
ATOM      4  C5  UNL d   1       1.776   0.445  -2.014  0.00  0.00    -0.004 A 
ATOM      5  C6  UNL d   1       1.710  -0.231  -0.791  0.00  0.00    -0.075 A 
ATOM      6  C7  UNL d   1       2.099  -1.677  -0.686  0.00  0.00     0.076 C 
ATOM      7  C8  UNL d   1       1.284   0.462   0.350  0.00  0.00     0.001 A 
ENDROOT
BRANCH   1   8
ATOM      8  C1  UNL d   1       0.460   2.547   1.513  0.00  0.00     0.053 C 
ATOM      9  C   UNL d   1       1.623   3.106   2.318  0.00  0.00     0.018 C 
ENDBRANCH   1   8
TORSDOF 1
ENDMDL
