MODEL 1
REMARK minimizedAffinity 3.63719201
REMARK minimizedRMSD -1
REMARK  1 active torsions:
REMARK  status: ('A' for Active; 'I' for Inactive)
REMARK    1  A    between atoms: N_2  and  C1_3 
ROOT
ATOM      1  C1  UNL d   1      -0.290   4.270  -0.630  0.00  0.00     0.143 A 
ATOM      2  C2  UNL d   1      -0.216   3.885   0.713  0.00  0.00    -0.057 A 
ATOM      3  C3  UNL d   1      -0.221   2.535   1.083  0.00  0.00     0.033 A 
ATOM      4  C4  UNL d   1      -0.328   1.543   0.114  0.00  0.00    -0.042 A 
ATOM      5  C5  UNL d   1      -0.428   1.903  -1.226  0.00  0.00     0.033 A 
ATOM      6  C6  UNL d   1      -0.416   3.253  -1.589  0.00  0.00    -0.057 A 
ENDROOT
BRANCH   1   7
ATOM      7  N   UNL d   1      -0.389   5.598  -1.054  0.00  0.00    -0.732 N 
ATOM      8  C   UNL d   1      -1.425   6.000  -1.981  0.00  0.00     0.284 C 
ATOM      9  H3  UNL d   1      -0.227   6.260  -0.299  0.00  0.00     0.395 HD
ENDBRANCH   1   7
TORSDOF 1
ENDMDL
