MODEL 1
REMARK minimizedAffinity 0.52915597
REMARK minimizedRMSD -1
REMARK  1 active torsions:
REMARK  status: ('A' for Active; 'I' for Inactive)
REMARK    1  A    between atoms: N_2  and  C1_3 
ROOT
ATOM      1  C1  UNL d   1       4.102  -3.065  -1.726  0.00  0.00     0.143 A 
ATOM      2  C2  UNL d   1       4.334  -4.407  -1.406  0.00  0.00    -0.057 A 
ATOM      3  C3  UNL d   1       4.122  -5.424  -2.345  0.00  0.00     0.033 A 
ATOM      4  C4  UNL d   1       3.644  -5.118  -3.615  0.00  0.00    -0.042 A 
ATOM      5  C5  UNL d   1       3.382  -3.794  -3.946  0.00  0.00     0.033 A 
ATOM      6  C6  UNL d   1       3.602  -2.782  -3.007  0.00  0.00    -0.057 A 
ENDROOT
BRANCH   1   7
ATOM      7  N   UNL d   1       4.199  -2.018  -0.806  0.00  0.00    -0.732 N 
ATOM      8  C   UNL d   1       3.018  -1.502  -0.148  0.00  0.00     0.284 C 
ATOM      9  H3  UNL d   1       5.008  -2.112  -0.195  0.00  0.00     0.395 HD
ENDBRANCH   1   7
TORSDOF 1
ENDMDL
