MODEL 1
REMARK minimizedAffinity 11.2858772
REMARK minimizedRMSD -1
REMARK  1 active torsions:
REMARK  status: ('A' for Active; 'I' for Inactive)
REMARK    1  A    between atoms: N_2  and  C1_3 
ROOT
ATOM      1  C1  UNL d   1       4.007  -3.244  -3.020  0.00  0.00     0.143 A 
ATOM      2  C2  UNL d   1       4.864  -3.910  -2.137  0.00  0.00    -0.057 A 
ATOM      3  C3  UNL d   1       4.717  -5.278  -1.875  0.00  0.00     0.033 A 
ATOM      4  C4  UNL d   1       3.689  -6.000  -2.472  0.00  0.00    -0.042 A 
ATOM      5  C5  UNL d   1       2.810  -5.353  -3.334  0.00  0.00     0.033 A 
ATOM      6  C6  UNL d   1       2.965  -3.989  -3.596  0.00  0.00    -0.057 A 
ENDROOT
BRANCH   1   7
ATOM      7  N   UNL d   1       4.040  -1.866  -3.245  0.00  0.00    -0.732 N 
ATOM      8  C   UNL d   1       3.074  -0.992  -2.615  0.00  0.00     0.284 C 
ATOM      9  H3  UNL d   1       4.988  -1.497  -3.257  0.00  0.00     0.395 HD
ENDBRANCH   1   7
TORSDOF 1
ENDMDL
