MODEL 1
REMARK minimizedAffinity 3.14375067
REMARK minimizedRMSD -1
REMARK  1 active torsions:
REMARK  status: ('A' for Active; 'I' for Inactive)
REMARK    1  A    between atoms: N_2  and  C1_3 
ROOT
ATOM      1  C1  UNL d   1       4.009  -3.382  -2.250  0.00  0.00     0.143 A 
ATOM      2  C2  UNL d   1       3.434  -4.007  -3.362  0.00  0.00    -0.057 A 
ATOM      3  C3  UNL d   1       3.797  -5.308  -3.731  0.00  0.00     0.033 A 
ATOM      4  C4  UNL d   1       4.765  -5.998  -3.010  0.00  0.00    -0.042 A 
ATOM      5  C5  UNL d   1       5.368  -5.387  -1.916  0.00  0.00     0.033 A 
ATOM      6  C6  UNL d   1       4.997  -4.090  -1.548  0.00  0.00    -0.057 A 
ENDROOT
BRANCH   1   7
ATOM      7  N   UNL d   1       3.762  -2.055  -1.890  0.00  0.00    -0.732 N 
ATOM      8  C   UNL d   1       3.026  -1.743  -0.684  0.00  0.00     0.284 C 
ATOM      9  H3  UNL d   1       4.565  -1.452  -2.054  0.00  0.00     0.395 HD
ENDBRANCH   1   7
TORSDOF 1
ENDMDL
