MODEL 1
REMARK minimizedAffinity -1.13290834
REMARK minimizedRMSD -1
REMARK  1 active torsions:
REMARK  status: ('A' for Active; 'I' for Inactive)
REMARK    1  A    between atoms: N_2  and  C1_3 
ROOT
ATOM      1  C1  UNL d   1       3.660  -3.850  -0.532  0.00  0.00     0.143 A 
ATOM      2  C2  UNL d   1       4.204  -4.576  -1.597  0.00  0.00    -0.057 A 
ATOM      3  C3  UNL d   1       4.564  -3.948  -2.795  0.00  0.00     0.033 A 
ATOM      4  C4  UNL d   1       4.359  -2.582  -2.960  0.00  0.00    -0.042 A 
ATOM      5  C5  UNL d   1       3.796  -1.845  -1.924  0.00  0.00     0.033 A 
ATOM      6  C6  UNL d   1       3.445  -2.477  -0.728  0.00  0.00    -0.057 A 
ENDROOT
BRANCH   1   7
ATOM      7  N   UNL d   1       3.190  -4.434   0.647  0.00  0.00    -0.732 N 
ATOM      8  C   UNL d   1       1.817  -4.252   1.064  0.00  0.00     0.284 C 
ATOM      9  H3  UNL d   1       3.544  -5.378   0.781  0.00  0.00     0.395 HD
ENDBRANCH   1   7
TORSDOF 1
ENDMDL
