MODEL 1
REMARK minimizedAffinity -0.614702582
REMARK minimizedRMSD -1
REMARK  1 active torsions:
REMARK  status: ('A' for Active; 'I' for Inactive)
REMARK    1  A    between atoms: N_2  and  C1_3 
ROOT
ATOM      1  C1  UNL d   1       4.418  -3.279  -1.524  0.00  0.00     0.143 A 
ATOM      2  C2  UNL d   1       5.053  -4.522  -1.426  0.00  0.00    -0.057 A 
ATOM      3  C3  UNL d   1       4.852  -5.517  -2.390  0.00  0.00     0.033 A 
ATOM      4  C4  UNL d   1       3.987  -5.298  -3.456  0.00  0.00    -0.042 A 
ATOM      5  C5  UNL d   1       3.325  -4.079  -3.560  0.00  0.00     0.033 A 
ATOM      6  C6  UNL d   1       3.535  -3.086  -2.598  0.00  0.00    -0.057 A 
ENDROOT
BRANCH   1   7
ATOM      7  N   UNL d   1       4.500  -2.284  -0.546  0.00  0.00    -0.732 N 
ATOM      8  C   UNL d   1       3.372  -2.001   0.314  0.00  0.00     0.284 C 
ATOM      9  H3  UNL d   1       5.398  -2.283  -0.068  0.00  0.00     0.395 HD
ENDBRANCH   1   7
TORSDOF 1
ENDMDL
