MODEL 1
REMARK minimizedAffinity -0.604312837
REMARK minimizedRMSD -1
REMARK  1 active torsions:
REMARK  status: ('A' for Active; 'I' for Inactive)
REMARK    1  A    between atoms: N_2  and  C1_3 
ROOT
ATOM      1  C1  UNL d   1       4.110  -4.436  -2.939  0.00  0.00     0.143 A 
ATOM      2  C2  UNL d   1       4.948  -4.840  -1.895  0.00  0.00    -0.057 A 
ATOM      3  C3  UNL d   1       5.255  -3.978  -0.835  0.00  0.00     0.033 A 
ATOM      4  C4  UNL d   1       4.750  -2.683  -0.816  0.00  0.00    -0.042 A 
ATOM      5  C5  UNL d   1       3.935  -2.251  -1.856  0.00  0.00     0.033 A 
ATOM      6  C6  UNL d   1       3.626  -3.119  -2.908  0.00  0.00    -0.057 A 
ENDROOT
BRANCH   1   7
ATOM      7  N   UNL d   1       3.847  -5.212  -4.071  0.00  0.00    -0.732 N 
ATOM      8  C   UNL d   1       4.931  -5.746  -4.867  0.00  0.00     0.284 C 
ATOM      9  H3  UNL d   1       3.079  -5.864  -3.925  0.00  0.00     0.395 HD
ENDBRANCH   1   7
TORSDOF 1
ENDMDL
