MODEL 1
REMARK minimizedAffinity -2.11932278
REMARK minimizedRMSD -1
REMARK  1 active torsions:
REMARK  status: ('A' for Active; 'I' for Inactive)
REMARK    1  A    between atoms: N_2  and  C1_3 
ROOT
ATOM      1  C1  UNL d   1      -1.819   5.233  -0.367  0.00  0.00     0.143 A 
ATOM      2  C2  UNL d   1      -2.226   5.634   0.910  0.00  0.00    -0.057 A 
ATOM      3  C3  UNL d   1      -3.553   6.000   1.168  0.00  0.00     0.033 A 
ATOM      4  C4  UNL d   1      -4.493   6.000   0.142  0.00  0.00    -0.042 A 
ATOM      5  C5  UNL d   1      -4.105   5.629  -1.141  0.00  0.00     0.033 A 
ATOM      6  C6  UNL d   1      -2.780   5.258  -1.390  0.00  0.00    -0.057 A 
ENDROOT
BRANCH   1   7
ATOM      7  N   UNL d   1      -0.494   4.952  -0.709  0.00  0.00    -0.732 N 
ATOM      8  C   UNL d   1      -0.024   3.584  -0.774  0.00  0.00     0.284 C 
ATOM      9  H3  UNL d   1      -0.153   5.545  -1.462  0.00  0.00     0.395 HD
ENDBRANCH   1   7
TORSDOF 1
ENDMDL
