MODEL 1
REMARK minimizedAffinity -4.46450949
REMARK minimizedRMSD -1
REMARK  0 active torsions:
REMARK  status: ('A' for Active; 'I' for Inactive)
ROOT
ATOM      1  C   UNL d   1       2.717  -2.056  -0.041  0.00  0.00     0.020 A 
ATOM      2  C1  UNL d   1       1.414  -2.550  -0.072  0.00  0.00     0.020 A 
ATOM      3  C2  UNL d   1       0.333  -1.666  -0.099  0.00  0.00     0.034 A 
ATOM      4  C3  UNL d   1       0.553  -0.284  -0.094  0.00  0.00     0.017 A 
ATOM      5  C4  UNL d   1       1.862   0.211  -0.062  0.00  0.00     0.017 A 
ATOM      6  C5  UNL d   1       2.941  -0.678  -0.035  0.00  0.00     0.034 A 
ATOM      7 Cl   UNL d   1       2.213   1.903  -0.054  0.00  0.00    -0.070 Cl
ATOM      8 Cl1  UNL d   1      -0.830   0.751  -0.129  0.00  0.00    -0.070 Cl
ENDROOT
TORSDOF 0
ENDMDL
