MODEL 1
REMARK minimizedAffinity -3.03200746
REMARK minimizedRMSD -1
REMARK  0 active torsions:
REMARK  status: ('A' for Active; 'I' for Inactive)
ROOT
ATOM      1  C   UNL d   1      -2.028   0.416   0.838  0.00  0.00     0.020 A 
ATOM      2  C1  UNL d   1      -1.928  -0.975   0.877  0.00  0.00     0.020 A 
ATOM      3  C2  UNL d   1      -0.704  -1.594   0.615  0.00  0.00     0.034 A 
ATOM      4  C3  UNL d   1       0.425  -0.823   0.313  0.00  0.00     0.017 A 
ATOM      5  C4  UNL d   1       0.323   0.572   0.275  0.00  0.00     0.017 A 
ATOM      6  C5  UNL d   1      -0.904   1.187   0.538  0.00  0.00     0.034 A 
ATOM      7 Cl   UNL d   1       1.672   1.590  -0.090  0.00  0.00    -0.070 Cl
ATOM      8 Cl1  UNL d   1       1.906  -1.656  -0.000  0.00  0.00    -0.070 Cl
ENDROOT
TORSDOF 0
ENDMDL
