MODEL 1
REMARK minimizedAffinity -2.58946538
REMARK minimizedRMSD -1
REMARK  0 active torsions:
REMARK  status: ('A' for Active; 'I' for Inactive)
ROOT
ATOM      1  C   UNL d   1      -0.654   0.182  -0.079  0.00  0.00     0.020 A 
ATOM      2  C1  UNL d   1      -0.172  -1.122  -0.190  0.00  0.00     0.020 A 
ATOM      3  C2  UNL d   1       1.204  -1.358  -0.208  0.00  0.00     0.034 A 
ATOM      4  C3  UNL d   1       2.103  -0.289  -0.115  0.00  0.00     0.017 A 
ATOM      5  C4  UNL d   1       1.618   1.019  -0.003  0.00  0.00     0.017 A 
ATOM      6  C5  UNL d   1       0.239   1.250   0.014  0.00  0.00     0.034 A 
ATOM      7 Cl   UNL d   1       2.666   2.389   0.116  0.00  0.00    -0.070 Cl
ATOM      8 Cl1  UNL d   1       3.792  -0.655  -0.142  0.00  0.00    -0.070 Cl
ENDROOT
TORSDOF 0
ENDMDL
