MODEL 1
REMARK minimizedAffinity -2.96225762
REMARK minimizedRMSD -1
REMARK  0 active torsions:
REMARK  status: ('A' for Active; 'I' for Inactive)
ROOT
ATOM      1  C   UNL d   1      -2.704   1.767   0.027  0.00  0.00     0.020 A 
ATOM      2  C1  UNL d   1      -2.497   1.157   1.263  0.00  0.00     0.020 A 
ATOM      3  C2  UNL d   1      -1.540   0.148   1.393  0.00  0.00     0.034 A 
ATOM      4  C3  UNL d   1      -0.787  -0.254   0.283  0.00  0.00     0.017 A 
ATOM      5  C4  UNL d   1      -0.996   0.359  -0.957  0.00  0.00     0.017 A 
ATOM      6  C5  UNL d   1      -1.955   1.369  -1.081  0.00  0.00     0.034 A 
ATOM      7 Cl   UNL d   1      -0.105  -0.083  -2.371  0.00  0.00    -0.070 Cl
ATOM      8 Cl1  UNL d   1       0.379  -1.508   0.516  0.00  0.00    -0.070 Cl
ENDROOT
TORSDOF 0
ENDMDL
