MODEL 1
REMARK minimizedAffinity -0.754297435
REMARK minimizedRMSD -1
REMARK  0 active torsions:
REMARK  status: ('A' for Active; 'I' for Inactive)
ROOT
ATOM      1  C   UNL d   1      -0.700   0.094   0.077  0.00  0.00     0.020 A 
ATOM      2  C1  UNL d   1      -1.007  -0.484  -1.154  0.00  0.00     0.020 A 
ATOM      3  C2  UNL d   1      -0.034  -1.204  -1.850  0.00  0.00     0.034 A 
ATOM      4  C3  UNL d   1       1.251  -1.350  -1.314  0.00  0.00     0.017 A 
ATOM      5  C4  UNL d   1       1.559  -0.770  -0.078  0.00  0.00     0.017 A 
ATOM      6  C5  UNL d   1       0.580  -0.049   0.614  0.00  0.00     0.034 A 
ATOM      7 Cl   UNL d   1       3.122  -0.906   0.647  0.00  0.00    -0.070 Cl
ATOM      8 Cl1  UNL d   1       2.405  -2.254  -2.228  0.00  0.00    -0.070 Cl
ENDROOT
TORSDOF 0
ENDMDL
