MODEL 1
REMARK minimizedAffinity -2.1593461
REMARK minimizedRMSD -1
REMARK  0 active torsions:
REMARK  status: ('A' for Active; 'I' for Inactive)
ROOT
ATOM      1  C   UNL d   1       3.724  -0.512  -0.563  0.00  0.00     0.020 A 
ATOM      2  C1  UNL d   1       2.753  -1.506  -0.678  0.00  0.00     0.020 A 
ATOM      3  C2  UNL d   1       1.399  -1.168  -0.628  0.00  0.00     0.034 A 
ATOM      4  C3  UNL d   1       1.012   0.167  -0.464  0.00  0.00     0.017 A 
ATOM      5  C4  UNL d   1       1.988   1.164  -0.349  0.00  0.00     0.017 A 
ATOM      6  C5  UNL d   1       3.342   0.820  -0.399  0.00  0.00     0.034 A 
ATOM      7 Cl   UNL d   1       1.588   2.833  -0.143  0.00  0.00    -0.070 Cl
ATOM      8 Cl1  UNL d   1      -0.680   0.513  -0.411  0.00  0.00    -0.070 Cl
ENDROOT
TORSDOF 0
ENDMDL
