MODEL 1
REMARK minimizedAffinity -0.851813078
REMARK minimizedRMSD -1
REMARK  0 active torsions:
REMARK  status: ('A' for Active; 'I' for Inactive)
ROOT
ATOM      1  C   UNL d   1       0.002  -1.932  -0.614  0.00  0.00     0.020 A 
ATOM      2  C1  UNL d   1       1.345  -2.247  -0.411  0.00  0.00     0.020 A 
ATOM      3  C2  UNL d   1       2.274  -1.229  -0.184  0.00  0.00     0.034 A 
ATOM      4  C3  UNL d   1       1.861   0.108  -0.160  0.00  0.00     0.017 A 
ATOM      5  C4  UNL d   1       0.512   0.423  -0.364  0.00  0.00     0.017 A 
ATOM      6  C5  UNL d   1      -0.414  -0.600  -0.590  0.00  0.00     0.034 A 
ATOM      7 Cl   UNL d   1      -0.073   2.049  -0.348  0.00  0.00    -0.070 Cl
ATOM      8 Cl1  UNL d   1       3.063   1.315   0.126  0.00  0.00    -0.070 Cl
ENDROOT
TORSDOF 0
ENDMDL
