MODEL 1
REMARK minimizedAffinity -4.98857689
REMARK minimizedRMSD -1
REMARK  0 active torsions:
REMARK  status: ('A' for Active; 'I' for Inactive)
ROOT
ATOM      1  C   UNL d   1       2.758   0.884  -0.031  0.00  0.00     0.020 A 
ATOM      2  C1  UNL d   1       3.232  -0.426  -0.075  0.00  0.00     0.020 A 
ATOM      3  C2  UNL d   1       2.335  -1.491  -0.186  0.00  0.00     0.034 A 
ATOM      4  C3  UNL d   1       0.958  -1.246  -0.253  0.00  0.00     0.017 A 
ATOM      5  C4  UNL d   1       0.483   0.069  -0.209  0.00  0.00     0.017 A 
ATOM      6  C5  UNL d   1       1.386   1.131  -0.098  0.00  0.00     0.034 A 
ATOM      7 Cl   UNL d   1      -1.201   0.450  -0.287  0.00  0.00    -0.070 Cl
ATOM      8 Cl1  UNL d   1      -0.094  -2.610  -0.390  0.00  0.00    -0.070 Cl
ENDROOT
TORSDOF 0
ENDMDL
