MODEL 1
REMARK minimizedAffinity -1.57246208
REMARK minimizedRMSD -1
REMARK  0 active torsions:
REMARK  status: ('A' for Active; 'I' for Inactive)
ROOT
ATOM      1  C   UNL d   1      -1.385  -0.901  -0.434  0.00  0.00     0.020 A 
ATOM      2  C1  UNL d   1      -1.477   0.488  -0.361  0.00  0.00     0.020 A 
ATOM      3  C2  UNL d   1      -0.321   1.257  -0.211  0.00  0.00     0.034 A 
ATOM      4  C3  UNL d   1       0.932   0.638  -0.135  0.00  0.00     0.017 A 
ATOM      5  C4  UNL d   1       1.023  -0.757  -0.209  0.00  0.00     0.017 A 
ATOM      6  C5  UNL d   1      -0.138  -1.522  -0.359  0.00  0.00     0.034 A 
ATOM      7 Cl   UNL d   1       2.533  -1.593  -0.122  0.00  0.00    -0.070 Cl
ATOM      8 Cl1  UNL d   1       2.319   1.651   0.050  0.00  0.00    -0.070 Cl
ENDROOT
TORSDOF 0
ENDMDL
