MODEL 1
REMARK minimizedAffinity 16.7220573
REMARK minimizedRMSD -1
REMARK  2 active torsions:
REMARK  status: ('A' for Active; 'I' for Inactive)
REMARK    1  A    between atoms: C1_2  and  C2_3 
REMARK    2  A    between atoms: C2_3  and  C3_4 
ROOT
ATOM      1  C3  UNL d   1       4.245  -4.812  -2.869  0.00  0.00    -0.075 A 
ATOM      2  C4  UNL d   1       4.563  -5.998  -2.192  0.00  0.00     0.002 A 
ATOM      3  C5  UNL d   1       5.136  -5.957  -0.921  0.00  0.00     0.002 A 
ATOM      4  C6  UNL d   1       5.406  -4.733  -0.314  0.00  0.00    -0.004 A 
ATOM      5  C7  UNL d   1       5.110  -3.547  -0.984  0.00  0.00     0.002 A 
ATOM      6  C8  UNL d   1       4.533  -3.585  -2.254  0.00  0.00     0.002 A 
ENDROOT
BRANCH   1   7
ATOM      7  C2  UNL d   1       3.599  -4.849  -4.233  0.00  0.00     0.056 C 
BRANCH   7   8
ATOM      8  C1  UNL d   1       4.517  -5.369  -5.344  0.00  0.00     0.007 C 
ATOM      9  C   UNL d   1       5.678  -4.433  -5.651  0.00  0.00     0.009 C 
ENDBRANCH   7   8
ENDBRANCH   1   7
TORSDOF 2
ENDMDL
