MODEL 1
REMARK minimizedAffinity 1.0466975
REMARK minimizedRMSD -1
REMARK  2 active torsions:
REMARK  status: ('A' for Active; 'I' for Inactive)
REMARK    1  A    between atoms: C1_2  and  C2_3 
REMARK    2  A    between atoms: C2_3  and  C3_4 
ROOT
ATOM      1  C3  UNL d   1       0.485   3.896  -0.097  0.00  0.00    -0.075 A 
ATOM      2  C4  UNL d   1       0.055   3.031   0.920  0.00  0.00     0.002 A 
ATOM      3  C5  UNL d   1       0.910   2.689   1.968  0.00  0.00     0.002 A 
ATOM      4  C6  UNL d   1       2.207   3.198   2.008  0.00  0.00    -0.004 A 
ATOM      5  C7  UNL d   1       2.650   4.046   0.994  0.00  0.00     0.002 A 
ATOM      6  C8  UNL d   1       1.795   4.393  -0.053  0.00  0.00     0.002 A 
ENDROOT
BRANCH   1   7
ATOM      7  C2  UNL d   1      -0.445   4.294  -1.218  0.00  0.00     0.056 C 
BRANCH   7   8
ATOM      8  C1  UNL d   1      -1.821   4.776  -0.745  0.00  0.00     0.007 C 
ATOM      9  C   UNL d   1      -1.764   5.578   0.548  0.00  0.00     0.009 C 
ENDBRANCH   7   8
ENDBRANCH   1   7
TORSDOF 2
ENDMDL
