MODEL 1
REMARK minimizedAffinity -0.46823588
REMARK minimizedRMSD -1
REMARK  2 active torsions:
REMARK  status: ('A' for Active; 'I' for Inactive)
REMARK    1  A    between atoms: C1_2  and  C2_3 
REMARK    2  A    between atoms: C2_3  and  C3_4 
ROOT
ATOM      1  C3  UNL d   1      -5.714   3.010  -4.330  0.00  0.00    -0.075 A 
ATOM      2  C4  UNL d   1      -5.156   4.295  -4.261  0.00  0.00     0.002 A 
ATOM      3  C5  UNL d   1      -4.870   4.877  -3.025  0.00  0.00     0.002 A 
ATOM      4  C6  UNL d   1      -5.147   4.188  -1.846  0.00  0.00    -0.004 A 
ATOM      5  C7  UNL d   1      -5.716   2.918  -1.904  0.00  0.00     0.002 A 
ATOM      6  C8  UNL d   1      -6.000   2.331  -3.138  0.00  0.00     0.002 A 
ENDROOT
BRANCH   1   7
ATOM      7  C2  UNL d   1      -5.999   2.363  -5.665  0.00  0.00     0.056 C 
BRANCH   7   8
ATOM      8  C1  UNL d   1      -5.848   0.838  -5.663  0.00  0.00     0.007 C 
ATOM      9  C   UNL d   1      -4.430   0.375  -5.974  0.00  0.00     0.009 C 
ENDBRANCH   7   8
ENDBRANCH   1   7
TORSDOF 2
ENDMDL
