MODEL 1
REMARK minimizedAffinity 10.2129097
REMARK minimizedRMSD -1
REMARK  2 active torsions:
REMARK  status: ('A' for Active; 'I' for Inactive)
REMARK    1  A    between atoms: C1_2  and  C2_3 
REMARK    2  A    between atoms: C2_3  and  C3_4 
ROOT
ATOM      1  C3  UNL d   1      -4.770  -0.225   4.084  0.00  0.00    -0.075 A 
ATOM      2  C4  UNL d   1      -5.778  -0.077   5.048  0.00  0.00     0.002 A 
ATOM      3  C5  UNL d   1      -6.000  -1.073   6.000  0.00  0.00     0.002 A 
ATOM      4  C6  UNL d   1      -5.226  -2.231   5.994  0.00  0.00    -0.004 A 
ATOM      5  C7  UNL d   1      -4.233  -2.396   5.031  0.00  0.00     0.002 A 
ATOM      6  C8  UNL d   1      -4.006  -1.400   4.080  0.00  0.00     0.002 A 
ENDROOT
BRANCH   1   7
ATOM      7  C2  UNL d   1      -4.505   0.861   3.070  0.00  0.00     0.056 C 
BRANCH   7   8
ATOM      8  C1  UNL d   1      -3.180   0.702   2.316  0.00  0.00     0.007 C 
ATOM      9  C   UNL d   1      -3.364   0.395   0.836  0.00  0.00     0.009 C 
ENDBRANCH   7   8
ENDBRANCH   1   7
TORSDOF 2
ENDMDL
