MODEL 1
REMARK minimizedAffinity 3.36103129
REMARK minimizedRMSD -1
REMARK  2 active torsions:
REMARK  status: ('A' for Active; 'I' for Inactive)
REMARK    1  A    between atoms: C1_2  and  C2_3 
REMARK    2  A    between atoms: C2_3  and  C3_4 
ROOT
ATOM      1  C3  UNL d   1      -4.169   4.426  -2.915  0.00  0.00    -0.075 A 
ATOM      2  C4  UNL d   1      -4.190   4.079  -4.274  0.00  0.00     0.002 A 
ATOM      3  C5  UNL d   1      -5.097   4.682  -5.145  0.00  0.00     0.002 A 
ATOM      4  C6  UNL d   1      -6.000   5.630  -4.669  0.00  0.00    -0.004 A 
ATOM      5  C7  UNL d   1      -6.000   5.970  -3.318  0.00  0.00     0.002 A 
ATOM      6  C8  UNL d   1      -5.090   5.372  -2.445  0.00  0.00     0.002 A 
ENDROOT
BRANCH   1   7
ATOM      7  C2  UNL d   1      -3.170   3.799  -1.972  0.00  0.00     0.056 C 
BRANCH   7   8
ATOM      8  C1  UNL d   1      -1.758   4.384  -2.080  0.00  0.00     0.007 C 
ATOM      9  C   UNL d   1      -0.764   3.734  -1.127  0.00  0.00     0.009 C 
ENDBRANCH   7   8
ENDBRANCH   1   7
TORSDOF 2
ENDMDL
