MODEL 1
REMARK minimizedAffinity 1.96312606
REMARK minimizedRMSD -1
REMARK  2 active torsions:
REMARK  status: ('A' for Active; 'I' for Inactive)
REMARK    1  A    between atoms: C1_2  and  C2_3 
REMARK    2  A    between atoms: C2_3  and  C3_4 
ROOT
ATOM      1  C3  UNL d   1      -4.918   2.162  -3.844  0.00  0.00    -0.075 A 
ATOM      2  C4  UNL d   1      -3.854   1.988  -4.741  0.00  0.00     0.002 A 
ATOM      3  C5  UNL d   1      -3.871   0.945  -5.667  0.00  0.00     0.002 A 
ATOM      4  C6  UNL d   1      -4.945   0.058  -5.702  0.00  0.00    -0.004 A 
ATOM      5  C7  UNL d   1      -6.000   0.212  -4.805  0.00  0.00     0.002 A 
ATOM      6  C8  UNL d   1      -5.988   1.257  -3.880  0.00  0.00     0.002 A 
ENDROOT
BRANCH   1   7
ATOM      7  C2  UNL d   1      -4.920   3.307  -2.859  0.00  0.00     0.056 C 
BRANCH   7   8
ATOM      8  C1  UNL d   1      -5.969   3.174  -1.751  0.00  0.00     0.007 C 
ATOM      9  C   UNL d   1      -6.000   1.791  -1.115  0.00  0.00     0.009 C 
ENDBRANCH   7   8
ENDBRANCH   1   7
TORSDOF 2
ENDMDL
