MODEL 1
REMARK minimizedAffinity 5.82589817
REMARK minimizedRMSD -1
REMARK  2 active torsions:
REMARK  status: ('A' for Active; 'I' for Inactive)
REMARK    1  A    between atoms: C1_2  and  C2_3 
REMARK    2  A    between atoms: C2_3  and  C3_4 
ROOT
ATOM      1  C3  UNL d   1       2.929  -1.544   0.868  0.00  0.00    -0.075 A 
ATOM      2  C4  UNL d   1       2.535  -2.676   1.598  0.00  0.00     0.002 A 
ATOM      3  C5  UNL d   1       1.923  -2.537   2.844  0.00  0.00     0.002 A 
ATOM      4  C6  UNL d   1       1.706  -1.269   3.380  0.00  0.00    -0.004 A 
ATOM      5  C7  UNL d   1       2.109  -0.139   2.671  0.00  0.00     0.002 A 
ATOM      6  C8  UNL d   1       2.718  -0.275   1.422  0.00  0.00     0.002 A 
ENDROOT
BRANCH   1   7
ATOM      7  C2  UNL d   1       3.566  -1.687  -0.493  0.00  0.00     0.056 C 
BRANCH   7   8
ATOM      8  C1  UNL d   1       5.066  -1.998  -0.451  0.00  0.00     0.007 C 
ATOM      9  C   UNL d   1       5.383  -3.463  -0.722  0.00  0.00     0.009 C 
ENDBRANCH   7   8
ENDBRANCH   1   7
TORSDOF 2
ENDMDL
