MODEL 1
REMARK minimizedAffinity 5.67307138
REMARK minimizedRMSD -1
REMARK  2 active torsions:
REMARK  status: ('A' for Active; 'I' for Inactive)
REMARK    1  A    between atoms: C1_2  and  C2_3 
REMARK    2  A    between atoms: C2_3  and  C3_4 
ROOT
ATOM      1  C3  UNL d   1      -5.509   3.294  -3.976  0.00  0.00    -0.075 A 
ATOM      2  C4  UNL d   1      -4.692   4.434  -3.972  0.00  0.00     0.002 A 
ATOM      3  C5  UNL d   1      -4.344   5.052  -2.770  0.00  0.00     0.002 A 
ATOM      4  C6  UNL d   1      -4.815   4.545  -1.561  0.00  0.00    -0.004 A 
ATOM      5  C7  UNL d   1      -5.642   3.424  -1.555  0.00  0.00     0.002 A 
ATOM      6  C8  UNL d   1      -5.988   2.801  -2.755  0.00  0.00     0.002 A 
ENDROOT
BRANCH   1   7
ATOM      7  C2  UNL d   1      -5.866   2.604  -5.271  0.00  0.00     0.056 C 
BRANCH   7   8
ATOM      8  C1  UNL d   1      -5.997   1.082  -5.151  0.00  0.00     0.007 C 
ATOM      9  C   UNL d   1      -4.868   0.326  -5.840  0.00  0.00     0.009 C 
ENDBRANCH   7   8
ENDBRANCH   1   7
TORSDOF 2
ENDMDL
