MODEL 1
REMARK minimizedAffinity 8.36371517
REMARK minimizedRMSD -1
REMARK  0 active torsions:
REMARK  status: ('A' for Active; 'I' for Inactive)
ROOT
ATOM      1  C   UNL d   1       0.334   1.517   2.718  0.00  0.00    -0.002 A 
ATOM      2  C1  UNL d   1      -1.021   1.817   2.688  0.00  0.00     0.010 A 
ATOM      3  C2  UNL d   1      -1.572   2.506   1.606  0.00  0.00     0.041 A 
ATOM      4  C3  UNL d   1      -0.731   2.892   0.544  0.00  0.00    -0.075 A 
ATOM      5  S   UNL d   1      -1.185   3.744  -0.885  0.00  0.00     0.015 SA
ATOM      6  C4  UNL d   1       0.409   3.730  -1.489  0.00  0.00     0.022 A 
ATOM      7  C5  UNL d   1       1.279   3.095  -0.635  0.00  0.00     0.026 A 
ATOM      8  C6  UNL d   1       0.636   2.601   0.551  0.00  0.00    -0.082 A 
ATOM      9  C7  UNL d   1       1.165   1.901   1.662  0.00  0.00     0.045 A 
ENDROOT
TORSDOF 0
ENDMDL
