MODEL 1
REMARK minimizedAffinity 10.7661095
REMARK minimizedRMSD -1
REMARK  0 active torsions:
REMARK  status: ('A' for Active; 'I' for Inactive)
ROOT
ATOM      1  C   UNL d   1      -2.969   3.637   0.023  0.00  0.00    -0.002 A 
ATOM      2  C1  UNL d   1      -3.185   3.806   1.384  0.00  0.00     0.010 A 
ATOM      3  C2  UNL d   1      -2.234   3.377   2.312  0.00  0.00     0.041 A 
ATOM      4  C3  UNL d   1      -1.051   2.771   1.845  0.00  0.00    -0.075 A 
ATOM      5  S   UNL d   1       0.254   2.169   2.798  0.00  0.00     0.015 SA
ATOM      6  C4  UNL d   1       1.129   1.675   1.421  0.00  0.00     0.022 A 
ATOM      7  C5  UNL d   1       0.457   1.954   0.255  0.00  0.00     0.026 A 
ATOM      8  C6  UNL d   1      -0.810   2.591   0.480  0.00  0.00    -0.082 A 
ATOM      9  C7  UNL d   1      -1.794   3.036  -0.436  0.00  0.00     0.045 A 
ENDROOT
TORSDOF 0
ENDMDL
