MODEL 1
REMARK minimizedAffinity 6.81962395
REMARK minimizedRMSD -1
REMARK  1 active torsions:
REMARK  status: ('A' for Active; 'I' for Inactive)
REMARK    1  A    between atoms: C1_2  and  C2_3 
ROOT
ATOM      1  C2  UNL d   1      -1.261  -1.892   1.771  0.00  0.00    -0.076 A 
ATOM      2  C3  UNL d   1      -0.977  -0.571   2.156  0.00  0.00     0.004 A 
ATOM      3  C4  UNL d   1      -1.995   0.371   2.295  0.00  0.00    -0.003 A 
ATOM      4  C5  UNL d   1      -3.314   0.006   2.052  0.00  0.00     0.000 A 
ATOM      5  C6  UNL d   1      -3.617  -1.305   1.685  0.00  0.00     0.000 A 
ATOM      6  C7  UNL d   1      -2.604  -2.271   1.557  0.00  0.00    -0.073 A 
ATOM      7  C8  UNL d   1      -2.986  -3.668   1.153  0.00  0.00     0.078 C 
ENDROOT
BRANCH   1   8
ATOM      8  C1  UNL d   1      -0.113  -2.863   1.610  0.00  0.00     0.053 C 
ATOM      9  C   UNL d   1       0.814  -2.484   0.466  0.00  0.00     0.018 C 
ENDBRANCH   1   8
TORSDOF 1
ENDMDL
