MODEL 1
REMARK minimizedAffinity 1.1723783
REMARK minimizedRMSD -1
REMARK  1 active torsions:
REMARK  status: ('A' for Active; 'I' for Inactive)
REMARK    1  A    between atoms: C1_2  and  C2_3 
ROOT
ATOM      1  C2  UNL d   1      -3.320   3.386  -3.141  0.00  0.00    -0.076 A 
ATOM      2  C3  UNL d   1      -3.898   2.890  -1.959  0.00  0.00     0.004 A 
ATOM      3  C4  UNL d   1      -5.226   2.469  -1.931  0.00  0.00    -0.003 A 
ATOM      4  C5  UNL d   1      -5.999   2.536  -3.086  0.00  0.00     0.000 A 
ATOM      5  C6  UNL d   1      -5.437   3.009  -4.271  0.00  0.00     0.000 A 
ATOM      6  C7  UNL d   1      -4.094   3.422  -4.320  0.00  0.00    -0.073 A 
ATOM      7  C8  UNL d   1      -3.542   3.928  -5.624  0.00  0.00     0.078 C 
ENDROOT
BRANCH   1   8
ATOM      8  C1  UNL d   1      -1.883   3.854  -3.103  0.00  0.00     0.053 C 
ATOM      9  C   UNL d   1      -0.942   2.905  -3.829  0.00  0.00     0.018 C 
ENDBRANCH   1   8
TORSDOF 1
ENDMDL
