MODEL 1
REMARK minimizedAffinity 1.02134633
REMARK minimizedRMSD -1
REMARK  1 active torsions:
REMARK  status: ('A' for Active; 'I' for Inactive)
REMARK    1  A    between atoms: C1_2  and  C2_3 
ROOT
ATOM      1  C2  UNL d   1       2.199  -1.141  -1.282  0.00  0.00    -0.076 A 
ATOM      2  C3  UNL d   1       1.405  -1.640  -0.235  0.00  0.00     0.004 A 
ATOM      3  C4  UNL d   1       0.981  -0.811   0.803  0.00  0.00    -0.003 A 
ATOM      4  C5  UNL d   1       1.344   0.531   0.810  0.00  0.00     0.000 A 
ATOM      5  C6  UNL d   1       2.117   1.047  -0.230  0.00  0.00     0.000 A 
ATOM      6  C7  UNL d   1       2.538   0.229  -1.292  0.00  0.00    -0.073 A 
ATOM      7  C8  UNL d   1       3.375   0.837  -2.384  0.00  0.00     0.078 C 
ENDROOT
BRANCH   1   8
ATOM      8  C1  UNL d   1       2.651  -2.093  -2.366  0.00  0.00     0.053 C 
ATOM      9  C   UNL d   1       1.520  -2.486  -3.304  0.00  0.00     0.018 C 
ENDBRANCH   1   8
TORSDOF 1
ENDMDL
