MODEL 1
REMARK minimizedAffinity -3.01692009
REMARK minimizedRMSD -1
REMARK  1 active torsions:
REMARK  status: ('A' for Active; 'I' for Inactive)
REMARK    1  A    between atoms: C1_2  and  C2_3 
ROOT
ATOM      1  C2  UNL d   1      -2.788   3.453  -2.957  0.00  0.00    -0.076 A 
ATOM      2  C3  UNL d   1      -2.536   2.145  -3.405  0.00  0.00     0.004 A 
ATOM      3  C4  UNL d   1      -1.247   1.739  -3.746  0.00  0.00    -0.003 A 
ATOM      4  C5  UNL d   1      -0.188   2.634  -3.643  0.00  0.00     0.000 A 
ATOM      5  C6  UNL d   1      -0.417   3.931  -3.183  0.00  0.00     0.000 A 
ATOM      6  C7  UNL d   1      -1.708   4.351  -2.820  0.00  0.00    -0.073 A 
ATOM      7  C8  UNL d   1      -1.898   5.763  -2.335  0.00  0.00     0.078 C 
ENDROOT
BRANCH   1   8
ATOM      8  C1  UNL d   1      -4.211   3.844  -2.628  0.00  0.00     0.053 C 
ATOM      9  C   UNL d   1      -4.963   2.745  -1.894  0.00  0.00     0.018 C 
ENDBRANCH   1   8
TORSDOF 1
ENDMDL
