MODEL 1
REMARK minimizedAffinity 7.36360836
REMARK minimizedRMSD -1
REMARK  1 active torsions:
REMARK  status: ('A' for Active; 'I' for Inactive)
REMARK    1  A    between atoms: C1_2  and  C2_3 
ROOT
ATOM      1  C2  UNL d   1       1.955   0.229  -0.132  0.00  0.00    -0.076 A 
ATOM      2  C3  UNL d   1       2.680  -0.435  -1.137  0.00  0.00     0.004 A 
ATOM      3  C4  UNL d   1       2.759  -1.827  -1.164  0.00  0.00    -0.003 A 
ATOM      4  C5  UNL d   1       2.115  -2.576  -0.186  0.00  0.00     0.000 A 
ATOM      5  C6  UNL d   1       1.377  -1.935   0.808  0.00  0.00     0.000 A 
ATOM      6  C7  UNL d   1       1.273  -0.534   0.840  0.00  0.00    -0.073 A 
ATOM      7  C8  UNL d   1       0.469   0.106   1.938  0.00  0.00     0.078 C 
ENDROOT
BRANCH   1   8
ATOM      8  C1  UNL d   1       1.927   1.741  -0.139  0.00  0.00     0.053 C 
ATOM      9  C   UNL d   1       2.856   2.336  -1.185  0.00  0.00     0.018 C 
ENDBRANCH   1   8
TORSDOF 1
ENDMDL
