MODEL 1
REMARK minimizedAffinity -0.752224445
REMARK minimizedRMSD -1
REMARK  1 active torsions:
REMARK  status: ('A' for Active; 'I' for Inactive)
REMARK    1  A    between atoms: C1_2  and  C2_3 
ROOT
ATOM      1  C2  UNL d   1       1.194  -0.736   0.792  0.00  0.00    -0.076 A 
ATOM      2  C3  UNL d   1       1.762  -1.878   0.198  0.00  0.00     0.004 A 
ATOM      3  C4  UNL d   1       2.420  -1.797  -1.028  0.00  0.00    -0.003 A 
ATOM      4  C5  UNL d   1       2.522  -0.573  -1.680  0.00  0.00     0.000 A 
ATOM      5  C6  UNL d   1       1.980   0.572  -1.098  0.00  0.00     0.000 A 
ATOM      6  C7  UNL d   1       1.328   0.511   0.145  0.00  0.00    -0.073 A 
ATOM      7  C8  UNL d   1       0.757   1.777   0.724  0.00  0.00     0.078 C 
ENDROOT
BRANCH   1   8
ATOM      8  C1  UNL d   1       0.469  -0.890   2.109  0.00  0.00     0.053 C 
ATOM      9  C   UNL d   1      -0.550  -2.018   2.085  0.00  0.00     0.018 C 
ENDBRANCH   1   8
TORSDOF 1
ENDMDL
