MODEL 1
REMARK minimizedAffinity -0.873298049
REMARK minimizedRMSD -1
REMARK  1 active torsions:
REMARK  status: ('A' for Active; 'I' for Inactive)
REMARK    1  A    between atoms: C1_2  and  C2_3 
ROOT
ATOM      1  C2  UNL d   1       2.959  -0.965  -1.200  0.00  0.00    -0.076 A 
ATOM      2  C3  UNL d   1       2.220  -1.872  -0.422  0.00  0.00     0.004 A 
ATOM      3  C4  UNL d   1       1.204  -1.430   0.424  0.00  0.00    -0.003 A 
ATOM      4  C5  UNL d   1       0.909  -0.073   0.504  0.00  0.00     0.000 A 
ATOM      5  C6  UNL d   1       1.621   0.839  -0.274  0.00  0.00     0.000 A 
ATOM      6  C7  UNL d   1       2.637   0.408  -1.144  0.00  0.00    -0.073 A 
ATOM      7  C8  UNL d   1       3.376   1.437  -1.956  0.00  0.00     0.078 C 
ENDROOT
BRANCH   1   8
ATOM      8  C1  UNL d   1       4.067  -1.499  -2.078  0.00  0.00     0.053 C 
ATOM      9  C   UNL d   1       4.881  -0.391  -2.729  0.00  0.00     0.018 C 
ENDBRANCH   1   8
TORSDOF 1
ENDMDL
