MODEL 1
REMARK minimizedAffinity 5.34207392
REMARK minimizedRMSD -1
REMARK  1 active torsions:
REMARK  status: ('A' for Active; 'I' for Inactive)
REMARK    1  A    between atoms: C1_2  and  C2_3 
ROOT
ATOM      1  C2  UNL d   1      -1.466   3.650  -3.245  0.00  0.00    -0.076 A 
ATOM      2  C3  UNL d   1      -2.431   4.602  -2.869  0.00  0.00     0.004 A 
ATOM      3  C4  UNL d   1      -2.065   5.766  -2.195  0.00  0.00    -0.003 A 
ATOM      4  C5  UNL d   1      -0.730   5.998  -1.887  0.00  0.00     0.000 A 
ATOM      5  C6  UNL d   1       0.242   5.073  -2.267  0.00  0.00     0.000 A 
ATOM      6  C7  UNL d   1      -0.107   3.902  -2.961  0.00  0.00    -0.073 A 
ATOM      7  C8  UNL d   1       0.982   2.937  -3.342  0.00  0.00     0.078 C 
ENDROOT
BRANCH   1   8
ATOM      8  C1  UNL d   1      -1.925   2.394  -3.949  0.00  0.00     0.053 C 
ATOM      9  C   UNL d   1      -0.820   1.355  -4.066  0.00  0.00     0.018 C 
ENDBRANCH   1   8
TORSDOF 1
ENDMDL
