MODEL 1
REMARK minimizedAffinity -1.63773108
REMARK minimizedRMSD -1
REMARK  1 active torsions:
REMARK  status: ('A' for Active; 'I' for Inactive)
REMARK    1  A    between atoms: C1_2  and  C2_3 
ROOT
ATOM      1  C2  UNL d   1       1.349  -0.058   0.604  0.00  0.00    -0.076 A 
ATOM      2  C3  UNL d   1       1.636  -1.248  -0.087  0.00  0.00     0.004 A 
ATOM      3  C4  UNL d   1       2.518  -1.255  -1.167  0.00  0.00    -0.003 A 
ATOM      4  C5  UNL d   1       3.126  -0.073  -1.573  0.00  0.00     0.000 A 
ATOM      5  C6  UNL d   1       2.866   1.114  -0.888  0.00  0.00     0.000 A 
ATOM      6  C7  UNL d   1       1.993   1.136   0.213  0.00  0.00    -0.073 A 
ATOM      7  C8  UNL d   1       1.744   2.444   0.911  0.00  0.00     0.078 C 
ENDROOT
BRANCH   1   8
ATOM      8  C1  UNL d   1       0.364  -0.106   1.750  0.00  0.00     0.053 C 
ATOM      9  C   UNL d   1      -0.509  -1.351   1.716  0.00  0.00     0.018 C 
ENDBRANCH   1   8
TORSDOF 1
ENDMDL
