MODEL 1
REMARK minimizedAffinity 8.98944187
REMARK minimizedRMSD -1
REMARK  0 active torsions:
REMARK  status: ('A' for Active; 'I' for Inactive)
ROOT
ATOM      1  N1  IND d   1       0.742  -0.693  -1.691  0.00  0.00    -0.196 N 
ATOM      2  C2  IND d   1       0.672  -2.011  -2.046  0.00  0.00     0.054 A 
ATOM      3  C3  IND d   1      -0.615  -2.425  -2.065  0.00  0.00    -0.031 A 
ATOM      4  C4  IND d   1      -2.771  -1.082  -1.647  0.00  0.00     0.051 A 
ATOM      5  C5  IND d   1      -3.214   0.151  -1.255  0.00  0.00    -0.031 A 
ATOM      6  C6  IND d   1      -2.342   1.186  -0.985  0.00  0.00     0.015 A 
ATOM      7  C7  IND d   1      -0.991   1.031  -1.110  0.00  0.00    -0.016 A 
ATOM      8  C8  IND d   1      -0.538  -0.221  -1.501  0.00  0.00    -0.047 A 
ATOM      9  C9  IND d   1      -1.415  -1.288  -1.734  0.00  0.00    -0.096 A 
ATOM     10  HN1 IND d   1       1.465  -0.235  -1.602  0.00  0.00     0.298 HD
ENDROOT
TORSDOF 0
ENDMDL
