MODEL 1
REMARK minimizedAffinity 8.08225155
REMARK minimizedRMSD -1
REMARK  0 active torsions:
REMARK  status: ('A' for Active; 'I' for Inactive)
ROOT
ATOM      1  N1  IND d   1       0.020   2.274  -0.862  0.00  0.00    -0.196 N 
ATOM      2  C2  IND d   1       0.049   1.771   0.409  0.00  0.00     0.054 A 
ATOM      3  C3  IND d   1      -0.377   2.702   1.293  0.00  0.00    -0.031 A 
ATOM      4  C4  IND d   1      -1.265   5.080   0.862  0.00  0.00     0.051 A 
ATOM      5  C5  IND d   1      -1.447   5.998  -0.134  0.00  0.00    -0.031 A 
ATOM      6  C6  IND d   1      -1.145   5.715  -1.451  0.00  0.00     0.015 A 
ATOM      7  C7  IND d   1      -0.660   4.493  -1.823  0.00  0.00    -0.016 A 
ATOM      8  C8  IND d   1      -0.467   3.561  -0.814  0.00  0.00    -0.047 A 
ATOM      9  C9  IND d   1      -0.731   3.857   0.530  0.00  0.00    -0.096 A 
ATOM     10  HN1 IND d   1       0.265   1.855  -1.572  0.00  0.00     0.298 HD
ENDROOT
TORSDOF 0
ENDMDL
