MODEL 1
REMARK minimizedAffinity 5.46010065
REMARK minimizedRMSD -1
REMARK  0 active torsions:
REMARK  status: ('A' for Active; 'I' for Inactive)
ROOT
ATOM      1  N1  IND d   1      -2.590  -1.865  -4.345  0.00  0.00    -0.196 N 
ATOM      2  C2  IND d   1      -1.714  -2.154  -5.354  0.00  0.00     0.054 A 
ATOM      3  C3  IND d   1      -0.450  -1.855  -4.980  0.00  0.00    -0.031 A 
ATOM      4  C4  IND d   1       0.424  -0.977  -2.723  0.00  0.00     0.051 A 
ATOM      5  C5  IND d   1      -0.002  -0.528  -1.505  0.00  0.00    -0.031 A 
ATOM      6  C6  IND d   1      -1.338  -0.503  -1.163  0.00  0.00     0.015 A 
ATOM      7  C7  IND d   1      -2.303  -0.939  -2.026  0.00  0.00    -0.016 A 
ATOM      8  C8  IND d   1      -1.875  -1.390  -3.267  0.00  0.00    -0.047 A 
ATOM      9  C9  IND d   1      -0.524  -1.378  -3.636  0.00  0.00    -0.096 A 
ATOM     10  HN1 IND d   1      -3.444  -1.963  -4.378  0.00  0.00     0.298 HD
ENDROOT
TORSDOF 0
ENDMDL
