MODEL 1
REMARK minimizedAffinity 11.6978436
REMARK minimizedRMSD -1
REMARK  0 active torsions:
REMARK  status: ('A' for Active; 'I' for Inactive)
ROOT
ATOM      1  N1  IND d   1      -0.847   0.729  -2.153  0.00  0.00    -0.196 N 
ATOM      2  C2  IND d   1      -1.284  -0.565  -2.098  0.00  0.00     0.054 A 
ATOM      3  C3  IND d   1      -1.677  -0.876  -0.843  0.00  0.00    -0.031 A 
ATOM      4  C4  IND d   1      -1.785   0.614   1.254  0.00  0.00     0.051 A 
ATOM      5  C5  IND d   1      -1.457   1.861   1.707  0.00  0.00    -0.031 A 
ATOM      6  C6  IND d   1      -0.901   2.815   0.879  0.00  0.00     0.015 A 
ATOM      7  C7  IND d   1      -0.661   2.560  -0.441  0.00  0.00    -0.016 A 
ATOM      8  C8  IND d   1      -0.986   1.292  -0.903  0.00  0.00    -0.047 A 
ATOM      9  C9  IND d   1      -1.511   0.306  -0.058  0.00  0.00    -0.096 A 
ATOM     10  HN1 IND d   1      -0.538   1.126  -2.851  0.00  0.00     0.298 HD
ENDROOT
TORSDOF 0
ENDMDL
