MODEL 1
REMARK minimizedAffinity 2.55004144
REMARK minimizedRMSD -1
REMARK  0 active torsions:
REMARK  status: ('A' for Active; 'I' for Inactive)
ROOT
ATOM      1  N1  IND d   1      -0.745   4.259  -2.361  0.00  0.00    -0.196 N 
ATOM      2  C2  IND d   1      -0.550   5.479  -1.776  0.00  0.00     0.054 A 
ATOM      3  C3  IND d   1      -0.338   5.335  -0.448  0.00  0.00    -0.031 A 
ATOM      4  C4  IND d   1      -0.167   3.185   0.958  0.00  0.00     0.051 A 
ATOM      5  C5  IND d   1      -0.311   1.829   0.873  0.00  0.00    -0.031 A 
ATOM      6  C6  IND d   1      -0.611   1.200  -0.318  0.00  0.00     0.015 A 
ATOM      7  C7  IND d   1      -0.767   1.907  -1.477  0.00  0.00    -0.016 A 
ATOM      8  C8  IND d   1      -0.628   3.285  -1.394  0.00  0.00    -0.047 A 
ATOM      9  C9  IND d   1      -0.366   3.932  -0.179  0.00  0.00    -0.096 A 
ATOM     10  HN1 IND d   1      -0.913   4.123  -3.193  0.00  0.00     0.298 HD
ENDROOT
TORSDOF 0
ENDMDL
