MODEL 1
REMARK minimizedAffinity 17.2823429
REMARK minimizedRMSD -1
REMARK  0 active torsions:
REMARK  status: ('A' for Active; 'I' for Inactive)
ROOT
ATOM      1  N1  IND d   1       0.065   2.127  -0.805  0.00  0.00    -0.196 N 
ATOM      2  C2  IND d   1      -0.326   3.389  -1.157  0.00  0.00     0.054 A 
ATOM      3  C3  IND d   1      -1.610   3.382  -1.581  0.00  0.00    -0.031 A 
ATOM      4  C4  IND d   1      -3.288   1.432  -1.682  0.00  0.00     0.051 A 
ATOM      5  C5  IND d   1      -3.382   0.081  -1.498  0.00  0.00    -0.031 A 
ATOM      6  C6  IND d   1      -2.311  -0.672  -1.062  0.00  0.00     0.015 A 
ATOM      7  C7  IND d   1      -1.103  -0.097  -0.782  0.00  0.00    -0.016 A 
ATOM      8  C8  IND d   1      -1.002   1.273  -0.974  0.00  0.00    -0.047 A 
ATOM      9  C9  IND d   1      -2.074   2.036  -1.457  0.00  0.00    -0.096 A 
ATOM     10  HN1 IND d   1       0.847   1.905  -0.524  0.00  0.00     0.298 HD
ENDROOT
TORSDOF 0
ENDMDL
