MODEL 1
REMARK minimizedAffinity 3.79870033
REMARK minimizedRMSD -1
REMARK  0 active torsions:
REMARK  status: ('A' for Active; 'I' for Inactive)
ROOT
ATOM      1  N1  IND d   1      -4.063  -1.519   1.949  0.00  0.00    -0.196 N 
ATOM      2  C2  IND d   1      -4.333  -0.469   2.781  0.00  0.00     0.054 A 
ATOM      3  C3  IND d   1      -4.328   0.693   2.089  0.00  0.00    -0.031 A 
ATOM      4  C4  IND d   1      -4.001   1.093  -0.433  0.00  0.00     0.051 A 
ATOM      5  C5  IND d   1      -3.689   0.445  -1.595  0.00  0.00    -0.031 A 
ATOM      6  C6  IND d   1      -3.484  -0.919  -1.636  0.00  0.00     0.015 A 
ATOM      7  C7  IND d   1      -3.596  -1.691  -0.514  0.00  0.00    -0.016 A 
ATOM      8  C8  IND d   1      -3.905  -1.035   0.669  0.00  0.00    -0.047 A 
ATOM      9  C9  IND d   1      -4.072   0.355   0.725  0.00  0.00    -0.096 A 
ATOM     10  HN1 IND d   1      -4.001  -2.343   2.185  0.00  0.00     0.298 HD
ENDROOT
TORSDOF 0
ENDMDL
