MODEL 1
REMARK minimizedAffinity 13.5350218
REMARK minimizedRMSD -1
REMARK  0 active torsions:
REMARK  status: ('A' for Active; 'I' for Inactive)
ROOT
ATOM      1  N1  IND d   1       0.285   1.652  -0.828  0.00  0.00    -0.196 N 
ATOM      2  C2  IND d   1      -0.348   2.604  -0.078  0.00  0.00     0.054 A 
ATOM      3  C3  IND d   1      -1.634   2.250   0.143  0.00  0.00    -0.031 A 
ATOM      4  C4  IND d   1      -2.881   0.105  -0.543  0.00  0.00     0.051 A 
ATOM      5  C5  IND d   1      -2.732  -1.041  -1.272  0.00  0.00    -0.031 A 
ATOM      6  C6  IND d   1      -1.544  -1.357  -1.900  0.00  0.00     0.015 A 
ATOM      7  C7  IND d   1      -0.454  -0.539  -1.813  0.00  0.00    -0.016 A 
ATOM      8  C8  IND d   1      -0.604   0.630  -1.080  0.00  0.00    -0.047 A 
ATOM      9  C9  IND d   1      -1.820   0.976  -0.476  0.00  0.00    -0.096 A 
ATOM     10  HN1 IND d   1       1.101   1.686  -1.097  0.00  0.00     0.298 HD
ENDROOT
TORSDOF 0
ENDMDL
