MODEL 1
REMARK minimizedAffinity 4.93372631
REMARK minimizedRMSD -1
REMARK  0 active torsions:
REMARK  status: ('A' for Active; 'I' for Inactive)
ROOT
ATOM      1  N1  IND d   1      -1.036   2.979  -1.313  0.00  0.00    -0.196 N 
ATOM      2  C2  IND d   1       0.113   2.628  -0.661  0.00  0.00     0.054 A 
ATOM      3  C3  IND d   1       0.052   1.339  -0.259  0.00  0.00    -0.031 A 
ATOM      4  C4  IND d   1      -1.796  -0.410  -0.652  0.00  0.00     0.051 A 
ATOM      5  C5  IND d   1      -3.055  -0.551  -1.165  0.00  0.00    -0.031 A 
ATOM      6  C6  IND d   1      -3.717   0.499  -1.769  0.00  0.00     0.015 A 
ATOM      7  C7  IND d   1      -3.138   1.730  -1.892  0.00  0.00    -0.016 A 
ATOM      8  C8  IND d   1      -1.863   1.878  -1.366  0.00  0.00    -0.047 A 
ATOM      9  C9  IND d   1      -1.203   0.829  -0.714  0.00  0.00    -0.096 A 
ATOM     10  HN1 IND d   1      -1.213   3.756  -1.636  0.00  0.00     0.298 HD
ENDROOT
TORSDOF 0
ENDMDL
