MODEL 1
REMARK minimizedAffinity 1.90203404
REMARK minimizedRMSD -1
REMARK  0 active torsions:
REMARK  status: ('A' for Active; 'I' for Inactive)
ROOT
ATOM      1  N1  IND d   1      -0.883   3.492  -0.269  0.00  0.00    -0.196 N 
ATOM      2  C2  IND d   1      -0.545   4.376  -1.256  0.00  0.00     0.054 A 
ATOM      3  C3  IND d   1       0.560   5.071  -0.906  0.00  0.00    -0.031 A 
ATOM      4  C4  IND d   1       2.035   4.852   1.192  0.00  0.00     0.051 A 
ATOM      5  C5  IND d   1       2.108   4.207   2.395  0.00  0.00    -0.031 A 
ATOM      6  C6  IND d   1       1.170   3.269   2.778  0.00  0.00     0.015 A 
ATOM      7  C7  IND d   1       0.126   2.933   1.963  0.00  0.00    -0.016 A 
ATOM      8  C8  IND d   1       0.045   3.591   0.744  0.00  0.00    -0.047 A 
ATOM      9  C9  IND d   1       0.970   4.574   0.369  0.00  0.00    -0.096 A 
ATOM     10  HN1 IND d   1      -1.561   2.964  -0.279  0.00  0.00     0.298 HD
ENDROOT
TORSDOF 0
ENDMDL
