MODEL 1
REMARK minimizedAffinity 4.49326849
REMARK minimizedRMSD -1
REMARK  0 active torsions:
REMARK  status: ('A' for Active; 'I' for Inactive)
ROOT
ATOM      1  N1  IND d   1       0.998   1.656   1.444  0.00  0.00    -0.196 N 
ATOM      2  C2  IND d   1      -0.042   2.504   1.705  0.00  0.00     0.054 A 
ATOM      3  C3  IND d   1      -0.672   2.139   2.844  0.00  0.00    -0.031 A 
ATOM      4  C4  IND d   1      -0.103   0.246   4.493  0.00  0.00     0.051 A 
ATOM      5  C5  IND d   1       0.738  -0.818   4.663  0.00  0.00    -0.031 A 
ATOM      6  C6  IND d   1       1.730  -1.116   3.751  0.00  0.00     0.015 A 
ATOM      7  C7  IND d   1       1.926  -0.351   2.637  0.00  0.00    -0.016 A 
ATOM      8  C8  IND d   1       1.070   0.726   2.457  0.00  0.00    -0.047 A 
ATOM      9  C9  IND d   1       0.034   1.008   3.357  0.00  0.00    -0.096 A 
ATOM     10  HN1 IND d   1       1.519   1.697   0.761  0.00  0.00     0.298 HD
ENDROOT
TORSDOF 0
ENDMDL
