MODEL 1
REMARK minimizedAffinity -2.61152411
REMARK minimizedRMSD -1
REMARK  0 active torsions:
REMARK  status: ('A' for Active; 'I' for Inactive)
ROOT
ATOM      1  C1  BNZ d   1       4.325   3.016  -5.253  0.00  0.00     0.000 A 
ATOM      2  C2  BNZ d   1       3.009   3.038  -4.876  0.00  0.00     0.000 A 
ATOM      3  C3  BNZ d   1       2.241   4.150  -5.080  0.00  0.00     0.000 A 
ATOM      4  C4  BNZ d   1       2.799   5.251  -5.623  0.00  0.00     0.000 A 
ATOM      5  C5  BNZ d   1       4.127   5.248  -6.000  0.00  0.00     0.000 A 
ATOM      6  C6  BNZ d   1       4.887   4.114  -5.828  0.00  0.00     0.000 A 
ENDROOT
TORSDOF 0
ENDMDL
