MODEL 1
REMARK minimizedAffinity -3.53608727
REMARK minimizedRMSD -1
REMARK  0 active torsions:
REMARK  status: ('A' for Active; 'I' for Inactive)
ROOT
ATOM      1  C1  BNZ d   1       3.189   2.565  -5.231  0.00  0.00     0.000 A 
ATOM      2  C2  BNZ d   1       4.498   2.560  -5.635  0.00  0.00     0.000 A 
ATOM      3  C3  BNZ d   1       5.122   3.720  -6.000  0.00  0.00     0.000 A 
ATOM      4  C4  BNZ d   1       4.427   4.875  -6.000  0.00  0.00     0.000 A 
ATOM      5  C5  BNZ d   1       3.104   4.895  -5.605  0.00  0.00     0.000 A 
ATOM      6  C6  BNZ d   1       2.490   3.732  -5.201  0.00  0.00     0.000 A 
ENDROOT
TORSDOF 0
ENDMDL
