MODEL 1
REMARK minimizedAffinity -2.95664477
REMARK minimizedRMSD -1
REMARK  0 active torsions:
REMARK  status: ('A' for Active; 'I' for Inactive)
ROOT
ATOM      1  C1  BNZ d   1       3.752   5.405  -5.997  0.00  0.00     0.000 A 
ATOM      2  C2  BNZ d   1       4.728   4.445  -5.980  0.00  0.00     0.000 A 
ATOM      3  C3  BNZ d   1       4.417   3.134  -5.747  0.00  0.00     0.000 A 
ATOM      4  C4  BNZ d   1       3.138   2.792  -5.493  0.00  0.00     0.000 A 
ATOM      5  C5  BNZ d   1       2.143   3.750  -5.497  0.00  0.00     0.000 A 
ATOM      6  C6  BNZ d   1       2.455   5.062  -5.770  0.00  0.00     0.000 A 
ENDROOT
TORSDOF 0
ENDMDL
