MODEL 1
REMARK minimizedAffinity -3.38414288
REMARK minimizedRMSD -1
REMARK  0 active torsions:
REMARK  status: ('A' for Active; 'I' for Inactive)
ROOT
ATOM      1  C1  BNZ d   1       3.080   4.557  -6.000  0.00  0.00     0.000 A 
ATOM      2  C2  BNZ d   1       2.418   3.479  -5.476  0.00  0.00     0.000 A 
ATOM      3  C3  BNZ d   1       3.106   2.439  -4.916  0.00  0.00     0.000 A 
ATOM      4  C4  BNZ d   1       4.455   2.460  -4.918  0.00  0.00     0.000 A 
ATOM      5  C5  BNZ d   1       5.137   3.535  -5.451  0.00  0.00     0.000 A 
ATOM      6  C6  BNZ d   1       4.440   4.598  -5.978  0.00  0.00     0.000 A 
ENDROOT
TORSDOF 0
ENDMDL
