MODEL 1
REMARK minimizedAffinity -4.29142809
REMARK minimizedRMSD -1
REMARK  0 active torsions:
REMARK  status: ('A' for Active; 'I' for Inactive)
ROOT
ATOM      1  C1  BNZ d   1       4.587   2.483   1.583  0.00  0.00     0.000 A 
ATOM      2  C2  BNZ d   1       5.629   1.737   2.066  0.00  0.00     0.000 A 
ATOM      3  C3  BNZ d   1       5.457   0.419   2.384  0.00  0.00     0.000 A 
ATOM      4  C4  BNZ d   1       4.236  -0.140   2.258  0.00  0.00     0.000 A 
ATOM      5  C5  BNZ d   1       3.173   0.602   1.782  0.00  0.00     0.000 A 
ATOM      6  C6  BNZ d   1       3.359   1.918   1.425  0.00  0.00     0.000 A 
ENDROOT
TORSDOF 0
ENDMDL
