MODEL 1
REMARK minimizedAffinity -2.97994566
REMARK minimizedRMSD -1
REMARK  0 active torsions:
REMARK  status: ('A' for Active; 'I' for Inactive)
ROOT
ATOM      1  C1  BNZ d   1       4.583   5.002  -6.000  0.00  0.00     0.000 A 
ATOM      2  C2  BNZ d   1       3.540   5.889  -5.999  0.00  0.00     0.000 A 
ATOM      3  C3  BNZ d   1       2.247   5.449  -5.971  0.00  0.00     0.000 A 
ATOM      4  C4  BNZ d   1       1.997   4.124  -5.984  0.00  0.00     0.000 A 
ATOM      5  C5  BNZ d   1       3.037   3.216  -5.995  0.00  0.00     0.000 A 
ATOM      6  C6  BNZ d   1       4.338   3.663  -5.984  0.00  0.00     0.000 A 
ENDROOT
TORSDOF 0
ENDMDL
