MODEL 1
REMARK minimizedAffinity -1.57923579
REMARK minimizedRMSD -1
REMARK  0 active torsions:
REMARK  status: ('A' for Active; 'I' for Inactive)
ROOT
ATOM      1  C1  BNZ d   1       3.773   2.286  -5.632  0.00  0.00     0.000 A 
ATOM      2  C2  BNZ d   1       5.060   2.584  -5.994  0.00  0.00     0.000 A 
ATOM      3  C3  BNZ d   1       5.503   3.877  -6.000  0.00  0.00     0.000 A 
ATOM      4  C4  BNZ d   1       4.650   4.872  -5.684  0.00  0.00     0.000 A 
ATOM      5  C5  BNZ d   1       3.347   4.588  -5.326  0.00  0.00     0.000 A 
ATOM      6  C6  BNZ d   1       2.915   3.282  -5.283  0.00  0.00     0.000 A 
ENDROOT
TORSDOF 0
ENDMDL
