MODEL 1
REMARK minimizedAffinity -1.4461143
REMARK minimizedRMSD -1
REMARK  0 active torsions:
REMARK  status: ('A' for Active; 'I' for Inactive)
ROOT
ATOM      1  C1  BNZ d   1       2.914   4.520  -5.679  0.00  0.00     0.000 A 
ATOM      2  C2  BNZ d   1       2.939   3.197  -5.329  0.00  0.00     0.000 A 
ATOM      3  C3  BNZ d   1       4.117   2.506  -5.287  0.00  0.00     0.000 A 
ATOM      4  C4  BNZ d   1       5.263   3.127  -5.633  0.00  0.00     0.000 A 
ATOM      5  C5  BNZ d   1       5.253   4.459  -5.996  0.00  0.00     0.000 A 
ATOM      6  C6  BNZ d   1       4.070   5.162  -6.000  0.00  0.00     0.000 A 
ENDROOT
TORSDOF 0
ENDMDL
