MODEL 1
REMARK minimizedAffinity -3.43715501
REMARK minimizedRMSD -1
REMARK  0 active torsions:
REMARK  status: ('A' for Active; 'I' for Inactive)
ROOT
ATOM      1  C1  BNZ d   1       4.885   4.655  -5.999  0.00  0.00     0.000 A 
ATOM      2  C2  BNZ d   1       3.919   5.626  -5.999  0.00  0.00     0.000 A 
ATOM      3  C3  BNZ d   1       2.631   5.332  -5.649  0.00  0.00     0.000 A 
ATOM      4  C4  BNZ d   1       2.301   4.061  -5.340  0.00  0.00     0.000 A 
ATOM      5  C5  BNZ d   1       3.261   3.069  -5.345  0.00  0.00     0.000 A 
ATOM      6  C6  BNZ d   1       4.565   3.376  -5.659  0.00  0.00     0.000 A 
ENDROOT
TORSDOF 0
ENDMDL
