MODEL 1
REMARK minimizedAffinity -2.57853222
REMARK minimizedRMSD -1
REMARK  0 active torsions:
REMARK  status: ('A' for Active; 'I' for Inactive)
ROOT
ATOM      1  C1  BNZ d   1       4.994   4.146  -5.998  0.00  0.00     0.000 A 
ATOM      2  C2  BNZ d   1       4.089   5.174  -5.980  0.00  0.00     0.000 A 
ATOM      3  C3  BNZ d   1       2.746   4.923  -5.945  0.00  0.00     0.000 A 
ATOM      4  C4  BNZ d   1       2.309   3.647  -5.968  0.00  0.00     0.000 A 
ATOM      5  C5  BNZ d   1       3.209   2.601  -5.995  0.00  0.00     0.000 A 
ATOM      6  C6  BNZ d   1       4.561   2.856  -5.991  0.00  0.00     0.000 A 
ENDROOT
TORSDOF 0
ENDMDL
