MODEL 1
REMARK minimizedAffinity 1.05533004
REMARK minimizedRMSD -1
REMARK  0 active torsions:
REMARK  status: ('A' for Active; 'I' for Inactive)
ROOT
ATOM      1  C1  BNZ d   1       2.409   2.424   1.225  0.00  0.00     0.000 A 
ATOM      2  C2  BNZ d   1       1.227   2.616   1.888  0.00  0.00     0.000 A 
ATOM      3  C3  BNZ d   1       0.659   1.607   2.614  0.00  0.00     0.000 A 
ATOM      4  C4  BNZ d   1       1.253   0.396   2.643  0.00  0.00     0.000 A 
ATOM      5  C5  BNZ d   1       2.440   0.184   1.972  0.00  0.00     0.000 A 
ATOM      6  C6  BNZ d   1       3.029   1.213   1.274  0.00  0.00     0.000 A 
ENDROOT
TORSDOF 0
ENDMDL
