MODEL 1
REMARK minimizedAffinity 1.97707593
REMARK minimizedRMSD -1
REMARK  0 active torsions:
REMARK  status: ('A' for Active; 'I' for Inactive)
ROOT
ATOM      1  C1  BNZ d   1       0.793   4.732  -5.987  0.00  0.00     0.000 A 
ATOM      2  C2  BNZ d   1       1.446   5.936  -5.974  0.00  0.00     0.000 A 
ATOM      3  C3  BNZ d   1       2.812   5.991  -5.984  0.00  0.00     0.000 A 
ATOM      4  C4  BNZ d   1       3.522   4.845  -5.965  0.00  0.00     0.000 A 
ATOM      5  C5  BNZ d   1       2.878   3.624  -5.968  0.00  0.00     0.000 A 
ATOM      6  C6  BNZ d   1       1.504   3.571  -5.998  0.00  0.00     0.000 A 
ENDROOT
TORSDOF 0
ENDMDL
