MODEL 1
REMARK minimizedAffinity -0.936671495
REMARK minimizedRMSD -1
REMARK  0 active torsions:
REMARK  status: ('A' for Active; 'I' for Inactive)
ROOT
ATOM      1  C1  BNZ d   1       4.212   5.870  -3.621  0.00  0.00     0.000 A 
ATOM      2  C2  BNZ d   1       2.848   5.987  -3.652  0.00  0.00     0.000 A 
ATOM      3  C3  BNZ d   1       2.173   5.994  -4.840  0.00  0.00     0.000 A 
ATOM      4  C4  BNZ d   1       2.865   5.926  -5.996  0.00  0.00     0.000 A 
ATOM      5  C5  BNZ d   1       4.241   5.817  -5.982  0.00  0.00     0.000 A 
ATOM      6  C6  BNZ d   1       4.914   5.770  -4.782  0.00  0.00     0.000 A 
ENDROOT
TORSDOF 0
ENDMDL
