MODEL 1
REMARK minimizedAffinity 1.60971808
REMARK minimizedRMSD -1
REMARK  0 active torsions:
REMARK  status: ('A' for Active; 'I' for Inactive)
ROOT
ATOM      1  C1  BNZ d   1       3.406   0.027   1.424  0.00  0.00     0.000 A 
ATOM      2  C2  BNZ d   1       3.802   1.313   1.170  0.00  0.00     0.000 A 
ATOM      3  C3  BNZ d   1       2.998   2.168   0.469  0.00  0.00     0.000 A 
ATOM      4  C4  BNZ d   1       1.818   1.724  -0.011  0.00  0.00     0.000 A 
ATOM      5  C5  BNZ d   1       1.409   0.427   0.229  0.00  0.00     0.000 A 
ATOM      6  C6  BNZ d   1       2.204  -0.419   0.968  0.00  0.00     0.000 A 
ENDROOT
TORSDOF 0
ENDMDL
