MODEL 1
REMARK minimizedAffinity 1.0220902
REMARK minimizedRMSD -1
REMARK  0 active torsions:
REMARK  status: ('A' for Active; 'I' for Inactive)
ROOT
ATOM      1  C1  BNZ d   1       4.684  -0.384   2.797  0.00  0.00     0.000 A 
ATOM      2  C2  BNZ d   1       4.124   0.005   1.610  0.00  0.00     0.000 A 
ATOM      3  C3  BNZ d   1       2.828   0.439   1.556  0.00  0.00     0.000 A 
ATOM      4  C4  BNZ d   1       2.084   0.445   2.680  0.00  0.00     0.000 A 
ATOM      5  C5  BNZ d   1       2.632   0.047   3.883  0.00  0.00     0.000 A 
ATOM      6  C6  BNZ d   1       3.947  -0.351   3.941  0.00  0.00     0.000 A 
ENDROOT
TORSDOF 0
ENDMDL
