MODEL 1
REMARK minimizedAffinity -0.646434605
REMARK minimizedRMSD -1
REMARK  0 active torsions:
REMARK  status: ('A' for Active; 'I' for Inactive)
ROOT
ATOM      1  C1  BNZ d   1       1.101   0.521   1.770  0.00  0.00     0.000 A 
ATOM      2  C2  BNZ d   1      -0.175   0.032   1.680  0.00  0.00     0.000 A 
ATOM      3  C3  BNZ d   1      -0.418  -1.193   1.125  0.00  0.00     0.000 A 
ATOM      4  C4  BNZ d   1       0.610  -1.910   0.626  0.00  0.00     0.000 A 
ATOM      5  C5  BNZ d   1       1.901  -1.427   0.700  0.00  0.00     0.000 A 
ATOM      6  C6  BNZ d   1       2.146  -0.210   1.294  0.00  0.00     0.000 A 
ENDROOT
TORSDOF 0
ENDMDL
