MODEL 1
REMARK minimizedAffinity -1.71969342
REMARK minimizedRMSD -1
REMARK  1 active torsions:
REMARK  status: ('A' for Active; 'I' for Inactive)
REMARK    1  A    between atoms: C3_4  and  O_7 
ROOT
ATOM      1  C   UNL d   1       2.850   2.148   1.358  0.00  0.00    -0.033 A 
ATOM      2  C1  UNL d   1       2.742   3.184   0.429  0.00  0.00     0.039 A 
ATOM      3  C2  UNL d   1       3.657   3.282  -0.621  0.00  0.00    -0.080 A 
ATOM      4  C3  UNL d   1       4.674   2.337  -0.731  0.00  0.00     0.150 A 
ATOM      5  C4  UNL d   1       4.785   1.300   0.189  0.00  0.00    -0.007 A 
ATOM      6  C5  UNL d   1       3.871   1.205   1.237  0.00  0.00     0.039 A 
ENDROOT
BRANCH   4   7
ATOM      7  O   UNL d   1       5.593   2.394  -1.736  0.00  0.00    -0.526 OA
ATOM      8  H5  UNL d   1       5.409   3.179  -2.278  0.00  0.00     0.418 HD
ENDBRANCH   4   7
TORSDOF 1
ENDMDL
