MODEL 1
REMARK minimizedAffinity -1.0086844
REMARK minimizedRMSD -1
REMARK  1 active torsions:
REMARK  status: ('A' for Active; 'I' for Inactive)
REMARK    1  A    between atoms: C3_4  and  O_7 
ROOT
ATOM      1  C   UNL d   1       1.116   4.491  -3.955  0.00  0.00    -0.033 A 
ATOM      2  C1  UNL d   1       2.247   4.853  -3.221  0.00  0.00     0.039 A 
ATOM      3  C2  UNL d   1       3.380   5.342  -3.875  0.00  0.00    -0.080 A 
ATOM      4  C3  UNL d   1       3.368   5.465  -5.262  0.00  0.00     0.150 A 
ATOM      5  C4  UNL d   1       2.243   5.109  -5.999  0.00  0.00    -0.007 A 
ATOM      6  C5  UNL d   1       1.114   4.620  -5.344  0.00  0.00     0.039 A 
ENDROOT
BRANCH   4   7
ATOM      7  O   UNL d   1       4.451   5.933  -5.945  0.00  0.00    -0.526 OA
ATOM      8  H5  UNL d   1       5.163   6.111  -5.308  0.00  0.00     0.418 HD
ENDBRANCH   4   7
TORSDOF 1
ENDMDL
