MODEL 1
REMARK minimizedAffinity 7.25636387
REMARK minimizedRMSD -1
REMARK  1 active torsions:
REMARK  status: ('A' for Active; 'I' for Inactive)
REMARK    1  A    between atoms: C3_4  and  O_7 
ROOT
ATOM      1  C   UNL d   1      -1.159  -1.507   0.742  0.00  0.00    -0.033 A 
ATOM      2  C1  UNL d   1      -0.340  -2.344  -0.019  0.00  0.00     0.039 A 
ATOM      3  C2  UNL d   1      -0.676  -2.638  -1.342  0.00  0.00    -0.080 A 
ATOM      4  C3  UNL d   1      -1.831  -2.089  -1.892  0.00  0.00     0.150 A 
ATOM      5  C4  UNL d   1      -2.649  -1.251  -1.141  0.00  0.00    -0.007 A 
ATOM      6  C5  UNL d   1      -2.313  -0.959   0.180  0.00  0.00     0.039 A 
ENDROOT
BRANCH   4   7
ATOM      7  O   UNL d   1      -2.203  -2.351  -3.177  0.00  0.00    -0.526 OA
ATOM      8  H5  UNL d   1      -1.558  -2.967  -3.564  0.00  0.00     0.418 HD
ENDBRANCH   4   7
TORSDOF 1
ENDMDL
