MODEL 1
REMARK minimizedAffinity 2.13481092
REMARK minimizedRMSD -1
REMARK  1 active torsions:
REMARK  status: ('A' for Active; 'I' for Inactive)
REMARK    1  A    between atoms: C3_4  and  O_7 
ROOT
ATOM      1  C   UNL d   1       2.060   6.000  -4.404  0.00  0.00    -0.033 A 
ATOM      2  C1  UNL d   1       1.610   4.796  -3.858  0.00  0.00     0.039 A 
ATOM      3  C2  UNL d   1       2.052   3.580  -4.382  0.00  0.00    -0.080 A 
ATOM      4  C3  UNL d   1       2.944   3.581  -5.451  0.00  0.00     0.150 A 
ATOM      5  C4  UNL d   1       3.400   4.776  -5.998  0.00  0.00    -0.007 A 
ATOM      6  C5  UNL d   1       2.957   5.989  -5.473  0.00  0.00     0.039 A 
ENDROOT
BRANCH   4   7
ATOM      7  O   UNL d   1       3.400   2.419  -5.999  0.00  0.00    -0.526 OA
ATOM      8  H5  UNL d   1       2.978   1.675  -5.538  0.00  0.00     0.418 HD
ENDBRANCH   4   7
TORSDOF 1
ENDMDL
