MODEL 1
REMARK minimizedAffinity 4.56373835
REMARK minimizedRMSD -1
REMARK  1 active torsions:
REMARK  status: ('A' for Active; 'I' for Inactive)
REMARK    1  A    between atoms: C3_4  and  O_7 
ROOT
ATOM      1  C   UNL d   1       3.185  -0.228   2.322  0.00  0.00    -0.033 A 
ATOM      2  C1  UNL d   1       3.406  -0.796   3.578  0.00  0.00     0.039 A 
ATOM      3  C2  UNL d   1       2.356  -0.906   4.491  0.00  0.00    -0.080 A 
ATOM      4  C3  UNL d   1       1.091  -0.446   4.136  0.00  0.00     0.150 A 
ATOM      5  C4  UNL d   1       0.862   0.117   2.885  0.00  0.00    -0.007 A 
ATOM      6  C5  UNL d   1       1.912   0.227   1.975  0.00  0.00     0.039 A 
ENDROOT
BRANCH   4   7
ATOM      7  O   UNL d   1       0.036  -0.528   4.996  0.00  0.00    -0.526 OA
ATOM      8  H5  UNL d   1       0.349  -0.912   5.832  0.00  0.00     0.418 HD
ENDBRANCH   4   7
TORSDOF 1
ENDMDL
