MODEL 1
REMARK minimizedAffinity 1.69441354
REMARK minimizedRMSD -1
REMARK  1 active torsions:
REMARK  status: ('A' for Active; 'I' for Inactive)
REMARK    1  A    between atoms: C3_4  and  O_7 
ROOT
ATOM      1  C   UNL d   1      -2.429  -1.627  -1.173  0.00  0.00    -0.033 A 
ATOM      2  C1  UNL d   1      -1.969  -2.078   0.066  0.00  0.00     0.039 A 
ATOM      3  C2  UNL d   1      -0.608  -2.020   0.371  0.00  0.00    -0.080 A 
ATOM      4  C3  UNL d   1       0.282  -1.508  -0.570  0.00  0.00     0.150 A 
ATOM      5  C4  UNL d   1      -0.170  -1.053  -1.805  0.00  0.00    -0.007 A 
ATOM      6  C5  UNL d   1      -1.530  -1.113  -2.107  0.00  0.00     0.039 A 
ENDROOT
BRANCH   4   7
ATOM      7  O   UNL d   1       1.620  -1.436  -0.320  0.00  0.00    -0.526 OA
ATOM      8  H5  UNL d   1       1.789  -1.812   0.560  0.00  0.00     0.418 HD
ENDBRANCH   4   7
TORSDOF 1
ENDMDL
