MODEL 1
REMARK minimizedAffinity -3.56752753
REMARK minimizedRMSD -1
REMARK  1 active torsions:
REMARK  status: ('A' for Active; 'I' for Inactive)
REMARK    1  A    between atoms: C3_4  and  O_7 
ROOT
ATOM      1  C   UNL d   1      -3.726  -4.075  -1.732  0.00  0.00    -0.033 A 
ATOM      2  C1  UNL d   1      -3.106  -3.988  -2.980  0.00  0.00     0.039 A 
ATOM      3  C2  UNL d   1      -2.319  -2.879  -3.294  0.00  0.00    -0.080 A 
ATOM      4  C3  UNL d   1      -2.159  -1.865  -2.353  0.00  0.00     0.150 A 
ATOM      5  C4  UNL d   1      -2.771  -1.947  -1.107  0.00  0.00    -0.007 A 
ATOM      6  C5  UNL d   1      -3.558  -3.056  -0.795  0.00  0.00     0.039 A 
ENDROOT
BRANCH   4   7
ATOM      7  O   UNL d   1      -1.404  -0.761  -2.616  0.00  0.00    -0.526 OA
ATOM      8  H5  UNL d   1      -1.067  -0.828  -3.525  0.00  0.00     0.418 HD
ENDBRANCH   4   7
TORSDOF 1
ENDMDL
