MODEL 1
REMARK minimizedAffinity -0.11872261
REMARK minimizedRMSD -1
REMARK  1 active torsions:
REMARK  status: ('A' for Active; 'I' for Inactive)
REMARK    1  A    between atoms: C3_4  and  O_7 
ROOT
ATOM      1  C   UNL d   1       1.110   3.746  -5.753  0.00  0.00    -0.033 A 
ATOM      2  C1  UNL d   1       1.091   5.120  -6.000  0.00  0.00     0.039 A 
ATOM      3  C2  UNL d   1       2.222   5.895  -5.734  0.00  0.00    -0.080 A 
ATOM      4  C3  UNL d   1       3.364   5.284  -5.224  0.00  0.00     0.150 A 
ATOM      5  C4  UNL d   1       3.392   3.915  -4.980  0.00  0.00    -0.007 A 
ATOM      6  C5  UNL d   1       2.261   3.144  -5.244  0.00  0.00     0.039 A 
ENDROOT
BRANCH   4   7
ATOM      7  O   UNL d   1       4.491   6.000  -4.945  0.00  0.00    -0.526 OA
ATOM      8  H5  UNL d   1       4.316   6.936  -5.137  0.00  0.00     0.418 HD
ENDBRANCH   4   7
TORSDOF 1
ENDMDL
