MODEL 1
REMARK minimizedAffinity 7.96771908
REMARK minimizedRMSD -1
REMARK  1 active torsions:
REMARK  status: ('A' for Active; 'I' for Inactive)
REMARK    1  A    between atoms: C3_4  and  O_7 
ROOT
ATOM      1  C   UNL d   1      -2.495  -1.953  -0.635  0.00  0.00    -0.033 A 
ATOM      2  C1  UNL d   1      -1.761  -1.385   0.409  0.00  0.00     0.039 A 
ATOM      3  C2  UNL d   1      -0.480  -1.858   0.701  0.00  0.00    -0.080 A 
ATOM      4  C3  UNL d   1       0.055  -2.895  -0.057  0.00  0.00     0.150 A 
ATOM      5  C4  UNL d   1      -0.669  -3.463  -1.101  0.00  0.00    -0.007 A 
ATOM      6  C5  UNL d   1      -1.948  -2.990  -1.390  0.00  0.00     0.039 A 
ENDROOT
BRANCH   4   7
ATOM      7  O   UNL d   1       1.299  -3.393   0.194  0.00  0.00    -0.526 OA
ATOM      8  H5  UNL d   1       1.670  -2.924   0.960  0.00  0.00     0.418 HD
ENDBRANCH   4   7
TORSDOF 1
ENDMDL
