MODEL 1
REMARK minimizedAffinity 15.0843935
REMARK minimizedRMSD -1
REMARK  1 active torsions:
REMARK  status: ('A' for Active; 'I' for Inactive)
REMARK    1  A    between atoms: C3_4  and  O_7 
ROOT
ATOM      1  C   UNL d   1      -0.443  -2.251  -3.515  0.00  0.00    -0.033 A 
ATOM      2  C1  UNL d   1      -0.258  -2.258  -4.899  0.00  0.00     0.039 A 
ATOM      3  C2  UNL d   1      -1.355  -2.395  -5.751  0.00  0.00    -0.080 A 
ATOM      4  C3  UNL d   1      -2.631  -2.523  -5.208  0.00  0.00     0.150 A 
ATOM      5  C4  UNL d   1      -2.823  -2.513  -3.830  0.00  0.00    -0.007 A 
ATOM      6  C5  UNL d   1      -1.726  -2.377  -2.980  0.00  0.00     0.039 A 
ENDROOT
BRANCH   4   7
ATOM      7  O   UNL d   1      -3.732  -2.663  -5.999  0.00  0.00    -0.526 OA
ATOM      8  H5  UNL d   1      -3.443  -2.682  -6.927  0.00  0.00     0.418 HD
ENDBRANCH   4   7
TORSDOF 1
ENDMDL
