MODEL 1
REMARK minimizedAffinity 4.67028713
REMARK minimizedRMSD -1
REMARK  1 active torsions:
REMARK  status: ('A' for Active; 'I' for Inactive)
REMARK    1  A    between atoms: C3_4  and  O_7 
ROOT
ATOM      1  C   UNL d   1      -0.480  -4.127   0.830  0.00  0.00    -0.033 A 
ATOM      2  C1  UNL d   1      -0.469  -2.768   0.508  0.00  0.00     0.039 A 
ATOM      3  C2  UNL d   1      -0.999  -1.833   1.400  0.00  0.00    -0.080 A 
ATOM      4  C3  UNL d   1      -1.535  -2.270   2.608  0.00  0.00     0.150 A 
ATOM      5  C4  UNL d   1      -1.546  -3.621   2.937  0.00  0.00    -0.007 A 
ATOM      6  C5  UNL d   1      -1.017  -4.553   2.045  0.00  0.00     0.039 A 
ENDROOT
BRANCH   4   7
ATOM      7  O   UNL d   1      -2.069  -1.395   3.508  0.00  0.00    -0.526 OA
ATOM      8  H5  UNL d   1      -2.018  -0.500   3.134  0.00  0.00     0.418 HD
ENDBRANCH   4   7
TORSDOF 1
ENDMDL
