MODEL 1
REMARK minimizedAffinity -1.12132323
REMARK minimizedRMSD -1
REMARK  1 active torsions:
REMARK  status: ('A' for Active; 'I' for Inactive)
REMARK    1  A    between atoms: C3_4  and  O_7 
ROOT
ATOM      1  C   UNL d   1      -1.993  -2.748  -1.126  0.00  0.00    -0.033 A 
ATOM      2  C1  UNL d   1      -2.100  -3.750  -2.092  0.00  0.00     0.039 A 
ATOM      3  C2  UNL d   1      -3.250  -4.539  -2.159  0.00  0.00    -0.080 A 
ATOM      4  C3  UNL d   1      -4.285  -4.316  -1.255  0.00  0.00     0.150 A 
ATOM      5  C4  UNL d   1      -4.187  -3.317  -0.292  0.00  0.00    -0.007 A 
ATOM      6  C5  UNL d   1      -3.037  -2.531  -0.227  0.00  0.00     0.039 A 
ENDROOT
BRANCH   4   7
ATOM      7  O   UNL d   1      -5.425  -5.063  -1.278  0.00  0.00    -0.526 OA
ATOM      8  H5  UNL d   1      -5.339  -5.734  -1.976  0.00  0.00     0.418 HD
ENDBRANCH   4   7
TORSDOF 1
ENDMDL
