MODEL 1
REMARK minimizedAffinity 9.54506874
REMARK minimizedRMSD -1
REMARK  1 active torsions:
REMARK  status: ('A' for Active; 'I' for Inactive)
REMARK    1  A    between atoms: C3_4  and  O_7 
ROOT
ATOM      1  C   UNL d   1       1.618   2.559   1.433  0.00  0.00    -0.033 A 
ATOM      2  C1  UNL d   1       2.834   2.798   0.789  0.00  0.00     0.039 A 
ATOM      3  C2  UNL d   1       3.773   1.773   0.665  0.00  0.00    -0.080 A 
ATOM      4  C3  UNL d   1       3.485   0.515   1.187  0.00  0.00     0.150 A 
ATOM      5  C4  UNL d   1       2.274   0.269   1.826  0.00  0.00    -0.007 A 
ATOM      6  C5  UNL d   1       1.338   1.294   1.950  0.00  0.00     0.039 A 
ENDROOT
BRANCH   4   7
ATOM      7  O   UNL d   1       4.372  -0.516   1.094  0.00  0.00    -0.526 OA
ATOM      8  H5  UNL d   1       5.175  -0.192   0.653  0.00  0.00     0.418 HD
ENDBRANCH   4   7
TORSDOF 1
ENDMDL
