MODEL 1
REMARK minimizedAffinity 1.30207002
REMARK minimizedRMSD -1
REMARK  1 active torsions:
REMARK  status: ('A' for Active; 'I' for Inactive)
REMARK    1  A    between atoms: C3_4  and  O_7 
ROOT
ATOM      1  C   UNL d   1      -2.498  -1.659  -1.136  0.00  0.00    -0.033 A 
ATOM      2  C1  UNL d   1      -1.801  -2.051  -2.281  0.00  0.00     0.039 A 
ATOM      3  C2  UNL d   1      -2.455  -2.758  -3.291  0.00  0.00    -0.080 A 
ATOM      4  C3  UNL d   1      -3.805  -3.066  -3.146  0.00  0.00     0.150 A 
ATOM      5  C4  UNL d   1      -4.507  -2.676  -2.010  0.00  0.00    -0.007 A 
ATOM      6  C5  UNL d   1      -3.852  -1.970  -1.001  0.00  0.00     0.039 A 
ENDROOT
BRANCH   4   7
ATOM      7  O   UNL d   1      -4.485  -3.759  -4.103  0.00  0.00    -0.526 OA
ATOM      8  H5  UNL d   1      -3.866  -3.987  -4.816  0.00  0.00     0.418 HD
ENDBRANCH   4   7
TORSDOF 1
ENDMDL
