MODEL 1
REMARK minimizedAffinity 7.83654785
REMARK minimizedRMSD -1
REMARK  1 active torsions:
REMARK  status: ('A' for Active; 'I' for Inactive)
REMARK    1  A    between atoms: C3_4  and  O_7 
ROOT
ATOM      1  C   UNL d   1       5.994   4.104   4.219  0.00  0.00    -0.033 A 
ATOM      2  C1  UNL d   1       4.918   3.270   4.533  0.00  0.00     0.039 A 
ATOM      3  C2  UNL d   1       3.774   3.800   5.132  0.00  0.00    -0.080 A 
ATOM      4  C3  UNL d   1       3.716   5.162   5.411  0.00  0.00     0.150 A 
ATOM      5  C4  UNL d   1       4.782   6.000   5.098  0.00  0.00    -0.007 A 
ATOM      6  C5  UNL d   1       5.925   5.469   4.500  0.00  0.00     0.039 A 
ENDROOT
BRANCH   4   7
ATOM      7  O   UNL d   1       2.622   5.724   5.999  0.00  0.00    -0.526 OA
ATOM      8  H5  UNL d   1       1.977   5.021   6.184  0.00  0.00     0.418 HD
ENDBRANCH   4   7
TORSDOF 1
ENDMDL
