MODEL 1
REMARK minimizedAffinity 9.0908556
REMARK minimizedRMSD -1
REMARK  1 active torsions:
REMARK  status: ('A' for Active; 'I' for Inactive)
REMARK    1  A    between atoms: C3_4  and  O_7 
ROOT
ATOM      1  C   UNL d   1      -2.556  -1.577   0.010  0.00  0.00    -0.033 A 
ATOM      2  C1  UNL d   1      -3.236  -2.678   0.535  0.00  0.00     0.039 A 
ATOM      3  C2  UNL d   1      -2.530  -3.822   0.911  0.00  0.00    -0.080 A 
ATOM      4  C3  UNL d   1      -1.146  -3.853   0.757  0.00  0.00     0.150 A 
ATOM      5  C4  UNL d   1      -0.463  -2.759   0.237  0.00  0.00    -0.007 A 
ATOM      6  C5  UNL d   1      -1.169  -1.617  -0.138  0.00  0.00     0.039 A 
ENDROOT
BRANCH   4   7
ATOM      7  O   UNL d   1      -0.415  -4.950   1.104  0.00  0.00    -0.526 OA
ATOM      8  H5  UNL d   1      -1.024  -5.638   1.421  0.00  0.00     0.418 HD
ENDBRANCH   4   7
TORSDOF 1
ENDMDL
