MODEL 1
REMARK minimizedAffinity 9.1193285
REMARK minimizedRMSD -1
REMARK  1 active torsions:
REMARK  status: ('A' for Active; 'I' for Inactive)
REMARK    1  A    between atoms: C3_4  and  O_7 
ROOT
ATOM      1  C   UNL d   1       5.999   1.914   0.375  0.00  0.00    -0.033 A 
ATOM      2  C1  UNL d   1       5.627   1.324   1.584  0.00  0.00     0.039 A 
ATOM      3  C2  UNL d   1       4.351   1.545   2.107  0.00  0.00    -0.080 A 
ATOM      4  C3  UNL d   1       3.458   2.355   1.411  0.00  0.00     0.150 A 
ATOM      5  C4  UNL d   1       3.821   2.943   0.203  0.00  0.00    -0.007 A 
ATOM      6  C5  UNL d   1       5.096   2.722  -0.316  0.00  0.00     0.039 A 
ENDROOT
BRANCH   4   7
ATOM      7  O   UNL d   1       2.203   2.603   1.883  0.00  0.00    -0.526 OA
ATOM      8  H5  UNL d   1       2.103   2.155   2.739  0.00  0.00     0.418 HD
ENDBRANCH   4   7
TORSDOF 1
ENDMDL
