MODEL 1
REMARK minimizedAffinity 9.00181198
REMARK minimizedRMSD -1
REMARK  1 active torsions:
REMARK  status: ('A' for Active; 'I' for Inactive)
REMARK    1  A    between atoms: C3_4  and  O_7 
ROOT
ATOM      1  C   UNL d   1       4.104  -1.119  -2.842  0.00  0.00    -0.033 A 
ATOM      2  C1  UNL d   1       3.455   0.117  -2.854  0.00  0.00     0.039 A 
ATOM      3  C2  UNL d   1       4.079   1.229  -3.422  0.00  0.00    -0.080 A 
ATOM      4  C3  UNL d   1       5.349   1.092  -3.975  0.00  0.00     0.150 A 
ATOM      5  C4  UNL d   1       6.000  -0.137  -3.970  0.00  0.00    -0.007 A 
ATOM      6  C5  UNL d   1       5.376  -1.247  -3.401  0.00  0.00     0.039 A 
ENDROOT
BRANCH   4   7
ATOM      7  O   UNL d   1       6.000   2.150  -4.536  0.00  0.00    -0.526 OA
ATOM      8  H5  UNL d   1       5.442   2.940  -4.442  0.00  0.00     0.418 HD
ENDBRANCH   4   7
TORSDOF 1
ENDMDL
