MODEL 1
REMARK minimizedAffinity 3.67386603
REMARK minimizedRMSD -1
REMARK  1 active torsions:
REMARK  status: ('A' for Active; 'I' for Inactive)
REMARK    1  A    between atoms: C3_4  and  O_7 
ROOT
ATOM      1  C   UNL d   1      -1.858  -1.218  -0.030  0.00  0.00    -0.033 A 
ATOM      2  C1  UNL d   1      -1.720  -1.878  -1.252  0.00  0.00     0.039 A 
ATOM      3  C2  UNL d   1      -1.419  -3.242  -1.281  0.00  0.00    -0.080 A 
ATOM      4  C3  UNL d   1      -1.261  -3.932  -0.083  0.00  0.00     0.150 A 
ATOM      5  C4  UNL d   1      -1.402  -3.282   1.138  0.00  0.00    -0.007 A 
ATOM      6  C5  UNL d   1      -1.701  -1.921   1.166  0.00  0.00     0.039 A 
ENDROOT
BRANCH   4   7
ATOM      7  O   UNL d   1      -0.963  -5.262  -0.061  0.00  0.00    -0.526 OA
ATOM      8  H5  UNL d   1      -0.868  -5.572  -0.978  0.00  0.00     0.418 HD
ENDBRANCH   4   7
TORSDOF 1
ENDMDL
