MODEL 1
REMARK minimizedAffinity 12.3795042
REMARK minimizedRMSD -1
REMARK  1 active torsions:
REMARK  status: ('A' for Active; 'I' for Inactive)
REMARK    1  A    between atoms: C3_4  and  O_7 
ROOT
ATOM      1  C   UNL d   1      -2.288  -2.266   1.127  0.00  0.00    -0.033 A 
ATOM      2  C1  UNL d   1      -1.485  -3.097   0.344  0.00  0.00     0.039 A 
ATOM      3  C2  UNL d   1      -1.333  -2.841  -1.020  0.00  0.00    -0.080 A 
ATOM      4  C3  UNL d   1      -1.989  -1.752  -1.588  0.00  0.00     0.150 A 
ATOM      5  C4  UNL d   1      -2.787  -0.918  -0.813  0.00  0.00    -0.007 A 
ATOM      6  C5  UNL d   1      -2.938  -1.175   0.549  0.00  0.00     0.039 A 
ENDROOT
BRANCH   4   7
ATOM      7  O   UNL d   1      -1.875  -1.465  -2.916  0.00  0.00    -0.526 OA
ATOM      8  H5  UNL d   1      -1.316  -2.143  -3.330  0.00  0.00     0.418 HD
ENDBRANCH   4   7
TORSDOF 1
ENDMDL
