MODEL 1
REMARK minimizedAffinity 3.54074311
REMARK minimizedRMSD -1
REMARK  1 active torsions:
REMARK  status: ('A' for Active; 'I' for Inactive)
REMARK    1  A    between atoms: C3_4  and  O_7 
ROOT
ATOM      1  C   UNL d   1      -2.285  -2.146   0.985  0.00  0.00    -0.033 A 
ATOM      2  C1  UNL d   1      -2.335  -2.888   2.167  0.00  0.00     0.039 A 
ATOM      3  C2  UNL d   1      -1.561  -4.042   2.303  0.00  0.00    -0.080 A 
ATOM      4  C3  UNL d   1      -0.740  -4.441   1.251  0.00  0.00     0.150 A 
ATOM      5  C4  UNL d   1      -0.682  -3.705   0.073  0.00  0.00    -0.007 A 
ATOM      6  C5  UNL d   1      -1.457  -2.554  -0.061  0.00  0.00     0.039 A 
ENDROOT
BRANCH   4   7
ATOM      7  O   UNL d   1       0.031  -5.563   1.335  0.00  0.00    -0.526 OA
ATOM      8  H5  UNL d   1      -0.134  -5.985   2.195  0.00  0.00     0.418 HD
ENDBRANCH   4   7
TORSDOF 1
ENDMDL
