MODEL 1
REMARK minimizedAffinity 2.20031166
REMARK minimizedRMSD -1
REMARK  1 active torsions:
REMARK  status: ('A' for Active; 'I' for Inactive)
REMARK    1  A    between atoms: C3_4  and  O_7 
ROOT
ATOM      1  C   UNL d   1      -2.527  -1.404   0.159  0.00  0.00    -0.033 A 
ATOM      2  C1  UNL d   1      -1.754  -1.812  -0.930  0.00  0.00     0.039 A 
ATOM      3  C2  UNL d   1      -0.866  -2.881  -0.797  0.00  0.00    -0.080 A 
ATOM      4  C3  UNL d   1      -0.761  -3.534   0.428  0.00  0.00     0.150 A 
ATOM      5  C4  UNL d   1      -1.530  -3.136   1.516  0.00  0.00    -0.007 A 
ATOM      6  C5  UNL d   1      -2.416  -2.067   1.382  0.00  0.00     0.039 A 
ENDROOT
BRANCH   4   7
ATOM      7  O   UNL d   1       0.096  -4.579   0.606  0.00  0.00    -0.526 OA
ATOM      8  H5  UNL d   1       0.582  -4.724  -0.222  0.00  0.00     0.418 HD
ENDBRANCH   4   7
TORSDOF 1
ENDMDL
