MODEL 1
REMARK minimizedAffinity 6.90264797
REMARK minimizedRMSD -1
REMARK  1 active torsions:
REMARK  status: ('A' for Active; 'I' for Inactive)
REMARK    1  A    between atoms: C3_4  and  O_7 
ROOT
ATOM      1  C   UNL d   1      -5.117   6.000  -5.066  0.00  0.00    -0.033 A 
ATOM      2  C1  UNL d   1      -5.306   4.876  -5.874  0.00  0.00     0.039 A 
ATOM      3  C2  UNL d   1      -4.498   3.750  -5.707  0.00  0.00    -0.080 A 
ATOM      4  C3  UNL d   1      -3.507   3.760  -4.729  0.00  0.00     0.150 A 
ATOM      5  C4  UNL d   1      -3.315   4.874  -3.919  0.00  0.00    -0.007 A 
ATOM      6  C5  UNL d   1      -4.123   5.998  -4.088  0.00  0.00     0.039 A 
ENDROOT
BRANCH   4   7
ATOM      7  O   UNL d   1      -2.690   2.686  -4.532  0.00  0.00    -0.526 OA
ATOM      8  H5  UNL d   1      -2.919   2.002  -5.183  0.00  0.00     0.418 HD
ENDBRANCH   4   7
TORSDOF 1
ENDMDL
