MODEL 1
REMARK minimizedAffinity 3.89772701
REMARK minimizedRMSD -1
REMARK  1 active torsions:
REMARK  status: ('A' for Active; 'I' for Inactive)
REMARK    1  A    between atoms: C3_4  and  O_7 
ROOT
ATOM      1  C   UNL d   1      -6.000   5.368  -5.349  0.00  0.00    -0.033 A 
ATOM      2  C1  UNL d   1      -5.627   4.181  -5.983  0.00  0.00     0.039 A 
ATOM      3  C2  UNL d   1      -4.367   3.627  -5.745  0.00  0.00    -0.080 A 
ATOM      4  C3  UNL d   1      -3.493   4.267  -4.872  0.00  0.00     0.150 A 
ATOM      5  C4  UNL d   1      -3.860   5.447  -4.233  0.00  0.00    -0.007 A 
ATOM      6  C5  UNL d   1      -5.117   6.000  -4.473  0.00  0.00     0.039 A 
ENDROOT
BRANCH   4   7
ATOM      7  O   UNL d   1      -2.252   3.767  -4.612  0.00  0.00    -0.526 OA
ATOM      8  H5  UNL d   1      -2.126   2.964  -5.145  0.00  0.00     0.418 HD
ENDBRANCH   4   7
TORSDOF 1
ENDMDL
