MODEL 1
REMARK minimizedAffinity 6.87088013
REMARK minimizedRMSD -1
REMARK  1 active torsions:
REMARK  status: ('A' for Active; 'I' for Inactive)
REMARK    1  A    between atoms: C3_4  and  O_7 
ROOT
ATOM      1  C   UNL d   1      -5.793   5.916  -4.942  0.00  0.00    -0.033 A 
ATOM      2  C1  UNL d   1      -4.870   6.000  -3.897  0.00  0.00     0.039 A 
ATOM      3  C2  UNL d   1      -3.784   5.123  -3.850  0.00  0.00    -0.080 A 
ATOM      4  C3  UNL d   1      -3.632   4.170  -4.853  0.00  0.00     0.150 A 
ATOM      5  C4  UNL d   1      -4.545   4.083  -5.899  0.00  0.00    -0.007 A 
ATOM      6  C5  UNL d   1      -5.629   4.959  -5.943  0.00  0.00     0.039 A 
ENDROOT
BRANCH   4   7
ATOM      7  O   UNL d   1      -2.591   3.289  -4.847  0.00  0.00    -0.526 OA
ATOM      8  H5  UNL d   1      -2.058   3.448  -4.050  0.00  0.00     0.418 HD
ENDBRANCH   4   7
TORSDOF 1
ENDMDL
