MODEL 1
REMARK minimizedAffinity 7.02456093
REMARK minimizedRMSD -1
REMARK  1 active torsions:
REMARK  status: ('A' for Active; 'I' for Inactive)
REMARK    1  A    between atoms: C3_4  and  O_7 
ROOT
ATOM      1  C   UNL d   1      -5.177   4.331   0.466  0.00  0.00    -0.033 A 
ATOM      2  C1  UNL d   1      -6.000   5.386   0.066  0.00  0.00     0.039 A 
ATOM      3  C2  UNL d   1      -5.838   5.960  -1.196  0.00  0.00    -0.080 A 
ATOM      4  C3  UNL d   1      -4.853   5.469  -2.048  0.00  0.00     0.150 A 
ATOM      5  C4  UNL d   1      -4.032   4.416  -1.658  0.00  0.00    -0.007 A 
ATOM      6  C5  UNL d   1      -4.195   3.845  -0.396  0.00  0.00     0.039 A 
ENDROOT
BRANCH   4   7
ATOM      7  O   UNL d   1      -4.654   6.000  -3.288  0.00  0.00    -0.526 OA
ATOM      8  H5  UNL d   1      -5.274   6.738  -3.410  0.00  0.00     0.418 HD
ENDBRANCH   4   7
TORSDOF 1
ENDMDL
