MODEL 1
REMARK minimizedAffinity 7.13519955
REMARK minimizedRMSD -1
REMARK  1 active torsions:
REMARK  status: ('A' for Active; 'I' for Inactive)
REMARK    1  A    between atoms: C3_4  and  O_7 
ROOT
ATOM      1  C   UNL d   1       2.030   1.505  -0.921  0.00  0.00    -0.033 A 
ATOM      2  C1  UNL d   1       1.991   1.746  -2.295  0.00  0.00     0.039 A 
ATOM      3  C2  UNL d   1       2.961   1.191  -3.132  0.00  0.00    -0.080 A 
ATOM      4  C3  UNL d   1       3.964   0.397  -2.582  0.00  0.00     0.150 A 
ATOM      5  C4  UNL d   1       4.007   0.149  -1.214  0.00  0.00    -0.007 A 
ATOM      6  C5  UNL d   1       3.038   0.705  -0.380  0.00  0.00     0.039 A 
ENDROOT
BRANCH   4   7
ATOM      7  O   UNL d   1       4.935  -0.163  -3.357  0.00  0.00    -0.526 OA
ATOM      8  H5  UNL d   1       4.795   0.118  -4.277  0.00  0.00     0.418 HD
ENDBRANCH   4   7
TORSDOF 1
ENDMDL
