MODEL 1
REMARK minimizedAffinity 3.00575519
REMARK minimizedRMSD -1
REMARK  1 active torsions:
REMARK  status: ('A' for Active; 'I' for Inactive)
REMARK    1  A    between atoms: C3_4  and  O_7 
ROOT
ATOM      1  C   UNL d   1      -3.102  -0.474   5.715  0.00  0.00    -0.033 A 
ATOM      2  C1  UNL d   1      -4.436  -0.843   5.903  0.00  0.00     0.039 A 
ATOM      3  C2  UNL d   1      -5.426   0.137   6.000  0.00  0.00    -0.080 A 
ATOM      4  C3  UNL d   1      -5.069   1.480   5.906  0.00  0.00     0.150 A 
ATOM      5  C4  UNL d   1      -3.743   1.854   5.715  0.00  0.00    -0.007 A 
ATOM      6  C5  UNL d   1      -2.756   0.874   5.620  0.00  0.00     0.039 A 
ENDROOT
BRANCH   4   7
ATOM      7  O   UNL d   1      -5.999   2.472   6.000  0.00  0.00    -0.526 OA
ATOM      8  H5  UNL d   1      -6.868   2.066   6.160  0.00  0.00     0.418 HD
ENDBRANCH   4   7
TORSDOF 1
ENDMDL
