MODEL 1
REMARK minimizedAffinity 8.3799057
REMARK minimizedRMSD -1
REMARK  1 active torsions:
REMARK  status: ('A' for Active; 'I' for Inactive)
REMARK    1  A    between atoms: C3_4  and  O_7 
ROOT
ATOM      1  C   UNL d   1       2.891   2.387   5.993  0.00  0.00    -0.033 A 
ATOM      2  C1  UNL d   1       4.140   2.138   5.419  0.00  0.00     0.039 A 
ATOM      3  C2  UNL d   1       4.868   3.183   4.848  0.00  0.00    -0.080 A 
ATOM      4  C3  UNL d   1       4.338   4.470   4.857  0.00  0.00     0.150 A 
ATOM      5  C4  UNL d   1       3.097   4.726   5.430  0.00  0.00    -0.007 A 
ATOM      6  C5  UNL d   1       2.371   3.681   6.000  0.00  0.00     0.039 A 
ENDROOT
BRANCH   4   7
ATOM      7  O   UNL d   1       5.010   5.521   4.306  0.00  0.00    -0.526 OA
ATOM      8  H5  UNL d   1       5.839   5.189   3.923  0.00  0.00     0.418 HD
ENDBRANCH   4   7
TORSDOF 1
ENDMDL
