MODEL 1
REMARK minimizedAffinity 2.34818482
REMARK minimizedRMSD -1
REMARK  1 active torsions:
REMARK  status: ('A' for Active; 'I' for Inactive)
REMARK    1  A    between atoms: C3_4  and  O_7 
ROOT
ATOM      1  C   UNL d   1      -5.898   5.324  -5.623  0.00  0.00    -0.033 A 
ATOM      2  C1  UNL d   1      -4.940   6.000  -4.864  0.00  0.00     0.039 A 
ATOM      3  C2  UNL d   1      -3.771   5.347  -4.470  0.00  0.00    -0.080 A 
ATOM      4  C3  UNL d   1      -3.571   4.020  -4.841  0.00  0.00     0.150 A 
ATOM      5  C4  UNL d   1      -4.519   3.342  -5.600  0.00  0.00    -0.007 A 
ATOM      6  C5  UNL d   1      -5.686   3.995  -5.993  0.00  0.00     0.039 A 
ENDROOT
BRANCH   4   7
ATOM      7  O   UNL d   1      -2.448   3.339  -4.475  0.00  0.00    -0.526 OA
ATOM      8  H5  UNL d   1      -1.897   3.925  -3.930  0.00  0.00     0.418 HD
ENDBRANCH   4   7
TORSDOF 1
ENDMDL
