MODEL 1
REMARK minimizedAffinity 0.554124773
REMARK minimizedRMSD -1
REMARK  1 active torsions:
REMARK  status: ('A' for Active; 'I' for Inactive)
REMARK    1  A    between atoms: C3_4  and  O_7 
ROOT
ATOM      1  C   UNL d   1      -1.351  -0.945  -1.062  0.00  0.00    -0.033 A 
ATOM      2  C1  UNL d   1      -2.649  -0.543  -0.739  0.00  0.00     0.039 A 
ATOM      3  C2  UNL d   1      -3.434   0.115  -1.688  0.00  0.00    -0.080 A 
ATOM      4  C3  UNL d   1      -2.911   0.364  -2.954  0.00  0.00     0.150 A 
ATOM      5  C4  UNL d   1      -1.621  -0.038  -3.283  0.00  0.00    -0.007 A 
ATOM      6  C5  UNL d   1      -0.838  -0.694  -2.334  0.00  0.00     0.039 A 
ENDROOT
BRANCH   4   7
ATOM      7  O   UNL d   1      -3.638   1.007  -3.911  0.00  0.00    -0.526 OA
ATOM      8  H5  UNL d   1      -4.499   1.250  -3.532  0.00  0.00     0.418 HD
ENDBRANCH   4   7
TORSDOF 1
ENDMDL
