MODEL 1
REMARK minimizedAffinity 1.59740639
REMARK minimizedRMSD -1
REMARK  1 active torsions:
REMARK  status: ('A' for Active; 'I' for Inactive)
REMARK    1  A    between atoms: C3_4  and  O_7 
ROOT
ATOM      1  C   UNL d   1      -4.816   5.654   1.406  0.00  0.00    -0.033 A 
ATOM      2  C1  UNL d   1      -3.630   5.449   0.699  0.00  0.00     0.039 A 
ATOM      3  C2  UNL d   1      -3.626   5.517  -0.696  0.00  0.00    -0.080 A 
ATOM      4  C3  UNL d   1      -4.813   5.790  -1.370  0.00  0.00     0.150 A 
ATOM      5  C4  UNL d   1      -5.998   5.999  -0.671  0.00  0.00    -0.007 A 
ATOM      6  C5  UNL d   1      -6.000   5.930   0.721  0.00  0.00     0.039 A 
ENDROOT
BRANCH   4   7
ATOM      7  O   UNL d   1      -4.860   5.862  -2.730  0.00  0.00    -0.526 OA
ATOM      8  H5  UNL d   1      -3.974   5.668  -3.079  0.00  0.00     0.418 HD
ENDBRANCH   4   7
TORSDOF 1
ENDMDL
