MODEL 1
REMARK minimizedAffinity 15.0250082
REMARK minimizedRMSD -1
REMARK  1 active torsions:
REMARK  status: ('A' for Active; 'I' for Inactive)
REMARK    1  A    between atoms: C3_4  and  O_7 
ROOT
ATOM      1  C   UNL d   1       4.494   3.454  -0.000  0.00  0.00    -0.033 A 
ATOM      2  C1  UNL d   1       3.783   3.227   1.180  0.00  0.00     0.039 A 
ATOM      3  C2  UNL d   1       4.177   2.208   2.049  0.00  0.00    -0.080 A 
ATOM      4  C3  UNL d   1       5.282   1.425   1.729  0.00  0.00     0.150 A 
ATOM      5  C4  UNL d   1       5.998   1.648   0.557  0.00  0.00    -0.007 A 
ATOM      6  C5  UNL d   1       5.603   2.665  -0.311  0.00  0.00     0.039 A 
ENDROOT
BRANCH   4   7
ATOM      7  O   UNL d   1       5.702   0.416   2.544  0.00  0.00    -0.526 OA
ATOM      8  H5  UNL d   1       5.095   0.361   3.301  0.00  0.00     0.418 HD
ENDBRANCH   4   7
TORSDOF 1
ENDMDL
