MODEL 1
REMARK minimizedAffinity -5.5205512
REMARK minimizedRMSD -1
REMARK  0 active torsions:
REMARK  status: ('A' for Active; 'I' for Inactive)
ROOT
ATOM      1  N1  IND d   1       0.951   2.135  -0.091  0.00  0.00    -0.196 N 
ATOM      2  C2  IND d   1      -0.255   1.942  -0.707  0.00  0.00     0.054 A 
ATOM      3  C3  IND d   1      -0.540   0.623  -0.779  0.00  0.00    -0.031 A 
ATOM      4  C4  IND d   1       0.780  -1.389   0.137  0.00  0.00     0.051 A 
ATOM      5  C5  IND d   1       1.959  -1.717   0.744  0.00  0.00    -0.031 A 
ATOM      6  C6  IND d   1       2.880  -0.759   1.114  0.00  0.00     0.015 A 
ATOM      7  C7  IND d   1       2.650   0.571   0.900  0.00  0.00    -0.016 A 
ATOM      8  C8  IND d   1       1.456   0.907   0.277  0.00  0.00    -0.047 A 
ATOM      9  C9  IND d   1       0.537  -0.064  -0.139  0.00  0.00    -0.096 A 
ATOM     10  HN1 IND d   1       1.329   2.895   0.044  0.00  0.00     0.298 HD
ENDROOT
TORSDOF 0
ENDMDL
