MODEL 1
REMARK minimizedAffinity -2.52057409
REMARK minimizedRMSD -1
REMARK  0 active torsions:
REMARK  status: ('A' for Active; 'I' for Inactive)
ROOT
ATOM      1  N1  IND d   1      -0.050   1.587   1.067  0.00  0.00    -0.196 N 
ATOM      2  C2  IND d   1      -1.173   1.576   0.288  0.00  0.00     0.054 A 
ATOM      3  C3  IND d   1      -1.201   0.464  -0.481  0.00  0.00    -0.031 A 
ATOM      4  C4  IND d   1       0.438  -1.520  -0.548  0.00  0.00     0.051 A 
ATOM      5  C5  IND d   1       1.635  -1.947  -0.043  0.00  0.00    -0.031 A 
ATOM      6  C6  IND d   1       2.344  -1.203   0.878  0.00  0.00     0.015 A 
ATOM      7  C7  IND d   1       1.875  -0.006   1.340  0.00  0.00    -0.016 A 
ATOM      8  C8  IND d   1       0.664   0.434   0.824  0.00  0.00    -0.047 A 
ATOM      9  C9  IND d   1      -0.039  -0.296  -0.143  0.00  0.00    -0.096 A 
ATOM     10  HN1 IND d   1       0.173   2.209   1.617  0.00  0.00     0.298 HD
ENDROOT
TORSDOF 0
ENDMDL
