MODEL 1
REMARK minimizedAffinity -4.24829674
REMARK minimizedRMSD -1
REMARK  0 active torsions:
REMARK  status: ('A' for Active; 'I' for Inactive)
ROOT
ATOM      1  N1  IND d   1      -0.698   0.745   0.386  0.00  0.00    -0.196 N 
ATOM      2  C2  IND d   1      -1.305   0.390  -0.786  0.00  0.00     0.054 A 
ATOM      3  C3  IND d   1      -0.566  -0.537  -1.436  0.00  0.00    -0.031 A 
ATOM      4  C4  IND d   1       1.620  -1.688  -0.712  0.00  0.00     0.051 A 
ATOM      5  C5  IND d   1       2.576  -1.667   0.264  0.00  0.00    -0.031 A 
ATOM      6  C6  IND d   1       2.486  -0.826   1.355  0.00  0.00     0.015 A 
ATOM      7  C7  IND d   1       1.426   0.021   1.516  0.00  0.00    -0.016 A 
ATOM      8  C8  IND d   1       0.458   0.008   0.523  0.00  0.00    -0.047 A 
ATOM      9  C9  IND d   1       0.565  -0.813  -0.608  0.00  0.00    -0.096 A 
ATOM     10  HN1 IND d   1      -0.989   1.331   0.945  0.00  0.00     0.298 HD
ENDROOT
TORSDOF 0
ENDMDL
