MODEL 1
REMARK minimizedAffinity -2.55204463
REMARK minimizedRMSD -1
REMARK  0 active torsions:
REMARK  status: ('A' for Active; 'I' for Inactive)
ROOT
ATOM      1  N1  IND d   1      -0.593  -0.012   0.890  0.00  0.00    -0.196 N 
ATOM      2  C2  IND d   1      -1.008   0.324  -0.368  0.00  0.00     0.054 A 
ATOM      3  C3  IND d   1      -0.073  -0.023  -1.281  0.00  0.00    -0.031 A 
ATOM      4  C4  IND d   1       2.166  -1.247  -0.944  0.00  0.00     0.051 A 
ATOM      5  C5  IND d   1       2.996  -1.727   0.031  0.00  0.00    -0.031 A 
ATOM      6  C6  IND d   1       2.664  -1.661   1.369  0.00  0.00     0.015 A 
ATOM      7  C7  IND d   1       1.479  -1.120   1.783  0.00  0.00    -0.016 A 
ATOM      8  C8  IND d   1       0.637  -0.626   0.796  0.00  0.00    -0.047 A 
ATOM      9  C9  IND d   1       0.988  -0.652  -0.560  0.00  0.00    -0.096 A 
ATOM     10  HN1 IND d   1      -1.026   0.134   1.618  0.00  0.00     0.298 HD
ENDROOT
TORSDOF 0
ENDMDL
