MODEL 1
REMARK minimizedAffinity -3.99958491
REMARK minimizedRMSD -1
REMARK  0 active torsions:
REMARK  status: ('A' for Active; 'I' for Inactive)
ROOT
ATOM      1  N1  IND d   1      -0.290  -1.105  -1.629  0.00  0.00    -0.196 N 
ATOM      2  C2  IND d   1      -1.086  -0.037  -1.321  0.00  0.00     0.054 A 
ATOM      3  C3  IND d   1      -0.582   0.635  -0.261  0.00  0.00    -0.031 A 
ATOM      4  C4  IND d   1       1.590   0.219   1.057  0.00  0.00     0.051 A 
ATOM      5  C5  IND d   1       2.630  -0.661   1.169  0.00  0.00    -0.031 A 
ATOM      6  C6  IND d   1       2.754  -1.753   0.336  0.00  0.00     0.015 A 
ATOM      7  C7  IND d   1       1.844  -2.002  -0.653  0.00  0.00    -0.016 A 
ATOM      8  C8  IND d   1       0.783  -1.116  -0.765  0.00  0.00    -0.047 A 
ATOM      9  C9  IND d   1       0.629  -0.029   0.105  0.00  0.00    -0.096 A 
ATOM     10  HN1 IND d   1      -0.435  -1.674  -2.257  0.00  0.00     0.298 HD
ENDROOT
TORSDOF 0
ENDMDL
