MODEL 1
REMARK minimizedAffinity -4.3745594
REMARK minimizedRMSD -1
REMARK  0 active torsions:
REMARK  status: ('A' for Active; 'I' for Inactive)
ROOT
ATOM      1  N1  IND d   1       2.617  -0.635   1.071  0.00  0.00    -0.196 N 
ATOM      2  C2  IND d   1       3.041  -1.870   0.665  0.00  0.00     0.054 A 
ATOM      3  C3  IND d   1       2.120  -2.443  -0.141  0.00  0.00    -0.031 A 
ATOM      4  C4  IND d   1      -0.108  -1.491  -1.012  0.00  0.00     0.051 A 
ATOM      5  C5  IND d   1      -0.942  -0.415  -0.888  0.00  0.00    -0.031 A 
ATOM      6  C6  IND d   1      -0.624   0.666  -0.091  0.00  0.00     0.015 A 
ATOM      7  C7  IND d   1       0.550   0.716   0.606  0.00  0.00    -0.016 A 
ATOM      8  C8  IND d   1       1.396  -0.378   0.488  0.00  0.00    -0.047 A 
ATOM      9  C9  IND d   1       1.059  -1.497  -0.285  0.00  0.00    -0.096 A 
ATOM     10  HN1 IND d   1       3.042  -0.108   1.600  0.00  0.00     0.298 HD
ENDROOT
TORSDOF 0
ENDMDL
