MODEL 1
REMARK minimizedAffinity -1.96340883
REMARK minimizedRMSD -1
REMARK  0 active torsions:
REMARK  status: ('A' for Active; 'I' for Inactive)
ROOT
ATOM      1  N1  IND d   1       1.038  -2.559  -0.671  0.00  0.00    -0.196 N 
ATOM      2  C2  IND d   1       0.139  -2.362  -1.682  0.00  0.00     0.054 A 
ATOM      3  C3  IND d   1      -0.287  -1.079  -1.690  0.00  0.00    -0.031 A 
ATOM      4  C4  IND d   1       0.436   0.893  -0.201  0.00  0.00     0.051 A 
ATOM      5  C5  IND d   1       1.206   1.196   0.887  0.00  0.00    -0.031 A 
ATOM      6  C6  IND d   1       1.978   0.244   1.522  0.00  0.00     0.015 A 
ATOM      7  C7  IND d   1       2.016  -1.050   1.084  0.00  0.00    -0.016 A 
ATOM      8  C8  IND d   1       1.230  -1.362  -0.016  0.00  0.00    -0.047 A 
ATOM      9  C9  IND d   1       0.412  -0.410  -0.638  0.00  0.00    -0.096 A 
ATOM     10  HN1 IND d   1       1.420  -3.305  -0.478  0.00  0.00     0.298 HD
ENDROOT
TORSDOF 0
ENDMDL
