MODEL 1
REMARK minimizedAffinity -3.63008165
REMARK minimizedRMSD -1
REMARK  0 active torsions:
REMARK  status: ('A' for Active; 'I' for Inactive)
ROOT
ATOM      1  N1  IND d   1       2.160  -2.011  -0.490  0.00  0.00    -0.196 N 
ATOM      2  C2  IND d   1       2.871  -1.464   0.541  0.00  0.00     0.054 A 
ATOM      3  C3  IND d   1       2.193  -0.428   1.083  0.00  0.00    -0.031 A 
ATOM      4  C4  IND d   1      -0.146   0.478   0.502  0.00  0.00     0.051 A 
ATOM      5  C5  IND d   1      -1.168   0.327  -0.392  0.00  0.00    -0.031 A 
ATOM      6  C6  IND d   1      -1.134  -0.633  -1.383  0.00  0.00     0.015 A 
ATOM      7  C7  IND d   1      -0.076  -1.488  -1.510  0.00  0.00    -0.016 A 
ATOM      8  C8  IND d   1       0.967  -1.333  -0.608  0.00  0.00    -0.047 A 
ATOM      9  C9  IND d   1       0.957  -0.333   0.373  0.00  0.00    -0.096 A 
ATOM     10  HN1 IND d   1       2.415  -2.669  -0.982  0.00  0.00     0.298 HD
ENDROOT
TORSDOF 0
ENDMDL
