MODEL 1
REMARK minimizedAffinity 11.6049509
REMARK minimizedRMSD -1
REMARK  1 active torsions:
REMARK  status: ('A' for Active; 'I' for Inactive)
REMARK    1  A    between atoms: C1_2  and  C2_3 
ROOT
ATOM      1  C2  UNL d   1       3.685   1.521   4.086  0.00  0.00    -0.081 A 
ATOM      2  C3  UNL d   1       2.413   1.179   3.611  0.00  0.00     0.006 A 
ATOM      3  C4  UNL d   1       2.046   1.472   2.296  0.00  0.00     0.002 A 
ATOM      4  C5  UNL d   1       2.946   2.106   1.432  0.00  0.00    -0.080 A 
ATOM      5  C6  UNL d   1       2.574   2.399   0.009  0.00  0.00     0.076 C 
ATOM      6  C7  UNL d   1       4.210   2.464   1.912  0.00  0.00     0.002 A 
ATOM      7  C8  UNL d   1       4.578   2.171   3.227  0.00  0.00     0.006 A 
ENDROOT
BRANCH   1   8
ATOM      8  C1  UNL d   1       4.107   1.148   5.485  0.00  0.00     0.054 C 
ATOM      9  C   UNL d   1       3.323  -0.052   5.997  0.00  0.00     0.018 C 
ENDBRANCH   1   8
TORSDOF 1
ENDMDL
