MODEL 1
REMARK minimizedAffinity 14.2058563
REMARK minimizedRMSD -1
REMARK  1 active torsions:
REMARK  status: ('A' for Active; 'I' for Inactive)
REMARK    1  A    between atoms: C1_2  and  C2_3 
ROOT
ATOM      1  C2  UNL d   1       3.555  -0.470  -3.424  0.00  0.00    -0.081 A 
ATOM      2  C3  UNL d   1       4.870  -0.849  -3.720  0.00  0.00     0.006 A 
ATOM      3  C4  UNL d   1       5.660  -0.064  -4.563  0.00  0.00     0.002 A 
ATOM      4  C5  UNL d   1       5.152   1.115  -5.117  0.00  0.00    -0.080 A 
ATOM      5  C6  UNL d   1       6.000   1.982  -6.000  0.00  0.00     0.076 C 
ATOM      6  C7  UNL d   1       3.833   1.485  -4.836  0.00  0.00     0.002 A 
ATOM      7  C8  UNL d   1       3.042   0.701  -3.993  0.00  0.00     0.006 A 
ENDROOT
BRANCH   1   8
ATOM      8  C1  UNL d   1       2.721  -1.280  -2.463  0.00  0.00     0.054 C 
ATOM      9  C   UNL d   1       1.442  -1.775  -3.123  0.00  0.00     0.018 C 
ENDBRANCH   1   8
TORSDOF 1
ENDMDL
