MODEL 1
REMARK minimizedAffinity 5.07347488
REMARK minimizedRMSD -1
REMARK  1 active torsions:
REMARK  status: ('A' for Active; 'I' for Inactive)
REMARK    1  A    between atoms: C1_2  and  C2_3 
ROOT
ATOM      1  C2  UNL d   1       4.794  -2.283   5.190  0.00  0.00    -0.081 A 
ATOM      2  C3  UNL d   1       3.505  -2.253   5.736  0.00  0.00     0.006 A 
ATOM      3  C4  UNL d   1       2.420  -1.831   4.965  0.00  0.00     0.002 A 
ATOM      4  C5  UNL d   1       2.603  -1.441   3.634  0.00  0.00    -0.080 A 
ATOM      5  C6  UNL d   1       1.442  -1.015   2.786  0.00  0.00     0.076 C 
ATOM      6  C7  UNL d   1       3.894  -1.455   3.094  0.00  0.00     0.002 A 
ATOM      7  C8  UNL d   1       4.980  -1.876   3.864  0.00  0.00     0.006 A 
ENDROOT
BRANCH   1   8
ATOM      8  C1  UNL d   1       5.957  -2.799   5.999  0.00  0.00     0.054 C 
ATOM      9  C   UNL d   1       5.999  -4.321   6.000  0.00  0.00     0.018 C 
ENDBRANCH   1   8
TORSDOF 1
ENDMDL
