MODEL 1
REMARK minimizedAffinity -5.23559904
REMARK minimizedRMSD -1
REMARK  0 active torsions:
REMARK  status: ('A' for Active; 'I' for Inactive)
ROOT
ATOM      1  O1  BZF d   1       0.570   2.371   2.148  0.00  0.00    -0.204 OA
ATOM      2  C2  BZF d   1       1.804   2.782   1.682  0.00  0.00     0.174 A 
ATOM      3  C3  BZF d   1       2.205   2.013   0.649  0.00  0.00    -0.012 A 
ATOM      4  C3A BZF d   1       1.115   1.121   0.398  0.00  0.00    -0.107 A 
ATOM      5  C4  BZF d   1       0.905   0.128  -0.515  0.00  0.00     0.055 A 
ATOM      6  C5  BZF d   1      -0.239  -0.604  -0.445  0.00  0.00    -0.016 A 
ATOM      7  C6  BZF d   1      -1.190  -0.373   0.527  0.00  0.00     0.022 A 
ATOM      8  C7  BZF d   1      -1.028   0.605   1.452  0.00  0.00     0.029 A 
ATOM      9  C7A BZF d   1       0.111   1.367   1.364  0.00  0.00     0.058 A 
ENDROOT
TORSDOF 0
ENDMDL
