MODEL 1
REMARK minimizedAffinity -3.7120204
REMARK minimizedRMSD -1
REMARK  0 active torsions:
REMARK  status: ('A' for Active; 'I' for Inactive)
ROOT
ATOM      1  O1  BZF d   1       0.703  -0.212   0.025  0.00  0.00    -0.204 OA
ATOM      2  C2  BZF d   1      -0.679  -0.234   0.052  0.00  0.00     0.174 A 
ATOM      3  C3  BZF d   1      -1.160   0.812   0.753  0.00  0.00    -0.012 A 
ATOM      4  C3A BZF d   1      -0.011   1.584   1.114  0.00  0.00    -0.107 A 
ATOM      5  C4  BZF d   1       0.157   2.750   1.805  0.00  0.00     0.055 A 
ATOM      6  C5  BZF d   1       1.417   3.199   2.047  0.00  0.00    -0.016 A 
ATOM      7  C6  BZF d   1       2.529   2.505   1.618  0.00  0.00     0.022 A 
ATOM      8  C7  BZF d   1       2.413   1.346   0.924  0.00  0.00     0.029 A 
ATOM      9  C7A BZF d   1       1.140   0.908   0.650  0.00  0.00     0.058 A 
ENDROOT
TORSDOF 0
ENDMDL
