MODEL 1
REMARK minimizedAffinity -5.54829741
REMARK minimizedRMSD -1
REMARK  0 active torsions:
REMARK  status: ('A' for Active; 'I' for Inactive)
ROOT
ATOM      1  O1  BZF d   1       1.008  -0.854  -0.260  0.00  0.00    -0.204 OA
ATOM      2  C2  BZF d   1      -0.214  -1.024   0.361  0.00  0.00     0.174 A 
ATOM      3  C3  BZF d   1      -0.504   0.035   1.144  0.00  0.00    -0.012 A 
ATOM      4  C3A BZF d   1       0.563   0.963   0.932  0.00  0.00    -0.107 A 
ATOM      5  C4  BZF d   1       0.833   2.211   1.418  0.00  0.00     0.055 A 
ATOM      6  C5  BZF d   1       1.997   2.818   1.068  0.00  0.00    -0.016 A 
ATOM      7  C6  BZF d   1       2.915   2.207   0.239  0.00  0.00     0.022 A 
ATOM      8  C7  BZF d   1       2.689   0.972  -0.272  0.00  0.00     0.029 A 
ATOM      9  C7A BZF d   1       1.499   0.369   0.053  0.00  0.00     0.058 A 
ENDROOT
TORSDOF 0
ENDMDL
