MODEL 1
REMARK minimizedAffinity -0.450791687
REMARK minimizedRMSD -1
REMARK  0 active torsions:
REMARK  status: ('A' for Active; 'I' for Inactive)
ROOT
ATOM      1  O1  BZF d   1      -3.035  -0.417  -2.319  0.00  0.00    -0.204 OA
ATOM      2  C2  BZF d   1      -2.766  -1.456  -3.190  0.00  0.00     0.174 A 
ATOM      3  C3  BZF d   1      -1.600  -2.055  -2.875  0.00  0.00    -0.012 A 
ATOM      4  C3A BZF d   1      -1.154  -1.406  -1.680  0.00  0.00    -0.107 A 
ATOM      5  C4  BZF d   1      -0.064  -1.569  -0.874  0.00  0.00     0.055 A 
ATOM      6  C5  BZF d   1       0.114  -0.723   0.175  0.00  0.00    -0.016 A 
ATOM      7  C6  BZF d   1      -0.774   0.297   0.444  0.00  0.00     0.022 A 
ATOM      8  C7  BZF d   1      -1.873   0.495  -0.325  0.00  0.00     0.029 A 
ATOM      9  C7A BZF d   1      -2.073  -0.378  -1.366  0.00  0.00     0.058 A 
ENDROOT
TORSDOF 0
ENDMDL
