MODEL 1
REMARK minimizedAffinity -5.18399811
REMARK minimizedRMSD -1
REMARK  0 active torsions:
REMARK  status: ('A' for Active; 'I' for Inactive)
ROOT
ATOM      1  O1  BZF d   1       1.057  -0.840  -0.319  0.00  0.00    -0.204 OA
ATOM      2  C2  BZF d   1      -0.305  -0.951  -0.119  0.00  0.00     0.174 A 
ATOM      3  C3  BZF d   1      -0.776   0.110   0.568  0.00  0.00    -0.012 A 
ATOM      4  C3A BZF d   1       0.348   0.981   0.731  0.00  0.00    -0.107 A 
ATOM      5  C4  BZF d   1       0.512   2.203   1.318  0.00  0.00     0.055 A 
ATOM      6  C5  BZF d   1       1.755   2.750   1.371  0.00  0.00    -0.016 A 
ATOM      7  C6  BZF d   1       2.856   2.101   0.852  0.00  0.00     0.022 A 
ATOM      8  C7  BZF d   1       2.743   0.889   0.256  0.00  0.00     0.029 A 
ATOM      9  C7A BZF d   1       1.483   0.349   0.172  0.00  0.00     0.058 A 
ENDROOT
TORSDOF 0
ENDMDL
