MODEL 1
REMARK minimizedAffinity -2.70494056
REMARK minimizedRMSD -1
REMARK  0 active torsions:
REMARK  status: ('A' for Active; 'I' for Inactive)
ROOT
ATOM      1  O1  BZF d   1       1.597  -0.796  -1.005  0.00  0.00    -0.204 OA
ATOM      2  C2  BZF d   1       0.234  -0.702  -0.796  0.00  0.00     0.174 A 
ATOM      3  C3  BZF d   1      -0.071   0.431  -0.133  0.00  0.00    -0.012 A 
ATOM      4  C3A BZF d   1       1.169   1.132   0.006  0.00  0.00    -0.107 A 
ATOM      5  C4  BZF d   1       1.513   2.330   0.564  0.00  0.00     0.055 A 
ATOM      6  C5  BZF d   1       2.823   2.690   0.599  0.00  0.00    -0.016 A 
ATOM      7  C6  BZF d   1       3.814   1.876   0.090  0.00  0.00     0.022 A 
ATOM      8  C7  BZF d   1       3.521   0.681  -0.477  0.00  0.00     0.029 A 
ATOM      9  C7A BZF d   1       2.195   0.329  -0.544  0.00  0.00     0.058 A 
ENDROOT
TORSDOF 0
ENDMDL
