MODEL 1
REMARK minimizedAffinity -5.8655448
REMARK minimizedRMSD -1
REMARK  0 active torsions:
REMARK  status: ('A' for Active; 'I' for Inactive)
ROOT
ATOM      1  O1  BZF d   1       0.591  -0.672  -0.237  0.00  0.00    -0.204 OA
ATOM      2  C2  BZF d   1      -0.773  -0.595  -0.032  0.00  0.00     0.174 A 
ATOM      3  C3  BZF d   1      -1.095   0.541   0.620  0.00  0.00    -0.012 A 
ATOM      4  C3A BZF d   1       0.135   1.260   0.754  0.00  0.00    -0.107 A 
ATOM      5  C4  BZF d   1       0.462   2.468   1.301  0.00  0.00     0.055 A 
ATOM      6  C5  BZF d   1       1.767   2.846   1.334  0.00  0.00    -0.016 A 
ATOM      7  C6  BZF d   1       2.770   2.041   0.836  0.00  0.00     0.022 A 
ATOM      8  C7  BZF d   1       2.494   0.836   0.280  0.00  0.00     0.029 A 
ATOM      9  C7A BZF d   1       1.173   0.465   0.214  0.00  0.00     0.058 A 
ENDROOT
TORSDOF 0
ENDMDL
