MODEL 1
REMARK minimizedAffinity -3.99564147
REMARK minimizedRMSD -1
REMARK  0 active torsions:
REMARK  status: ('A' for Active; 'I' for Inactive)
ROOT
ATOM      1  O1  BZF d   1       0.991  -0.674  -0.584  0.00  0.00    -0.204 OA
ATOM      2  C2  BZF d   1      -0.314  -0.725  -0.133  0.00  0.00     0.174 A 
ATOM      3  C3  BZF d   1      -0.549   0.254   0.764  0.00  0.00    -0.012 A 
ATOM      4  C3A BZF d   1       0.660   1.018   0.812  0.00  0.00    -0.107 A 
ATOM      5  C4  BZF d   1       1.041   2.129   1.508  0.00  0.00     0.055 A 
ATOM      6  C5  BZF d   1       2.316   2.582   1.383  0.00  0.00    -0.016 A 
ATOM      7  C6  BZF d   1       3.237   1.945   0.577  0.00  0.00     0.022 A 
ATOM      8  C7  BZF d   1       2.904   0.842  -0.137  0.00  0.00     0.029 A 
ATOM      9  C7A BZF d   1       1.607   0.401  -0.038  0.00  0.00     0.058 A 
ENDROOT
TORSDOF 0
ENDMDL
