MODEL 1
REMARK minimizedAffinity -4.08679295
REMARK minimizedRMSD -1
REMARK  0 active torsions:
REMARK  status: ('A' for Active; 'I' for Inactive)
ROOT
ATOM      1  O1  BZF d   1       1.007   1.810   2.563  0.00  0.00    -0.204 OA
ATOM      2  C2  BZF d   1       1.887   2.508   1.757  0.00  0.00     0.174 A 
ATOM      3  C3  BZF d   1       1.698   2.194   0.459  0.00  0.00    -0.012 A 
ATOM      4  C3A BZF d   1       0.572   1.311   0.445  0.00  0.00    -0.107 A 
ATOM      5  C4  BZF d   1      -0.107   0.671  -0.552  0.00  0.00     0.055 A 
ATOM      6  C5  BZF d   1      -1.115  -0.179  -0.224  0.00  0.00    -0.016 A 
ATOM      7  C6  BZF d   1      -1.468  -0.416   1.088  0.00  0.00     0.022 A 
ATOM      8  C7  BZF d   1      -0.827   0.200   2.112  0.00  0.00     0.029 A 
ATOM      9  C7A BZF d   1       0.171   1.084   1.782  0.00  0.00     0.058 A 
ENDROOT
TORSDOF 0
ENDMDL
