MODEL 1
REMARK minimizedAffinity -2.86349797
REMARK minimizedRMSD -1
REMARK  0 active torsions:
REMARK  status: ('A' for Active; 'I' for Inactive)
ROOT
ATOM      1  O1  BZF d   1       0.474  -0.499  -0.392  0.00  0.00    -0.204 OA
ATOM      2  C2  BZF d   1      -0.857  -0.559  -0.027  0.00  0.00     0.174 A 
ATOM      3  C3  BZF d   1      -1.146   0.391   0.886  0.00  0.00    -0.012 A 
ATOM      4  C3A BZF d   1       0.059   1.148   1.035  0.00  0.00    -0.107 A 
ATOM      5  C4  BZF d   1       0.397   2.235   1.790  0.00  0.00     0.055 A 
ATOM      6  C5  BZF d   1       1.679   2.686   1.761  0.00  0.00    -0.016 A 
ATOM      7  C6  BZF d   1       2.648   2.071   0.995  0.00  0.00     0.022 A 
ATOM      8  C7  BZF d   1       2.359   0.993   0.226  0.00  0.00     0.029 A 
ATOM      9  C7A BZF d   1       1.057   0.555   0.228  0.00  0.00     0.058 A 
ENDROOT
TORSDOF 0
ENDMDL
