MODEL 1
REMARK minimizedAffinity -4.37693834
REMARK minimizedRMSD -1
REMARK  0 active torsions:
REMARK  status: ('A' for Active; 'I' for Inactive)
ROOT
ATOM      1  O1  BZF d   1       0.705  -0.738  -0.387  0.00  0.00    -0.204 OA
ATOM      2  C2  BZF d   1      -0.610  -0.859   0.019  0.00  0.00     0.174 A 
ATOM      3  C3  BZF d   1      -0.932   0.114   0.895  0.00  0.00    -0.012 A 
ATOM      4  C3A BZF d   1       0.228   0.948   0.974  0.00  0.00    -0.107 A 
ATOM      5  C4  BZF d   1       0.519   2.088   1.668  0.00  0.00     0.055 A 
ATOM      6  C5  BZF d   1       1.770   2.612   1.581  0.00  0.00    -0.016 A 
ATOM      7  C6  BZF d   1       2.754   2.021   0.816  0.00  0.00     0.022 A 
ATOM      8  C7  BZF d   1       2.511   0.892   0.106  0.00  0.00     0.029 A 
ATOM      9  C7A BZF d   1       1.239   0.378   0.166  0.00  0.00     0.058 A 
ENDROOT
TORSDOF 0
ENDMDL
