MODEL 1
REMARK minimizedAffinity -4.52855682
REMARK minimizedRMSD -1
REMARK  0 active torsions:
REMARK  status: ('A' for Active; 'I' for Inactive)
ROOT
ATOM      1  O1  BZF d   1       0.983  -0.844  -0.598  0.00  0.00    -0.204 OA
ATOM      2  C2  BZF d   1      -0.375  -0.936  -0.364  0.00  0.00     0.174 A 
ATOM      3  C3  BZF d   1      -0.812   0.125   0.344  0.00  0.00    -0.012 A 
ATOM      4  C3A BZF d   1       0.328   0.978   0.486  0.00  0.00    -0.107 A 
ATOM      5  C4  BZF d   1       0.525   2.192   1.079  0.00  0.00     0.055 A 
ATOM      6  C5  BZF d   1       1.777   2.720   1.105  0.00  0.00    -0.016 A 
ATOM      7  C6  BZF d   1       2.854   2.059   0.552  0.00  0.00     0.022 A 
ATOM      8  C7  BZF d   1       2.708   0.855  -0.052  0.00  0.00     0.029 A 
ATOM      9  C7A BZF d   1       1.438   0.334  -0.108  0.00  0.00     0.058 A 
ENDROOT
TORSDOF 0
ENDMDL
