MODEL 1
REMARK minimizedAffinity -4.807796
REMARK minimizedRMSD -1
REMARK  0 active torsions:
REMARK  status: ('A' for Active; 'I' for Inactive)
ROOT
ATOM      1  O1  BZF d   1       0.635   2.680   1.494  0.00  0.00    -0.204 OA
ATOM      2  C2  BZF d   1       1.684   2.978   0.647  0.00  0.00     0.174 A 
ATOM      3  C3  BZF d   1       1.907   1.965  -0.215  0.00  0.00    -0.012 A 
ATOM      4  C3A BZF d   1       0.876   1.009   0.055  0.00  0.00    -0.107 A 
ATOM      5  C4  BZF d   1       0.556  -0.203  -0.486  0.00  0.00     0.055 A 
ATOM      6  C5  BZF d   1      -0.467  -0.918   0.054  0.00  0.00    -0.016 A 
ATOM      7  C6  BZF d   1      -1.185  -0.453   1.136  0.00  0.00     0.022 A 
ATOM      8  C7  BZF d   1      -0.908   0.747   1.703  0.00  0.00     0.029 A 
ATOM      9  C7A BZF d   1       0.104   1.485   1.139  0.00  0.00     0.058 A 
ENDROOT
TORSDOF 0
ENDMDL
