MODEL 1
REMARK minimizedAffinity -6.42027473
REMARK minimizedRMSD -1
REMARK  0 active torsions:
REMARK  status: ('A' for Active; 'I' for Inactive)
ROOT
ATOM      1  O1  BZF d   1       0.093   0.114   0.201  0.00  0.00    -0.204 OA
ATOM      2  C2  BZF d   1      -0.942   0.729   0.879  0.00  0.00     0.174 A 
ATOM      3  C3  BZF d   1      -0.508   1.843   1.504  0.00  0.00    -0.012 A 
ATOM      4  C3A BZF d   1       0.864   1.979   1.121  0.00  0.00    -0.107 A 
ATOM      5  C4  BZF d   1       1.831   2.900   1.407  0.00  0.00     0.055 A 
ATOM      6  C5  BZF d   1       3.089   2.705   0.934  0.00  0.00    -0.016 A 
ATOM      7  C6  BZF d   1       3.417   1.599   0.177  0.00  0.00     0.022 A 
ATOM      8  C7  BZF d   1       2.490   0.661  -0.136  0.00  0.00     0.029 A 
ATOM      9  C7A BZF d   1       1.210   0.872   0.313  0.00  0.00     0.058 A 
ENDROOT
TORSDOF 0
ENDMDL
