MODEL 1
REMARK minimizedAffinity -4.62200165
REMARK minimizedRMSD -1
REMARK  0 active torsions:
REMARK  status: ('A' for Active; 'I' for Inactive)
ROOT
ATOM      1  O1  BZF d   1       0.271  -0.766  -0.518  0.00  0.00    -0.204 OA
ATOM      2  C2  BZF d   1      -1.023  -0.965  -0.077  0.00  0.00     0.174 A 
ATOM      3  C3  BZF d   1      -1.350  -0.062   0.870  0.00  0.00    -0.012 A 
ATOM      4  C3A BZF d   1      -0.219   0.809   0.966  0.00  0.00    -0.107 A 
ATOM      5  C4  BZF d   1       0.054   1.913   1.722  0.00  0.00     0.055 A 
ATOM      6  C5  BZF d   1       1.281   2.491   1.629  0.00  0.00    -0.016 A 
ATOM      7  C6  BZF d   1       2.258   1.989   0.794  0.00  0.00     0.022 A 
ATOM      8  C7  BZF d   1       2.032   0.899   0.021  0.00  0.00     0.029 A 
ATOM      9  C7A BZF d   1       0.782   0.333   0.089  0.00  0.00     0.058 A 
ENDROOT
TORSDOF 0
ENDMDL
