MODEL 1
REMARK minimizedAffinity -5.32095051
REMARK minimizedRMSD -1
REMARK  0 active torsions:
REMARK  status: ('A' for Active; 'I' for Inactive)
ROOT
ATOM      1  O1  BZF d   1       2.539   0.235  -0.186  0.00  0.00    -0.204 OA
ATOM      2  C2  BZF d   1       3.225   1.333   0.295  0.00  0.00     0.174 A 
ATOM      3  C3  BZF d   1       2.404   2.142   0.996  0.00  0.00    -0.012 A 
ATOM      4  C3A BZF d   1       1.145   1.462   1.028  0.00  0.00    -0.107 A 
ATOM      5  C4  BZF d   1      -0.065   1.753   1.590  0.00  0.00     0.055 A 
ATOM      6  C5  BZF d   1      -1.112   0.915   1.375  0.00  0.00    -0.016 A 
ATOM      7  C6  BZF d   1      -0.986  -0.220   0.600  0.00  0.00     0.022 A 
ATOM      8  C7  BZF d   1       0.195  -0.553   0.026  0.00  0.00     0.029 A 
ATOM      9  C7A BZF d   1       1.264   0.275   0.269  0.00  0.00     0.058 A 
ENDROOT
TORSDOF 0
ENDMDL
