MODEL 1
REMARK minimizedAffinity -3.61884975
REMARK minimizedRMSD -1
REMARK  0 active torsions:
REMARK  status: ('A' for Active; 'I' for Inactive)
ROOT
ATOM      1  O1  BZF d   1       0.888  -0.609  -0.733  0.00  0.00    -0.204 OA
ATOM      2  C2  BZF d   1      -0.394  -0.926  -0.327  0.00  0.00     0.174 A 
ATOM      3  C3  BZF d   1      -0.839  -0.041   0.587  0.00  0.00    -0.012 A 
ATOM      4  C3A BZF d   1       0.195   0.941   0.696  0.00  0.00    -0.107 A 
ATOM      5  C4  BZF d   1       0.333   2.083   1.432  0.00  0.00     0.055 A 
ATOM      6  C5  BZF d   1       1.498   2.778   1.362  0.00  0.00    -0.016 A 
ATOM      7  C6  BZF d   1       2.548   2.358   0.571  0.00  0.00     0.022 A 
ATOM      8  C7  BZF d   1       2.457   1.235  -0.182  0.00  0.00     0.029 A 
ATOM      9  C7A BZF d   1       1.268   0.548  -0.138  0.00  0.00     0.058 A 
ENDROOT
TORSDOF 0
ENDMDL
