MODEL 1
REMARK minimizedAffinity -0.0443847105
REMARK minimizedRMSD -1
REMARK  0 active torsions:
REMARK  status: ('A' for Active; 'I' for Inactive)
ROOT
ATOM      1  O1  BZF d   1      -0.326  -0.167   2.034  0.00  0.00    -0.204 OA
ATOM      2  C2  BZF d   1      -0.892   0.206   0.830  0.00  0.00     0.174 A 
ATOM      3  C3  BZF d   1      -0.362   1.366   0.391  0.00  0.00    -0.012 A 
ATOM      4  C3A BZF d   1       0.661   1.693   1.337  0.00  0.00    -0.107 A 
ATOM      5  C4  BZF d   1       1.553   2.723   1.436  0.00  0.00     0.055 A 
ATOM      6  C5  BZF d   1       2.369   2.787   2.521  0.00  0.00    -0.016 A 
ATOM      7  C6  BZF d   1       2.316   1.844   3.526  0.00  0.00     0.022 A 
ATOM      8  C7  BZF d   1       1.452   0.802   3.470  0.00  0.00     0.029 A 
ATOM      9  C7A BZF d   1       0.649   0.716   2.359  0.00  0.00     0.058 A 
ENDROOT
TORSDOF 0
ENDMDL
