MODEL 1
REMARK minimizedAffinity -5.39975452
REMARK minimizedRMSD -1
REMARK  0 active torsions:
REMARK  status: ('A' for Active; 'I' for Inactive)
ROOT
ATOM      1  O1  BZF d   1       1.566  -0.681  -0.626  0.00  0.00    -0.204 OA
ATOM      2  C2  BZF d   1       0.419  -1.452  -0.652  0.00  0.00     0.174 A 
ATOM      3  C3  BZF d   1      -0.579  -0.848   0.023  0.00  0.00    -0.012 A 
ATOM      4  C3A BZF d   1      -0.050   0.419   0.424  0.00  0.00    -0.107 A 
ATOM      5  C4  BZF d   1      -0.568   1.478   1.114  0.00  0.00     0.055 A 
ATOM      6  C5  BZF d   1       0.235   2.536   1.402  0.00  0.00    -0.016 A 
ATOM      7  C6  BZF d   1       1.560   2.566   1.021  0.00  0.00     0.022 A 
ATOM      8  C7  BZF d   1       2.118   1.542   0.330  0.00  0.00     0.029 A 
ATOM      9  C7A BZF d   1       1.300   0.486   0.009  0.00  0.00     0.058 A 
ENDROOT
TORSDOF 0
ENDMDL
