MODEL 1
REMARK minimizedAffinity -5.94725084
REMARK minimizedRMSD -1
REMARK  0 active torsions:
REMARK  status: ('A' for Active; 'I' for Inactive)
ROOT
ATOM      1  O1  BZF d   1       0.802  -0.806   0.153  0.00  0.00    -0.204 OA
ATOM      2  C2  BZF d   1      -0.386  -0.882   0.855  0.00  0.00     0.174 A 
ATOM      3  C3  BZF d   1      -0.564   0.219   1.613  0.00  0.00    -0.012 A 
ATOM      4  C3A BZF d   1       0.538   1.075   1.299  0.00  0.00    -0.107 A 
ATOM      5  C4  BZF d   1       0.910   2.320   1.720  0.00  0.00     0.055 A 
ATOM      6  C5  BZF d   1       2.082   2.845   1.275  0.00  0.00    -0.016 A 
ATOM      7  C6  BZF d   1       2.908   2.152   0.415  0.00  0.00     0.022 A 
ATOM      8  C7  BZF d   1       2.580   0.916  -0.033  0.00  0.00     0.029 A 
ATOM      9  C7A BZF d   1       1.380   0.396   0.388  0.00  0.00     0.058 A 
ENDROOT
TORSDOF 0
ENDMDL
