MODEL 1
REMARK minimizedAffinity 5.10743046
REMARK minimizedRMSD -1
REMARK  0 active torsions:
REMARK  status: ('A' for Active; 'I' for Inactive)
ROOT
ATOM      1  C   UNL d   1       2.286  -3.615  -0.057  0.00  0.00     0.020 A 
ATOM      2  C1  UNL d   1       2.509  -2.304  -0.477  0.00  0.00     0.020 A 
ATOM      3  C2  UNL d   1       1.715  -1.268   0.018  0.00  0.00     0.034 A 
ATOM      4  C3  UNL d   1       0.693  -1.540   0.935  0.00  0.00     0.017 A 
ATOM      5  C4  UNL d   1       0.470  -2.856   1.356  0.00  0.00     0.017 A 
ATOM      6  C5  UNL d   1       1.269  -3.890   0.858  0.00  0.00     0.034 A 
ATOM      7 Cl   UNL d   1      -0.770  -3.270   2.486  0.00  0.00    -0.070 Cl
ATOM      8 Cl1  UNL d   1      -0.250  -0.210   1.506  0.00  0.00    -0.070 Cl
ENDROOT
TORSDOF 0
ENDMDL
