MODEL 1
REMARK minimizedAffinity -3.17031002
REMARK minimizedRMSD -1
REMARK  0 active torsions:
REMARK  status: ('A' for Active; 'I' for Inactive)
ROOT
ATOM      1  C   UNL d   1       1.170  -0.977   0.899  0.00  0.00     0.020 A 
ATOM      2  C1  UNL d   1       0.063  -1.375   1.648  0.00  0.00     0.020 A 
ATOM      3  C2  UNL d   1      -0.146  -2.729   1.919  0.00  0.00     0.034 A 
ATOM      4  C3  UNL d   1       0.752  -3.689   1.441  0.00  0.00     0.017 A 
ATOM      5  C4  UNL d   1       1.862  -3.289   0.689  0.00  0.00     0.017 A 
ATOM      6  C5  UNL d   1       2.067  -1.932   0.420  0.00  0.00     0.034 A 
ATOM      7 Cl   UNL d   1       3.015  -4.416   0.064  0.00  0.00    -0.070 Cl
ATOM      8 Cl1  UNL d   1       0.431  -5.346   1.814  0.00  0.00    -0.070 Cl
ENDROOT
TORSDOF 0
ENDMDL
