MODEL 1
REMARK minimizedAffinity 9.09832287
REMARK minimizedRMSD -1
REMARK  0 active torsions:
REMARK  status: ('A' for Active; 'I' for Inactive)
ROOT
ATOM      1  C   UNL d   1       0.173   0.085   2.019  0.00  0.00     0.020 A 
ATOM      2  C1  UNL d   1      -0.475  -1.142   1.881  0.00  0.00     0.020 A 
ATOM      3  C2  UNL d   1       0.096  -2.149   1.100  0.00  0.00     0.034 A 
ATOM      4  C3  UNL d   1       1.318  -1.932   0.455  0.00  0.00     0.017 A 
ATOM      5  C4  UNL d   1       1.968  -0.700   0.594  0.00  0.00     0.017 A 
ATOM      6  C5  UNL d   1       1.392   0.305   1.377  0.00  0.00     0.034 A 
ATOM      7 Cl   UNL d   1       3.479  -0.358  -0.172  0.00  0.00    -0.070 Cl
ATOM      8 Cl1  UNL d   1       1.966  -3.222  -0.495  0.00  0.00    -0.070 Cl
ENDROOT
TORSDOF 0
ENDMDL
