MODEL 1
REMARK minimizedAffinity 18.0415382
REMARK minimizedRMSD -1
REMARK  0 active torsions:
REMARK  status: ('A' for Active; 'I' for Inactive)
ROOT
ATOM      1  C   UNL d   1      -6.000  -0.952   1.093  0.00  0.00     0.020 A 
ATOM      2  C1  UNL d   1      -5.661  -2.253   0.723  0.00  0.00     0.020 A 
ATOM      3  C2  UNL d   1      -4.318  -2.614   0.594  0.00  0.00     0.034 A 
ATOM      4  C3  UNL d   1      -3.309  -1.674   0.834  0.00  0.00     0.017 A 
ATOM      5  C4  UNL d   1      -3.651  -0.368   1.205  0.00  0.00     0.017 A 
ATOM      6  C5  UNL d   1      -4.997  -0.012   1.333  0.00  0.00     0.034 A 
ATOM      7 Cl   UNL d   1      -2.463   0.847   1.518  0.00  0.00    -0.070 Cl
ATOM      8 Cl1  UNL d   1      -1.670  -2.190   0.656  0.00  0.00    -0.070 Cl
ENDROOT
TORSDOF 0
ENDMDL
