MODEL 1
REMARK minimizedAffinity -1.17388213
REMARK minimizedRMSD -1
REMARK  0 active torsions:
REMARK  status: ('A' for Active; 'I' for Inactive)
ROOT
ATOM      1  C   UNL d   1       1.061  -2.936   0.264  0.00  0.00     0.020 A 
ATOM      2  C1  UNL d   1       1.707  -4.097   0.687  0.00  0.00     0.020 A 
ATOM      3  C2  UNL d   1       3.097  -4.196   0.595  0.00  0.00     0.034 A 
ATOM      4  C3  UNL d   1       3.845  -3.132   0.077  0.00  0.00     0.017 A 
ATOM      5  C4  UNL d   1       3.196  -1.968  -0.348  0.00  0.00     0.017 A 
ATOM      6  C5  UNL d   1       1.804  -1.874  -0.253  0.00  0.00     0.034 A 
ATOM      7 Cl   UNL d   1       4.051  -0.614  -0.997  0.00  0.00    -0.070 Cl
ATOM      8 Cl1  UNL d   1       5.560  -3.323  -0.008  0.00  0.00    -0.070 Cl
ENDROOT
TORSDOF 0
ENDMDL
