MODEL 1
REMARK minimizedAffinity 1.57629979
REMARK minimizedRMSD -1
REMARK  0 active torsions:
REMARK  status: ('A' for Active; 'I' for Inactive)
ROOT
ATOM      1  C   UNL d   1       2.198  -3.338   0.511  0.00  0.00     0.020 A 
ATOM      2  C1  UNL d   1       2.247  -2.073  -0.073  0.00  0.00     0.020 A 
ATOM      3  C2  UNL d   1       1.270  -1.124   0.233  0.00  0.00     0.034 A 
ATOM      4  C3  UNL d   1       0.238  -1.438   1.125  0.00  0.00     0.017 A 
ATOM      5  C4  UNL d   1       0.189  -2.709   1.711  0.00  0.00     0.017 A 
ATOM      6  C5  UNL d   1       1.171  -3.655   1.401  0.00  0.00     0.034 A 
ATOM      7 Cl   UNL d   1      -1.053  -3.170   2.821  0.00  0.00    -0.070 Cl
ATOM      8 Cl1  UNL d   1      -0.937  -0.216   1.457  0.00  0.00    -0.070 Cl
ENDROOT
TORSDOF 0
ENDMDL
