MODEL 1
REMARK minimizedAffinity 2.24639511
REMARK minimizedRMSD -1
REMARK  0 active torsions:
REMARK  status: ('A' for Active; 'I' for Inactive)
ROOT
ATOM      1  C   UNL d   1       1.788  -3.025   0.317  0.00  0.00     0.020 A 
ATOM      2  C1  UNL d   1       1.935  -1.660   0.069  0.00  0.00     0.020 A 
ATOM      3  C2  UNL d   1       1.009  -0.753   0.588  0.00  0.00     0.034 A 
ATOM      4  C3  UNL d   1      -0.068  -1.209   1.357  0.00  0.00     0.017 A 
ATOM      5  C4  UNL d   1      -0.214  -2.578   1.605  0.00  0.00     0.017 A 
ATOM      6  C5  UNL d   1       0.716  -3.482   1.083  0.00  0.00     0.034 A 
ATOM      7 Cl   UNL d   1      -1.517  -3.216   2.545  0.00  0.00    -0.070 Cl
ATOM      8 Cl1  UNL d   1      -1.175  -0.030   1.967  0.00  0.00    -0.070 Cl
ENDROOT
TORSDOF 0
ENDMDL
