MODEL 1
REMARK minimizedAffinity 6.8285532
REMARK minimizedRMSD -1
REMARK  0 active torsions:
REMARK  status: ('A' for Active; 'I' for Inactive)
ROOT
ATOM      1  C   UNL d   1       1.747  -0.110   0.601  0.00  0.00     0.020 A 
ATOM      2  C1  UNL d   1       0.477   0.017   1.163  0.00  0.00     0.020 A 
ATOM      3  C2  UNL d   1      -0.240  -1.123   1.532  0.00  0.00     0.034 A 
ATOM      4  C3  UNL d   1       0.312  -2.395   1.339  0.00  0.00     0.017 A 
ATOM      5  C4  UNL d   1       1.586  -2.521   0.774  0.00  0.00     0.017 A 
ATOM      6  C5  UNL d   1       2.300  -1.376   0.406  0.00  0.00     0.034 A 
ATOM      7 Cl   UNL d   1       2.332  -4.057   0.504  0.00  0.00    -0.070 Cl
ATOM      8 Cl1  UNL d   1      -0.631  -3.761   1.819  0.00  0.00    -0.070 Cl
ENDROOT
TORSDOF 0
ENDMDL
