MODEL 1
REMARK minimizedAffinity 7.06727743
REMARK minimizedRMSD -1
REMARK  0 active torsions:
REMARK  status: ('A' for Active; 'I' for Inactive)
ROOT
ATOM      1  C   UNL d   1      -5.556   3.470   6.000  0.00  0.00     0.020 A 
ATOM      2  C1  UNL d   1      -6.000   2.237   5.525  0.00  0.00     0.020 A 
ATOM      3  C2  UNL d   1      -5.429   1.684   4.377  0.00  0.00     0.034 A 
ATOM      4  C3  UNL d   1      -4.411   2.365   3.699  0.00  0.00     0.017 A 
ATOM      5  C4  UNL d   1      -3.966   3.603   4.177  0.00  0.00     0.017 A 
ATOM      6  C5  UNL d   1      -4.541   4.151   5.327  0.00  0.00     0.034 A 
ATOM      7 Cl   UNL d   1      -2.714   4.502   3.395  0.00  0.00    -0.070 Cl
ATOM      8 Cl1  UNL d   1      -3.750   1.622   2.286  0.00  0.00    -0.070 Cl
ENDROOT
TORSDOF 0
ENDMDL
