MODEL 1
REMARK minimizedAffinity 3.08261704
REMARK minimizedRMSD -1
REMARK  1 active torsions:
REMARK  status: ('A' for Active; 'I' for Inactive)
REMARK    1  A    between atoms: C1_2  and  C2_3 
ROOT
ATOM      1  C2  UNL d   1       2.413   2.128   0.853  0.00  0.00    -0.077 A 
ATOM      2  C3  UNL d   1       3.049   1.940  -0.382  0.00  0.00     0.002 A 
ATOM      3  C4  UNL d   1       2.404   1.253  -1.412  0.00  0.00     0.002 A 
ATOM      4  C5  UNL d   1       1.118   0.752  -1.219  0.00  0.00    -0.004 A 
ATOM      5  C6  UNL d   1       0.477   0.933   0.006  0.00  0.00     0.002 A 
ATOM      6  C7  UNL d   1       1.121   1.618   1.037  0.00  0.00     0.002 A 
ENDROOT
BRANCH   1   7
ATOM      7  C1  UNL d   1       3.088   2.912   1.948  0.00  0.00     0.055 C 
ATOM      8  C   UNL d   1       2.681   4.378   1.911  0.00  0.00     0.019 C 
ENDBRANCH   1   7
TORSDOF 1
ENDMDL
