MODEL 1
REMARK minimizedAffinity -3.93289113
REMARK minimizedRMSD -1
REMARK  1 active torsions:
REMARK  status: ('A' for Active; 'I' for Inactive)
REMARK    1  A    between atoms: C1_2  and  C2_3 
ROOT
ATOM      1  C2  UNL d   1      -1.596   0.239   0.585  0.00  0.00    -0.077 A 
ATOM      2  C3  UNL d   1      -0.537   0.359   1.496  0.00  0.00     0.002 A 
ATOM      3  C4  UNL d   1       0.702   0.849   1.079  0.00  0.00     0.002 A 
ATOM      4  C5  UNL d   1       0.893   1.225  -0.249  0.00  0.00    -0.004 A 
ATOM      5  C6  UNL d   1      -0.153   1.107  -1.163  0.00  0.00     0.002 A 
ATOM      6  C7  UNL d   1      -1.392   0.617  -0.748  0.00  0.00     0.002 A 
ENDROOT
BRANCH   1   7
ATOM      7  C1  UNL d   1      -2.947  -0.242   1.044  0.00  0.00     0.055 C 
ATOM      8  C   UNL d   1      -3.937   0.909   1.154  0.00  0.00     0.019 C 
ENDBRANCH   1   7
TORSDOF 1
ENDMDL
