MODEL 1
REMARK minimizedAffinity -5.71685457
REMARK minimizedRMSD -1
REMARK  1 active torsions:
REMARK  status: ('A' for Active; 'I' for Inactive)
REMARK    1  A    between atoms: C1_2  and  C2_3 
ROOT
ATOM      1  C2  UNL d   1       1.113  -1.215  -1.517  0.00  0.00    -0.077 A 
ATOM      2  C3  UNL d   1       1.846  -0.155  -2.069  0.00  0.00     0.002 A 
ATOM      3  C4  UNL d   1       1.786   1.118  -1.498  0.00  0.00     0.002 A 
ATOM      4  C5  UNL d   1       1.000   1.341  -0.370  0.00  0.00    -0.004 A 
ATOM      5  C6  UNL d   1       0.266   0.294   0.185  0.00  0.00     0.002 A 
ATOM      6  C7  UNL d   1       0.323  -0.979  -0.385  0.00  0.00     0.002 A 
ENDROOT
BRANCH   1   7
ATOM      7  C1  UNL d   1       1.215  -2.599  -2.102  0.00  0.00     0.055 C 
ATOM      8  C   UNL d   1       1.547  -3.629  -1.032  0.00  0.00     0.019 C 
ENDBRANCH   1   7
TORSDOF 1
ENDMDL
