MODEL 1
REMARK minimizedAffinity -0.668847978
REMARK minimizedRMSD -1
REMARK  1 active torsions:
REMARK  status: ('A' for Active; 'I' for Inactive)
REMARK    1  A    between atoms: C1_2  and  C2_3 
ROOT
ATOM      1  C2  UNL d   1       0.735  -0.763  -0.197  0.00  0.00    -0.077 A 
ATOM      2  C3  UNL d   1       0.327   0.554   0.059  0.00  0.00     0.002 A 
ATOM      3  C4  UNL d   1       0.890   1.617  -0.649  0.00  0.00     0.002 A 
ATOM      4  C5  UNL d   1       1.860   1.375  -1.620  0.00  0.00    -0.004 A 
ATOM      5  C6  UNL d   1       2.273   0.069  -1.880  0.00  0.00     0.002 A 
ATOM      6  C7  UNL d   1       1.713  -0.995  -1.172  0.00  0.00     0.002 A 
ENDROOT
BRANCH   1   7
ATOM      7  C1  UNL d   1       0.094  -1.916   0.531  0.00  0.00     0.055 C 
ATOM      8  C   UNL d   1       0.384  -3.239  -0.163  0.00  0.00     0.019 C 
ENDBRANCH   1   7
TORSDOF 1
ENDMDL
