MODEL 1
REMARK minimizedAffinity -5.53856182
REMARK minimizedRMSD -1
REMARK  1 active torsions:
REMARK  status: ('A' for Active; 'I' for Inactive)
REMARK    1  A    between atoms: C1_2  and  C2_3 
ROOT
ATOM      1  C2  UNL d   1       0.718  -0.311  -0.790  0.00  0.00    -0.077 A 
ATOM      2  C3  UNL d   1       0.434  -1.683  -0.846  0.00  0.00     0.002 A 
ATOM      3  C4  UNL d   1       0.876  -2.452  -1.925  0.00  0.00     0.002 A 
ATOM      4  C5  UNL d   1       1.608  -1.859  -2.952  0.00  0.00    -0.004 A 
ATOM      5  C6  UNL d   1       1.893  -0.495  -2.906  0.00  0.00     0.002 A 
ATOM      6  C7  UNL d   1       1.451   0.275  -1.829  0.00  0.00     0.002 A 
ENDROOT
BRANCH   1   7
ATOM      7  C1  UNL d   1       0.285   0.509   0.397  0.00  0.00     0.055 C 
ATOM      8  C   UNL d   1      -0.758  -0.225   1.227  0.00  0.00     0.019 C 
ENDBRANCH   1   7
TORSDOF 1
ENDMDL
