MODEL 1
REMARK minimizedAffinity -4.92326021
REMARK minimizedRMSD -1
REMARK  1 active torsions:
REMARK  status: ('A' for Active; 'I' for Inactive)
REMARK    1  A    between atoms: C1_2  and  C2_3 
ROOT
ATOM      1  C2  UNL d   1       0.583  -0.245  -1.008  0.00  0.00    -0.077 A 
ATOM      2  C3  UNL d   1       0.820   0.236  -2.303  0.00  0.00     0.002 A 
ATOM      3  C4  UNL d   1       1.585  -0.507  -3.204  0.00  0.00     0.002 A 
ATOM      4  C5  UNL d   1       2.115  -1.738  -2.821  0.00  0.00    -0.004 A 
ATOM      5  C6  UNL d   1       1.886  -2.224  -1.535  0.00  0.00     0.002 A 
ATOM      6  C7  UNL d   1       1.123  -1.482  -0.632  0.00  0.00     0.002 A 
ENDROOT
BRANCH   1   7
ATOM      7  C1  UNL d   1      -0.282   0.532  -0.051  0.00  0.00     0.055 C 
ATOM      8  C   UNL d   1      -0.571  -0.269   1.210  0.00  0.00     0.019 C 
ENDBRANCH   1   7
TORSDOF 1
ENDMDL
