MODEL 1
REMARK minimizedAffinity -5.03542709
REMARK minimizedRMSD -1
REMARK  1 active torsions:
REMARK  status: ('A' for Active; 'I' for Inactive)
REMARK    1  A    between atoms: C1_2  and  C2_3 
ROOT
ATOM      1  C2  UNL d   1      -0.076  -0.462  -0.406  0.00  0.00    -0.077 A 
ATOM      2  C3  UNL d   1       0.410  -1.431  -1.294  0.00  0.00     0.002 A 
ATOM      3  C4  UNL d   1       1.460  -1.130  -2.164  0.00  0.00     0.002 A 
ATOM      4  C5  UNL d   1       2.036   0.139  -2.150  0.00  0.00    -0.004 A 
ATOM      5  C6  UNL d   1       1.558   1.111  -1.272  0.00  0.00     0.002 A 
ATOM      6  C7  UNL d   1       0.508   0.812  -0.403  0.00  0.00     0.002 A 
ENDROOT
BRANCH   1   7
ATOM      7  C1  UNL d   1      -1.175  -0.800   0.567  0.00  0.00     0.055 C 
ATOM      8  C   UNL d   1      -1.642   0.434   1.325  0.00  0.00     0.019 C 
ENDBRANCH   1   7
TORSDOF 1
ENDMDL
