MODEL 1
REMARK minimizedAffinity -3.69468427
REMARK minimizedRMSD -1
REMARK  1 active torsions:
REMARK  status: ('A' for Active; 'I' for Inactive)
REMARK    1  A    between atoms: C1_2  and  C2_3 
ROOT
ATOM      1  C2  UNL d   1      -1.329   0.084   0.321  0.00  0.00    -0.077 A 
ATOM      2  C3  UNL d   1      -1.420   0.018   1.719  0.00  0.00     0.002 A 
ATOM      3  C4  UNL d   1      -2.628   0.294   2.362  0.00  0.00     0.002 A 
ATOM      4  C5  UNL d   1      -3.755   0.633   1.615  0.00  0.00    -0.004 A 
ATOM      5  C6  UNL d   1      -3.674   0.704   0.225  0.00  0.00     0.002 A 
ATOM      6  C7  UNL d   1      -2.467   0.429  -0.419  0.00  0.00     0.002 A 
ENDROOT
BRANCH   1   7
ATOM      7  C1  UNL d   1      -0.039  -0.261  -0.377  0.00  0.00     0.055 C 
ATOM      8  C   UNL d   1       0.523   0.939  -1.125  0.00  0.00     0.019 C 
ENDBRANCH   1   7
TORSDOF 1
ENDMDL
