MODEL 1
REMARK minimizedAffinity -4.80526972
REMARK minimizedRMSD -1
REMARK  1 active torsions:
REMARK  status: ('A' for Active; 'I' for Inactive)
REMARK    1  A    between atoms: C1_2  and  C2_3 
ROOT
ATOM      1  C2  UNL d   1       1.266   0.042  -0.998  0.00  0.00    -0.077 A 
ATOM      2  C3  UNL d   1       1.240   1.294  -0.369  0.00  0.00     0.002 A 
ATOM      3  C4  UNL d   1       0.604   1.453   0.864  0.00  0.00     0.002 A 
ATOM      4  C5  UNL d   1      -0.006   0.362   1.480  0.00  0.00    -0.004 A 
ATOM      5  C6  UNL d   1       0.012  -0.887   0.862  0.00  0.00     0.002 A 
ATOM      6  C7  UNL d   1       0.646  -1.047  -0.371  0.00  0.00     0.002 A 
ENDROOT
BRANCH   1   7
ATOM      7  C1  UNL d   1       1.994  -0.142  -2.304  0.00  0.00     0.055 C 
ATOM      8  C   UNL d   1       2.382  -1.597  -2.521  0.00  0.00     0.019 C 
ENDBRANCH   1   7
TORSDOF 1
ENDMDL
