MODEL 1
REMARK minimizedAffinity -5.75473642
REMARK minimizedRMSD -1
REMARK  1 active torsions:
REMARK  status: ('A' for Active; 'I' for Inactive)
REMARK    1  A    between atoms: C1_2  and  C2_3 
ROOT
ATOM      1  C2  UNL d   1       0.518  -0.018  -0.840  0.00  0.00    -0.077 A 
ATOM      2  C3  UNL d   1       0.562  -1.395  -1.098  0.00  0.00     0.002 A 
ATOM      3  C4  UNL d   1       1.356  -1.895  -2.132  0.00  0.00     0.002 A 
ATOM      4  C5  UNL d   1       2.115  -1.026  -2.912  0.00  0.00    -0.004 A 
ATOM      5  C6  UNL d   1       2.077   0.346  -2.665  0.00  0.00     0.002 A 
ATOM      6  C7  UNL d   1       1.283   0.847  -1.633  0.00  0.00     0.002 A 
ENDROOT
BRANCH   1   7
ATOM      7  C1  UNL d   1      -0.300   0.519   0.306  0.00  0.00     0.055 C 
ATOM      8  C   UNL d   1      -0.848  -0.608   1.170  0.00  0.00     0.019 C 
ENDBRANCH   1   7
TORSDOF 1
ENDMDL
