MODEL 1
REMARK minimizedAffinity -5.69336748
REMARK minimizedRMSD -1
REMARK  1 active torsions:
REMARK  status: ('A' for Active; 'I' for Inactive)
REMARK    1  A    between atoms: C1_2  and  C2_3 
ROOT
ATOM      1  C2  UNL d   1       0.234  -0.324  -0.276  0.00  0.00    -0.077 A 
ATOM      2  C3  UNL d   1       0.526   0.744  -1.136  0.00  0.00     0.002 A 
ATOM      3  C4  UNL d   1       1.123   0.510  -2.376  0.00  0.00     0.002 A 
ATOM      4  C5  UNL d   1       1.428  -0.791  -2.770  0.00  0.00    -0.004 A 
ATOM      5  C6  UNL d   1       1.144  -1.860  -1.921  0.00  0.00     0.002 A 
ATOM      6  C7  UNL d   1       0.548  -1.628  -0.681  0.00  0.00     0.002 A 
ENDROOT
BRANCH   1   7
ATOM      7  C1  UNL d   1      -0.455  -0.079   1.041  0.00  0.00     0.055 C 
ATOM      8  C   UNL d   1      -1.951   0.129   0.853  0.00  0.00     0.019 C 
ENDBRANCH   1   7
TORSDOF 1
ENDMDL
