MODEL 1
REMARK minimizedAffinity -0.216753721
REMARK minimizedRMSD -1
REMARK  1 active torsions:
REMARK  status: ('A' for Active; 'I' for Inactive)
REMARK    1  A    between atoms: C1_2  and  C2_3 
ROOT
ATOM      1  C2  UNL d   1       0.816   0.401   0.200  0.00  0.00    -0.077 A 
ATOM      2  C3  UNL d   1       1.349  -0.895   0.170  0.00  0.00     0.002 A 
ATOM      3  C4  UNL d   1       0.518  -2.004   0.338  0.00  0.00     0.002 A 
ATOM      4  C5  UNL d   1      -0.850  -1.829   0.533  0.00  0.00    -0.004 A 
ATOM      5  C6  UNL d   1      -1.390  -0.544   0.567  0.00  0.00     0.002 A 
ATOM      6  C7  UNL d   1      -0.560   0.567   0.400  0.00  0.00     0.002 A 
ENDROOT
BRANCH   1   7
ATOM      7  C1  UNL d   1       1.703   1.597  -0.030  0.00  0.00     0.055 C 
ATOM      8  C   UNL d   1       2.223   1.633  -1.459  0.00  0.00     0.019 C 
ENDBRANCH   1   7
TORSDOF 1
ENDMDL
