MODEL 1
REMARK minimizedAffinity -3.26028824
REMARK minimizedRMSD -1
REMARK  0 active torsions:
REMARK  status: ('A' for Active; 'I' for Inactive)
ROOT
ATOM      1  O1  BZF d   1      -0.236  -4.037  -0.810  0.00  0.00    -0.204 OA
ATOM      2  C2  BZF d   1       0.731  -4.146  -1.791  0.00  0.00     0.174 A 
ATOM      3  C3  BZF d   1       1.323  -2.955  -2.013  0.00  0.00    -0.012 A 
ATOM      4  C3A BZF d   1       0.752  -2.065  -1.050  0.00  0.00    -0.107 A 
ATOM      5  C4  BZF d   1       0.948  -0.745  -0.759  0.00  0.00     0.055 A 
ATOM      6  C5  BZF d   1       0.177  -0.157   0.193  0.00  0.00    -0.016 A 
ATOM      7  C6  BZF d   1      -0.801  -0.857   0.870  0.00  0.00     0.022 A 
ATOM      8  C7  BZF d   1      -1.028  -2.169   0.620  0.00  0.00     0.029 A 
ATOM      9  C7A BZF d   1      -0.229  -2.774  -0.319  0.00  0.00     0.058 A 
ENDROOT
TORSDOF 0
ENDMDL
