MODEL 1
REMARK minimizedAffinity -4.05297184
REMARK minimizedRMSD -1
REMARK  0 active torsions:
REMARK  status: ('A' for Active; 'I' for Inactive)
ROOT
ATOM      1  O1  BZF d   1      -0.187   0.298  -1.281  0.00  0.00    -0.204 OA
ATOM      2  C2  BZF d   1       0.905  -0.530  -1.110  0.00  0.00     0.174 A 
ATOM      3  C3  BZF d   1       1.213  -0.652   0.197  0.00  0.00    -0.012 A 
ATOM      4  C3A BZF d   1       0.197   0.076   0.893  0.00  0.00    -0.107 A 
ATOM      5  C4  BZF d   1      -0.052   0.311   2.215  0.00  0.00     0.055 A 
ATOM      6  C5  BZF d   1      -1.085   1.124   2.558  0.00  0.00    -0.016 A 
ATOM      7  C6  BZF d   1      -1.886   1.722   1.607  0.00  0.00     0.022 A 
ATOM      8  C7  BZF d   1      -1.681   1.515   0.284  0.00  0.00     0.029 A 
ATOM      9  C7A BZF d   1      -0.658   0.667  -0.066  0.00  0.00     0.058 A 
ENDROOT
TORSDOF 0
ENDMDL
