MODEL 1
REMARK minimizedAffinity -3.06592679
REMARK minimizedRMSD -1
REMARK  0 active torsions:
REMARK  status: ('A' for Active; 'I' for Inactive)
ROOT
ATOM      1  O1  BZF d   1      -1.438   2.651   0.282  0.00  0.00    -0.204 OA
ATOM      2  C2  BZF d   1      -2.086   2.095   1.368  0.00  0.00     0.174 A 
ATOM      3  C3  BZF d   1      -1.631   0.849   1.610  0.00  0.00    -0.012 A 
ATOM      4  C3A BZF d   1      -0.571   0.646   0.671  0.00  0.00    -0.107 A 
ATOM      5  C4  BZF d   1       0.281  -0.393   0.427  0.00  0.00     0.055 A 
ATOM      6  C5  BZF d   1       1.154  -0.301  -0.611  0.00  0.00    -0.016 A 
ATOM      7  C6  BZF d   1       1.198   0.811  -1.427  0.00  0.00     0.022 A 
ATOM      8  C7  BZF d   1       0.376   1.868  -1.220  0.00  0.00     0.029 A 
ATOM      9  C7A BZF d   1      -0.484   1.792  -0.152  0.00  0.00     0.058 A 
ENDROOT
TORSDOF 0
ENDMDL
