MODEL 1
REMARK minimizedAffinity -4.21263218
REMARK minimizedRMSD -1
REMARK  0 active torsions:
REMARK  status: ('A' for Active; 'I' for Inactive)
ROOT
ATOM      1  O1  BZF d   1      -1.134   0.359   2.176  0.00  0.00    -0.204 OA
ATOM      2  C2  BZF d   1      -0.288  -0.724   2.035  0.00  0.00     0.174 A 
ATOM      3  C3  BZF d   1       0.423  -0.631   0.894  0.00  0.00    -0.012 A 
ATOM      4  C3A BZF d   1       0.062   0.633   0.327  0.00  0.00    -0.107 A 
ATOM      5  C4  BZF d   1       0.446   1.301  -0.800  0.00  0.00     0.055 A 
ATOM      6  C5  BZF d   1      -0.151   2.483  -1.103  0.00  0.00    -0.016 A 
ATOM      7  C6  BZF d   1      -1.138   3.024  -0.305  0.00  0.00     0.022 A 
ATOM      8  C7  BZF d   1      -1.549   2.401   0.826  0.00  0.00     0.029 A 
ATOM      9  C7A BZF d   1      -0.924   1.222   1.152  0.00  0.00     0.058 A 
ENDROOT
TORSDOF 0
ENDMDL
