MODEL 1
REMARK minimizedAffinity -1.57203043
REMARK minimizedRMSD -1
REMARK  0 active torsions:
REMARK  status: ('A' for Active; 'I' for Inactive)
ROOT
ATOM      1  O1  BZF d   1       0.567   0.215  -1.261  0.00  0.00    -0.204 OA
ATOM      2  C2  BZF d   1       1.074  -1.023  -0.916  0.00  0.00     0.174 A 
ATOM      3  C3  BZF d   1       0.687  -1.369   0.329  0.00  0.00    -0.012 A 
ATOM      4  C3A BZF d   1      -0.187  -0.319   0.756  0.00  0.00    -0.107 A 
ATOM      5  C4  BZF d   1      -0.901  -0.099   1.899  0.00  0.00     0.055 A 
ATOM      6  C5  BZF d   1      -1.598   1.060   2.029  0.00  0.00    -0.016 A 
ATOM      7  C6  BZF d   1      -1.599   2.022   1.041  0.00  0.00     0.022 A 
ATOM      8  C7  BZF d   1      -0.909   1.847  -0.113  0.00  0.00     0.029 A 
ATOM      9  C7A BZF d   1      -0.231   0.662  -0.262  0.00  0.00     0.058 A 
ENDROOT
TORSDOF 0
ENDMDL
