MODEL 1
REMARK minimizedAffinity -3.54528403
REMARK minimizedRMSD -1
REMARK  0 active torsions:
REMARK  status: ('A' for Active; 'I' for Inactive)
ROOT
ATOM      1  O1  BZF d   1      -0.250  -0.018  -1.561  0.00  0.00    -0.204 OA
ATOM      2  C2  BZF d   1       0.626  -1.085  -1.507  0.00  0.00     0.174 A 
ATOM      3  C3  BZF d   1       0.941  -1.382  -0.230  0.00  0.00    -0.012 A 
ATOM      4  C3A BZF d   1       0.145  -0.500   0.569  0.00  0.00    -0.107 A 
ATOM      5  C4  BZF d   1       0.003  -0.325   1.915  0.00  0.00     0.055 A 
ATOM      6  C5  BZF d   1      -0.802   0.672   2.370  0.00  0.00    -0.016 A 
ATOM      7  C6  BZF d   1      -1.474   1.513   1.508  0.00  0.00     0.022 A 
ATOM      8  C7  BZF d   1      -1.368   1.374   0.163  0.00  0.00     0.029 A 
ATOM      9  C7A BZF d   1      -0.581   0.347  -0.299  0.00  0.00     0.058 A 
ENDROOT
TORSDOF 0
ENDMDL
