MODEL 1
REMARK minimizedAffinity 0.469374746
REMARK minimizedRMSD -1
REMARK  0 active torsions:
REMARK  status: ('A' for Active; 'I' for Inactive)
ROOT
ATOM      1  O1  BZF d   1       0.237  -0.888  -0.772  0.00  0.00    -0.204 OA
ATOM      2  C2  BZF d   1       1.081  -1.334   0.226  0.00  0.00     0.174 A 
ATOM      3  C3  BZF d   1       0.956  -0.574   1.333  0.00  0.00    -0.012 A 
ATOM      4  C3A BZF d   1      -0.095   0.351   1.038  0.00  0.00    -0.107 A 
ATOM      5  C4  BZF d   1      -0.691   1.353   1.749  0.00  0.00     0.055 A 
ATOM      6  C5  BZF d   1      -1.638   2.117   1.146  0.00  0.00    -0.016 A 
ATOM      7  C6  BZF d   1      -2.009   1.912  -0.167  0.00  0.00     0.022 A 
ATOM      8  C7  BZF d   1      -1.450   0.928  -0.911  0.00  0.00     0.029 A 
ATOM      9  C7A BZF d   1      -0.516   0.132  -0.294  0.00  0.00     0.058 A 
ENDROOT
TORSDOF 0
ENDMDL
