MODEL 1
REMARK minimizedAffinity -5.99562311
REMARK minimizedRMSD -1
REMARK  0 active torsions:
REMARK  status: ('A' for Active; 'I' for Inactive)
ROOT
ATOM      1  O1  BZF d   1       1.244   1.515  -1.306  0.00  0.00    -0.204 OA
ATOM      2  C2  BZF d   1       1.591   0.189  -1.132  0.00  0.00     0.174 A 
ATOM      3  C3  BZF d   1       0.792  -0.399  -0.219  0.00  0.00    -0.012 A 
ATOM      4  C3A BZF d   1      -0.171   0.598   0.136  0.00  0.00    -0.107 A 
ATOM      5  C4  BZF d   1      -1.240   0.611   0.986  0.00  0.00     0.055 A 
ATOM      6  C5  BZF d   1      -1.932   1.768   1.159  0.00  0.00    -0.016 A 
ATOM      7  C6  BZF d   1      -1.582   2.929   0.502  0.00  0.00     0.022 A 
ATOM      8  C7  BZF d   1      -0.533   2.964  -0.355  0.00  0.00     0.029 A 
ATOM      9  C7A BZF d   1       0.149   1.789  -0.557  0.00  0.00     0.058 A 
ENDROOT
TORSDOF 0
ENDMDL
