MODEL 1
REMARK minimizedAffinity -3.21744299
REMARK minimizedRMSD -1
REMARK  0 active torsions:
REMARK  status: ('A' for Active; 'I' for Inactive)
ROOT
ATOM      1  O1  BZF d   1      -0.173   0.233  -1.131  0.00  0.00    -0.204 OA
ATOM      2  C2  BZF d   1       0.047   0.266   0.232  0.00  0.00     0.174 A 
ATOM      3  C3  BZF d   1       0.689  -0.848   0.639  0.00  0.00    -0.012 A 
ATOM      4  C3A BZF d   1       0.965  -1.582  -0.557  0.00  0.00    -0.107 A 
ATOM      5  C4  BZF d   1       1.597  -2.767  -0.807  0.00  0.00     0.055 A 
ATOM      6  C5  BZF d   1       1.633  -3.240  -2.080  0.00  0.00    -0.016 A 
ATOM      7  C6  BZF d   1       1.044  -2.559  -3.125  0.00  0.00     0.022 A 
ATOM      8  C7  BZF d   1       0.411  -1.377  -2.927  0.00  0.00     0.029 A 
ATOM      9  C7A BZF d   1       0.401  -0.880  -1.647  0.00  0.00     0.058 A 
ENDROOT
TORSDOF 0
ENDMDL
