MODEL 1
REMARK minimizedAffinity -5.77310514
REMARK minimizedRMSD -1
REMARK  0 active torsions:
REMARK  status: ('A' for Active; 'I' for Inactive)
ROOT
ATOM      1  O1  BZF d   1       0.557   0.417  -0.767  0.00  0.00    -0.204 OA
ATOM      2  C2  BZF d   1       0.473  -0.731  -0.004  0.00  0.00     0.174 A 
ATOM      3  C3  BZF d   1      -0.316  -0.534   1.071  0.00  0.00    -0.012 A 
ATOM      4  C3A BZF d   1      -0.826   0.794   0.925  0.00  0.00    -0.107 A 
ATOM      5  C4  BZF d   1      -1.678   1.560   1.670  0.00  0.00     0.055 A 
ATOM      6  C5  BZF d   1      -1.914   2.844   1.291  0.00  0.00    -0.016 A 
ATOM      7  C6  BZF d   1      -1.313   3.394   0.178  0.00  0.00     0.022 A 
ATOM      8  C7  BZF d   1      -0.465   2.672  -0.595  0.00  0.00     0.029 A 
ATOM      9  C7A BZF d   1      -0.250   1.365  -0.233  0.00  0.00     0.058 A 
ENDROOT
TORSDOF 0
ENDMDL
