MODEL 1
REMARK minimizedAffinity -2.92582011
REMARK minimizedRMSD -1
REMARK  0 active torsions:
REMARK  status: ('A' for Active; 'I' for Inactive)
ROOT
ATOM      1  O1  BZF d   1      -1.502   1.640   0.696  0.00  0.00    -0.204 OA
ATOM      2  C2  BZF d   1      -1.610   1.681   2.073  0.00  0.00     0.174 A 
ATOM      3  C3  BZF d   1      -0.818   0.750   2.643  0.00  0.00    -0.012 A 
ATOM      4  C3A BZF d   1      -0.105   0.148   1.558  0.00  0.00    -0.107 A 
ATOM      5  C4  BZF d   1       0.843  -0.833   1.488  0.00  0.00     0.055 A 
ATOM      6  C5  BZF d   1       1.282  -1.239   0.268  0.00  0.00    -0.016 A 
ATOM      7  C6  BZF d   1       0.793  -0.692  -0.900  0.00  0.00     0.022 A 
ATOM      8  C7  BZF d   1      -0.144   0.287  -0.880  0.00  0.00     0.029 A 
ATOM      9  C7A BZF d   1      -0.566   0.723   0.352  0.00  0.00     0.058 A 
ENDROOT
TORSDOF 0
ENDMDL
