MODEL 1
REMARK minimizedAffinity -4.93414688
REMARK minimizedRMSD -1
REMARK  0 active torsions:
REMARK  status: ('A' for Active; 'I' for Inactive)
ROOT
ATOM      1  O1  BZF d   1       0.875   1.851  -0.867  0.00  0.00    -0.204 OA
ATOM      2  C2  BZF d   1       1.730   0.906  -1.401  0.00  0.00     0.174 A 
ATOM      3  C3  BZF d   1       1.270  -0.341  -1.168  0.00  0.00    -0.012 A 
ATOM      4  C3A BZF d   1       0.006  -0.161  -0.524  0.00  0.00    -0.107 A 
ATOM      5  C4  BZF d   1      -0.942  -1.027  -0.058  0.00  0.00     0.055 A 
ATOM      6  C5  BZF d   1      -2.031  -0.530   0.587  0.00  0.00    -0.016 A 
ATOM      7  C6  BZF d   1      -2.201   0.824   0.787  0.00  0.00     0.022 A 
ATOM      8  C7  BZF d   1      -1.290   1.722   0.339  0.00  0.00     0.029 A 
ATOM      9  C7A BZF d   1      -0.205   1.225  -0.342  0.00  0.00     0.058 A 
ENDROOT
TORSDOF 0
ENDMDL
