MODEL 1
REMARK minimizedAffinity -4.509655
REMARK minimizedRMSD -1
REMARK  0 active torsions:
REMARK  status: ('A' for Active; 'I' for Inactive)
ROOT
ATOM      1  O1  BZF d   1       0.952  -0.186   1.257  0.00  0.00    -0.204 OA
ATOM      2  C2  BZF d   1       1.252  -0.696   0.009  0.00  0.00     0.174 A 
ATOM      3  C3  BZF d   1       0.400  -0.217  -0.921  0.00  0.00    -0.012 A 
ATOM      4  C3A BZF d   1      -0.430   0.718  -0.224  0.00  0.00    -0.107 A 
ATOM      5  C4  BZF d   1      -1.458   1.530  -0.610  0.00  0.00     0.055 A 
ATOM      6  C5  BZF d   1      -2.106   2.267   0.329  0.00  0.00    -0.016 A 
ATOM      7  C6  BZF d   1      -1.757   2.212   1.663  0.00  0.00     0.022 A 
ATOM      8  C7  BZF d   1      -0.741   1.425   2.093  0.00  0.00     0.029 A 
ATOM      9  C7A BZF d   1      -0.063   0.704   1.141  0.00  0.00     0.058 A 
ENDROOT
TORSDOF 0
ENDMDL
