MODEL 1
REMARK minimizedAffinity -2.2714777
REMARK minimizedRMSD -1
REMARK  0 active torsions:
REMARK  status: ('A' for Active; 'I' for Inactive)
ROOT
ATOM      1  O1  BZF d   1       0.595   1.947  -1.064  0.00  0.00    -0.204 OA
ATOM      2  C2  BZF d   1       1.489   0.923  -1.311  0.00  0.00     0.174 A 
ATOM      3  C3  BZF d   1       1.381  -0.043  -0.376  0.00  0.00    -0.012 A 
ATOM      4  C3A BZF d   1       0.291   0.362   0.459  0.00  0.00    -0.107 A 
ATOM      5  C4  BZF d   1      -0.310  -0.192   1.553  0.00  0.00     0.055 A 
ATOM      6  C5  BZF d   1      -1.302   0.493   2.179  0.00  0.00    -0.016 A 
ATOM      7  C6  BZF d   1      -1.714   1.735   1.743  0.00  0.00     0.022 A 
ATOM      8  C7  BZF d   1      -1.151   2.323   0.660  0.00  0.00     0.029 A 
ATOM      9  C7A BZF d   1      -0.171   1.619   0.004  0.00  0.00     0.058 A 
ENDROOT
TORSDOF 0
ENDMDL
