MODEL 1
REMARK minimizedAffinity -1.22983253
REMARK minimizedRMSD -1
REMARK  0 active torsions:
REMARK  status: ('A' for Active; 'I' for Inactive)
ROOT
ATOM      1  O1  BZF d   1      -0.457  -0.291  -1.374  0.00  0.00    -0.204 OA
ATOM      2  C2  BZF d   1       0.481  -1.259  -1.069  0.00  0.00     0.174 A 
ATOM      3  C3  BZF d   1       0.778  -1.239   0.246  0.00  0.00    -0.012 A 
ATOM      4  C3A BZF d   1      -0.092  -0.254   0.814  0.00  0.00    -0.107 A 
ATOM      5  C4  BZF d   1      -0.282   0.211   2.084  0.00  0.00     0.055 A 
ATOM      6  C5  BZF d   1      -1.158   1.229   2.290  0.00  0.00    -0.016 A 
ATOM      7  C6  BZF d   1      -1.856   1.808   1.250  0.00  0.00     0.022 A 
ATOM      8  C7  BZF d   1      -1.705   1.377  -0.026  0.00  0.00     0.029 A 
ATOM      9  C7A BZF d   1      -0.845   0.326  -0.233  0.00  0.00     0.058 A 
ENDROOT
TORSDOF 0
ENDMDL
