MODEL 1
REMARK minimizedAffinity -5.9939189
REMARK minimizedRMSD -1
REMARK  0 active torsions:
REMARK  status: ('A' for Active; 'I' for Inactive)
ROOT
ATOM      1  O1  BZF d   1       0.657   1.676  -1.162  0.00  0.00    -0.204 OA
ATOM      2  C2  BZF d   1       1.459   0.556  -1.267  0.00  0.00     0.174 A 
ATOM      3  C3  BZF d   1       1.058  -0.402  -0.407  0.00  0.00    -0.012 A 
ATOM      4  C3A BZF d   1      -0.121   0.119   0.214  0.00  0.00    -0.107 A 
ATOM      5  C4  BZF d   1      -0.986  -0.373   1.149  0.00  0.00     0.055 A 
ATOM      6  C5  BZF d   1      -1.997   0.418   1.595  0.00  0.00    -0.016 A 
ATOM      7  C6  BZF d   1      -2.170   1.706   1.132  0.00  0.00     0.022 A 
ATOM      8  C7  BZF d   1      -1.340   2.236   0.201  0.00  0.00     0.029 A 
ATOM      9  C7A BZF d   1      -0.337   1.428  -0.276  0.00  0.00     0.058 A 
ENDROOT
TORSDOF 0
ENDMDL
