MODEL 1
REMARK minimizedAffinity 8.28485298
REMARK minimizedRMSD -1
REMARK  0 active torsions:
REMARK  status: ('A' for Active; 'I' for Inactive)
ROOT
ATOM      1  C   UNL d   1       0.168   0.390   1.106  0.00  0.00     0.124 A 
ATOM      2  C1  UNL d   1       0.155   1.762   1.319  0.00  0.00     0.062 A 
ATOM      3  C2  UNL d   1      -0.866   2.345   2.063  0.00  0.00     0.162 A 
ATOM      4  C3  UNL d   1      -1.883   1.557   2.602  0.00  0.00    -0.034 A 
ATOM      5  C4  UNL d   1      -1.863   0.178   2.384  0.00  0.00     0.162 A 
ATOM      6  C5  UNL d   1      -0.841  -0.400   1.639  0.00  0.00     0.062 A 
ATOM      7  F   UNL d   1      -0.830  -1.726   1.435  0.00  0.00    -0.097 F 
ATOM      8  F1  UNL d   1      -2.825  -0.609   2.888  0.00  0.00    -0.096 F 
ATOM      9  I   UNL d   1      -3.412   2.425   3.716  0.00  0.00    -0.060 I 
ATOM     10  F2  UNL d   1      -0.854   3.673   2.252  0.00  0.00    -0.096 F 
ATOM     11  F3  UNL d   1       1.128   2.528   0.804  0.00  0.00    -0.097 F 
ATOM     12  F4  UNL d   1       1.151  -0.168   0.389  0.00  0.00    -0.092 F 
ENDROOT
TORSDOF 0
ENDMDL
