MODEL 1
REMARK minimizedAffinity 0.943105519
REMARK minimizedRMSD -1
REMARK  0 active torsions:
REMARK  status: ('A' for Active; 'I' for Inactive)
ROOT
ATOM      1  C   UNL d   1      -0.085   0.257   1.298  0.00  0.00     0.124 A 
ATOM      2  C1  UNL d   1      -1.149  -0.547   1.684  0.00  0.00     0.062 A 
ATOM      3  C2  UNL d   1      -2.218  -0.001   2.388  0.00  0.00     0.162 A 
ATOM      4  C3  UNL d   1      -2.230   1.356   2.711  0.00  0.00    -0.034 A 
ATOM      5  C4  UNL d   1      -1.155   2.157   2.320  0.00  0.00     0.162 A 
ATOM      6  C5  UNL d   1      -0.089   1.607   1.616  0.00  0.00     0.062 A 
ATOM      7  F   UNL d   1       0.938   2.385   1.244  0.00  0.00    -0.097 F 
ATOM      8  F1  UNL d   1      -1.134   3.466   2.614  0.00  0.00    -0.096 F 
ATOM      9  I   UNL d   1      -3.827   2.175   3.764  0.00  0.00    -0.060 I 
ATOM     10  F2  UNL d   1      -3.233  -0.801   2.748  0.00  0.00    -0.096 F 
ATOM     11  F3  UNL d   1      -1.147  -1.852   1.378  0.00  0.00    -0.097 F 
ATOM     12  F4  UNL d   1       0.943  -0.271   0.621  0.00  0.00    -0.092 F 
ENDROOT
TORSDOF 0
ENDMDL
