MODEL 1
REMARK minimizedAffinity 1.53003895
REMARK minimizedRMSD -1
REMARK  0 active torsions:
REMARK  status: ('A' for Active; 'I' for Inactive)
ROOT
ATOM      1  C   UNL d   1      -0.155  -0.072   1.628  0.00  0.00     0.124 A 
ATOM      2  C1  UNL d   1      -0.967  -0.950   2.333  0.00  0.00     0.062 A 
ATOM      3  C2  UNL d   1      -2.081  -0.475   3.019  0.00  0.00     0.162 A 
ATOM      4  C3  UNL d   1      -2.390   0.885   3.005  0.00  0.00    -0.034 A 
ATOM      5  C4  UNL d   1      -1.567   1.762   2.295  0.00  0.00     0.162 A 
ATOM      6  C5  UNL d   1      -0.455   1.283   1.610  0.00  0.00     0.062 A 
ATOM      7  F   UNL d   1       0.328   2.132   0.931  0.00  0.00    -0.097 F 
ATOM      8  F1  UNL d   1      -1.835   3.076   2.260  0.00  0.00    -0.096 F 
ATOM      9  I   UNL d   1      -4.054   1.599   4.031  0.00  0.00    -0.060 I 
ATOM     10  F2  UNL d   1      -2.848  -1.346   3.691  0.00  0.00    -0.096 F 
ATOM     11  F3  UNL d   1      -0.679  -2.259   2.352  0.00  0.00    -0.097 F 
ATOM     12  F4  UNL d   1       0.916  -0.531   0.969  0.00  0.00    -0.092 F 
ENDROOT
TORSDOF 0
ENDMDL
