MODEL 1
REMARK minimizedAffinity 1.90644419
REMARK minimizedRMSD -1
REMARK  0 active torsions:
REMARK  status: ('A' for Active; 'I' for Inactive)
ROOT
ATOM      1  C   UNL d   1      -2.900   0.889   3.116  0.00  0.00     0.124 A 
ATOM      2  C1  UNL d   1      -2.538  -0.337   2.575  0.00  0.00     0.062 A 
ATOM      3  C2  UNL d   1      -1.386  -0.447   1.802  0.00  0.00     0.162 A 
ATOM      4  C3  UNL d   1      -0.586   0.671   1.566  0.00  0.00    -0.034 A 
ATOM      5  C4  UNL d   1      -0.957   1.901   2.113  0.00  0.00     0.162 A 
ATOM      6  C5  UNL d   1      -2.110   2.006   2.885  0.00  0.00     0.062 A 
ATOM      7  F   UNL d   1      -2.458   3.191   3.407  0.00  0.00    -0.097 F 
ATOM      8  F1  UNL d   1      -0.212   2.996   1.906  0.00  0.00    -0.096 F 
ATOM      9  I   UNL d   1       1.137   0.510   0.411  0.00  0.00    -0.060 I 
ATOM     10  F2  UNL d   1      -1.060  -1.644   1.291  0.00  0.00    -0.096 F 
ATOM     11  F3  UNL d   1      -3.300  -1.417   2.796  0.00  0.00    -0.097 F 
ATOM     12  F4  UNL d   1      -4.010   0.993   3.859  0.00  0.00    -0.092 F 
ENDROOT
TORSDOF 0
ENDMDL
