MODEL 1
REMARK minimizedAffinity 0.383236885
REMARK minimizedRMSD -1
REMARK  0 active torsions:
REMARK  status: ('A' for Active; 'I' for Inactive)
ROOT
ATOM      1  C   UNL d   1       0.012   0.573   0.911  0.00  0.00     0.124 A 
ATOM      2  C1  UNL d   1      -0.010   1.861   1.426  0.00  0.00     0.062 A 
ATOM      3  C2  UNL d   1      -1.117   2.311   2.141  0.00  0.00     0.162 A 
ATOM      4  C3  UNL d   1      -2.210   1.470   2.346  0.00  0.00    -0.034 A 
ATOM      5  C4  UNL d   1      -2.181   0.175   1.825  0.00  0.00     0.162 A 
ATOM      6  C5  UNL d   1      -1.073  -0.269   1.111  0.00  0.00     0.062 A 
ATOM      7  F   UNL d   1      -1.053  -1.515   0.614  0.00  0.00    -0.097 F 
ATOM      8  F1  UNL d   1      -3.216  -0.660   2.004  0.00  0.00    -0.096 F 
ATOM      9  I   UNL d   1      -3.867   2.137   3.415  0.00  0.00    -0.060 I 
ATOM     10  F2  UNL d   1      -1.111   3.561   2.627  0.00  0.00    -0.096 F 
ATOM     11  F3  UNL d   1       1.037   2.677   1.234  0.00  0.00    -0.097 F 
ATOM     12  F4  UNL d   1       1.078   0.143   0.223  0.00  0.00    -0.092 F 
ENDROOT
TORSDOF 0
ENDMDL
