MODEL 1
REMARK minimizedAffinity -0.0174042881
REMARK minimizedRMSD -1
REMARK  0 active torsions:
REMARK  status: ('A' for Active; 'I' for Inactive)
ROOT
ATOM      1  C   UNL d   1       0.313   0.226   1.117  0.00  0.00     0.124 A 
ATOM      2  C1  UNL d   1      -0.827  -0.551   1.267  0.00  0.00     0.062 A 
ATOM      3  C2  UNL d   1      -2.014   0.025   1.711  0.00  0.00     0.162 A 
ATOM      4  C3  UNL d   1      -2.067   1.387   2.008  0.00  0.00    -0.034 A 
ATOM      5  C4  UNL d   1      -0.916   2.162   1.856  0.00  0.00     0.162 A 
ATOM      6  C5  UNL d   1       0.268   1.581   1.412  0.00  0.00     0.062 A 
ATOM      7  F   UNL d   1       1.369   2.334   1.268  0.00  0.00    -0.097 F 
ATOM      8  F1  UNL d   1      -0.931   3.474   2.132  0.00  0.00    -0.096 F 
ATOM      9  I   UNL d   1      -3.839   2.253   2.672  0.00  0.00    -0.060 I 
ATOM     10  F2  UNL d   1      -3.100  -0.750   1.847  0.00  0.00    -0.096 F 
ATOM     11  F3  UNL d   1      -0.786  -1.861   0.984  0.00  0.00    -0.097 F 
ATOM     12  F4  UNL d   1       1.454  -0.332   0.691  0.00  0.00    -0.092 F 
ENDROOT
TORSDOF 0
ENDMDL
