MODEL 1
REMARK minimizedAffinity 0.904438913
REMARK minimizedRMSD -1
REMARK  0 active torsions:
REMARK  status: ('A' for Active; 'I' for Inactive)
ROOT
ATOM      1  C   UNL d   1       0.617   0.116   0.698  0.00  0.00     0.124 A 
ATOM      2  C1  UNL d   1       0.579   1.429   1.147  0.00  0.00     0.062 A 
ATOM      3  C2  UNL d   1      -0.506   1.883   1.890  0.00  0.00     0.162 A 
ATOM      4  C3  UNL d   1      -1.563   1.024   2.190  0.00  0.00    -0.034 A 
ATOM      5  C4  UNL d   1      -1.518  -0.295   1.735  0.00  0.00     0.162 A 
ATOM      6  C5  UNL d   1      -0.431  -0.744   0.992  0.00  0.00     0.062 A 
ATOM      7  F   UNL d   1      -0.396  -2.013   0.559  0.00  0.00    -0.097 F 
ATOM      8  F1  UNL d   1      -2.517  -1.148   2.005  0.00  0.00    -0.096 F 
ATOM      9  I   UNL d   1      -3.188   1.699   3.302  0.00  0.00    -0.060 I 
ATOM     10  F2  UNL d   1      -0.517   3.157   2.311  0.00  0.00    -0.096 F 
ATOM     11  F3  UNL d   1       1.590   2.263   0.863  0.00  0.00    -0.097 F 
ATOM     12  F4  UNL d   1       1.663  -0.318  -0.018  0.00  0.00    -0.092 F 
ENDROOT
TORSDOF 0
ENDMDL
