MODEL 1
REMARK minimizedAffinity 10.98277
REMARK minimizedRMSD -1
REMARK  0 active torsions:
REMARK  status: ('A' for Active; 'I' for Inactive)
ROOT
ATOM      1  C   UNL d   1       0.045   0.232   1.517  0.00  0.00     0.124 A 
ATOM      2  C1  UNL d   1      -0.085   1.611   1.615  0.00  0.00     0.062 A 
ATOM      3  C2  UNL d   1      -1.192   2.167   2.250  0.00  0.00     0.162 A 
ATOM      4  C3  UNL d   1      -2.178   1.344   2.794  0.00  0.00    -0.034 A 
ATOM      5  C4  UNL d   1      -2.041  -0.042   2.691  0.00  0.00     0.162 A 
ATOM      6  C5  UNL d   1      -0.933  -0.592   2.055  0.00  0.00     0.062 A 
ATOM      7  F   UNL d   1      -0.810  -1.924   1.962  0.00  0.00    -0.097 F 
ATOM      8  F1  UNL d   1      -2.971  -0.862   3.203  0.00  0.00    -0.096 F 
ATOM      9  I   UNL d   1      -3.834   2.171   3.745  0.00  0.00    -0.060 I 
ATOM     10  F2  UNL d   1      -1.291   3.502   2.330  0.00  0.00    -0.096 F 
ATOM     11  F3  UNL d   1       0.858   2.410   1.095  0.00  0.00    -0.097 F 
ATOM     12  F4  UNL d   1       1.110  -0.300   0.905  0.00  0.00    -0.092 F 
ENDROOT
TORSDOF 0
ENDMDL
