MODEL 1
REMARK minimizedAffinity 15.0494766
REMARK minimizedRMSD -1
REMARK  0 active torsions:
REMARK  status: ('A' for Active; 'I' for Inactive)
ROOT
ATOM      1  C   UNL d   1      -1.094  -0.335   2.621  0.00  0.00     0.124 A 
ATOM      2  C1  UNL d   1      -1.175   1.012   2.299  0.00  0.00     0.062 A 
ATOM      3  C2  UNL d   1      -0.348   1.548   1.315  0.00  0.00     0.162 A 
ATOM      4  C3  UNL d   1       0.567   0.735   0.646  0.00  0.00    -0.034 A 
ATOM      5  C4  UNL d   1       0.643  -0.619   0.977  0.00  0.00     0.162 A 
ATOM      6  C5  UNL d   1      -0.186  -1.149   1.960  0.00  0.00     0.062 A 
ATOM      7  F   UNL d   1      -0.106  -2.452   2.271  0.00  0.00    -0.097 F 
ATOM      8  F1  UNL d   1       1.512  -1.429   0.353  0.00  0.00    -0.096 F 
ATOM      9  I   UNL d   1       1.805   1.532  -0.824  0.00  0.00    -0.060 I 
ATOM     10  F2  UNL d   1      -0.448   2.853   1.024  0.00  0.00    -0.096 F 
ATOM     11  F3  UNL d   1      -2.052   1.801   2.936  0.00  0.00    -0.097 F 
ATOM     12  F4  UNL d   1      -1.891  -0.847   3.568  0.00  0.00    -0.092 F 
ENDROOT
TORSDOF 0
ENDMDL
