MODEL 1
REMARK minimizedAffinity 0.320163161
REMARK minimizedRMSD -1
REMARK  0 active torsions:
REMARK  status: ('A' for Active; 'I' for Inactive)
ROOT
ATOM      1  C   UNL d   1       0.131   0.411   1.116  0.00  0.00     0.124 A 
ATOM      2  C1  UNL d   1      -0.104   1.762   1.327  0.00  0.00     0.062 A 
ATOM      3  C2  UNL d   1      -1.226   2.175   2.039  0.00  0.00     0.162 A 
ATOM      4  C3  UNL d   1      -2.123   1.235   2.546  0.00  0.00    -0.034 A 
ATOM      5  C4  UNL d   1      -1.882  -0.122   2.329  0.00  0.00     0.162 A 
ATOM      6  C5  UNL d   1      -0.758  -0.530   1.617  0.00  0.00     0.062 A 
ATOM      7  F   UNL d   1      -0.533  -1.837   1.414  0.00  0.00    -0.097 F 
ATOM      8  F1  UNL d   1      -2.723  -1.053   2.803  0.00  0.00    -0.096 F 
ATOM      9  I   UNL d   1      -3.803   1.849   3.610  0.00  0.00    -0.060 I 
ATOM     10  F2  UNL d   1      -1.428   3.488   2.228  0.00  0.00    -0.096 F 
ATOM     11  F3  UNL d   1       0.753   2.673   0.844  0.00  0.00    -0.097 F 
ATOM     12  F4  UNL d   1       1.211   0.016   0.431  0.00  0.00    -0.092 F 
ENDROOT
TORSDOF 0
ENDMDL
