MODEL 1
REMARK minimizedAffinity 3.17694569
REMARK minimizedRMSD -1
REMARK  0 active torsions:
REMARK  status: ('A' for Active; 'I' for Inactive)
ROOT
ATOM      1  C   UNL d   1      -0.073  -0.003   1.031  0.00  0.00     0.124 A 
ATOM      2  C1  UNL d   1      -0.066   1.365   1.266  0.00  0.00     0.062 A 
ATOM      3  C2  UNL d   1      -1.059   1.946   2.050  0.00  0.00     0.162 A 
ATOM      4  C3  UNL d   1      -2.067   1.158   2.606  0.00  0.00    -0.034 A 
ATOM      5  C4  UNL d   1      -2.068  -0.217   2.365  0.00  0.00     0.162 A 
ATOM      6  C5  UNL d   1      -1.073  -0.792   1.580  0.00  0.00     0.062 A 
ATOM      7  F   UNL d   1      -1.082  -2.114   1.355  0.00  0.00    -0.097 F 
ATOM      8  F1  UNL d   1      -3.022  -1.004   2.884  0.00  0.00    -0.096 F 
ATOM      9  I   UNL d   1      -3.553   2.022   3.779  0.00  0.00    -0.060 I 
ATOM     10  F2  UNL d   1      -1.028   3.270   2.260  0.00  0.00    -0.096 F 
ATOM     11  F3  UNL d   1       0.899   2.130   0.736  0.00  0.00    -0.097 F 
ATOM     12  F4  UNL d   1       0.883  -0.559   0.276  0.00  0.00    -0.092 F 
ENDROOT
TORSDOF 0
ENDMDL
