MODEL 1
REMARK minimizedAffinity 8.70836639
REMARK minimizedRMSD -1
REMARK  0 active torsions:
REMARK  status: ('A' for Active; 'I' for Inactive)
ROOT
ATOM      1  C   UNL d   1      -2.663   1.505   2.507  0.00  0.00     0.124 A 
ATOM      2  C1  UNL d   1      -2.228   0.187   2.540  0.00  0.00     0.062 A 
ATOM      3  C2  UNL d   1      -0.934  -0.133   2.138  0.00  0.00     0.162 A 
ATOM      4  C3  UNL d   1      -0.066   0.867   1.701  0.00  0.00    -0.034 A 
ATOM      5  C4  UNL d   1      -0.511   2.190   1.669  0.00  0.00     0.162 A 
ATOM      6  C5  UNL d   1      -1.805   2.504   2.072  0.00  0.00     0.062 A 
ATOM      7  F   UNL d   1      -2.223   3.778   2.039  0.00  0.00    -0.097 F 
ATOM      8  F1  UNL d   1       0.298   3.175   1.254  0.00  0.00    -0.096 F 
ATOM      9  I   UNL d   1       1.870   0.392   1.099  0.00  0.00    -0.060 I 
ATOM     10  F2  UNL d   1      -0.541  -1.414   2.181  0.00  0.00    -0.096 F 
ATOM     11  F3  UNL d   1      -3.056  -0.780   2.960  0.00  0.00    -0.097 F 
ATOM     12  F4  UNL d   1      -3.909   1.810   2.893  0.00  0.00    -0.092 F 
ENDROOT
TORSDOF 0
ENDMDL
