MODEL 1
REMARK minimizedAffinity 4.74231386
REMARK minimizedRMSD -1
REMARK  0 active torsions:
REMARK  status: ('A' for Active; 'I' for Inactive)
ROOT
ATOM      1  C   UNL d   1      -2.090   1.172   2.831  0.00  0.00     0.124 A 
ATOM      2  C1  UNL d   1      -1.763  -0.136   2.501  0.00  0.00     0.062 A 
ATOM      3  C2  UNL d   1      -0.562  -0.416   1.856  0.00  0.00     0.162 A 
ATOM      4  C3  UNL d   1       0.322   0.615   1.536  0.00  0.00    -0.034 A 
ATOM      5  C4  UNL d   1      -0.014   1.928   1.870  0.00  0.00     0.162 A 
ATOM      6  C5  UNL d   1      -1.216   2.203   2.515  0.00  0.00     0.062 A 
ATOM      7  F   UNL d   1      -1.530   3.467   2.833  0.00  0.00    -0.097 F 
ATOM      8  F1  UNL d   1       0.812   2.943   1.578  0.00  0.00    -0.096 F 
ATOM      9  I   UNL d   1       2.119   0.201   0.571  0.00  0.00    -0.060 I 
ATOM     10  F2  UNL d   1      -0.271  -1.689   1.550  0.00  0.00    -0.096 F 
ATOM     11  F3  UNL d   1      -2.606  -1.133   2.805  0.00  0.00    -0.097 F 
ATOM     12  F4  UNL d   1      -3.247   1.439   3.451  0.00  0.00    -0.092 F 
ENDROOT
TORSDOF 0
ENDMDL
