MODEL 1
REMARK minimizedAffinity 6.59760571
REMARK minimizedRMSD -1
REMARK  0 active torsions:
REMARK  status: ('A' for Active; 'I' for Inactive)
ROOT
ATOM      1  C   UNL d   1       0.030  -0.048   1.264  0.00  0.00     0.124 A 
ATOM      2  C1  UNL d   1      -0.060   1.333   1.372  0.00  0.00     0.062 A 
ATOM      3  C2  UNL d   1      -1.137   1.914   2.036  0.00  0.00     0.162 A 
ATOM      4  C3  UNL d   1      -2.132   1.114   2.598  0.00  0.00    -0.034 A 
ATOM      5  C4  UNL d   1      -2.035  -0.274   2.484  0.00  0.00     0.162 A 
ATOM      6  C5  UNL d   1      -0.957  -0.850   1.819  0.00  0.00     0.062 A 
ATOM      7  F   UNL d   1      -0.871  -2.184   1.715  0.00  0.00    -0.097 F 
ATOM      8  F1  UNL d   1      -2.974  -1.073   3.012  0.00  0.00    -0.096 F 
ATOM      9  I   UNL d   1      -3.744   1.978   3.591  0.00  0.00    -0.060 I 
ATOM     10  F2  UNL d   1      -1.199   3.251   2.126  0.00  0.00    -0.096 F 
ATOM     11  F3  UNL d   1       0.891   2.110   0.835  0.00  0.00    -0.097 F 
ATOM     12  F4  UNL d   1       1.067  -0.604   0.624  0.00  0.00    -0.092 F 
ENDROOT
TORSDOF 0
ENDMDL
