MODEL 1
REMARK minimizedAffinity 14.4832573
REMARK minimizedRMSD -1
REMARK  0 active torsions:
REMARK  status: ('A' for Active; 'I' for Inactive)
ROOT
ATOM      1  C   UNL d   1       1.386   0.072   1.334  0.00  0.00     0.124 A 
ATOM      2  C1  UNL d   1       2.469  -0.078   0.478  0.00  0.00     0.062 A 
ATOM      3  C2  UNL d   1       2.529   0.647  -0.708  0.00  0.00     0.162 A 
ATOM      4  C3  UNL d   1       1.504   1.531  -1.046  0.00  0.00    -0.034 A 
ATOM      5  C4  UNL d   1       0.418   1.676  -0.180  0.00  0.00     0.162 A 
ATOM      6  C5  UNL d   1       0.362   0.948   1.004  0.00  0.00     0.062 A 
ATOM      7  F   UNL d   1      -0.684   1.095   1.830  0.00  0.00    -0.097 F 
ATOM      8  F1  UNL d   1      -0.585   2.517  -0.474  0.00  0.00    -0.096 F 
ATOM      9  I   UNL d   1       1.591   2.618  -2.818  0.00  0.00    -0.060 I 
ATOM     10  F2  UNL d   1       3.587   0.482  -1.516  0.00  0.00    -0.096 F 
ATOM     11  F3  UNL d   1       3.459  -0.925   0.794  0.00  0.00    -0.097 F 
ATOM     12  F4  UNL d   1       1.330  -0.629   2.474  0.00  0.00    -0.092 F 
ENDROOT
TORSDOF 0
ENDMDL
