MODEL 1
REMARK minimizedAffinity -1.54870236
REMARK minimizedRMSD -1
REMARK  0 active torsions:
REMARK  status: ('A' for Active; 'I' for Inactive)
ROOT
ATOM      1  C   UNL d   1      -2.121   1.134   2.474  0.00  0.00     0.124 A 
ATOM      2  C1  UNL d   1      -1.942  -0.138   1.948  0.00  0.00     0.062 A 
ATOM      3  C2  UNL d   1      -0.747  -0.473   1.317  0.00  0.00     0.162 A 
ATOM      4  C3  UNL d   1       0.279   0.466   1.209  0.00  0.00    -0.034 A 
ATOM      5  C4  UNL d   1       0.091   1.744   1.739  0.00  0.00     0.162 A 
ATOM      6  C5  UNL d   1      -1.105   2.073   2.369  0.00  0.00     0.062 A 
ATOM      7  F   UNL d   1      -1.276   3.303   2.877  0.00  0.00    -0.097 F 
ATOM      8  F1  UNL d   1       1.056   2.671   1.653  0.00  0.00    -0.096 F 
ATOM      9  I   UNL d   1       2.066  -0.030   0.265  0.00  0.00    -0.060 I 
ATOM     10  F2  UNL d   1      -0.602  -1.709   0.818  0.00  0.00    -0.096 F 
ATOM     11  F3  UNL d   1      -2.922  -1.047   2.047  0.00  0.00    -0.097 F 
ATOM     12  F4  UNL d   1      -3.272   1.453   3.080  0.00  0.00    -0.092 F 
ENDROOT
TORSDOF 0
ENDMDL
