MODEL 1
REMARK minimizedAffinity 9.8819046
REMARK minimizedRMSD -1
REMARK  0 active torsions:
REMARK  status: ('A' for Active; 'I' for Inactive)
ROOT
ATOM      1  C   UNL d   1       0.322  -0.006   1.953  0.00  0.00     0.124 A 
ATOM      2  C1  UNL d   1       0.127   1.367   1.994  0.00  0.00     0.062 A 
ATOM      3  C2  UNL d   1      -1.085   1.890   2.435  0.00  0.00     0.162 A 
ATOM      4  C3  UNL d   1      -2.113   1.038   2.839  0.00  0.00    -0.034 A 
ATOM      5  C4  UNL d   1      -1.910  -0.343   2.794  0.00  0.00     0.162 A 
ATOM      6  C5  UNL d   1      -0.697  -0.860   2.352  0.00  0.00     0.062 A 
ATOM      7  F   UNL d   1      -0.510  -2.187   2.313  0.00  0.00    -0.097 F 
ATOM      8  F1  UNL d   1      -2.877  -1.191   3.175  0.00  0.00    -0.096 F 
ATOM      9  I   UNL d   1      -3.928   1.814   3.499  0.00  0.00    -0.060 I 
ATOM     10  F2  UNL d   1      -1.245   3.221   2.465  0.00  0.00    -0.096 F 
ATOM     11  F3  UNL d   1       1.110   2.194   1.608  0.00  0.00    -0.097 F 
ATOM     12  F4  UNL d   1       1.489  -0.506   1.527  0.00  0.00    -0.092 F 
ENDROOT
TORSDOF 0
ENDMDL
