MODEL 1
REMARK minimizedAffinity 4.92866707
REMARK minimizedRMSD -1
REMARK  0 active torsions:
REMARK  status: ('A' for Active; 'I' for Inactive)
ROOT
ATOM      1  C2' OXE d   1      -1.897  -1.506  -4.580  0.00  0.00     0.078 C 
ATOM      2  C1' OXE d   1      -2.816  -1.058  -1.966  0.00  0.00     0.078 C 
ATOM      3  C1  OXE d   1      -1.326  -1.043  -2.200  0.00  0.00    -0.078 A 
ATOM      4  C2  OXE d   1      -0.884  -1.309  -3.474  0.00  0.00    -0.078 A 
ATOM      5  C3  OXE d   1       0.478  -1.253  -3.756  0.00  0.00     0.003 A 
ATOM      6  C4  OXE d   1       1.410  -1.081  -2.725  0.00  0.00    -0.002 A 
ATOM      7  C5  OXE d   1       0.981  -0.847  -1.413  0.00  0.00    -0.002 A 
ATOM      8  C6  OXE d   1      -0.381  -0.783  -1.142  0.00  0.00     0.003 A 
ENDROOT
TORSDOF 0
ENDMDL
