MODEL 1
REMARK minimizedAffinity 5.19909716
REMARK minimizedRMSD -1
REMARK  0 active torsions:
REMARK  status: ('A' for Active; 'I' for Inactive)
ROOT
ATOM      1  C2' OXE d   1      -0.387   1.386  -0.658  0.00  0.00     0.078 C 
ATOM      2  C1' OXE d   1      -1.276   2.372   1.815  0.00  0.00     0.078 C 
ATOM      3  C1  OXE d   1      -1.127   3.353   0.679  0.00  0.00    -0.078 A 
ATOM      4  C2  OXE d   1      -0.647   2.870  -0.514  0.00  0.00    -0.078 A 
ATOM      5  C3  OXE d   1      -0.543   3.721  -1.611  0.00  0.00     0.003 A 
ATOM      6  C4  OXE d   1      -0.776   5.095  -1.466  0.00  0.00    -0.002 A 
ATOM      7  C5  OXE d   1      -1.227   5.614  -0.249  0.00  0.00    -0.002 A 
ATOM      8  C6  OXE d   1      -1.448   4.752   0.820  0.00  0.00     0.003 A 
ENDROOT
TORSDOF 0
ENDMDL
