MODEL 1
REMARK minimizedAffinity 5.91683674
REMARK minimizedRMSD -1
REMARK  0 active torsions:
REMARK  status: ('A' for Active; 'I' for Inactive)
ROOT
ATOM      1  C2' OXE d   1      -0.303   2.600   1.537  0.00  0.00     0.078 C 
ATOM      2  C1' OXE d   1      -0.795   1.372  -0.939  0.00  0.00     0.078 C 
ATOM      3  C1  OXE d   1      -0.776   2.879  -0.893  0.00  0.00    -0.078 A 
ATOM      4  C2  OXE d   1      -0.581   3.472   0.331  0.00  0.00    -0.078 A 
ATOM      5  C3  OXE d   1      -0.499   4.859   0.420  0.00  0.00     0.003 A 
ATOM      6  C4  OXE d   1      -0.767   5.658  -0.698  0.00  0.00    -0.002 A 
ATOM      7  C5  OXE d   1      -1.007   5.075  -1.946  0.00  0.00    -0.002 A 
ATOM      8  C6  OXE d   1      -0.973   3.690  -2.070  0.00  0.00     0.003 A 
ENDROOT
TORSDOF 0
ENDMDL
