MODEL 1
REMARK minimizedAffinity 7.03169298
REMARK minimizedRMSD -1
REMARK  0 active torsions:
REMARK  status: ('A' for Active; 'I' for Inactive)
ROOT
ATOM      1  C2' OXE d   1      -2.098   1.348   1.523  0.00  0.00     0.078 C 
ATOM      2  C1' OXE d   1      -0.398   3.004   0.024  0.00  0.00     0.078 C 
ATOM      3  C1  OXE d   1       0.118   2.471   1.337  0.00  0.00    -0.078 A 
ATOM      4  C2  OXE d   1      -0.738   1.699   2.086  0.00  0.00    -0.078 A 
ATOM      5  C3  OXE d   1      -0.294   1.137   3.279  0.00  0.00     0.003 A 
ATOM      6  C4  OXE d   1       0.962   1.475   3.798  0.00  0.00    -0.002 A 
ATOM      7  C5  OXE d   1       1.834   2.292   3.071  0.00  0.00    -0.002 A 
ATOM      8  C6  OXE d   1       1.445   2.762   1.821  0.00  0.00     0.003 A 
ENDROOT
TORSDOF 0
ENDMDL
