MODEL 1
REMARK minimizedAffinity 10.2843142
REMARK minimizedRMSD -1
REMARK  0 active torsions:
REMARK  status: ('A' for Active; 'I' for Inactive)
ROOT
ATOM      1  C2' OXE d   1       0.381  -0.582   3.695  0.00  0.00     0.078 C 
ATOM      2  C1' OXE d   1      -1.674   0.936   2.531  0.00  0.00     0.078 C 
ATOM      3  C1  OXE d   1      -0.307   1.566   2.638  0.00  0.00    -0.078 A 
ATOM      4  C2  OXE d   1       0.680   0.833   3.251  0.00  0.00    -0.078 A 
ATOM      5  C3  OXE d   1       1.972   1.345   3.327  0.00  0.00     0.003 A 
ATOM      6  C4  OXE d   1       2.239   2.659   2.923  0.00  0.00    -0.002 A 
ATOM      7  C5  OXE d   1       1.237   3.437   2.331  0.00  0.00    -0.002 A 
ATOM      8  C6  OXE d   1      -0.027   2.891   2.143  0.00  0.00     0.003 A 
ENDROOT
TORSDOF 0
ENDMDL
