MODEL 1
REMARK minimizedAffinity 1.02408004
REMARK minimizedRMSD -1
REMARK  0 active torsions:
REMARK  status: ('A' for Active; 'I' for Inactive)
ROOT
ATOM      1  C2' OXE d   1       0.300   1.801   3.182  0.00  0.00     0.078 C 
ATOM      2  C1' OXE d   1       2.389   3.542   2.488  0.00  0.00     0.078 C 
ATOM      3  C1  OXE d   1       1.257   3.376   1.506  0.00  0.00    -0.078 A 
ATOM      4  C2  OXE d   1       0.262   2.486   1.834  0.00  0.00    -0.078 A 
ATOM      5  C3  OXE d   1      -0.834   2.336   0.988  0.00  0.00     0.003 A 
ATOM      6  C4  OXE d   1      -0.857   2.966  -0.262  0.00  0.00    -0.002 A 
ATOM      7  C5  OXE d   1       0.166   3.845  -0.632  0.00  0.00    -0.002 A 
ATOM      8  C6  OXE d   1       1.206   4.094   0.257  0.00  0.00     0.003 A 
ENDROOT
TORSDOF 0
ENDMDL
