MODEL 1
REMARK minimizedAffinity 12.1878729
REMARK minimizedRMSD -1
REMARK  0 active torsions:
REMARK  status: ('A' for Active; 'I' for Inactive)
ROOT
ATOM      1  C2' OXE d   1       2.998  -0.965   0.118  0.00  0.00     0.078 C 
ATOM      2  C1' OXE d   1       2.489  -3.506   1.197  0.00  0.00     0.078 C 
ATOM      3  C1  OXE d   1       3.683  -3.354   0.288  0.00  0.00    -0.078 A 
ATOM      4  C2  OXE d   1       3.898  -2.117  -0.272  0.00  0.00    -0.078 A 
ATOM      5  C3  OXE d   1       5.016  -1.909  -1.074  0.00  0.00     0.003 A 
ATOM      6  C4  OXE d   1       5.838  -2.982  -1.438  0.00  0.00    -0.002 A 
ATOM      7  C5  OXE d   1       5.614  -4.258  -0.910  0.00  0.00    -0.002 A 
ATOM      8  C6  OXE d   1       4.568  -4.451  -0.014  0.00  0.00     0.003 A 
ENDROOT
TORSDOF 0
ENDMDL
