MODEL 1
REMARK minimizedAffinity 11.5183125
REMARK minimizedRMSD -1
REMARK  0 active torsions:
REMARK  status: ('A' for Active; 'I' for Inactive)
ROOT
ATOM      1  C2' OXE d   1       1.435   3.357   3.320  0.00  0.00     0.078 C 
ATOM      2  C1' OXE d   1      -0.765   1.616   3.228  0.00  0.00     0.078 C 
ATOM      3  C1  OXE d   1      -0.398   2.354   1.965  0.00  0.00    -0.078 A 
ATOM      4  C2  OXE d   1       0.651   3.239   2.031  0.00  0.00    -0.078 A 
ATOM      5  C3  OXE d   1       1.065   3.905   0.881  0.00  0.00     0.003 A 
ATOM      6  C4  OXE d   1       0.328   3.798  -0.304  0.00  0.00    -0.002 A 
ATOM      7  C5  OXE d   1      -0.768   2.932  -0.383  0.00  0.00    -0.002 A 
ATOM      8  C6  OXE d   1      -1.118   2.172   0.728  0.00  0.00     0.003 A 
ENDROOT
TORSDOF 0
ENDMDL
