MODEL 1
REMARK minimizedAffinity 7.08044481
REMARK minimizedRMSD -1
REMARK  0 active torsions:
REMARK  status: ('A' for Active; 'I' for Inactive)
ROOT
ATOM      1  C2' OXE d   1      -0.057   0.812   2.841  0.00  0.00     0.078 C 
ATOM      2  C1' OXE d   1      -2.307   2.165   1.847  0.00  0.00     0.078 C 
ATOM      3  C1  OXE d   1      -1.007   2.317   1.098  0.00  0.00    -0.078 A 
ATOM      4  C2  OXE d   1       0.099   1.689   1.618  0.00  0.00    -0.078 A 
ATOM      5  C3  OXE d   1       1.311   1.752   0.936  0.00  0.00     0.003 A 
ATOM      6  C4  OXE d   1       1.450   2.574  -0.189  0.00  0.00    -0.002 A 
ATOM      7  C5  OXE d   1       0.345   3.253  -0.712  0.00  0.00    -0.002 A 
ATOM      8  C6  OXE d   1      -0.898   3.102  -0.107  0.00  0.00     0.003 A 
ENDROOT
TORSDOF 0
ENDMDL
