MODEL 1
REMARK minimizedAffinity -3.7703023
REMARK minimizedRMSD -1
REMARK  0 active torsions:
REMARK  status: ('A' for Active; 'I' for Inactive)
ROOT
ATOM      1  C   UNL d   1       5.266  -1.225   3.138  0.00  0.00    -0.002 A 
ATOM      2  C1  UNL d   1       5.396  -1.549   4.481  0.00  0.00     0.010 A 
ATOM      3  C2  UNL d   1       5.626  -0.553   5.432  0.00  0.00     0.041 A 
ATOM      4  C3  UNL d   1       5.722   0.786   5.007  0.00  0.00    -0.075 A 
ATOM      5  S   UNL d   1       5.999   2.173   5.994  0.00  0.00     0.015 SA
ATOM      6  C4  UNL d   1       5.951   3.227   4.656  0.00  0.00     0.022 A 
ATOM      7  C5  UNL d   1       5.730   2.555   3.478  0.00  0.00     0.026 A 
ATOM      8  C6  UNL d   1       5.594   1.137   3.660  0.00  0.00    -0.082 A 
ATOM      9  C7  UNL d   1       5.363   0.105   2.720  0.00  0.00     0.045 A 
ENDROOT
TORSDOF 0
ENDMDL
