MODEL 1
REMARK minimizedAffinity -0.61925894
REMARK minimizedRMSD -1
REMARK  0 active torsions:
REMARK  status: ('A' for Active; 'I' for Inactive)
ROOT
ATOM      1  C   UNL d   1       5.946  -1.313   4.806  0.00  0.00    -0.002 A 
ATOM      2  C1  UNL d   1       5.939  -0.577   5.982  0.00  0.00     0.010 A 
ATOM      3  C2  UNL d   1       5.952   0.819   5.947  0.00  0.00     0.041 A 
ATOM      4  C3  UNL d   1       5.969   1.468   4.697  0.00  0.00    -0.075 A 
ATOM      5  S   UNL d   1       5.985   3.168   4.409  0.00  0.00     0.015 SA
ATOM      6  C4  UNL d   1       6.000   2.957   2.718  0.00  0.00     0.022 A 
ATOM      7  C5  UNL d   1       5.993   1.629   2.364  0.00  0.00     0.026 A 
ATOM      8  C6  UNL d   1       5.974   0.749   3.499  0.00  0.00    -0.082 A 
ATOM      9  C7  UNL d   1       5.963  -0.665   3.568  0.00  0.00     0.045 A 
ENDROOT
TORSDOF 0
ENDMDL
