MODEL 1
REMARK minimizedAffinity 10.0662165
REMARK minimizedRMSD -1
REMARK  0 active torsions:
REMARK  status: ('A' for Active; 'I' for Inactive)
ROOT
ATOM      1  C   UNL d   1       6.000   5.514   5.348  0.00  0.00    -0.002 A 
ATOM      2  C1  UNL d   1       6.000   5.884   4.011  0.00  0.00     0.010 A 
ATOM      3  C2  UNL d   1       5.994   4.915   3.006  0.00  0.00     0.041 A 
ATOM      4  C3  UNL d   1       5.987   3.554   3.371  0.00  0.00    -0.075 A 
ATOM      5  S   UNL d   1       5.978   2.194   2.312  0.00  0.00     0.015 SA
ATOM      6  C4  UNL d   1       5.973   1.089   3.610  0.00  0.00     0.022 A 
ATOM      7  C5  UNL d   1       5.978   1.726   4.829  0.00  0.00     0.026 A 
ATOM      8  C6  UNL d   1       5.986   3.157   4.711  0.00  0.00    -0.082 A 
ATOM      9  C7  UNL d   1       5.992   4.163   5.707  0.00  0.00     0.045 A 
ENDROOT
TORSDOF 0
ENDMDL
