MODEL 1
REMARK minimizedAffinity -1.73108721
REMARK minimizedRMSD -1
REMARK  0 active torsions:
REMARK  status: ('A' for Active; 'I' for Inactive)
ROOT
ATOM      1  C   UNL d   1       5.253   3.267   4.045  0.00  0.00    -0.002 A 
ATOM      2  C1  UNL d   1       5.805   3.253   5.318  0.00  0.00     0.010 A 
ATOM      3  C2  UNL d   1       5.999   2.047   5.995  0.00  0.00     0.041 A 
ATOM      4  C3  UNL d   1       5.628   0.844   5.363  0.00  0.00    -0.075 A 
ATOM      5  S   UNL d   1       5.774  -0.752   6.000  0.00  0.00     0.015 SA
ATOM      6  C4  UNL d   1       5.108  -1.453   4.596  0.00  0.00     0.022 A 
ATOM      7  C5  UNL d   1       4.776  -0.507   3.655  0.00  0.00     0.026 A 
ATOM      8  C6  UNL d   1       5.071   0.832   4.081  0.00  0.00    -0.082 A 
ATOM      9  C7  UNL d   1       4.886   2.071   3.422  0.00  0.00     0.045 A 
ENDROOT
TORSDOF 0
ENDMDL
