MODEL 1
REMARK minimizedAffinity -1.11486757
REMARK minimizedRMSD -1
REMARK  0 active torsions:
REMARK  status: ('A' for Active; 'I' for Inactive)
ROOT
ATOM      1  C   UNL d   1       5.996  -1.496   3.954  0.00  0.00    -0.002 A 
ATOM      2  C1  UNL d   1       5.995  -1.055   5.270  0.00  0.00     0.010 A 
ATOM      3  C2  UNL d   1       5.997   0.310   5.562  0.00  0.00     0.041 A 
ATOM      4  C3  UNL d   1       5.998   1.234   4.498  0.00  0.00    -0.075 A 
ATOM      5  S   UNL d   1       5.999   2.954   4.616  0.00  0.00     0.015 SA
ATOM      6  C4  UNL d   1       6.000   3.145   2.922  0.00  0.00     0.022 A 
ATOM      7  C5  UNL d   1       5.999   1.936   2.268  0.00  0.00     0.026 A 
ATOM      8  C6  UNL d   1       5.998   0.815   3.165  0.00  0.00    -0.082 A 
ATOM      9  C7  UNL d   1       5.996  -0.576   2.902  0.00  0.00     0.045 A 
ENDROOT
TORSDOF 0
ENDMDL
