MODEL 1
REMARK minimizedAffinity -3.23052311
REMARK minimizedRMSD -1
REMARK  0 active torsions:
REMARK  status: ('A' for Active; 'I' for Inactive)
ROOT
ATOM      1  C   UNL d   1       5.273  -1.285   3.348  0.00  0.00    -0.002 A 
ATOM      2  C1  UNL d   1       5.373  -1.523   4.711  0.00  0.00     0.010 A 
ATOM      3  C2  UNL d   1       5.599  -0.472   5.602  0.00  0.00     0.041 A 
ATOM      4  C3  UNL d   1       5.722   0.837   5.094  0.00  0.00    -0.075 A 
ATOM      5  S   UNL d   1       6.000   2.280   5.995  0.00  0.00     0.015 SA
ATOM      6  C4  UNL d   1       5.991   3.247   4.592  0.00  0.00     0.022 A 
ATOM      7  C5  UNL d   1       5.783   2.503   3.454  0.00  0.00     0.026 A 
ATOM      8  C6  UNL d   1       5.624   1.102   3.725  0.00  0.00    -0.082 A 
ATOM      9  C7  UNL d   1       5.395   0.014   2.848  0.00  0.00     0.045 A 
ENDROOT
TORSDOF 0
ENDMDL
