MODEL 1
REMARK minimizedAffinity 1.19132137
REMARK minimizedRMSD -1
REMARK  0 active torsions:
REMARK  status: ('A' for Active; 'I' for Inactive)
ROOT
ATOM      1  C   UNL d   1       5.995  -1.787   3.911  0.00  0.00    -0.002 A 
ATOM      2  C1  UNL d   1       5.986  -1.777   5.299  0.00  0.00     0.010 A 
ATOM      3  C2  UNL d   1       5.983  -0.569   6.000  0.00  0.00     0.041 A 
ATOM      4  C3  UNL d   1       5.988   0.639   5.276  0.00  0.00    -0.075 A 
ATOM      5  S   UNL d   1       5.984   2.238   5.922  0.00  0.00     0.015 SA
ATOM      6  C4  UNL d   1       5.994   2.944   4.371  0.00  0.00     0.022 A 
ATOM      7  C5  UNL d   1       6.000   1.999   3.373  0.00  0.00     0.026 A 
ATOM      8  C6  UNL d   1       5.996   0.654   3.878  0.00  0.00    -0.082 A 
ATOM      9  C7  UNL d   1       5.999  -0.586   3.196  0.00  0.00     0.045 A 
ENDROOT
TORSDOF 0
ENDMDL
