MODEL 1
REMARK minimizedAffinity -3.60661411
REMARK minimizedRMSD -1
REMARK  0 active torsions:
REMARK  status: ('A' for Active; 'I' for Inactive)
ROOT
ATOM      1  C   UNL d   1       5.102  -0.906   4.360  0.00  0.00    -0.002 A 
ATOM      2  C1  UNL d   1       5.218  -0.502   5.683  0.00  0.00     0.010 A 
ATOM      3  C2  UNL d   1       5.496   0.830   5.997  0.00  0.00     0.041 A 
ATOM      4  C3  UNL d   1       5.655   1.758   4.949  0.00  0.00    -0.075 A 
ATOM      5  S   UNL d   1       5.999   3.441   5.095  0.00  0.00     0.015 SA
ATOM      6  C4  UNL d   1       6.000   3.664   3.405  0.00  0.00     0.022 A 
ATOM      7  C5  UNL d   1       5.746   2.493   2.731  0.00  0.00     0.026 A 
ATOM      8  C6  UNL d   1       5.543   1.375   3.609  0.00  0.00    -0.082 A 
ATOM      9  C7  UNL d   1       5.261   0.018   3.324  0.00  0.00     0.045 A 
ENDROOT
TORSDOF 0
ENDMDL
