MODEL 1
REMARK minimizedAffinity -4.72568655
REMARK minimizedRMSD -1
REMARK  2 active torsions:
REMARK  status: ('A' for Active; 'I' for Inactive)
REMARK    1  A    between atoms: C1_2  and  C2_3 
REMARK    2  A    between atoms: C2_3  and  C3_4 
ROOT
ATOM      1  C3  UNL d   1       0.096   0.160  -0.009  0.00  0.00    -0.075 A 
ATOM      2  C4  UNL d   1      -0.778  -0.554   0.824  0.00  0.00     0.002 A 
ATOM      3  C5  UNL d   1      -2.103  -0.769   0.442  0.00  0.00     0.002 A 
ATOM      4  C6  UNL d   1      -2.572  -0.266  -0.770  0.00  0.00    -0.004 A 
ATOM      5  C7  UNL d   1      -1.717   0.458  -1.597  0.00  0.00     0.002 A 
ATOM      6  C8  UNL d   1      -0.390   0.671  -1.220  0.00  0.00     0.002 A 
ENDROOT
BRANCH   1   7
ATOM      7  C2  UNL d   1       1.538   0.371   0.384  0.00  0.00     0.056 C 
BRANCH   7   8
ATOM      8  C1  UNL d   1       1.902   1.834   0.659  0.00  0.00     0.007 C 
ATOM      9  C   UNL d   1       2.267   2.099   2.113  0.00  0.00     0.009 C 
ENDBRANCH   7   8
ENDBRANCH   1   7
TORSDOF 2
ENDMDL
