MODEL 1
REMARK minimizedAffinity -1.47769511
REMARK minimizedRMSD -1
REMARK  2 active torsions:
REMARK  status: ('A' for Active; 'I' for Inactive)
REMARK    1  A    between atoms: C1_2  and  C2_3 
REMARK    2  A    between atoms: C2_3  and  C3_4 
ROOT
ATOM      1  C3  UNL d   1       1.410   0.813  -0.135  0.00  0.00    -0.075 A 
ATOM      2  C4  UNL d   1       1.367  -0.187   0.848  0.00  0.00     0.002 A 
ATOM      3  C5  UNL d   1       0.275  -1.052   0.931  0.00  0.00     0.002 A 
ATOM      4  C6  UNL d   1      -0.789  -0.922   0.042  0.00  0.00    -0.004 A 
ATOM      5  C7  UNL d   1      -0.765   0.078  -0.927  0.00  0.00     0.002 A 
ATOM      6  C8  UNL d   1       0.328   0.942  -1.016  0.00  0.00     0.002 A 
ENDROOT
BRANCH   1   7
ATOM      7  C2  UNL d   1       2.602   1.733  -0.249  0.00  0.00     0.056 C 
BRANCH   7   8
ATOM      8  C1  UNL d   1       2.348   3.150   0.276  0.00  0.00     0.007 C 
ATOM      9  C   UNL d   1       2.553   3.279   1.779  0.00  0.00     0.009 C 
ENDBRANCH   7   8
ENDBRANCH   1   7
TORSDOF 2
ENDMDL
