MODEL 1
REMARK minimizedAffinity -4.59646654
REMARK minimizedRMSD -1
REMARK  2 active torsions:
REMARK  status: ('A' for Active; 'I' for Inactive)
REMARK    1  A    between atoms: C1_2  and  C2_3 
REMARK    2  A    between atoms: C2_3  and  C3_4 
ROOT
ATOM      1  C3  UNL d   1       0.051  -0.204   0.036  0.00  0.00    -0.075 A 
ATOM      2  C4  UNL d   1      -1.010  -0.792   0.740  0.00  0.00     0.002 A 
ATOM      3  C5  UNL d   1      -2.232  -1.031   0.110  0.00  0.00     0.002 A 
ATOM      4  C6  UNL d   1      -2.412  -0.676  -1.225  0.00  0.00    -0.004 A 
ATOM      5  C7  UNL d   1      -1.371  -0.076  -1.929  0.00  0.00     0.002 A 
ATOM      6  C8  UNL d   1      -0.146   0.160  -1.302  0.00  0.00     0.002 A 
ENDROOT
BRANCH   1   7
ATOM      7  C2  UNL d   1       1.385   0.030   0.704  0.00  0.00     0.056 C 
BRANCH   7   8
ATOM      8  C1  UNL d   1       2.247   1.096   0.018  0.00  0.00     0.007 C 
ATOM      9  C   UNL d   1       2.544   2.293   0.911  0.00  0.00     0.009 C 
ENDBRANCH   7   8
ENDBRANCH   1   7
TORSDOF 2
ENDMDL
