MODEL 1
REMARK minimizedAffinity -3.90646338
REMARK minimizedRMSD -1
REMARK  2 active torsions:
REMARK  status: ('A' for Active; 'I' for Inactive)
REMARK    1  A    between atoms: C1_2  and  C2_3 
REMARK    2  A    between atoms: C2_3  and  C3_4 
ROOT
ATOM      1  C3  UNL d   1      -0.428   0.433  -0.019  0.00  0.00    -0.075 A 
ATOM      2  C4  UNL d   1      -1.525   0.693   0.815  0.00  0.00     0.002 A 
ATOM      3  C5  UNL d   1      -2.759   0.090   0.571  0.00  0.00     0.002 A 
ATOM      4  C6  UNL d   1      -2.915  -0.771  -0.514  0.00  0.00    -0.004 A 
ATOM      5  C7  UNL d   1      -1.837  -1.023  -1.359  0.00  0.00     0.002 A 
ATOM      6  C8  UNL d   1      -0.599  -0.425  -1.114  0.00  0.00     0.002 A 
ENDROOT
BRANCH   1   7
ATOM      7  C2  UNL d   1       0.918   1.059   0.257  0.00  0.00     0.056 C 
BRANCH   7   8
ATOM      8  C1  UNL d   1       0.842   2.414   0.967  0.00  0.00     0.007 C 
ATOM      9  C   UNL d   1       1.975   2.636   1.960  0.00  0.00     0.009 C 
ENDBRANCH   7   8
ENDBRANCH   1   7
TORSDOF 2
ENDMDL
