MODEL 1
REMARK minimizedAffinity -5.02920961
REMARK minimizedRMSD -1
REMARK  2 active torsions:
REMARK  status: ('A' for Active; 'I' for Inactive)
REMARK    1  A    between atoms: C1_2  and  C2_3 
REMARK    2  A    between atoms: C2_3  and  C3_4 
ROOT
ATOM      1  C3  UNL d   1      -0.010   0.284  -0.034  0.00  0.00    -0.075 A 
ATOM      2  C4  UNL d   1      -1.106   0.399   0.834  0.00  0.00     0.002 A 
ATOM      3  C5  UNL d   1      -2.398   0.130   0.382  0.00  0.00     0.002 A 
ATOM      4  C6  UNL d   1      -2.612  -0.246  -0.942  0.00  0.00    -0.004 A 
ATOM      5  C7  UNL d   1      -1.533  -0.347  -1.817  0.00  0.00     0.002 A 
ATOM      6  C8  UNL d   1      -0.238  -0.082  -1.367  0.00  0.00     0.002 A 
ENDROOT
BRANCH   1   7
ATOM      7  C2  UNL d   1       1.394   0.545   0.456  0.00  0.00     0.056 C 
BRANCH   7   8
ATOM      8  C1  UNL d   1       1.846   2.002   0.308  0.00  0.00     0.007 C 
ATOM      9  C   UNL d   1       2.152   2.674   1.640  0.00  0.00     0.009 C 
ENDBRANCH   7   8
ENDBRANCH   1   7
TORSDOF 2
ENDMDL
