MODEL 1
REMARK minimizedAffinity -2.71693921
REMARK minimizedRMSD -1
REMARK  2 active torsions:
REMARK  status: ('A' for Active; 'I' for Inactive)
REMARK    1  A    between atoms: C1_2  and  C2_3 
REMARK    2  A    between atoms: C2_3  and  C3_4 
ROOT
ATOM      1  C3  UNL d   1       0.061   0.081   0.078  0.00  0.00    -0.075 A 
ATOM      2  C4  UNL d   1      -0.320   0.050  -1.271  0.00  0.00     0.002 A 
ATOM      3  C5  UNL d   1      -1.653  -0.162  -1.625  0.00  0.00     0.002 A 
ATOM      4  C6  UNL d   1      -2.617  -0.354  -0.638  0.00  0.00    -0.004 A 
ATOM      5  C7  UNL d   1      -2.247  -0.342   0.705  0.00  0.00     0.002 A 
ATOM      6  C8  UNL d   1      -0.915  -0.126   1.062  0.00  0.00     0.002 A 
ENDROOT
BRANCH   1   7
ATOM      7  C2  UNL d   1       1.497   0.339   0.470  0.00  0.00     0.056 C 
BRANCH   7   8
ATOM      8  C1  UNL d   1       2.113   1.573  -0.197  0.00  0.00     0.007 C 
ATOM      9  C   UNL d   1       2.360   2.720   0.775  0.00  0.00     0.009 C 
ENDBRANCH   7   8
ENDBRANCH   1   7
TORSDOF 2
ENDMDL
