MODEL 1
REMARK minimizedAffinity -5.45900583
REMARK minimizedRMSD -1
REMARK  2 active torsions:
REMARK  status: ('A' for Active; 'I' for Inactive)
REMARK    1  A    between atoms: C1_2  and  C2_3 
REMARK    2  A    between atoms: C2_3  and  C3_4 
ROOT
ATOM      1  C3  UNL d   1       0.094   0.407  -0.064  0.00  0.00    -0.075 A 
ATOM      2  C4  UNL d   1      -0.586   0.675  -1.261  0.00  0.00     0.002 A 
ATOM      3  C5  UNL d   1      -1.871   0.173  -1.473  0.00  0.00     0.002 A 
ATOM      4  C6  UNL d   1      -2.485  -0.611  -0.499  0.00  0.00    -0.004 A 
ATOM      5  C7  UNL d   1      -1.812  -0.897   0.686  0.00  0.00     0.002 A 
ATOM      6  C8  UNL d   1      -0.529  -0.392   0.903  0.00  0.00     0.002 A 
ENDROOT
BRANCH   1   7
ATOM      7  C2  UNL d   1       1.472   0.973   0.184  0.00  0.00     0.056 C 
BRANCH   7   8
ATOM      8  C1  UNL d   1       1.567   1.859   1.430  0.00  0.00     0.007 C 
ATOM      9  C   UNL d   1       1.845   3.321   1.108  0.00  0.00     0.009 C 
ENDBRANCH   7   8
ENDBRANCH   1   7
TORSDOF 2
ENDMDL
