MODEL 1
REMARK minimizedAffinity -5.29122019
REMARK minimizedRMSD -1
REMARK  2 active torsions:
REMARK  status: ('A' for Active; 'I' for Inactive)
REMARK    1  A    between atoms: C1_2  and  C2_3 
REMARK    2  A    between atoms: C2_3  and  C3_4 
ROOT
ATOM      1  C3  UNL d   1       0.134   0.151  -0.371  0.00  0.00    -0.075 A 
ATOM      2  C4  UNL d   1      -0.164   0.036  -1.737  0.00  0.00     0.002 A 
ATOM      3  C5  UNL d   1      -1.391  -0.482  -2.152  0.00  0.00     0.002 A 
ATOM      4  C6  UNL d   1      -2.329  -0.900  -1.211  0.00  0.00    -0.004 A 
ATOM      5  C7  UNL d   1      -2.037  -0.805   0.148  0.00  0.00     0.002 A 
ATOM      6  C8  UNL d   1      -0.812  -0.284   0.567  0.00  0.00     0.002 A 
ENDROOT
BRANCH   1   7
ATOM      7  C2  UNL d   1       1.449   0.738   0.086  0.00  0.00     0.056 C 
BRANCH   7   8
ATOM      8  C1  UNL d   1       1.329   1.666   1.299  0.00  0.00     0.007 C 
ATOM      9  C   UNL d   1       2.138   2.948   1.156  0.00  0.00     0.009 C 
ENDBRANCH   7   8
ENDBRANCH   1   7
TORSDOF 2
ENDMDL
