MODEL 1
REMARK minimizedAffinity -4.75330448
REMARK minimizedRMSD -1
REMARK  2 active torsions:
REMARK  status: ('A' for Active; 'I' for Inactive)
REMARK    1  A    between atoms: C1_2  and  C2_3 
REMARK    2  A    between atoms: C2_3  and  C3_4 
ROOT
ATOM      1  C3  UNL d   1       0.200  -0.139   0.075  0.00  0.00    -0.075 A 
ATOM      2  C4  UNL d   1      -0.263  -0.226  -1.246  0.00  0.00     0.002 A 
ATOM      3  C5  UNL d   1      -1.555  -0.680  -1.515  0.00  0.00     0.002 A 
ATOM      4  C6  UNL d   1      -2.394  -1.062  -0.471  0.00  0.00    -0.004 A 
ATOM      5  C7  UNL d   1      -1.939  -0.996   0.844  0.00  0.00     0.002 A 
ATOM      6  C8  UNL d   1      -0.649  -0.538   1.117  0.00  0.00     0.002 A 
ENDROOT
BRANCH   1   7
ATOM      7  C2  UNL d   1       1.586   0.379   0.375  0.00  0.00     0.056 C 
BRANCH   7   8
ATOM      8  C1  UNL d   1       1.609   1.590   1.314  0.00  0.00     0.007 C 
ATOM      9  C   UNL d   1       2.986   2.229   1.435  0.00  0.00     0.009 C 
ENDBRANCH   7   8
ENDBRANCH   1   7
TORSDOF 2
ENDMDL
