MODEL 1
REMARK minimizedAffinity -4.18561459
REMARK minimizedRMSD -1
REMARK  2 active torsions:
REMARK  status: ('A' for Active; 'I' for Inactive)
REMARK    1  A    between atoms: C1_2  and  C2_3 
REMARK    2  A    between atoms: C2_3  and  C3_4 
ROOT
ATOM      1  C3  UNL d   1       0.456  -0.067   0.110  0.00  0.00    -0.075 A 
ATOM      2  C4  UNL d   1      -0.431  -0.381   1.150  0.00  0.00     0.002 A 
ATOM      3  C5  UNL d   1      -1.758  -0.711   0.873  0.00  0.00     0.002 A 
ATOM      4  C6  UNL d   1      -2.216  -0.723  -0.442  0.00  0.00    -0.004 A 
ATOM      5  C7  UNL d   1      -1.348  -0.397  -1.482  0.00  0.00     0.002 A 
ATOM      6  C8  UNL d   1      -0.019  -0.070  -1.209  0.00  0.00     0.002 A 
ENDROOT
BRANCH   1   7
ATOM      7  C2  UNL d   1       1.901   0.262   0.400  0.00  0.00     0.056 C 
BRANCH   7   8
ATOM      8  C1  UNL d   1       2.190   1.764   0.501  0.00  0.00     0.007 C 
ATOM      9  C   UNL d   1       2.692   2.187   1.875  0.00  0.00     0.009 C 
ENDBRANCH   7   8
ENDBRANCH   1   7
TORSDOF 2
ENDMDL
