MODEL 1
REMARK minimizedAffinity -3.51503181
REMARK minimizedRMSD -1
REMARK  2 active torsions:
REMARK  status: ('A' for Active; 'I' for Inactive)
REMARK    1  A    between atoms: C1_2  and  C2_3 
REMARK    2  A    between atoms: C2_3  and  C3_4 
ROOT
ATOM      1  C3  UNL d   1      -0.163   0.132  -0.116  0.00  0.00    -0.075 A 
ATOM      2  C4  UNL d   1      -1.464   0.126   0.406  0.00  0.00     0.002 A 
ATOM      3  C5  UNL d   1      -2.528  -0.367  -0.350  0.00  0.00     0.002 A 
ATOM      4  C6  UNL d   1      -2.307  -0.848  -1.639  0.00  0.00    -0.004 A 
ATOM      5  C7  UNL d   1      -1.021  -0.831  -2.174  0.00  0.00     0.002 A 
ATOM      6  C8  UNL d   1       0.047  -0.343  -1.418  0.00  0.00     0.002 A 
ENDROOT
BRANCH   1   7
ATOM      7  C2  UNL d   1       0.998   0.637   0.708  0.00  0.00     0.056 C 
BRANCH   7   8
ATOM      8  C1  UNL d   1       2.142   1.229  -0.122  0.00  0.00     0.007 C 
ATOM      9  C   UNL d   1       2.557   2.621   0.336  0.00  0.00     0.009 C 
ENDBRANCH   7   8
ENDBRANCH   1   7
TORSDOF 2
ENDMDL
