MODEL 1
REMARK minimizedAffinity 2.40923476
REMARK minimizedRMSD -1
REMARK  0 active torsions:
REMARK  status: ('A' for Active; 'I' for Inactive)
ROOT
ATOM      1  C4' PXY d   1      -3.314  -1.127   3.170  0.00  0.00     0.077 C 
ATOM      2  C1' PXY d   1       0.737   2.396   1.026  0.00  0.00     0.077 C 
ATOM      3  C1  PXY d   1      -0.323   1.464   1.579  0.00  0.00    -0.082 A 
ATOM      4  C2  PXY d   1      -1.309   1.955   2.311  0.00  0.00     0.003 A 
ATOM      5  C3  PXY d   1      -2.258   1.122   2.846  0.00  0.00     0.003 A 
ATOM      6  C4  PXY d   1      -2.227  -0.221   2.584  0.00  0.00    -0.082 A 
ATOM      7  C5  PXY d   1      -1.230  -0.729   1.828  0.00  0.00     0.003 A 
ATOM      8  C6  PXY d   1      -0.254   0.128   1.330  0.00  0.00     0.003 A 
ENDROOT
TORSDOF 0
ENDMDL
