MODEL 1
REMARK minimizedAffinity 1.23362386
REMARK minimizedRMSD -1
REMARK  0 active torsions:
REMARK  status: ('A' for Active; 'I' for Inactive)
ROOT
ATOM      1  C4' PXY d   1      -3.969   1.873   4.098  0.00  0.00     0.077 C 
ATOM      2  C1' PXY d   1       0.831   0.722   1.090  0.00  0.00     0.077 C 
ATOM      3  C1  PXY d   1      -0.433   1.013   1.875  0.00  0.00    -0.082 A 
ATOM      4  C2  PXY d   1      -0.788   2.267   2.102  0.00  0.00     0.003 A 
ATOM      5  C3  PXY d   1      -1.911   2.547   2.838  0.00  0.00     0.003 A 
ATOM      6  C4  PXY d   1      -2.706   1.533   3.301  0.00  0.00    -0.082 A 
ATOM      7  C5  PXY d   1      -2.356   0.251   3.065  0.00  0.00     0.003 A 
ATOM      8  C6  PXY d   1      -1.190  -0.012   2.351  0.00  0.00     0.003 A 
ENDROOT
TORSDOF 0
ENDMDL
