MODEL 1
REMARK minimizedAffinity 7.08597565
REMARK minimizedRMSD -1
REMARK  0 active torsions:
REMARK  status: ('A' for Active; 'I' for Inactive)
ROOT
ATOM      1  C4' PXY d   1      -0.673  -2.037   2.293  0.00  0.00     0.077 C 
ATOM      2  C1' PXY d   1       0.843   3.431   1.186  0.00  0.00     0.077 C 
ATOM      3  C1  PXY d   1       0.443   1.995   1.463  0.00  0.00    -0.082 A 
ATOM      4  C2  PXY d   1       0.015   1.657   2.669  0.00  0.00     0.003 A 
ATOM      5  C3  PXY d   1      -0.321   0.356   2.946  0.00  0.00     0.003 A 
ATOM      6  C4  PXY d   1      -0.267  -0.597   1.965  0.00  0.00    -0.082 A 
ATOM      7  C5  PXY d   1       0.159  -0.258   0.729  0.00  0.00     0.003 A 
ATOM      8  C6  PXY d   1       0.534   1.059   0.480  0.00  0.00     0.003 A 
ENDROOT
TORSDOF 0
ENDMDL
