MODEL 1
REMARK minimizedAffinity 2.39113688
REMARK minimizedRMSD -1
REMARK  0 active torsions:
REMARK  status: ('A' for Active; 'I' for Inactive)
ROOT
ATOM      1  C4' PXY d   1      -4.927   1.555   4.588  0.00  0.00     0.077 C 
ATOM      2  C1' PXY d   1       0.035   1.877   1.640  0.00  0.00     0.077 C 
ATOM      3  C1  PXY d   1      -1.271   1.784   2.404  0.00  0.00    -0.082 A 
ATOM      4  C2  PXY d   1      -1.643   2.784   3.187  0.00  0.00     0.003 A 
ATOM      5  C3  PXY d   1      -2.805   2.703   3.910  0.00  0.00     0.003 A 
ATOM      6  C4  PXY d   1      -3.621   1.610   3.790  0.00  0.00    -0.082 A 
ATOM      7  C5  PXY d   1      -3.254   0.590   2.986  0.00  0.00     0.003 A 
ATOM      8  C6  PXY d   1      -2.050   0.674   2.292  0.00  0.00     0.003 A 
ENDROOT
TORSDOF 0
ENDMDL
