MODEL 1
REMARK minimizedAffinity -1.91413045
REMARK minimizedRMSD -1
REMARK  0 active torsions:
REMARK  status: ('A' for Active; 'I' for Inactive)
ROOT
ATOM      1  C4' PXY d   1      -4.132   1.819   3.673  0.00  0.00     0.077 C 
ATOM      2  C1' PXY d   1       0.873   0.795   0.967  0.00  0.00     0.077 C 
ATOM      3  C1  PXY d   1      -0.445   1.053   1.671  0.00  0.00    -0.082 A 
ATOM      4  C2  PXY d   1      -0.741   2.277   2.076  0.00  0.00     0.003 A 
ATOM      5  C3  PXY d   1      -1.914   2.522   2.743  0.00  0.00     0.003 A 
ATOM      6  C4  PXY d   1      -2.817   1.514   2.950  0.00  0.00    -0.082 A 
ATOM      7  C5  PXY d   1      -2.527   0.264   2.530  0.00  0.00     0.003 A 
ATOM      8  C6  PXY d   1      -1.312   0.028   1.892  0.00  0.00     0.003 A 
ENDROOT
TORSDOF 0
ENDMDL
