MODEL 1
REMARK minimizedAffinity 4.84859753
REMARK minimizedRMSD -1
REMARK  0 active torsions:
REMARK  status: ('A' for Active; 'I' for Inactive)
ROOT
ATOM      1  C4' PXY d   1      -3.755  -5.999  -0.752  0.00  0.00     0.077 C 
ATOM      2  C1' PXY d   1      -4.149  -0.367  -1.991  0.00  0.00     0.077 C 
ATOM      3  C1  PXY d   1      -4.050  -1.847  -1.678  0.00  0.00    -0.082 A 
ATOM      4  C2  PXY d   1      -4.139  -2.257  -0.424  0.00  0.00     0.003 A 
ATOM      5  C3  PXY d   1      -4.019  -3.589  -0.119  0.00  0.00     0.003 A 
ATOM      6  C4  PXY d   1      -3.859  -4.515  -1.115  0.00  0.00    -0.082 A 
ATOM      7  C5  PXY d   1      -3.778  -4.105  -2.399  0.00  0.00     0.003 A 
ATOM      8  C6  PXY d   1      -3.861  -2.745  -2.682  0.00  0.00     0.003 A 
ENDROOT
TORSDOF 0
ENDMDL
