MODEL 1
REMARK minimizedAffinity 3.49810719
REMARK minimizedRMSD -1
REMARK  0 active torsions:
REMARK  status: ('A' for Active; 'I' for Inactive)
ROOT
ATOM      1  C4' PXY d   1       2.777  -0.613  -0.253  0.00  0.00     0.077 C 
ATOM      2  C1' PXY d   1      -1.537   2.113   2.463  0.00  0.00     0.077 C 
ATOM      3  C1  PXY d   1      -0.405   1.389   1.761  0.00  0.00    -0.082 A 
ATOM      4  C2  PXY d   1       0.330   2.034   0.869  0.00  0.00     0.003 A 
ATOM      5  C3  PXY d   1       1.337   1.387   0.201  0.00  0.00     0.003 A 
ATOM      6  C4  PXY d   1       1.630   0.080   0.488  0.00  0.00    -0.082 A 
ATOM      7  C5  PXY d   1       0.892  -0.582   1.404  0.00  0.00     0.003 A 
ATOM      8  C6  PXY d   1      -0.152   0.082   2.041  0.00  0.00     0.003 A 
ENDROOT
TORSDOF 0
ENDMDL
