MODEL 1
REMARK minimizedAffinity -2.47245789
REMARK minimizedRMSD -1
REMARK  0 active torsions:
REMARK  status: ('A' for Active; 'I' for Inactive)
ROOT
ATOM      1  C4' PXY d   1       1.211   0.360   0.788  0.00  0.00     0.077 C 
ATOM      2  C1' PXY d   1      -3.594   1.734   3.694  0.00  0.00     0.077 C 
ATOM      3  C1  PXY d   1      -2.333   1.362   2.938  0.00  0.00    -0.082 A 
ATOM      4  C2  PXY d   1      -1.551   2.317   2.462  0.00  0.00     0.003 A 
ATOM      5  C3  PXY d   1      -0.424   1.998   1.748  0.00  0.00     0.003 A 
ATOM      6  C4  PXY d   1      -0.066   0.689   1.566  0.00  0.00    -0.082 A 
ATOM      7  C5  PXY d   1      -0.854  -0.291   2.057  0.00  0.00     0.003 A 
ATOM      8  C6  PXY d   1      -2.016   0.053   2.743  0.00  0.00     0.003 A 
ENDROOT
TORSDOF 0
ENDMDL
