MODEL 1
REMARK minimizedAffinity -5.864501
REMARK minimizedRMSD -1
REMARK  0 active torsions:
REMARK  status: ('A' for Active; 'I' for Inactive)
ROOT
ATOM      1  C4' PXY d   1      -2.738   1.765   3.182  0.00  0.00     0.077 C 
ATOM      2  C1' PXY d   1       2.151   0.331   0.452  0.00  0.00     0.077 C 
ATOM      3  C1  PXY d   1       0.873   0.719   1.169  0.00  0.00    -0.082 A 
ATOM      4  C2  PXY d   1       0.152  -0.213   1.771  0.00  0.00     0.003 A 
ATOM      5  C3  PXY d   1      -1.023   0.116   2.397  0.00  0.00     0.003 A 
ATOM      6  C4  PXY d   1      -1.436   1.420   2.454  0.00  0.00    -0.082 A 
ATOM      7  C5  PXY d   1      -0.700   2.378   1.852  0.00  0.00     0.003 A 
ATOM      8  C6  PXY d   1       0.468   2.018   1.186  0.00  0.00     0.003 A 
ENDROOT
TORSDOF 0
ENDMDL
