MODEL 1
REMARK minimizedAffinity 1.61946154
REMARK minimizedRMSD -1
REMARK  0 active torsions:
REMARK  status: ('A' for Active; 'I' for Inactive)
ROOT
ATOM      1  C4' PXY d   1      -4.275   2.126   3.766  0.00  0.00     0.077 C 
ATOM      2  C1' PXY d   1       0.614   1.215   0.818  0.00  0.00     0.077 C 
ATOM      3  C1  PXY d   1      -0.673   1.443   1.586  0.00  0.00    -0.082 A 
ATOM      4  C2  PXY d   1      -1.003   2.668   1.962  0.00  0.00     0.003 A 
ATOM      5  C3  PXY d   1      -2.147   2.888   2.685  0.00  0.00     0.003 A 
ATOM      6  C4  PXY d   1      -2.990   1.850   2.981  0.00  0.00    -0.082 A 
ATOM      7  C5  PXY d   1      -2.666   0.599   2.592  0.00  0.00     0.003 A 
ATOM      8  C6  PXY d   1      -1.479   0.391   1.894  0.00  0.00     0.003 A 
ENDROOT
TORSDOF 0
ENDMDL
