MODEL 1
REMARK minimizedAffinity -2.05696249
REMARK minimizedRMSD -1
REMARK  0 active torsions:
REMARK  status: ('A' for Active; 'I' for Inactive)
ROOT
ATOM      1  C4' PXY d   1      -1.103  -5.999  -0.793  0.00  0.00     0.077 C 
ATOM      2  C1' PXY d   1      -2.616  -1.849   2.937  0.00  0.00     0.077 C 
ATOM      3  C1  PXY d   1      -2.231  -2.937   1.954  0.00  0.00    -0.082 A 
ATOM      4  C2  PXY d   1      -1.207  -3.730   2.223  0.00  0.00     0.003 A 
ATOM      5  C3  PXY d   1      -0.825  -4.699   1.331  0.00  0.00     0.003 A 
ATOM      6  C4  PXY d   1      -1.533  -4.893   0.175  0.00  0.00    -0.082 A 
ATOM      7  C5  PXY d   1      -2.586  -4.095  -0.102  0.00  0.00     0.003 A 
ATOM      8  C6  PXY d   1      -2.931  -3.091   0.797  0.00  0.00     0.003 A 
ENDROOT
TORSDOF 0
ENDMDL
