MODEL 1
REMARK minimizedAffinity -3.02374101
REMARK minimizedRMSD -1
REMARK  0 active torsions:
REMARK  status: ('A' for Active; 'I' for Inactive)
ROOT
ATOM      1  C4' PXY d   1      -3.637   2.285   3.834  0.00  0.00     0.077 C 
ATOM      2  C1' PXY d   1       0.492   0.019   0.482  0.00  0.00     0.077 C 
ATOM      3  C1  PXY d   1      -0.583   0.624   1.364  0.00  0.00    -0.082 A 
ATOM      4  C2  PXY d   1      -1.523  -0.154   1.875  0.00  0.00     0.003 A 
ATOM      5  C3  PXY d   1      -2.521   0.381   2.649  0.00  0.00     0.003 A 
ATOM      6  C4  PXY d   1      -2.526   1.717   2.946  0.00  0.00    -0.082 A 
ATOM      7  C5  PXY d   1      -1.565   2.516   2.436  0.00  0.00     0.003 A 
ATOM      8  C6  PXY d   1      -0.584   1.960   1.619  0.00  0.00     0.003 A 
ENDROOT
TORSDOF 0
ENDMDL
