MODEL 1
REMARK minimizedAffinity 0.533482254
REMARK minimizedRMSD -1
REMARK  0 active torsions:
REMARK  status: ('A' for Active; 'I' for Inactive)
ROOT
ATOM      1  C4' PXY d   1       1.087   0.026   0.401  0.00  0.00     0.077 C 
ATOM      2  C1' PXY d   1      -3.137   2.646   3.352  0.00  0.00     0.077 C 
ATOM      3  C1  PXY d   1      -2.034   1.947   2.582  0.00  0.00    -0.082 A 
ATOM      4  C2  PXY d   1      -0.928   2.607   2.280  0.00  0.00     0.003 A 
ATOM      5  C3  PXY d   1       0.066   2.001   1.556  0.00  0.00     0.003 A 
ATOM      6  C4  PXY d   1      -0.050   0.688   1.185  0.00  0.00    -0.082 A 
ATOM      7  C5  PXY d   1      -1.170   0.004   1.499  0.00  0.00     0.003 A 
ATOM      8  C6  PXY d   1      -2.186   0.651   2.198  0.00  0.00     0.003 A 
ENDROOT
TORSDOF 0
ENDMDL
