MODEL 1
REMARK minimizedAffinity -1.56557882
REMARK minimizedRMSD -1
REMARK  0 active torsions:
REMARK  status: ('A' for Active; 'I' for Inactive)
ROOT
ATOM      1  C4' PXY d   1       0.874   0.281   0.638  0.00  0.00     0.077 C 
ATOM      2  C1' PXY d   1      -3.699   2.072   3.687  0.00  0.00     0.077 C 
ATOM      3  C1  PXY d   1      -2.501   1.590   2.892  0.00  0.00    -0.082 A 
ATOM      4  C2  PXY d   1      -1.549   2.446   2.561  0.00  0.00     0.003 A 
ATOM      5  C3  PXY d   1      -0.475   2.034   1.814  0.00  0.00     0.003 A 
ATOM      6  C4  PXY d   1      -0.348   0.721   1.448  0.00  0.00    -0.082 A 
ATOM      7  C5  PXY d   1      -1.311  -0.161   1.791  0.00  0.00     0.003 A 
ATOM      8  C6  PXY d   1      -2.413   0.286   2.514  0.00  0.00     0.003 A 
ENDROOT
TORSDOF 0
ENDMDL
