MODEL 1
REMARK minimizedAffinity 9.12200451
REMARK minimizedRMSD -1
REMARK  0 active torsions:
REMARK  status: ('A' for Active; 'I' for Inactive)
ROOT
ATOM      1  C4' PXY d   1      -1.402  -1.912   3.147  0.00  0.00     0.077 C 
ATOM      2  C1' PXY d   1       1.522   2.084   0.163  0.00  0.00     0.077 C 
ATOM      3  C1  PXY d   1       0.762   1.027   0.940  0.00  0.00    -0.082 A 
ATOM      4  C2  PXY d   1      -0.438   1.306   1.422  0.00  0.00     0.003 A 
ATOM      5  C3  PXY d   1      -1.126   0.372   2.154  0.00  0.00     0.003 A 
ATOM      6  C4  PXY d   1      -0.602  -0.878   2.349  0.00  0.00    -0.082 A 
ATOM      7  C5  PXY d   1       0.617  -1.174   1.851  0.00  0.00     0.003 A 
ATOM      8  C6  PXY d   1       1.316  -0.199   1.146  0.00  0.00     0.003 A 
ENDROOT
TORSDOF 0
ENDMDL
