MODEL 1
REMARK minimizedAffinity -1.97989643
REMARK minimizedRMSD -1
REMARK  0 active torsions:
REMARK  status: ('A' for Active; 'I' for Inactive)
ROOT
ATOM      1  C4' PXY d   1       0.960   0.635   0.559  0.00  0.00     0.077 C 
ATOM      2  C1' PXY d   1      -3.756   1.908   3.650  0.00  0.00     0.077 C 
ATOM      3  C1  PXY d   1      -2.519   1.562   2.844  0.00  0.00    -0.082 A 
ATOM      4  C2  PXY d   1      -1.672   2.519   2.503  0.00  0.00     0.003 A 
ATOM      5  C3  PXY d   1      -0.566   2.228   1.746  0.00  0.00     0.003 A 
ATOM      6  C4  PXY d   1      -0.296   0.937   1.381  0.00  0.00    -0.082 A 
ATOM      7  C5  PXY d   1      -1.150  -0.047   1.735  0.00  0.00     0.003 A 
ATOM      8  C6  PXY d   1      -2.289   0.275   2.467  0.00  0.00     0.003 A 
ENDROOT
TORSDOF 0
ENDMDL
