MODEL 1
REMARK minimizedAffinity -2.33099914
REMARK minimizedRMSD -1
REMARK  0 active torsions:
REMARK  status: ('A' for Active; 'I' for Inactive)
ROOT
ATOM      1  C4' PXY d   1       1.619   0.364   0.111  0.00  0.00     0.077 C 
ATOM      2  C1' PXY d   1      -3.118   2.208   2.864  0.00  0.00     0.077 C 
ATOM      3  C1  PXY d   1      -1.879   1.712   2.146  0.00  0.00    -0.082 A 
ATOM      4  C2  PXY d   1      -0.872   2.543   1.928  0.00  0.00     0.003 A 
ATOM      5  C3  PXY d   1       0.243   2.120   1.252  0.00  0.00     0.003 A 
ATOM      6  C4  PXY d   1       0.351   0.819   0.841  0.00  0.00    -0.082 A 
ATOM      7  C5  PXY d   1      -0.666  -0.038   1.068  0.00  0.00     0.003 A 
ATOM      8  C6  PXY d   1      -1.807   0.422   1.720  0.00  0.00     0.003 A 
ENDROOT
TORSDOF 0
ENDMDL
