MODEL 1
REMARK minimizedAffinity -2.62027168
REMARK minimizedRMSD -1
REMARK  0 active torsions:
REMARK  status: ('A' for Active; 'I' for Inactive)
ROOT
ATOM      1  C4' PXY d   1       0.324   0.753   0.750  0.00  0.00     0.077 C 
ATOM      2  C1' PXY d   1      -4.151   2.147   4.134  0.00  0.00     0.077 C 
ATOM      3  C1  PXY d   1      -2.977   1.769   3.252  0.00  0.00    -0.082 A 
ATOM      4  C2  PXY d   1      -2.182   2.716   2.780  0.00  0.00     0.003 A 
ATOM      5  C3  PXY d   1      -1.135   2.395   1.955  0.00  0.00     0.003 A 
ATOM      6  C4  PXY d   1      -0.867   1.087   1.652  0.00  0.00    -0.082 A 
ATOM      7  C5  PXY d   1      -1.667   0.114   2.139  0.00  0.00     0.003 A 
ATOM      8  C6  PXY d   1      -2.749   0.464   2.941  0.00  0.00     0.003 A 
ENDROOT
TORSDOF 0
ENDMDL
