MODEL 1
REMARK minimizedAffinity -5.58750629
REMARK minimizedRMSD -1
REMARK  0 active torsions:
REMARK  status: ('A' for Active; 'I' for Inactive)
ROOT
ATOM      1  C4' PXY d   1       0.631   0.018   0.733  0.00  0.00     0.077 C 
ATOM      2  C1' PXY d   1      -3.797   2.231   3.718  0.00  0.00     0.077 C 
ATOM      3  C1  PXY d   1      -2.638   1.639   2.941  0.00  0.00    -0.082 A 
ATOM      4  C2  PXY d   1      -1.680   2.432   2.489  0.00  0.00     0.003 A 
ATOM      5  C3  PXY d   1      -0.641   1.918   1.757  0.00  0.00     0.003 A 
ATOM      6  C4  PXY d   1      -0.553   0.570   1.530  0.00  0.00    -0.082 A 
ATOM      7  C5  PXY d   1      -1.521  -0.247   1.998  0.00  0.00     0.003 A 
ATOM      8  C6  PXY d   1      -2.588   0.300   2.703  0.00  0.00     0.003 A 
ENDROOT
TORSDOF 0
ENDMDL
