MODEL 1
REMARK minimizedAffinity 2.80572224
REMARK minimizedRMSD -1
REMARK  1 active torsions:
REMARK  status: ('A' for Active; 'I' for Inactive)
REMARK    1  A    between atoms: N_2  and  C1_3 
ROOT
ATOM      1  C1  UNL d   1      -2.510   1.952   0.177  0.00  0.00     0.143 A 
ATOM      2  C2  UNL d   1      -3.859   2.268  -0.011  0.00  0.00    -0.057 A 
ATOM      3  C3  UNL d   1      -4.874   1.475   0.539  0.00  0.00     0.033 A 
ATOM      4  C4  UNL d   1      -4.555   0.331   1.263  0.00  0.00    -0.042 A 
ATOM      5  C5  UNL d   1      -3.221  -0.017   1.441  0.00  0.00     0.033 A 
ATOM      6  C6  UNL d   1      -2.212   0.784   0.896  0.00  0.00    -0.057 A 
ENDROOT
BRANCH   1   7
ATOM      7  N   UNL d   1      -1.457   2.646  -0.426  0.00  0.00    -0.732 N 
ATOM      8  C   UNL d   1      -0.084   2.338  -0.091  0.00  0.00     0.284 C 
ATOM      9  H3  UNL d   1      -1.617   2.808  -1.418  0.00  0.00     0.395 HD
ENDBRANCH   1   7
TORSDOF 1
ENDMDL
