MODEL 1
REMARK minimizedAffinity -0.170126751
REMARK minimizedRMSD -1
REMARK  1 active torsions:
REMARK  status: ('A' for Active; 'I' for Inactive)
REMARK    1  A    between atoms: N_2  and  C1_3 
ROOT
ATOM      1  C1  UNL d   1      -2.659   1.697  -0.063  0.00  0.00     0.143 A 
ATOM      2  C2  UNL d   1      -2.616   0.428   0.524  0.00  0.00    -0.057 A 
ATOM      3  C3  UNL d   1      -1.417  -0.106   1.011  0.00  0.00     0.033 A 
ATOM      4  C4  UNL d   1      -0.231   0.611   0.893  0.00  0.00    -0.042 A 
ATOM      5  C5  UNL d   1      -0.245   1.864   0.291  0.00  0.00     0.033 A 
ATOM      6  C6  UNL d   1      -1.447   2.395  -0.188  0.00  0.00    -0.057 A 
ENDROOT
BRANCH   1   7
ATOM      7  N   UNL d   1      -3.801   2.242  -0.656  0.00  0.00    -0.732 N 
ATOM      8  C   UNL d   1      -3.813   2.577  -2.064  0.00  0.00     0.284 C 
ATOM      9  H3  UNL d   1      -4.657   1.802  -0.326  0.00  0.00     0.395 HD
ENDBRANCH   1   7
TORSDOF 1
ENDMDL
