MODEL 1
REMARK minimizedAffinity -0.866129696
REMARK minimizedRMSD -1
REMARK  1 active torsions:
REMARK  status: ('A' for Active; 'I' for Inactive)
REMARK    1  A    between atoms: N_2  and  C1_3 
ROOT
ATOM      1  C1  UNL d   1      -1.521   1.291   0.467  0.00  0.00     0.143 A 
ATOM      2  C2  UNL d   1      -2.801   1.835   0.317  0.00  0.00    -0.057 A 
ATOM      3  C3  UNL d   1      -3.936   1.160   0.782  0.00  0.00     0.033 A 
ATOM      4  C4  UNL d   1      -3.813  -0.089   1.382  0.00  0.00    -0.042 A 
ATOM      5  C5  UNL d   1      -2.553  -0.660   1.519  0.00  0.00     0.033 A 
ATOM      6  C6  UNL d   1      -1.422   0.021   1.059  0.00  0.00    -0.057 A 
ENDROOT
BRANCH   1   7
ATOM      7  N   UNL d   1      -0.363   1.867  -0.062  0.00  0.00    -0.732 N 
ATOM      8  C   UNL d   1       0.885   1.135  -0.074  0.00  0.00     0.284 C 
ATOM      9  H3  UNL d   1      -0.546   2.392  -0.914  0.00  0.00     0.395 HD
ENDBRANCH   1   7
TORSDOF 1
ENDMDL
