MODEL 1
REMARK minimizedAffinity 3.39938712
REMARK minimizedRMSD -1
REMARK  1 active torsions:
REMARK  status: ('A' for Active; 'I' for Inactive)
REMARK    1  A    between atoms: N_2  and  C1_3 
ROOT
ATOM      1  C1  UNL d   1      -1.153  -4.427  -2.570  0.00  0.00     0.143 A 
ATOM      2  C2  UNL d   1      -1.837  -3.230  -2.806  0.00  0.00    -0.057 A 
ATOM      3  C3  UNL d   1      -2.611  -2.628  -1.806  0.00  0.00     0.033 A 
ATOM      4  C4  UNL d   1      -2.738  -3.230  -0.559  0.00  0.00    -0.042 A 
ATOM      5  C5  UNL d   1      -2.087  -4.433  -0.311  0.00  0.00     0.033 A 
ATOM      6  C6  UNL d   1      -1.310  -5.026  -1.310  0.00  0.00    -0.057 A 
ENDROOT
BRANCH   1   7
ATOM      7  N   UNL d   1      -0.448  -5.126  -3.553  0.00  0.00    -0.732 N 
ATOM      8  C   UNL d   1       0.946  -5.465  -3.360  0.00  0.00     0.284 C 
ATOM      9  H3  UNL d   1      -1.001  -5.868  -3.975  0.00  0.00     0.395 HD
ENDBRANCH   1   7
TORSDOF 1
ENDMDL
