MODEL 1
REMARK minimizedAffinity -1.41902447
REMARK minimizedRMSD -1
REMARK  1 active torsions:
REMARK  status: ('A' for Active; 'I' for Inactive)
REMARK    1  A    between atoms: N_2  and  C1_3 
ROOT
ATOM      1  C1  UNL d   1      -1.707   1.798   0.009  0.00  0.00     0.143 A 
ATOM      2  C2  UNL d   1      -0.334   2.059   0.068  0.00  0.00    -0.057 A 
ATOM      3  C3  UNL d   1       0.547   1.177   0.707  0.00  0.00     0.033 A 
ATOM      4  C4  UNL d   1       0.063   0.030   1.327  0.00  0.00    -0.042 A 
ATOM      5  C5  UNL d   1      -1.301  -0.237   1.303  0.00  0.00     0.033 A 
ATOM      6  C6  UNL d   1      -2.174   0.643   0.657  0.00  0.00    -0.057 A 
ENDROOT
BRANCH   1   7
ATOM      7  N   UNL d   1      -2.645   2.684  -0.526  0.00  0.00    -0.732 N 
ATOM      8  C   UNL d   1      -4.048   2.561  -0.194  0.00  0.00     0.284 C 
ATOM      9  H3  UNL d   1      -2.305   3.643  -0.547  0.00  0.00     0.395 HD
ENDBRANCH   1   7
TORSDOF 1
ENDMDL
