MODEL 1
REMARK minimizedAffinity 7.73239088
REMARK minimizedRMSD -1
REMARK  1 active torsions:
REMARK  status: ('A' for Active; 'I' for Inactive)
REMARK    1  A    between atoms: N_2  and  C1_3 
ROOT
ATOM      1  C1  UNL d   1       1.674   0.914   0.268  0.00  0.00     0.143 A 
ATOM      2  C2  UNL d   1       2.194   1.211  -0.996  0.00  0.00    -0.057 A 
ATOM      3  C3  UNL d   1       3.255   0.474  -1.536  0.00  0.00     0.033 A 
ATOM      4  C4  UNL d   1       3.835  -0.558  -0.807  0.00  0.00    -0.042 A 
ATOM      5  C5  UNL d   1       3.351  -0.855   0.462  0.00  0.00     0.033 A 
ATOM      6  C6  UNL d   1       2.287  -0.120   0.993  0.00  0.00    -0.057 A 
ENDROOT
BRANCH   1   7
ATOM      7  N   UNL d   1       0.686   1.672   0.900  0.00  0.00    -0.732 N 
ATOM      8  C   UNL d   1      -0.580   1.927   0.246  0.00  0.00     0.284 C 
ATOM      9  H3  UNL d   1       0.605   1.456   1.891  0.00  0.00     0.395 HD
ENDBRANCH   1   7
TORSDOF 1
ENDMDL
