MODEL 1
REMARK minimizedAffinity -0.0724641159
REMARK minimizedRMSD -1
REMARK  1 active torsions:
REMARK  status: ('A' for Active; 'I' for Inactive)
REMARK    1  A    between atoms: N_2  and  C1_3 
ROOT
ATOM      1  C1  UNL d   1      -0.885   0.861   0.778  0.00  0.00     0.143 A 
ATOM      2  C2  UNL d   1      -2.129   0.226   0.689  0.00  0.00    -0.057 A 
ATOM      3  C3  UNL d   1      -3.283   0.935   0.334  0.00  0.00     0.033 A 
ATOM      4  C4  UNL d   1      -3.218   2.303   0.091  0.00  0.00    -0.042 A 
ATOM      5  C5  UNL d   1      -1.998   2.960   0.198  0.00  0.00     0.033 A 
ATOM      6  C6  UNL d   1      -0.848   2.245   0.545  0.00  0.00    -0.057 A 
ENDROOT
BRANCH   1   7
ATOM      7  N   UNL d   1       0.280   0.231   1.221  0.00  0.00    -0.732 N 
ATOM      8  C   UNL d   1       1.568   0.588   0.665  0.00  0.00     0.284 C 
ATOM      9  H3  UNL d   1       0.287   0.091   2.228  0.00  0.00     0.395 HD
ENDBRANCH   1   7
TORSDOF 1
ENDMDL
