MODEL 1
REMARK minimizedAffinity 2.32140851
REMARK minimizedRMSD -1
REMARK  1 active torsions:
REMARK  status: ('A' for Active; 'I' for Inactive)
REMARK    1  A    between atoms: N_2  and  C1_3 
ROOT
ATOM      1  C1  UNL d   1      -2.478   1.709   0.322  0.00  0.00     0.143 A 
ATOM      2  C2  UNL d   1      -1.619   2.640  -0.270  0.00  0.00    -0.057 A 
ATOM      3  C3  UNL d   1      -0.274   2.730   0.108  0.00  0.00     0.033 A 
ATOM      4  C4  UNL d   1       0.230   1.907   1.110  0.00  0.00    -0.042 A 
ATOM      5  C5  UNL d   1      -0.612   0.991   1.730  0.00  0.00     0.033 A 
ATOM      6  C6  UNL d   1      -1.953   0.901   1.343  0.00  0.00    -0.057 A 
ENDROOT
BRANCH   1   7
ATOM      7  N   UNL d   1      -3.848   1.637   0.059  0.00  0.00    -0.732 N 
ATOM      8  C   UNL d   1      -4.748   1.007   1.001  0.00  0.00     0.284 C 
ATOM      9  H3  UNL d   1      -4.210   2.495  -0.351  0.00  0.00     0.395 HD
ENDBRANCH   1   7
TORSDOF 1
ENDMDL
