MODEL 1
REMARK minimizedAffinity -0.745799243
REMARK minimizedRMSD -1
REMARK  1 active torsions:
REMARK  status: ('A' for Active; 'I' for Inactive)
REMARK    1  A    between atoms: N_2  and  C1_3 
ROOT
ATOM      1  C1  UNL d   1       0.184   2.453   1.886  0.00  0.00     0.143 A 
ATOM      2  C2  UNL d   1       1.538   2.128   1.746  0.00  0.00    -0.057 A 
ATOM      3  C3  UNL d   1       1.968   1.203   0.788  0.00  0.00     0.033 A 
ATOM      4  C4  UNL d   1       1.044   0.561  -0.031  0.00  0.00    -0.042 A 
ATOM      5  C5  UNL d   1      -0.309   0.850   0.107  0.00  0.00     0.033 A 
ATOM      6  C6  UNL d   1      -0.731   1.780   1.061  0.00  0.00    -0.057 A 
ENDROOT
BRANCH   1   7
ATOM      7  N   UNL d   1      -0.316   3.291   2.886  0.00  0.00    -0.732 N 
ATOM      8  C   UNL d   1      -1.737   3.353   3.153  0.00  0.00     0.284 C 
ATOM      9  H3  UNL d   1       0.265   3.288   3.721  0.00  0.00     0.395 HD
ENDBRANCH   1   7
TORSDOF 1
ENDMDL
