MODEL 1
REMARK minimizedAffinity -4.55675316
REMARK minimizedRMSD -1
REMARK  3 active torsions:
REMARK  status: ('A' for Active; 'I' for Inactive)
REMARK    1  A    between atoms: C3'_2  and  C2'_3 
REMARK    2  A    between atoms: C2'_3  and  C1'_4 
REMARK    3  A    between atoms: C1'_4  and  C1_5 
ROOT
ATOM      1  C1  N4B d   1       0.061   0.081   0.244  0.00  0.00    -0.075 A 
ATOM      2  C2  N4B d   1       1.116   0.015   1.181  0.00  0.00     0.002 A 
ATOM      3  C3  N4B d   1       2.097  -0.936   1.043  0.00  0.00     0.002 A 
ATOM      4  C4  N4B d   1       2.035  -1.839  -0.007  0.00  0.00    -0.004 A 
ATOM      5  C5  N4B d   1       1.026  -1.752  -0.922  0.00  0.00     0.002 A 
ATOM      6  C6  N4B d   1       0.035  -0.799  -0.798  0.00  0.00     0.002 A 
ENDROOT
BRANCH   1   7
ATOM      7  C1' N4B d   1      -1.081   1.048   0.401  0.00  0.00     0.057 C 
BRANCH   7   8
ATOM      8  C2' N4B d   1      -2.359   0.404  -0.129  0.00  0.00     0.009 C 
BRANCH   8   9
ATOM      9  C3' N4B d   1      -3.413   0.257   0.955  0.00  0.00     0.004 C 
ATOM     10  C4' N4B d   1      -3.464   1.437   1.879  0.00  0.00     0.003 C 
ENDBRANCH   8   9
ENDBRANCH   7   8
ENDBRANCH   1   7
TORSDOF 3
ENDMDL
