MODEL 1
REMARK minimizedAffinity -5.699512
REMARK minimizedRMSD -1
REMARK  3 active torsions:
REMARK  status: ('A' for Active; 'I' for Inactive)
REMARK    1  A    between atoms: C3'_2  and  C2'_3 
REMARK    2  A    between atoms: C2'_3  and  C1'_4 
REMARK    3  A    between atoms: C1'_4  and  C1_5 
ROOT
ATOM      1  C1  N4B d   1       0.187   0.151  -0.063  0.00  0.00    -0.075 A 
ATOM      2  C2  N4B d   1       1.404   0.409   0.606  0.00  0.00     0.002 A 
ATOM      3  C3  N4B d   1       2.360  -0.573   0.696  0.00  0.00     0.002 A 
ATOM      4  C4  N4B d   1       2.114  -1.821   0.143  0.00  0.00    -0.004 A 
ATOM      5  C5  N4B d   1       0.947  -2.054  -0.523  0.00  0.00     0.002 A 
ATOM      6  C6  N4B d   1      -0.021  -1.075  -0.625  0.00  0.00     0.002 A 
ENDROOT
BRANCH   1   7
ATOM      7  C1' N4B d   1      -0.922   1.166  -0.112  0.00  0.00     0.057 C 
BRANCH   7   8
ATOM      8  C2' N4B d   1      -2.264   0.441  -0.112  0.00  0.00     0.009 C 
BRANCH   8   9
ATOM      9  C3' N4B d   1      -3.230   1.034   0.899  0.00  0.00     0.004 C 
ATOM     10  C4' N4B d   1      -4.378   0.121   1.210  0.00  0.00     0.003 C 
ENDBRANCH   8   9
ENDBRANCH   7   8
ENDBRANCH   1   7
TORSDOF 3
ENDMDL
