MODEL 1
REMARK minimizedAffinity -3.78547668
REMARK minimizedRMSD -1
REMARK  3 active torsions:
REMARK  status: ('A' for Active; 'I' for Inactive)
REMARK    1  A    between atoms: C3'_2  and  C2'_3 
REMARK    2  A    between atoms: C2'_3  and  C1'_4 
REMARK    3  A    between atoms: C1'_4  and  C1_5 
ROOT
ATOM      1  C1  N4B d   1      -0.151   0.376  -0.340  0.00  0.00    -0.075 A 
ATOM      2  C2  N4B d   1       0.862   1.361  -0.343  0.00  0.00     0.002 A 
ATOM      3  C3  N4B d   1       2.178   0.991  -0.474  0.00  0.00     0.002 A 
ATOM      4  C4  N4B d   1       2.506  -0.352  -0.584  0.00  0.00    -0.004 A 
ATOM      5  C5  N4B d   1       1.520  -1.295  -0.605  0.00  0.00     0.002 A 
ATOM      6  C6  N4B d   1       0.192  -0.937  -0.479  0.00  0.00     0.002 A 
ENDROOT
BRANCH   1   7
ATOM      7  C1' N4B d   1      -1.597   0.725  -0.113  0.00  0.00     0.057 C 
BRANCH   7   8
ATOM      8  C2' N4B d   1      -1.865   0.799   1.387  0.00  0.00     0.009 C 
BRANCH   8   9
ATOM      9  C3' N4B d   1      -3.319   1.118   1.690  0.00  0.00     0.004 C 
ATOM     10  C4' N4B d   1      -4.188   1.080   0.468  0.00  0.00     0.003 C 
ENDBRANCH   8   9
ENDBRANCH   7   8
ENDBRANCH   1   7
TORSDOF 3
ENDMDL
