MODEL 1
REMARK minimizedAffinity -6.42163897
REMARK minimizedRMSD -1
REMARK  3 active torsions:
REMARK  status: ('A' for Active; 'I' for Inactive)
REMARK    1  A    between atoms: C3'_2  and  C2'_3 
REMARK    2  A    between atoms: C2'_3  and  C1'_4 
REMARK    3  A    between atoms: C1'_4  and  C1_5 
ROOT
ATOM      1  C1  N4B d   1       1.086   0.318   0.051  0.00  0.00    -0.075 A 
ATOM      2  C2  N4B d   1       2.270   0.843   0.614  0.00  0.00     0.002 A 
ATOM      3  C3  N4B d   1       3.277  -0.003   1.008  0.00  0.00     0.002 A 
ATOM      4  C4  N4B d   1       3.117  -1.373   0.868  0.00  0.00    -0.004 A 
ATOM      5  C5  N4B d   1       1.981  -1.871   0.300  0.00  0.00     0.002 A 
ATOM      6  C6  N4B d   1       0.962  -1.033  -0.105  0.00  0.00     0.002 A 
ENDROOT
BRANCH   1   7
ATOM      7  C1' N4B d   1      -0.078   1.197  -0.316  0.00  0.00     0.057 C 
BRANCH   7   8
ATOM      8  C2' N4B d   1      -1.377   0.484   0.044  0.00  0.00     0.009 C 
BRANCH   8   9
ATOM      9  C3' N4B d   1      -2.241   1.314   0.978  0.00  0.00     0.004 C 
ATOM     10  C4' N4B d   1      -3.689   0.925   0.930  0.00  0.00     0.003 C 
ENDBRANCH   8   9
ENDBRANCH   7   8
ENDBRANCH   1   7
TORSDOF 3
ENDMDL
