MODEL 1
REMARK minimizedAffinity -1.79687858
REMARK minimizedRMSD -1
REMARK  0 active torsions:
REMARK  status: ('A' for Active; 'I' for Inactive)
ROOT
ATOM      1  C   UNL d   1       0.104   0.590  -0.511  0.00  0.00     0.124 A 
ATOM      2  C1  UNL d   1       0.997   1.445   0.119  0.00  0.00     0.062 A 
ATOM      3  C2  UNL d   1       1.026   1.529   1.508  0.00  0.00     0.162 A 
ATOM      4  C3  UNL d   1       0.158   0.753   2.278  0.00  0.00    -0.034 A 
ATOM      5  C4  UNL d   1      -0.738  -0.104   1.637  0.00  0.00     0.162 A 
ATOM      6  C5  UNL d   1      -0.763  -0.184   0.248  0.00  0.00     0.062 A 
ATOM      7  F   UNL d   1      -1.626  -1.011  -0.359  0.00  0.00    -0.097 F 
ATOM      8  F1  UNL d   1      -1.586  -0.864   2.346  0.00  0.00    -0.096 F 
ATOM      9  I   UNL d   1       0.198   0.875   4.355  0.00  0.00    -0.060 I 
ATOM     10  F2  UNL d   1       1.900   2.364   2.090  0.00  0.00    -0.096 F 
ATOM     11  F3  UNL d   1       1.835   2.194  -0.612  0.00  0.00    -0.097 F 
ATOM     12  F4  UNL d   1       0.078   0.512  -1.848  0.00  0.00    -0.092 F 
ENDROOT
TORSDOF 0
ENDMDL
