MODEL 1
REMARK minimizedAffinity -5.09456491
REMARK minimizedRMSD -1
REMARK  0 active torsions:
REMARK  status: ('A' for Active; 'I' for Inactive)
ROOT
ATOM      1  C   UNL d   1       1.778   2.158   1.263  0.00  0.00     0.124 A 
ATOM      2  C1  UNL d   1       0.523   1.683   1.616  0.00  0.00     0.062 A 
ATOM      3  C2  UNL d   1      -0.007   0.566   0.978  0.00  0.00     0.162 A 
ATOM      4  C3  UNL d   1       0.718  -0.085  -0.021  0.00  0.00    -0.034 A 
ATOM      5  C4  UNL d   1       1.980   0.400  -0.371  0.00  0.00     0.162 A 
ATOM      6  C5  UNL d   1       2.505   1.517   0.271  0.00  0.00     0.062 A 
ATOM      7  F   UNL d   1       3.718   1.975  -0.072  0.00  0.00    -0.097 F 
ATOM      8  F1  UNL d   1       2.704  -0.202  -1.326  0.00  0.00    -0.096 F 
ATOM      9  I   UNL d   1      -0.071  -1.756  -0.978  0.00  0.00    -0.060 I 
ATOM     10  F2  UNL d   1      -1.223   0.128   1.339  0.00  0.00    -0.096 F 
ATOM     11  F3  UNL d   1      -0.182   2.302   2.575  0.00  0.00    -0.097 F 
ATOM     12  F4  UNL d   1       2.286   3.234   1.879  0.00  0.00    -0.092 F 
ENDROOT
TORSDOF 0
ENDMDL
