MODEL 1
REMARK minimizedAffinity -1.88085365
REMARK minimizedRMSD -1
REMARK  0 active torsions:
REMARK  status: ('A' for Active; 'I' for Inactive)
ROOT
ATOM      1  C   UNL d   1       0.167   0.560   1.235  0.00  0.00     0.124 A 
ATOM      2  C1  UNL d   1      -0.564  -0.619   1.259  0.00  0.00     0.062 A 
ATOM      3  C2  UNL d   1      -1.070  -1.153   0.077  0.00  0.00     0.162 A 
ATOM      4  C3  UNL d   1      -0.845  -0.509  -1.139  0.00  0.00    -0.034 A 
ATOM      5  C4  UNL d   1      -0.109   0.678  -1.155  0.00  0.00     0.162 A 
ATOM      6  C5  UNL d   1       0.394   1.207   0.029  0.00  0.00     0.062 A 
ATOM      7  F   UNL d   1       1.100   2.347   0.004  0.00  0.00    -0.097 F 
ATOM      8  F1  UNL d   1       0.126   1.323  -2.307  0.00  0.00    -0.096 F 
ATOM      9  I   UNL d   1      -1.599  -1.304  -2.909  0.00  0.00    -0.060 I 
ATOM     10  F2  UNL d   1      -1.773  -2.294   0.130  0.00  0.00    -0.096 F 
ATOM     11  F3  UNL d   1      -0.786  -1.246   2.423  0.00  0.00    -0.097 F 
ATOM     12  F4  UNL d   1       0.651   1.072   2.374  0.00  0.00    -0.092 F 
ENDROOT
TORSDOF 0
ENDMDL
