MODEL 1
REMARK minimizedAffinity 3.24030685
REMARK minimizedRMSD -1
REMARK  0 active torsions:
REMARK  status: ('A' for Active; 'I' for Inactive)
ROOT
ATOM      1  C   UNL d   1       0.913   2.432   1.573  0.00  0.00     0.124 A 
ATOM      2  C1  UNL d   1       0.081   1.492   2.166  0.00  0.00     0.062 A 
ATOM      3  C2  UNL d   1      -0.371   0.397   1.436  0.00  0.00     0.162 A 
ATOM      4  C3  UNL d   1       0.009   0.235   0.103  0.00  0.00    -0.034 A 
ATOM      5  C4  UNL d   1       0.845   1.184  -0.487  0.00  0.00     0.162 A 
ATOM      6  C5  UNL d   1       1.294   2.277   0.247  0.00  0.00     0.062 A 
ATOM      7  F   UNL d   1       2.097   3.184  -0.327  0.00  0.00    -0.097 F 
ATOM      8  F1  UNL d   1       1.229   1.059  -1.766  0.00  0.00    -0.096 F 
ATOM      9  I   UNL d   1      -0.664  -1.402  -0.992  0.00  0.00    -0.060 I 
ATOM     10  F2  UNL d   1      -1.174  -0.495   2.034  0.00  0.00    -0.096 F 
ATOM     11  F3  UNL d   1      -0.289   1.640   3.446  0.00  0.00    -0.097 F 
ATOM     12  F4  UNL d   1       1.345   3.486   2.278  0.00  0.00    -0.092 F 
ENDROOT
TORSDOF 0
ENDMDL
