MODEL 1
REMARK minimizedAffinity 1.80391681
REMARK minimizedRMSD -1
REMARK  0 active torsions:
REMARK  status: ('A' for Active; 'I' for Inactive)
ROOT
ATOM      1  C   UNL d   1      -3.402  -1.253  -3.302  0.00  0.00     0.124 A 
ATOM      2  C1  UNL d   1      -2.187  -0.656  -3.608  0.00  0.00     0.062 A 
ATOM      3  C2  UNL d   1      -1.096  -0.814  -2.759  0.00  0.00     0.162 A 
ATOM      4  C3  UNL d   1      -1.214  -1.573  -1.595  0.00  0.00    -0.034 A 
ATOM      5  C4  UNL d   1      -2.439  -2.169  -1.293  0.00  0.00     0.162 A 
ATOM      6  C5  UNL d   1      -3.527  -2.009  -2.145  0.00  0.00     0.062 A 
ATOM      7  F   UNL d   1      -4.700  -2.586  -1.847  0.00  0.00    -0.097 F 
ATOM      8  F1  UNL d   1      -2.588  -2.906  -0.181  0.00  0.00    -0.096 F 
ATOM      9  I   UNL d   1       0.416  -1.811  -0.322  0.00  0.00    -0.060 I 
ATOM     10  F2  UNL d   1       0.066  -0.226  -3.080  0.00  0.00    -0.096 F 
ATOM     11  F3  UNL d   1      -2.064   0.075  -4.725  0.00  0.00    -0.097 F 
ATOM     12  F4  UNL d   1      -4.451  -1.099  -4.120  0.00  0.00    -0.092 F 
ENDROOT
TORSDOF 0
ENDMDL
