MODEL 1
REMARK minimizedAffinity -0.669439197
REMARK minimizedRMSD -1
REMARK  0 active torsions:
REMARK  status: ('A' for Active; 'I' for Inactive)
ROOT
ATOM      1  C   UNL d   1       0.004   1.053   1.193  0.00  0.00     0.124 A 
ATOM      2  C1  UNL d   1       0.077   1.715  -0.025  0.00  0.00     0.062 A 
ATOM      3  C2  UNL d   1      -0.201   1.036  -1.208  0.00  0.00     0.162 A 
ATOM      4  C3  UNL d   1      -0.557  -0.312  -1.179  0.00  0.00    -0.034 A 
ATOM      5  C4  UNL d   1      -0.628  -0.971   0.050  0.00  0.00     0.162 A 
ATOM      6  C5  UNL d   1      -0.349  -0.288   1.229  0.00  0.00     0.062 A 
ATOM      7  F   UNL d   1      -0.421  -0.929   2.405  0.00  0.00    -0.097 F 
ATOM      8  F1  UNL d   1      -0.967  -2.267   0.114  0.00  0.00    -0.096 F 
ATOM      9  I   UNL d   1      -0.974  -1.330  -2.946  0.00  0.00    -0.060 I 
ATOM     10  F2  UNL d   1      -0.122   1.701  -2.371  0.00  0.00    -0.096 F 
ATOM     11  F3  UNL d   1       0.419   3.011  -0.063  0.00  0.00    -0.097 F 
ATOM     12  F4  UNL d   1       0.273   1.708   2.329  0.00  0.00    -0.092 F 
ENDROOT
TORSDOF 0
ENDMDL
