MODEL 1
REMARK minimizedAffinity -1.51846552
REMARK minimizedRMSD -1
REMARK  0 active torsions:
REMARK  status: ('A' for Active; 'I' for Inactive)
ROOT
ATOM      1  C   UNL d   1       1.726   1.369   1.287  0.00  0.00     0.124 A 
ATOM      2  C1  UNL d   1       2.341   0.527   0.370  0.00  0.00     0.062 A 
ATOM      3  C2  UNL d   1       1.574  -0.300  -0.444  0.00  0.00     0.162 A 
ATOM      4  C3  UNL d   1       0.182  -0.290  -0.347  0.00  0.00    -0.034 A 
ATOM      5  C4  UNL d   1      -0.429   0.559   0.578  0.00  0.00     0.162 A 
ATOM      6  C5  UNL d   1       0.342   1.384   1.390  0.00  0.00     0.062 A 
ATOM      7  F   UNL d   1      -0.254   2.197   2.275  0.00  0.00    -0.097 F 
ATOM      8  F1  UNL d   1      -1.765   0.594   0.697  0.00  0.00    -0.096 F 
ATOM      9  I   UNL d   1      -0.969  -1.525  -1.564  0.00  0.00    -0.060 I 
ATOM     10  F2  UNL d   1       2.194  -1.103  -1.321  0.00  0.00    -0.096 F 
ATOM     11  F3  UNL d   1       3.678   0.510   0.270  0.00  0.00    -0.097 F 
ATOM     12  F4  UNL d   1       2.467   2.163   2.070  0.00  0.00    -0.092 F 
ENDROOT
TORSDOF 0
ENDMDL
