MODEL 1
REMARK minimizedAffinity 1.18133652
REMARK minimizedRMSD -1
REMARK  0 active torsions:
REMARK  status: ('A' for Active; 'I' for Inactive)
ROOT
ATOM      1  C   UNL d   1      -4.026  -3.007  -3.131  0.00  0.00     0.124 A 
ATOM      2  C1  UNL d   1      -3.827  -3.224  -1.775  0.00  0.00     0.062 A 
ATOM      3  C2  UNL d   1      -2.585  -2.969  -1.200  0.00  0.00     0.162 A 
ATOM      4  C3  UNL d   1      -1.532  -2.492  -1.981  0.00  0.00    -0.034 A 
ATOM      5  C4  UNL d   1      -1.740  -2.277  -3.345  0.00  0.00     0.162 A 
ATOM      6  C5  UNL d   1      -2.983  -2.533  -3.915  0.00  0.00     0.062 A 
ATOM      7  F   UNL d   1      -3.173  -2.323  -5.225  0.00  0.00    -0.097 F 
ATOM      8  F1  UNL d   1      -0.750  -1.819  -4.125  0.00  0.00    -0.096 F 
ATOM      9  I   UNL d   1       0.326  -2.109  -1.125  0.00  0.00    -0.060 I 
ATOM     10  F2  UNL d   1      -2.421  -3.188   0.113  0.00  0.00    -0.096 F 
ATOM     11  F3  UNL d   1      -4.833  -3.683  -1.016  0.00  0.00    -0.097 F 
ATOM     12  F4  UNL d   1      -5.221  -3.254  -3.682  0.00  0.00    -0.092 F 
ENDROOT
TORSDOF 0
ENDMDL
