MODEL 1
REMARK minimizedAffinity 0.5913046
REMARK minimizedRMSD -1
REMARK  0 active torsions:
REMARK  status: ('A' for Active; 'I' for Inactive)
ROOT
ATOM      1  C   UNL d   1       1.105   2.333   1.684  0.00  0.00     0.124 A 
ATOM      2  C1  UNL d   1       1.343   2.148   0.329  0.00  0.00     0.062 A 
ATOM      3  C2  UNL d   1       0.825   1.035  -0.327  0.00  0.00     0.162 A 
ATOM      4  C3  UNL d   1       0.061   0.099   0.370  0.00  0.00    -0.034 A 
ATOM      5  C4  UNL d   1      -0.174   0.292   1.733  0.00  0.00     0.162 A 
ATOM      6  C5  UNL d   1       0.347   1.405   2.384  0.00  0.00     0.062 A 
ATOM      7  F   UNL d   1       0.115   1.583   3.693  0.00  0.00    -0.097 F 
ATOM      8  F1  UNL d   1      -0.904  -0.589   2.434  0.00  0.00    -0.096 F 
ATOM      9  I   UNL d   1      -0.715  -1.566  -0.607  0.00  0.00    -0.060 I 
ATOM     10  F2  UNL d   1       1.072   0.882  -1.637  0.00  0.00    -0.096 F 
ATOM     11  F3  UNL d   1       2.076   3.042  -0.349  0.00  0.00    -0.097 F 
ATOM     12  F4  UNL d   1       1.605   3.404   2.313  0.00  0.00    -0.092 F 
ENDROOT
TORSDOF 0
ENDMDL
