MODEL 1
REMARK minimizedAffinity 1.13961017
REMARK minimizedRMSD -1
REMARK  0 active torsions:
REMARK  status: ('A' for Active; 'I' for Inactive)
ROOT
ATOM      1  C   UNL d   1       1.189   1.009   1.147  0.00  0.00     0.124 A 
ATOM      2  C1  UNL d   1      -0.083   0.818   1.669  0.00  0.00     0.062 A 
ATOM      3  C2  UNL d   1      -0.984  -0.024   1.024  0.00  0.00     0.162 A 
ATOM      4  C3  UNL d   1      -0.617  -0.682  -0.150  0.00  0.00    -0.034 A 
ATOM      5  C4  UNL d   1       0.664  -0.484  -0.669  0.00  0.00     0.162 A 
ATOM      6  C5  UNL d   1       1.561   0.358  -0.020  0.00  0.00     0.062 A 
ATOM      7  F   UNL d   1       2.790   0.542  -0.526  0.00  0.00    -0.097 F 
ATOM      8  F1  UNL d   1       1.050  -1.101  -1.795  0.00  0.00    -0.096 F 
ATOM      9  I   UNL d   1      -1.962  -1.942  -1.117  0.00  0.00    -0.060 I 
ATOM     10  F2  UNL d   1      -2.207  -0.190   1.550  0.00  0.00    -0.096 F 
ATOM     11  F3  UNL d   1      -0.445   1.446   2.796  0.00  0.00    -0.097 F 
ATOM     12  F4  UNL d   1       2.054   1.821   1.769  0.00  0.00    -0.092 F 
ENDROOT
TORSDOF 0
ENDMDL
