MODEL 1
REMARK minimizedAffinity 0.694605172
REMARK minimizedRMSD -1
REMARK  0 active torsions:
REMARK  status: ('A' for Active; 'I' for Inactive)
ROOT
ATOM      1  C   UNL d   1       0.078   1.415   2.017  0.00  0.00     0.124 A 
ATOM      2  C1  UNL d   1      -0.768   0.364   1.692  0.00  0.00     0.062 A 
ATOM      3  C2  UNL d   1      -0.621  -0.304   0.480  0.00  0.00     0.162 A 
ATOM      4  C3  UNL d   1       0.378   0.076  -0.416  0.00  0.00    -0.034 A 
ATOM      5  C4  UNL d   1       1.225   1.135  -0.083  0.00  0.00     0.162 A 
ATOM      6  C5  UNL d   1       1.074   1.799   1.130  0.00  0.00     0.062 A 
ATOM      7  F   UNL d   1       1.892   2.814   1.442  0.00  0.00    -0.097 F 
ATOM      8  F1  UNL d   1       2.195   1.526  -0.921  0.00  0.00    -0.096 F 
ATOM      9  I   UNL d   1       0.601  -0.920  -2.230  0.00  0.00    -0.060 I 
ATOM     10  F2  UNL d   1      -1.453  -1.316   0.192  0.00  0.00    -0.096 F 
ATOM     11  F3  UNL d   1      -1.731  -0.008   2.548  0.00  0.00    -0.097 F 
ATOM     12  F4  UNL d   1      -0.066   2.057   3.184  0.00  0.00    -0.092 F 
ENDROOT
TORSDOF 0
ENDMDL
