MODEL 1
REMARK minimizedAffinity 1.32273495
REMARK minimizedRMSD -1
REMARK  0 active torsions:
REMARK  status: ('A' for Active; 'I' for Inactive)
ROOT
ATOM      1  C   UNL d   1      -3.676  -2.148  -2.494  0.00  0.00     0.124 A 
ATOM      2  C1  UNL d   1      -3.117  -2.624  -1.316  0.00  0.00     0.062 A 
ATOM      3  C2  UNL d   1      -1.849  -2.205  -0.924  0.00  0.00     0.162 A 
ATOM      4  C3  UNL d   1      -1.131  -1.304  -1.710  0.00  0.00    -0.034 A 
ATOM      5  C4  UNL d   1      -1.699  -0.831  -2.894  0.00  0.00     0.162 A 
ATOM      6  C5  UNL d   1      -2.967  -1.252  -3.281  0.00  0.00     0.062 A 
ATOM      7  F   UNL d   1      -3.506  -0.791  -4.420  0.00  0.00    -0.097 F 
ATOM      8  F1  UNL d   1      -1.037   0.037  -3.673  0.00  0.00    -0.096 F 
ATOM      9  I   UNL d   1       0.765  -0.676  -1.127  0.00  0.00    -0.060 I 
ATOM     10  F2  UNL d   1      -1.334  -2.682   0.219  0.00  0.00    -0.096 F 
ATOM     11  F3  UNL d   1      -3.800  -3.491  -0.554  0.00  0.00    -0.097 F 
ATOM     12  F4  UNL d   1      -4.896  -2.553  -2.869  0.00  0.00    -0.092 F 
ENDROOT
TORSDOF 0
ENDMDL
