MODEL 1
REMARK minimizedAffinity -2.39215231
REMARK minimizedRMSD -1
REMARK  0 active torsions:
REMARK  status: ('A' for Active; 'I' for Inactive)
ROOT
ATOM      1  C   UNL d   1       0.973   1.445   1.070  0.00  0.00     0.124 A 
ATOM      2  C1  UNL d   1      -0.355   1.435   1.475  0.00  0.00     0.062 A 
ATOM      3  C2  UNL d   1      -1.234   0.481   0.971  0.00  0.00     0.162 A 
ATOM      4  C3  UNL d   1      -0.788  -0.473   0.057  0.00  0.00    -0.034 A 
ATOM      5  C4  UNL d   1       0.549  -0.457  -0.347  0.00  0.00     0.162 A 
ATOM      6  C5  UNL d   1       1.423   0.499   0.160  0.00  0.00     0.062 A 
ATOM      7  F   UNL d   1       2.705   0.506  -0.233  0.00  0.00    -0.097 F 
ATOM      8  F1  UNL d   1       1.011  -1.360  -1.225  0.00  0.00    -0.096 F 
ATOM      9  I   UNL d   1      -2.099  -1.902  -0.699  0.00  0.00    -0.060 I 
ATOM     10  F2  UNL d   1      -2.511   0.496   1.380  0.00  0.00    -0.096 F 
ATOM     11  F3  UNL d   1      -0.792   2.349   2.354  0.00  0.00    -0.097 F 
ATOM     12  F4  UNL d   1       1.816   2.364   1.556  0.00  0.00    -0.092 F 
ENDROOT
TORSDOF 0
ENDMDL
