MODEL 1
REMARK minimizedAffinity 0.872974157
REMARK minimizedRMSD -1
REMARK  0 active torsions:
REMARK  status: ('A' for Active; 'I' for Inactive)
ROOT
ATOM      1  C   UNL d   1       1.707   0.048  -0.086  0.00  0.00     0.124 A 
ATOM      2  C1  UNL d   1       0.481   0.449   0.428  0.00  0.00     0.062 A 
ATOM      3  C2  UNL d   1      -0.701   0.017  -0.166  0.00  0.00     0.162 A 
ATOM      4  C3  UNL d   1      -0.664  -0.822  -1.280  0.00  0.00    -0.034 A 
ATOM      5  C4  UNL d   1       0.572  -1.219  -1.791  0.00  0.00     0.162 A 
ATOM      6  C5  UNL d   1       1.751  -0.785  -1.194  0.00  0.00     0.062 A 
ATOM      7  F   UNL d   1       2.935  -1.172  -1.692  0.00  0.00    -0.097 F 
ATOM      8  F1  UNL d   1       0.645  -2.025  -2.862  0.00  0.00    -0.096 F 
ATOM      9  I   UNL d   1      -2.430  -1.470  -2.171  0.00  0.00    -0.060 I 
ATOM     10  F2  UNL d   1      -1.872   0.419   0.352  0.00  0.00    -0.096 F 
ATOM     11  F3  UNL d   1       0.435   1.254   1.499  0.00  0.00    -0.097 F 
ATOM     12  F4  UNL d   1       2.843   0.466   0.487  0.00  0.00    -0.092 F 
ENDROOT
TORSDOF 0
ENDMDL
