MODEL 1
REMARK minimizedAffinity -1.01795447
REMARK minimizedRMSD -1
REMARK  0 active torsions:
REMARK  status: ('A' for Active; 'I' for Inactive)
ROOT
ATOM      1  C   UNL d   1      -3.860  -3.377  -2.381  0.00  0.00     0.124 A 
ATOM      2  C1  UNL d   1      -3.422  -3.244  -1.071  0.00  0.00     0.062 A 
ATOM      3  C2  UNL d   1      -2.294  -2.483  -0.784  0.00  0.00     0.162 A 
ATOM      4  C3  UNL d   1      -1.594  -1.846  -1.809  0.00  0.00    -0.034 A 
ATOM      5  C4  UNL d   1      -2.040  -1.986  -3.125  0.00  0.00     0.162 A 
ATOM      6  C5  UNL d   1      -3.169  -2.748  -3.407  0.00  0.00     0.062 A 
ATOM      7  F   UNL d   1      -3.590  -2.876  -4.673  0.00  0.00    -0.097 F 
ATOM      8  F1  UNL d   1      -1.391  -1.388  -4.135  0.00  0.00    -0.096 F 
ATOM      9  I   UNL d   1       0.094  -0.706  -1.384  0.00  0.00    -0.060 I 
ATOM     10  F2  UNL d   1      -1.894  -2.371   0.492  0.00  0.00    -0.096 F 
ATOM     11  F3  UNL d   1      -4.088  -3.852  -0.078  0.00  0.00    -0.097 F 
ATOM     12  F4  UNL d   1      -4.946  -4.112  -2.655  0.00  0.00    -0.092 F 
ENDROOT
TORSDOF 0
ENDMDL
