MODEL 1
REMARK minimizedAffinity -4.40962458
REMARK minimizedRMSD -1
REMARK  0 active torsions:
REMARK  status: ('A' for Active; 'I' for Inactive)
ROOT
ATOM      1  C   UNL d   1       3.009   1.270   0.307  0.00  0.00     0.124 A 
ATOM      2  C1  UNL d   1       2.244   2.260   0.909  0.00  0.00     0.062 A 
ATOM      3  C2  UNL d   1       0.905   2.025   1.207  0.00  0.00     0.162 A 
ATOM      4  C3  UNL d   1       0.322   0.795   0.905  0.00  0.00    -0.034 A 
ATOM      5  C4  UNL d   1       1.097  -0.195   0.299  0.00  0.00     0.162 A 
ATOM      6  C5  UNL d   1       2.435   0.044   0.002  0.00  0.00     0.062 A 
ATOM      7  F   UNL d   1       3.172  -0.913  -0.580  0.00  0.00    -0.097 F 
ATOM      8  F1  UNL d   1       0.568  -1.390  -0.005  0.00  0.00    -0.096 F 
ATOM      9  I   UNL d   1      -1.680   0.440   1.350  0.00  0.00    -0.060 I 
ATOM     10  F2  UNL d   1       0.190   3.000   1.789  0.00  0.00    -0.096 F 
ATOM     11  F3  UNL d   1       2.796   3.446   1.203  0.00  0.00    -0.097 F 
ATOM     12  F4  UNL d   1       4.297   1.499   0.020  0.00  0.00    -0.092 F 
ENDROOT
TORSDOF 0
ENDMDL
