MODEL 1
REMARK minimizedAffinity -2.39377832
REMARK minimizedRMSD -1
REMARK  0 active torsions:
REMARK  status: ('A' for Active; 'I' for Inactive)
ROOT
ATOM      1  C   UNL d   1       1.429   1.019   1.132  0.00  0.00     0.124 A 
ATOM      2  C1  UNL d   1       0.077   1.268   1.321  0.00  0.00     0.062 A 
ATOM      3  C2  UNL d   1      -0.876   0.489   0.671  0.00  0.00     0.162 A 
ATOM      4  C3  UNL d   1      -0.480  -0.548  -0.174  0.00  0.00    -0.034 A 
ATOM      5  C4  UNL d   1       0.882  -0.792  -0.360  0.00  0.00     0.162 A 
ATOM      6  C5  UNL d   1       1.830  -0.011   0.293  0.00  0.00     0.062 A 
ATOM      7  F   UNL d   1       3.137  -0.253   0.109  0.00  0.00    -0.097 F 
ATOM      8  F1  UNL d   1       1.298  -1.781  -1.165  0.00  0.00    -0.096 F 
ATOM      9  I   UNL d   1      -1.901  -1.715  -1.148  0.00  0.00    -0.060 I 
ATOM     10  F2  UNL d   1      -2.176   0.753   0.872  0.00  0.00    -0.096 F 
ATOM     11  F3  UNL d   1      -0.313   2.263   2.131  0.00  0.00    -0.097 F 
ATOM     12  F4  UNL d   1       2.344   1.770   1.758  0.00  0.00    -0.092 F 
ENDROOT
TORSDOF 0
ENDMDL
