MODEL 1
REMARK minimizedAffinity -0.279976189
REMARK minimizedRMSD -1
REMARK  3 active torsions:
REMARK  status: ('A' for Active; 'I' for Inactive)
REMARK    1  A    between atoms: C3'_2  and  C2'_3 
REMARK    2  A    between atoms: C2'_3  and  C1'_4 
REMARK    3  A    between atoms: C1'_4  and  C1_5 
ROOT
ATOM      1  C1  N4B d   1       2.512   1.530  -3.180  0.00  0.00    -0.075 A 
ATOM      2  C2  N4B d   1       1.188   1.896  -2.853  0.00  0.00     0.002 A 
ATOM      3  C3  N4B d   1       0.437   1.092  -2.031  0.00  0.00     0.002 A 
ATOM      4  C4  N4B d   1       0.980  -0.087  -1.542  0.00  0.00    -0.004 A 
ATOM      5  C5  N4B d   1       2.268  -0.420  -1.842  0.00  0.00     0.002 A 
ATOM      6  C6  N4B d   1       3.036   0.380  -2.664  0.00  0.00     0.002 A 
ENDROOT
BRANCH   1   7
ATOM      7  C1' N4B d   1       3.342   2.333  -4.144  0.00  0.00     0.057 C 
BRANCH   7   8
ATOM      8  C2' N4B d   1       2.957   1.957  -5.571  0.00  0.00     0.009 C 
BRANCH   8   9
ATOM      9  C3' N4B d   1       1.541   2.390  -5.910  0.00  0.00     0.004 C 
ATOM     10  C4' N4B d   1       0.586   1.237  -6.000  0.00  0.00     0.003 C 
ENDBRANCH   8   9
ENDBRANCH   7   8
ENDBRANCH   1   7
TORSDOF 3
ENDMDL
