MODEL 1
REMARK minimizedAffinity 6.51797724
REMARK minimizedRMSD -1
REMARK  3 active torsions:
REMARK  status: ('A' for Active; 'I' for Inactive)
REMARK    1  A    between atoms: C3'_2  and  C2'_3 
REMARK    2  A    between atoms: C2'_3  and  C1'_4 
REMARK    3  A    between atoms: C1'_4  and  C1_5 
ROOT
ATOM      1  C1  N4B d   1       5.756   5.242   3.503  0.00  0.00    -0.075 A 
ATOM      2  C2  N4B d   1       5.892   3.841   3.622  0.00  0.00     0.002 A 
ATOM      3  C3  N4B d   1       5.889   3.255   4.864  0.00  0.00     0.002 A 
ATOM      4  C4  N4B d   1       5.771   4.047   5.997  0.00  0.00    -0.004 A 
ATOM      5  C5  N4B d   1       5.615   5.397   5.871  0.00  0.00     0.002 A 
ATOM      6  C6  N4B d   1       5.612   5.999   4.629  0.00  0.00     0.002 A 
ENDROOT
BRANCH   1   7
ATOM      7  C1' N4B d   1       5.840   5.937   2.171  0.00  0.00     0.057 C 
BRANCH   7   8
ATOM      8  C2' N4B d   1       5.917   4.890   1.064  0.00  0.00     0.009 C 
BRANCH   8   9
ATOM      9  C3' N4B d   1       4.646   4.847   0.233  0.00  0.00     0.004 C 
ATOM     10  C4' N4B d   1       3.616   5.833   0.697  0.00  0.00     0.003 C 
ENDBRANCH   8   9
ENDBRANCH   7   8
ENDBRANCH   1   7
TORSDOF 3
ENDMDL
