MODEL 1
REMARK minimizedAffinity -0.684388518
REMARK minimizedRMSD -1
REMARK  3 active torsions:
REMARK  status: ('A' for Active; 'I' for Inactive)
REMARK    1  A    between atoms: C3'_2  and  C2'_3 
REMARK    2  A    between atoms: C2'_3  and  C1'_4 
REMARK    3  A    between atoms: C1'_4  and  C1_5 
ROOT
ATOM      1  C1  N4B d   1       1.568   1.408  -3.269  0.00  0.00    -0.075 A 
ATOM      2  C2  N4B d   1       2.972   1.392  -3.429  0.00  0.00     0.002 A 
ATOM      3  C3  N4B d   1       3.729   0.465  -2.755  0.00  0.00     0.002 A 
ATOM      4  C4  N4B d   1       3.109  -0.440  -1.906  0.00  0.00    -0.004 A 
ATOM      5  C5  N4B d   1       1.751  -0.435  -1.777  0.00  0.00     0.002 A 
ATOM      6  C6  N4B d   1       0.977   0.489  -2.451  0.00  0.00     0.002 A 
ENDROOT
BRANCH   1   7
ATOM      7  C1' N4B d   1       0.707   2.457  -3.918  0.00  0.00     0.057 C 
BRANCH   7   8
ATOM      8  C2' N4B d   1       0.705   3.711  -3.049  0.00  0.00     0.009 C 
BRANCH   8   9
ATOM      9  C3' N4B d   1      -0.603   3.876  -2.293  0.00  0.00     0.004 C 
ATOM     10  C4' N4B d   1      -0.693   5.186  -1.568  0.00  0.00     0.003 C 
ENDBRANCH   8   9
ENDBRANCH   7   8
ENDBRANCH   1   7
TORSDOF 3
ENDMDL
