MODEL 1
REMARK minimizedAffinity 7.86748028
REMARK minimizedRMSD -1
REMARK  3 active torsions:
REMARK  status: ('A' for Active; 'I' for Inactive)
REMARK    1  A    between atoms: C3'_2  and  C2'_3 
REMARK    2  A    between atoms: C2'_3  and  C1'_4 
REMARK    3  A    between atoms: C1'_4  and  C1_5 
ROOT
ATOM      1  C1  N4B d   1       1.572   1.876  -3.662  0.00  0.00    -0.075 A 
ATOM      2  C2  N4B d   1       2.586   1.702  -2.694  0.00  0.00     0.002 A 
ATOM      3  C3  N4B d   1       3.907   1.767  -3.064  0.00  0.00     0.002 A 
ATOM      4  C4  N4B d   1       4.237   1.985  -4.393  0.00  0.00    -0.004 A 
ATOM      5  C5  N4B d   1       3.252   2.177  -5.318  0.00  0.00     0.002 A 
ATOM      6  C6  N4B d   1       1.920   2.118  -4.959  0.00  0.00     0.002 A 
ENDROOT
BRANCH   1   7
ATOM      7  C1' N4B d   1       0.115   1.728  -3.321  0.00  0.00     0.057 C 
BRANCH   7   8
ATOM      8  C2' N4B d   1      -0.040   0.669  -2.233  0.00  0.00     0.009 C 
BRANCH   8   9
ATOM      9  C3' N4B d   1      -1.287   0.894  -1.395  0.00  0.00     0.004 C 
ATOM     10  C4' N4B d   1      -1.867  -0.383  -0.863  0.00  0.00     0.003 C 
ENDBRANCH   8   9
ENDBRANCH   7   8
ENDBRANCH   1   7
TORSDOF 3
ENDMDL
