MODEL 1
REMARK minimizedAffinity 9.44014454
REMARK minimizedRMSD -1
REMARK  3 active torsions:
REMARK  status: ('A' for Active; 'I' for Inactive)
REMARK    1  A    between atoms: C3'_2  and  C2'_3 
REMARK    2  A    between atoms: C2'_3  and  C1'_4 
REMARK    3  A    between atoms: C1'_4  and  C1_5 
ROOT
ATOM      1  C1  N4B d   1      -3.154   3.675   3.952  0.00  0.00    -0.075 A 
ATOM      2  C2  N4B d   1      -2.614   4.858   3.400  0.00  0.00     0.002 A 
ATOM      3  C3  N4B d   1      -2.538   5.998   4.161  0.00  0.00     0.002 A 
ATOM      4  C4  N4B d   1      -3.010   5.985   5.465  0.00  0.00    -0.004 A 
ATOM      5  C5  N4B d   1      -3.506   4.832   5.999  0.00  0.00     0.002 A 
ATOM      6  C6  N4B d   1      -3.585   3.678   5.247  0.00  0.00     0.002 A 
ENDROOT
BRANCH   1   7
ATOM      7  C1' N4B d   1      -3.337   2.428   3.132  0.00  0.00     0.057 C 
BRANCH   7   8
ATOM      8  C2' N4B d   1      -2.427   1.331   3.678  0.00  0.00     0.009 C 
BRANCH   8   9
ATOM      9  C3' N4B d   1      -2.217   0.214   2.671  0.00  0.00     0.004 C 
ATOM     10  C4' N4B d   1      -2.905  -1.059   3.065  0.00  0.00     0.003 C 
ENDBRANCH   8   9
ENDBRANCH   7   8
ENDBRANCH   1   7
TORSDOF 3
ENDMDL
