MODEL 1
REMARK minimizedAffinity 4.18889809
REMARK minimizedRMSD -1
REMARK  3 active torsions:
REMARK  status: ('A' for Active; 'I' for Inactive)
REMARK    1  A    between atoms: C3'_2  and  C2'_3 
REMARK    2  A    between atoms: C2'_3  and  C1'_4 
REMARK    3  A    between atoms: C1'_4  and  C1_5 
ROOT
ATOM      1  C1  N4B d   1       2.122   0.860  -2.437  0.00  0.00    -0.075 A 
ATOM      2  C2  N4B d   1       0.775   0.477  -2.622  0.00  0.00     0.002 A 
ATOM      3  C3  N4B d   1       0.355  -0.770  -2.227  0.00  0.00     0.002 A 
ATOM      4  C4  N4B d   1       1.264  -1.653  -1.663  0.00  0.00    -0.004 A 
ATOM      5  C5  N4B d   1       2.557  -1.266  -1.465  0.00  0.00     0.002 A 
ATOM      6  C6  N4B d   1       2.992  -0.015  -1.854  0.00  0.00     0.002 A 
ENDROOT
BRANCH   1   7
ATOM      7  C1' N4B d   1       2.647   2.180  -2.932  0.00  0.00     0.057 C 
BRANCH   7   8
ATOM      8  C2' N4B d   1       3.608   1.934  -4.092  0.00  0.00     0.009 C 
BRANCH   8   9
ATOM      9  C3' N4B d   1       3.117   2.569  -5.381  0.00  0.00     0.004 C 
ATOM     10  C4' N4B d   1       1.961   1.832  -5.988  0.00  0.00     0.003 C 
ENDBRANCH   8   9
ENDBRANCH   7   8
ENDBRANCH   1   7
TORSDOF 3
ENDMDL
