MODEL 1
REMARK minimizedAffinity -0.994841814
REMARK minimizedRMSD -1
REMARK  3 active torsions:
REMARK  status: ('A' for Active; 'I' for Inactive)
REMARK    1  A    between atoms: C3'_2  and  C2'_3 
REMARK    2  A    between atoms: C2'_3  and  C1'_4 
REMARK    3  A    between atoms: C1'_4  and  C1_5 
ROOT
ATOM      1  C1  N4B d   1       1.212   1.634  -3.150  0.00  0.00    -0.075 A 
ATOM      2  C2  N4B d   1       2.521   1.819  -3.649  0.00  0.00     0.002 A 
ATOM      3  C3  N4B d   1       3.568   1.114  -3.108  0.00  0.00     0.002 A 
ATOM      4  C4  N4B d   1       3.335   0.236  -2.060  0.00  0.00    -0.004 A 
ATOM      5  C5  N4B d   1       2.065   0.044  -1.601  0.00  0.00     0.002 A 
ATOM      6  C6  N4B d   1       1.002   0.743  -2.138  0.00  0.00     0.002 A 
ENDROOT
BRANCH   1   7
ATOM      7  C1' N4B d   1       0.049   2.446  -3.651  0.00  0.00     0.057 C 
BRANCH   7   8
ATOM      8  C2' N4B d   1      -0.580   3.195  -2.480  0.00  0.00     0.009 C 
BRANCH   8   9
ATOM      9  C3' N4B d   1       0.227   4.421  -2.090  0.00  0.00     0.004 C 
ATOM     10  C4' N4B d   1      -0.603   5.472  -1.416  0.00  0.00     0.003 C 
ENDBRANCH   8   9
ENDBRANCH   7   8
ENDBRANCH   1   7
TORSDOF 3
ENDMDL
