MODEL 1
REMARK minimizedAffinity 0.765751719
REMARK minimizedRMSD -1
REMARK  3 active torsions:
REMARK  status: ('A' for Active; 'I' for Inactive)
REMARK    1  A    between atoms: C3'_2  and  C2'_3 
REMARK    2  A    between atoms: C2'_3  and  C1'_4 
REMARK    3  A    between atoms: C1'_4  and  C1_5 
ROOT
ATOM      1  C1  N4B d   1       2.561   1.845  -3.382  0.00  0.00    -0.075 A 
ATOM      2  C2  N4B d   1       3.899   1.399  -3.316  0.00  0.00     0.002 A 
ATOM      3  C3  N4B d   1       4.701   1.468  -4.429  0.00  0.00     0.002 A 
ATOM      4  C4  N4B d   1       4.183   1.960  -5.618  0.00  0.00    -0.004 A 
ATOM      5  C5  N4B d   1       2.897   2.413  -5.666  0.00  0.00     0.002 A 
ATOM      6  C6  N4B d   1       2.081   2.353  -4.554  0.00  0.00     0.002 A 
ENDROOT
BRANCH   1   7
ATOM      7  C1' N4B d   1       1.621   1.710  -2.215  0.00  0.00     0.057 C 
BRANCH   7   8
ATOM      8  C2' N4B d   1       0.279   1.182  -2.712  0.00  0.00     0.009 C 
BRANCH   8   9
ATOM      9  C3' N4B d   1      -0.178  -0.037  -1.929  0.00  0.00     0.004 C 
ATOM     10  C4' N4B d   1      -1.206   0.294  -0.888  0.00  0.00     0.003 C 
ENDBRANCH   8   9
ENDBRANCH   7   8
ENDBRANCH   1   7
TORSDOF 3
ENDMDL
