MODEL 1
REMARK minimizedAffinity 0.270360321
REMARK minimizedRMSD -1
REMARK  3 active torsions:
REMARK  status: ('A' for Active; 'I' for Inactive)
REMARK    1  A    between atoms: C3'_2  and  C2'_3 
REMARK    2  A    between atoms: C2'_3  and  C1'_4 
REMARK    3  A    between atoms: C1'_4  and  C1_5 
ROOT
ATOM      1  C1  N4B d   1       2.129   1.517  -3.583  0.00  0.00    -0.075 A 
ATOM      2  C2  N4B d   1       3.539   1.523  -3.658  0.00  0.00     0.002 A 
ATOM      3  C3  N4B d   1       4.161   1.754  -4.861  0.00  0.00     0.002 A 
ATOM      4  C4  N4B d   1       3.397   1.960  -6.000  0.00  0.00    -0.004 A 
ATOM      5  C5  N4B d   1       2.036   1.978  -5.914  0.00  0.00     0.002 A 
ATOM      6  C6  N4B d   1       1.397   1.752  -4.711  0.00  0.00     0.002 A 
ENDROOT
BRANCH   1   7
ATOM      7  C1' N4B d   1       1.403   1.185  -2.308  0.00  0.00     0.057 C 
BRANCH   7   8
ATOM      8  C2' N4B d   1       0.040   0.590  -2.648  0.00  0.00     0.009 C 
BRANCH   8   9
ATOM      9  C3' N4B d   1      -1.084   1.274  -1.888  0.00  0.00     0.004 C 
ATOM     10  C4' N4B d   1      -1.860   0.327  -1.022  0.00  0.00     0.003 C 
ENDBRANCH   8   9
ENDBRANCH   7   8
ENDBRANCH   1   7
TORSDOF 3
ENDMDL
