MODEL 1
REMARK minimizedAffinity 3.18089437
REMARK minimizedRMSD -1
REMARK  3 active torsions:
REMARK  status: ('A' for Active; 'I' for Inactive)
REMARK    1  A    between atoms: C3'_2  and  C2'_3 
REMARK    2  A    between atoms: C2'_3  and  C1'_4 
REMARK    3  A    between atoms: C1'_4  and  C1_5 
ROOT
ATOM      1  C1  N4B d   1       2.046   1.585  -2.600  0.00  0.00    -0.075 A 
ATOM      2  C2  N4B d   1       0.699   1.486  -3.015  0.00  0.00     0.002 A 
ATOM      3  C3  N4B d   1      -0.112   0.512  -2.487  0.00  0.00     0.002 A 
ATOM      4  C4  N4B d   1       0.404  -0.384  -1.562  0.00  0.00    -0.004 A 
ATOM      5  C5  N4B d   1       1.699  -0.266  -1.148  0.00  0.00     0.002 A 
ATOM      6  C6  N4B d   1       2.524   0.712  -1.667  0.00  0.00     0.002 A 
ENDROOT
BRANCH   1   7
ATOM      7  C1' N4B d   1       2.994   2.579  -3.212  0.00  0.00     0.057 C 
BRANCH   7   8
ATOM      8  C2' N4B d   1       4.069   1.830  -3.994  0.00  0.00     0.009 C 
BRANCH   8   9
ATOM      9  C3' N4B d   1       4.035   2.167  -5.474  0.00  0.00     0.004 C 
ATOM     10  C4' N4B d   1       2.640   2.341  -5.998  0.00  0.00     0.003 C 
ENDBRANCH   8   9
ENDBRANCH   7   8
ENDBRANCH   1   7
TORSDOF 3
ENDMDL
