MODEL 1
REMARK minimizedAffinity 6.29339647
REMARK minimizedRMSD -1
REMARK  3 active torsions:
REMARK  status: ('A' for Active; 'I' for Inactive)
REMARK    1  A    between atoms: C3'_2  and  C2'_3 
REMARK    2  A    between atoms: C2'_3  and  C1'_4 
REMARK    3  A    between atoms: C1'_4  and  C1_5 
ROOT
ATOM      1  C1  N4B d   1       4.939   5.301   1.621  0.00  0.00    -0.075 A 
ATOM      2  C2  N4B d   1       5.925   4.502   2.241  0.00  0.00     0.002 A 
ATOM      3  C3  N4B d   1       5.998   4.441   3.611  0.00  0.00     0.002 A 
ATOM      4  C4  N4B d   1       5.112   5.182   4.379  0.00  0.00    -0.004 A 
ATOM      5  C5  N4B d   1       4.147   5.931   3.772  0.00  0.00     0.002 A 
ATOM      6  C6  N4B d   1       4.059   5.999   2.396  0.00  0.00     0.002 A 
ENDROOT
BRANCH   1   7
ATOM      7  C1' N4B d   1       4.875   5.466   0.128  0.00  0.00     0.057 C 
BRANCH   7   8
ATOM      8  C2' N4B d   1       3.785   4.556  -0.430  0.00  0.00     0.009 C 
BRANCH   8   9
ATOM      9  C3' N4B d   1       4.030   4.203  -1.887  0.00  0.00     0.004 C 
ATOM     10  C4' N4B d   1       2.941   3.353  -2.470  0.00  0.00     0.003 C 
ENDBRANCH   8   9
ENDBRANCH   7   8
ENDBRANCH   1   7
TORSDOF 3
ENDMDL
