MODEL 1
REMARK minimizedAffinity -6.13972044
REMARK minimizedRMSD -1
REMARK  3 active torsions:
REMARK  status: ('A' for Active; 'I' for Inactive)
REMARK    1  A    between atoms: C3'_2  and  C2'_3 
REMARK    2  A    between atoms: C2'_3  and  C1'_4 
REMARK    3  A    between atoms: C1'_4  and  C1_5 
ROOT
ATOM      1  C1  N4B d   1       2.059   1.479  -3.254  0.00  0.00    -0.075 A 
ATOM      2  C2  N4B d   1       3.207   1.930  -3.941  0.00  0.00     0.002 A 
ATOM      3  C3  N4B d   1       3.122   2.272  -5.269  0.00  0.00     0.002 A 
ATOM      4  C4  N4B d   1       1.910   2.153  -5.931  0.00  0.00    -0.004 A 
ATOM      5  C5  N4B d   1       0.800   1.741  -5.254  0.00  0.00     0.002 A 
ATOM      6  C6  N4B d   1       0.869   1.398  -3.918  0.00  0.00     0.002 A 
ENDROOT
BRANCH   1   7
ATOM      7  C1' N4B d   1       2.121   1.012  -1.825  0.00  0.00     0.057 C 
BRANCH   7   8
ATOM      8  C2' N4B d   1       1.236  -0.220  -1.662  0.00  0.00     0.009 C 
BRANCH   8   9
ATOM      9  C3' N4B d   1       2.009  -1.509  -1.881  0.00  0.00     0.004 C 
ATOM     10  C4' N4B d   1       1.121  -2.669  -2.217  0.00  0.00     0.003 C 
ENDBRANCH   8   9
ENDBRANCH   7   8
ENDBRANCH   1   7
TORSDOF 3
ENDMDL
