MODEL 1
REMARK minimizedAffinity 3.94030356
REMARK minimizedRMSD -1
REMARK  3 active torsions:
REMARK  status: ('A' for Active; 'I' for Inactive)
REMARK    1  A    between atoms: C3'_2  and  C2'_3 
REMARK    2  A    between atoms: C2'_3  and  C1'_4 
REMARK    3  A    between atoms: C1'_4  and  C1_5 
ROOT
ATOM      1  C1  N4B d   1       2.281   1.590  -3.519  0.00  0.00    -0.075 A 
ATOM      2  C2  N4B d   1       2.953   2.061  -4.668  0.00  0.00     0.002 A 
ATOM      3  C3  N4B d   1       2.338   2.003  -5.895  0.00  0.00     0.002 A 
ATOM      4  C4  N4B d   1       1.065   1.463  -5.999  0.00  0.00    -0.004 A 
ATOM      5  C5  N4B d   1       0.413   1.033  -4.881  0.00  0.00     0.002 A 
ATOM      6  C6  N4B d   1       1.017   1.089  -3.641  0.00  0.00     0.002 A 
ENDROOT
BRANCH   1   7
ATOM      7  C1' N4B d   1       2.945   1.553  -2.169  0.00  0.00     0.057 C 
BRANCH   7   8
ATOM      8  C2' N4B d   1       2.639   0.219  -1.496  0.00  0.00     0.009 C 
BRANCH   8   9
ATOM      9  C3' N4B d   1       3.899  -0.585  -1.229  0.00  0.00     0.004 C 
ATOM     10  C4' N4B d   1       5.076  -0.102  -2.023  0.00  0.00     0.003 C 
ENDBRANCH   8   9
ENDBRANCH   7   8
ENDBRANCH   1   7
TORSDOF 3
ENDMDL
