MODEL 1
REMARK minimizedAffinity 5.21046877
REMARK minimizedRMSD -1
REMARK  3 active torsions:
REMARK  status: ('A' for Active; 'I' for Inactive)
REMARK    1  A    between atoms: C3'_2  and  C2'_3 
REMARK    2  A    between atoms: C2'_3  and  C1'_4 
REMARK    3  A    between atoms: C1'_4  and  C1_5 
ROOT
ATOM      1  C1  N4B d   1      -2.496   3.967   4.087  0.00  0.00    -0.075 A 
ATOM      2  C2  N4B d   1      -1.480   3.992   5.067  0.00  0.00     0.002 A 
ATOM      3  C3  N4B d   1      -1.450   5.000   6.000  0.00  0.00     0.002 A 
ATOM      4  C4  N4B d   1      -2.411   6.000   5.960  0.00  0.00    -0.004 A 
ATOM      5  C5  N4B d   1      -3.404   5.955   5.026  0.00  0.00     0.002 A 
ATOM      6  C6  N4B d   1      -3.448   4.945   4.085  0.00  0.00     0.002 A 
ENDROOT
BRANCH   1   7
ATOM      7  C1' N4B d   1      -2.520   2.934   2.994  0.00  0.00     0.057 C 
BRANCH   7   8
ATOM      8  C2' N4B d   1      -1.686   1.731   3.424  0.00  0.00     0.009 C 
BRANCH   8   9
ATOM      9  C3' N4B d   1      -2.152   0.448   2.757  0.00  0.00     0.004 C 
ATOM     10  C4' N4B d   1      -3.126  -0.323   3.598  0.00  0.00     0.003 C 
ENDBRANCH   8   9
ENDBRANCH   7   8
ENDBRANCH   1   7
TORSDOF 3
ENDMDL
