MODEL 1
REMARK minimizedAffinity 2.56049943
REMARK minimizedRMSD -1
REMARK  0 active torsions:
REMARK  status: ('A' for Active; 'I' for Inactive)
ROOT
ATOM      1  C   UNL d   1      -0.420   3.046   0.817  0.00  0.00     0.023 A 
ATOM      2  C1  UNL d   1       0.799   2.841   0.172  0.00  0.00     0.003 A 
ATOM      3  C2  UNL d   1       1.338   1.556   0.087  0.00  0.00     0.048 A 
ATOM      4  C3  UNL d   1       0.652   0.480   0.649  0.00  0.00     0.023 A 
ATOM      5  C4  UNL d   1      -0.569   0.680   1.295  0.00  0.00     0.048 A 
ATOM      6  C5  UNL d   1      -1.103   1.967   1.378  0.00  0.00     0.003 A 
ATOM      7  I   UNL d   1       1.452  -1.435   0.523  0.00  0.00    -0.146 I 
ENDROOT
TORSDOF 0
ENDMDL
