MODEL 1
REMARK minimizedAffinity 5.45760775
REMARK minimizedRMSD -1
REMARK  0 active torsions:
REMARK  status: ('A' for Active; 'I' for Inactive)
ROOT
ATOM      1  C   UNL d   1       2.165  -1.855  -2.479  0.00  0.00     0.023 A 
ATOM      2  C1  UNL d   1       1.569  -0.677  -2.930  0.00  0.00     0.003 A 
ATOM      3  C2  UNL d   1       1.511   0.441  -2.095  0.00  0.00     0.048 A 
ATOM      4  C3  UNL d   1       2.052   0.375  -0.811  0.00  0.00     0.023 A 
ATOM      5  C4  UNL d   1       2.650  -0.802  -0.357  0.00  0.00     0.048 A 
ATOM      6  C5  UNL d   1       2.705  -1.917  -1.195  0.00  0.00     0.003 A 
ATOM      7  I   UNL d   1       1.967   2.037   0.433  0.00  0.00    -0.146 I 
ENDROOT
TORSDOF 0
ENDMDL
