MODEL 1
REMARK minimizedAffinity 0.00894142501
REMARK minimizedRMSD -1
REMARK  0 active torsions:
REMARK  status: ('A' for Active; 'I' for Inactive)
ROOT
ATOM      1  C   UNL d   1       0.934   4.655   0.276  0.00  0.00     0.023 A 
ATOM      2  C1  UNL d   1      -0.234   3.903   0.152  0.00  0.00     0.003 A 
ATOM      3  C2  UNL d   1      -0.165   2.511   0.069  0.00  0.00     0.048 A 
ATOM      4  C3  UNL d   1       1.077   1.877   0.113  0.00  0.00     0.023 A 
ATOM      5  C4  UNL d   1       2.248   2.625   0.238  0.00  0.00     0.048 A 
ATOM      6  C5  UNL d   1       2.174   4.017   0.319  0.00  0.00     0.003 A 
ATOM      7  I   UNL d   1       1.183  -0.195  -0.009  0.00  0.00    -0.146 I 
ENDROOT
TORSDOF 0
ENDMDL
