MODEL 1
REMARK minimizedAffinity 4.49035072
REMARK minimizedRMSD -1
REMARK  0 active torsions:
REMARK  status: ('A' for Active; 'I' for Inactive)
ROOT
ATOM      1  C   UNL d   1       0.046   2.123   0.923  0.00  0.00     0.023 A 
ATOM      2  C1  UNL d   1      -0.620   0.957   1.301  0.00  0.00     0.003 A 
ATOM      3  C2  UNL d   1      -1.974   0.796   1.000  0.00  0.00     0.048 A 
ATOM      4  C3  UNL d   1      -2.656   1.805   0.320  0.00  0.00     0.023 A 
ATOM      5  C4  UNL d   1      -1.993   2.973  -0.061  0.00  0.00     0.048 A 
ATOM      6  C5  UNL d   1      -0.640   3.130   0.244  0.00  0.00     0.003 A 
ATOM      7  I   UNL d   1      -4.671   1.567  -0.130  0.00  0.00    -0.146 I 
ENDROOT
TORSDOF 0
ENDMDL
