MODEL 1
REMARK minimizedAffinity 3.10934734
REMARK minimizedRMSD -1
REMARK  0 active torsions:
REMARK  status: ('A' for Active; 'I' for Inactive)
ROOT
ATOM      1  C   UNL d   1       0.192   3.404   0.835  0.00  0.00     0.023 A 
ATOM      2  C1  UNL d   1       0.524   2.236   0.148  0.00  0.00     0.003 A 
ATOM      3  C2  UNL d   1       0.220   0.990   0.700  0.00  0.00     0.048 A 
ATOM      4  C3  UNL d   1      -0.416   0.919   1.939  0.00  0.00     0.023 A 
ATOM      5  C4  UNL d   1      -0.751   2.085   2.629  0.00  0.00     0.048 A 
ATOM      6  C5  UNL d   1      -0.445   3.329   2.074  0.00  0.00     0.003 A 
ATOM      7  I   UNL d   1      -0.869  -0.935   2.763  0.00  0.00    -0.146 I 
ENDROOT
TORSDOF 0
ENDMDL
