MODEL 1
REMARK minimizedAffinity 7.02301407
REMARK minimizedRMSD -1
REMARK  0 active torsions:
REMARK  status: ('A' for Active; 'I' for Inactive)
ROOT
ATOM      1  C   UNL d   1       0.963  -0.842  -2.552  0.00  0.00     0.023 A 
ATOM      2  C1  UNL d   1       1.254   0.494  -2.829  0.00  0.00     0.003 A 
ATOM      3  C2  UNL d   1       1.764   1.322  -1.827  0.00  0.00     0.048 A 
ATOM      4  C3  UNL d   1       1.981   0.807  -0.549  0.00  0.00     0.023 A 
ATOM      5  C4  UNL d   1       1.691  -0.529  -0.267  0.00  0.00     0.048 A 
ATOM      6  C5  UNL d   1       1.181  -1.353  -1.273  0.00  0.00     0.003 A 
ATOM      7  I   UNL d   1       2.739   2.037   0.945  0.00  0.00    -0.146 I 
ENDROOT
TORSDOF 0
ENDMDL
