MODEL 1
REMARK minimizedAffinity 10.0576286
REMARK minimizedRMSD -1
REMARK  0 active torsions:
REMARK  status: ('A' for Active; 'I' for Inactive)
ROOT
ATOM      1  C   UNL d   1      -5.435   1.037   1.753  0.00  0.00     0.023 A 
ATOM      2  C1  UNL d   1      -4.161   0.475   1.664  0.00  0.00     0.003 A 
ATOM      3  C2  UNL d   1      -3.157   1.128   0.945  0.00  0.00     0.048 A 
ATOM      4  C3  UNL d   1      -3.434   2.342   0.318  0.00  0.00     0.023 A 
ATOM      5  C4  UNL d   1      -4.707   2.908   0.405  0.00  0.00     0.048 A 
ATOM      6  C5  UNL d   1      -5.708   2.252   1.124  0.00  0.00     0.003 A 
ATOM      7  I   UNL d   1      -1.942   3.315  -0.752  0.00  0.00    -0.146 I 
ENDROOT
TORSDOF 0
ENDMDL
