MODEL 1
REMARK minimizedAffinity 3.68929768
REMARK minimizedRMSD -1
REMARK  0 active torsions:
REMARK  status: ('A' for Active; 'I' for Inactive)
ROOT
ATOM      1  C   UNL d   1      -4.860   1.052   1.813  0.00  0.00     0.023 A 
ATOM      2  C1  UNL d   1      -5.184   2.207   1.099  0.00  0.00     0.003 A 
ATOM      3  C2  UNL d   1      -4.196   2.885   0.382  0.00  0.00     0.048 A 
ATOM      4  C3  UNL d   1      -2.888   2.403   0.382  0.00  0.00     0.023 A 
ATOM      5  C4  UNL d   1      -2.560   1.248   1.094  0.00  0.00     0.048 A 
ATOM      6  C5  UNL d   1      -3.550   0.574   1.810  0.00  0.00     0.003 A 
ATOM      7  I   UNL d   1      -1.417   3.411  -0.686  0.00  0.00    -0.146 I 
ENDROOT
TORSDOF 0
ENDMDL
