MODEL 1
REMARK minimizedAffinity 1.52727103
REMARK minimizedRMSD -1
REMARK  0 active torsions:
REMARK  status: ('A' for Active; 'I' for Inactive)
ROOT
ATOM      1  C   UNL d   1      -2.629   1.544   0.475  0.00  0.00     0.023 A 
ATOM      2  C1  UNL d   1      -2.037   2.613  -0.197  0.00  0.00     0.003 A 
ATOM      3  C2  UNL d   1      -0.657   2.809  -0.120  0.00  0.00     0.048 A 
ATOM      4  C3  UNL d   1       0.126   1.932   0.629  0.00  0.00     0.023 A 
ATOM      5  C4  UNL d   1      -0.462   0.860   1.303  0.00  0.00     0.048 A 
ATOM      6  C5  UNL d   1      -1.843   0.668   1.224  0.00  0.00     0.003 A 
ATOM      7  I   UNL d   1       2.181   2.221   0.744  0.00  0.00    -0.146 I 
ENDROOT
TORSDOF 0
ENDMDL
