MODEL 1
REMARK minimizedAffinity 1.30376124
REMARK minimizedRMSD -1
REMARK  0 active torsions:
REMARK  status: ('A' for Active; 'I' for Inactive)
ROOT
ATOM      1  C   UNL d   1       3.617   2.285   0.179  0.00  0.00     0.023 A 
ATOM      2  C1  UNL d   1       2.918   1.271   0.834  0.00  0.00     0.003 A 
ATOM      3  C2  UNL d   1       1.537   1.377   1.014  0.00  0.00     0.048 A 
ATOM      4  C3  UNL d   1       0.862   2.500   0.536  0.00  0.00     0.023 A 
ATOM      5  C4  UNL d   1       1.557   3.516  -0.120  0.00  0.00     0.048 A 
ATOM      6  C5  UNL d   1       2.938   3.406  -0.298  0.00  0.00     0.003 A 
ATOM      7  I   UNL d   1      -1.193   2.660   0.804  0.00  0.00    -0.146 I 
ENDROOT
TORSDOF 0
ENDMDL
