MODEL 1
REMARK minimizedAffinity 2.68190098
REMARK minimizedRMSD -1
REMARK  0 active torsions:
REMARK  status: ('A' for Active; 'I' for Inactive)
ROOT
ATOM      1  C   UNL d   1      -2.527   2.234  -0.013  0.00  0.00     0.023 A 
ATOM      2  C1  UNL d   1      -1.837   3.140  -0.819  0.00  0.00     0.003 A 
ATOM      3  C2  UNL d   1      -0.454   3.278  -0.691  0.00  0.00     0.048 A 
ATOM      4  C3  UNL d   1       0.234   2.506   0.245  0.00  0.00     0.023 A 
ATOM      5  C4  UNL d   1      -0.452   1.597   1.053  0.00  0.00     0.048 A 
ATOM      6  C5  UNL d   1      -1.835   1.464   0.921  0.00  0.00     0.003 A 
ATOM      7  I   UNL d   1       2.293   2.709   0.438  0.00  0.00    -0.146 I 
ENDROOT
TORSDOF 0
ENDMDL
