MODEL 1
REMARK minimizedAffinity 0.175683543
REMARK minimizedRMSD -1
REMARK  0 active torsions:
REMARK  status: ('A' for Active; 'I' for Inactive)
ROOT
ATOM      1  C   UNL d   1       3.791   3.196   1.539  0.00  0.00     0.023 A 
ATOM      2  C1  UNL d   1       4.465   1.980   1.427  0.00  0.00     0.003 A 
ATOM      3  C2  UNL d   1       3.838   0.885   0.829  0.00  0.00     0.048 A 
ATOM      4  C3  UNL d   1       2.537   1.013   0.343  0.00  0.00     0.023 A 
ATOM      5  C4  UNL d   1       1.859   2.229   0.452  0.00  0.00     0.048 A 
ATOM      6  C5  UNL d   1       2.489   3.320   1.052  0.00  0.00     0.003 A 
ATOM      7  I   UNL d   1       1.601  -0.615  -0.548  0.00  0.00    -0.146 I 
ENDROOT
TORSDOF 0
ENDMDL
