MODEL 1
REMARK minimizedAffinity 9.61421871
REMARK minimizedRMSD -1
REMARK  0 active torsions:
REMARK  status: ('A' for Active; 'I' for Inactive)
ROOT
ATOM      1  C   UNL d   1       1.805  -1.086  -2.627  0.00  0.00     0.023 A 
ATOM      2  C1  UNL d   1       2.291  -1.497  -1.386  0.00  0.00     0.003 A 
ATOM      3  C2  UNL d   1       2.508  -0.560  -0.374  0.00  0.00     0.048 A 
ATOM      4  C3  UNL d   1       2.236   0.787  -0.610  0.00  0.00     0.023 A 
ATOM      5  C4  UNL d   1       1.748   1.203  -1.849  0.00  0.00     0.048 A 
ATOM      6  C5  UNL d   1       1.533   0.263  -2.859  0.00  0.00     0.003 A 
ATOM      7  I   UNL d   1       2.558   2.184   0.895  0.00  0.00    -0.146 I 
ENDROOT
TORSDOF 0
ENDMDL
