MODEL 1
REMARK minimizedAffinity 2.67383885
REMARK minimizedRMSD -1
REMARK  0 active torsions:
REMARK  status: ('A' for Active; 'I' for Inactive)
ROOT
ATOM      1  C   UNL d   1      -0.889  -3.901   3.054  0.00  0.00     0.023 A 
ATOM      2  C1  UNL d   1      -1.955  -4.800   3.002  0.00  0.00     0.003 A 
ATOM      3  C2  UNL d   1      -2.471  -5.201   1.768  0.00  0.00     0.048 A 
ATOM      4  C3  UNL d   1      -1.917  -4.701   0.591  0.00  0.00     0.023 A 
ATOM      5  C4  UNL d   1      -0.850  -3.802   0.638  0.00  0.00     0.048 A 
ATOM      6  C5  UNL d   1      -0.338  -3.403   1.874  0.00  0.00     0.003 A 
ATOM      7  I   UNL d   1      -2.684  -5.298  -1.246  0.00  0.00    -0.146 I 
ENDROOT
TORSDOF 0
ENDMDL
