MODEL 1
REMARK minimizedAffinity 7.99470615
REMARK minimizedRMSD -1
REMARK  0 active torsions:
REMARK  status: ('A' for Active; 'I' for Inactive)
ROOT
ATOM      1  C   UNL d   1       1.812  -1.426  -1.999  0.00  0.00     0.023 A 
ATOM      2  C1  UNL d   1       1.618  -0.175  -2.585  0.00  0.00     0.003 A 
ATOM      3  C2  UNL d   1       1.605   0.975  -1.792  0.00  0.00     0.048 A 
ATOM      4  C3  UNL d   1       1.788   0.866  -0.414  0.00  0.00     0.023 A 
ATOM      5  C4  UNL d   1       1.983  -0.384   0.176  0.00  0.00     0.048 A 
ATOM      6  C5  UNL d   1       1.994  -1.530  -0.620  0.00  0.00     0.003 A 
ATOM      7  I   UNL d   1       1.770   2.575   0.768  0.00  0.00    -0.146 I 
ENDROOT
TORSDOF 0
ENDMDL
