MODEL 1
REMARK minimizedAffinity 3.70980477
REMARK minimizedRMSD -1
REMARK  0 active torsions:
REMARK  status: ('A' for Active; 'I' for Inactive)
ROOT
ATOM      1  C   UNL d   1      -0.815   3.616   0.970  0.00  0.00     0.023 A 
ATOM      2  C1  UNL d   1       0.117   3.745  -0.059  0.00  0.00     0.003 A 
ATOM      3  C2  UNL d   1       1.382   3.167   0.065  0.00  0.00     0.048 A 
ATOM      4  C3  UNL d   1       1.708   2.459   1.221  0.00  0.00     0.023 A 
ATOM      5  C4  UNL d   1       0.779   2.326   2.254  0.00  0.00     0.048 A 
ATOM      6  C5  UNL d   1      -0.484   2.907   2.126  0.00  0.00     0.003 A 
ATOM      7  I   UNL d   1       3.590   1.597   1.408  0.00  0.00    -0.146 I 
ENDROOT
TORSDOF 0
ENDMDL
