MODEL 1
REMARK minimizedAffinity 5.10293245
REMARK minimizedRMSD -1
REMARK  0 active torsions:
REMARK  status: ('A' for Active; 'I' for Inactive)
ROOT
ATOM      1  C   UNL d   1      -2.589   0.184   3.041  0.00  0.00     0.023 A 
ATOM      2  C1  UNL d   1      -3.728  -0.338   3.654  0.00  0.00     0.003 A 
ATOM      3  C2  UNL d   1      -4.494   0.463   4.504  0.00  0.00     0.048 A 
ATOM      4  C3  UNL d   1      -4.116   1.785   4.736  0.00  0.00     0.023 A 
ATOM      5  C4  UNL d   1      -2.978   2.312   4.124  0.00  0.00     0.048 A 
ATOM      6  C5  UNL d   1      -2.214   1.508   3.275  0.00  0.00     0.003 A 
ATOM      7  I   UNL d   1      -5.255   2.978   6.000  0.00  0.00    -0.146 I 
ENDROOT
TORSDOF 0
ENDMDL
