MODEL 1
REMARK minimizedAffinity 2.74461985
REMARK minimizedRMSD -1
REMARK  0 active torsions:
REMARK  status: ('A' for Active; 'I' for Inactive)
ROOT
ATOM      1  C   UNL d   1       1.608  -4.417  -1.924  0.00  0.00     0.023 A 
ATOM      2  C1  UNL d   1       0.807  -3.745  -1.000  0.00  0.00     0.003 A 
ATOM      3  C2  UNL d   1      -0.488  -4.198  -0.738  0.00  0.00     0.048 A 
ATOM      4  C3  UNL d   1      -0.975  -5.323  -1.402  0.00  0.00     0.023 A 
ATOM      5  C4  UNL d   1      -0.177  -5.998  -2.327  0.00  0.00     0.048 A 
ATOM      6  C5  UNL d   1       1.117  -5.542  -2.586  0.00  0.00     0.003 A 
ATOM      7  I   UNL d   1      -2.902  -5.998  -1.014  0.00  0.00    -0.146 I 
ENDROOT
TORSDOF 0
ENDMDL
