MODEL 1
REMARK minimizedAffinity 6.72151756
REMARK minimizedRMSD -1
REMARK  0 active torsions:
REMARK  status: ('A' for Active; 'I' for Inactive)
ROOT
ATOM      1  C   UNL d   1      -2.590   0.544   2.424  0.00  0.00     0.023 A 
ATOM      2  C1  UNL d   1      -3.674  -0.107   3.013  0.00  0.00     0.003 A 
ATOM      3  C2  UNL d   1      -4.443   0.548   3.978  0.00  0.00     0.048 A 
ATOM      4  C3  UNL d   1      -4.123   1.854   4.347  0.00  0.00     0.023 A 
ATOM      5  C4  UNL d   1      -3.040   2.510   3.760  0.00  0.00     0.048 A 
ATOM      6  C5  UNL d   1      -2.274   1.851   2.797  0.00  0.00     0.003 A 
ATOM      7  I   UNL d   1      -5.267   2.830   5.782  0.00  0.00    -0.146 I 
ENDROOT
TORSDOF 0
ENDMDL
