MODEL 1
REMARK minimizedAffinity 1.11592448
REMARK minimizedRMSD -1
REMARK  0 active torsions:
REMARK  status: ('A' for Active; 'I' for Inactive)
ROOT
ATOM      1  C   UNL d   1       0.165   0.574   1.342  0.00  0.00     0.023 A 
ATOM      2  C1  UNL d   1       0.151   1.900   1.773  0.00  0.00     0.003 A 
ATOM      3  C2  UNL d   1      -0.957   2.400   2.462  0.00  0.00     0.048 A 
ATOM      4  C3  UNL d   1      -2.045   1.567   2.718  0.00  0.00     0.023 A 
ATOM      5  C4  UNL d   1      -2.034   0.238   2.290  0.00  0.00     0.048 A 
ATOM      6  C5  UNL d   1      -0.926  -0.256   1.600  0.00  0.00     0.003 A 
ATOM      7  I   UNL d   1      -3.694   2.307   3.744  0.00  0.00    -0.146 I 
ENDROOT
TORSDOF 0
ENDMDL
