MODEL 1
REMARK minimizedAffinity 7.51508904
REMARK minimizedRMSD -1
REMARK  0 active torsions:
REMARK  status: ('A' for Active; 'I' for Inactive)
ROOT
ATOM      1  C   UNL d   1      -3.963   1.319   4.469  0.00  0.00     0.023 A 
ATOM      2  C1  UNL d   1      -4.743   1.958   3.505  0.00  0.00     0.003 A 
ATOM      3  C2  UNL d   1      -5.328   3.195   3.786  0.00  0.00     0.048 A 
ATOM      4  C3  UNL d   1      -5.128   3.787   5.032  0.00  0.00     0.023 A 
ATOM      5  C4  UNL d   1      -4.348   3.152   5.999  0.00  0.00     0.048 A 
ATOM      6  C5  UNL d   1      -3.766   1.915   5.715  0.00  0.00     0.003 A 
ATOM      7  I   UNL d   1      -5.997   5.628   5.452  0.00  0.00    -0.146 I 
ENDROOT
TORSDOF 0
ENDMDL
