MODEL 1
REMARK minimizedAffinity 2.49868727
REMARK minimizedRMSD -1
REMARK  0 active torsions:
REMARK  status: ('A' for Active; 'I' for Inactive)
ROOT
ATOM      1  C   UNL d   1      -1.479   1.068   2.373  0.00  0.00     0.023 A 
ATOM      2  C1  UNL d   1      -2.683   0.382   2.530  0.00  0.00     0.003 A 
ATOM      3  C2  UNL d   1      -3.636   0.841   3.441  0.00  0.00     0.048 A 
ATOM      4  C3  UNL d   1      -3.380   1.989   4.191  0.00  0.00     0.023 A 
ATOM      5  C4  UNL d   1      -2.177   2.680   4.036  0.00  0.00     0.048 A 
ATOM      6  C5  UNL d   1      -1.226   2.216   3.125  0.00  0.00     0.003 A 
ATOM      7  I   UNL d   1      -4.798   2.675   5.547  0.00  0.00    -0.146 I 
ENDROOT
TORSDOF 0
ENDMDL
