MODEL 1
REMARK minimizedAffinity -0.208770603
REMARK minimizedRMSD -1
REMARK  0 active torsions:
REMARK  status: ('A' for Active; 'I' for Inactive)
ROOT
ATOM      1  C   UNL d   1      -1.340   2.180   1.755  0.00  0.00     0.023 A 
ATOM      2  C1  UNL d   1      -2.657   2.619   1.616  0.00  0.00     0.003 A 
ATOM      3  C2  UNL d   1      -3.496   2.679   2.731  0.00  0.00     0.048 A 
ATOM      4  C3  UNL d   1      -3.011   2.298   3.982  0.00  0.00     0.023 A 
ATOM      5  C4  UNL d   1      -1.694   1.859   4.126  0.00  0.00     0.048 A 
ATOM      6  C5  UNL d   1      -0.859   1.800   3.008  0.00  0.00     0.003 A 
ATOM      7  I   UNL d   1      -4.257   2.387   5.643  0.00  0.00    -0.146 I 
ENDROOT
TORSDOF 0
ENDMDL
