MODEL 1
REMARK minimizedAffinity 6.33632088
REMARK minimizedRMSD -1
REMARK  0 active torsions:
REMARK  status: ('A' for Active; 'I' for Inactive)
ROOT
ATOM      1  C   UNL d   1      -4.621   1.225   4.533  0.00  0.00     0.023 A 
ATOM      2  C1  UNL d   1      -4.091   2.357   3.914  0.00  0.00     0.003 A 
ATOM      3  C2  UNL d   1      -4.482   3.631   4.333  0.00  0.00     0.048 A 
ATOM      4  C3  UNL d   1      -5.402   3.765   5.372  0.00  0.00     0.023 A 
ATOM      5  C4  UNL d   1      -5.934   2.634   5.995  0.00  0.00     0.048 A 
ATOM      6  C5  UNL d   1      -5.541   1.363   5.572  0.00  0.00     0.003 A 
ATOM      7  I   UNL d   1      -5.984   5.659   5.998  0.00  0.00    -0.146 I 
ENDROOT
TORSDOF 0
ENDMDL
