MODEL 1
REMARK minimizedAffinity 1.89453685
REMARK minimizedRMSD -1
REMARK  0 active torsions:
REMARK  status: ('A' for Active; 'I' for Inactive)
ROOT
ATOM      1  C   UNL d   1      -3.387  -3.487  -1.008  0.00  0.00     0.023 A 
ATOM      2  C1  UNL d   1      -2.445  -4.232  -0.298  0.00  0.00     0.003 A 
ATOM      3  C2  UNL d   1      -1.139  -4.348  -0.778  0.00  0.00     0.048 A 
ATOM      4  C3  UNL d   1      -0.781  -3.715  -1.968  0.00  0.00     0.023 A 
ATOM      5  C4  UNL d   1      -1.720  -2.968  -2.682  0.00  0.00     0.048 A 
ATOM      6  C5  UNL d   1      -3.025  -2.856  -2.198  0.00  0.00     0.003 A 
ATOM      7  I   UNL d   1       1.162  -3.886  -2.685  0.00  0.00    -0.146 I 
ENDROOT
TORSDOF 0
ENDMDL
