MODEL 1
REMARK minimizedAffinity 6.67490149
REMARK minimizedRMSD -1
REMARK  0 active torsions:
REMARK  status: ('A' for Active; 'I' for Inactive)
ROOT
ATOM      1  C   UNL d   1      -2.934  -0.997  -2.747  0.00  0.00     0.023 A 
ATOM      2  C1  UNL d   1      -3.337   0.007  -1.866  0.00  0.00     0.003 A 
ATOM      3  C2  UNL d   1      -4.167  -0.301  -0.786  0.00  0.00     0.048 A 
ATOM      4  C3  UNL d   1      -4.591  -1.616  -0.593  0.00  0.00     0.023 A 
ATOM      5  C4  UNL d   1      -4.190  -2.624  -1.472  0.00  0.00     0.048 A 
ATOM      6  C5  UNL d   1      -3.360  -2.310  -2.550  0.00  0.00     0.003 A 
ATOM      7  I   UNL d   1      -5.826  -2.077   1.013  0.00  0.00    -0.146 I 
ENDROOT
TORSDOF 0
ENDMDL
