MODEL 1
REMARK minimizedAffinity 4.460495
REMARK minimizedRMSD -1
REMARK  0 active torsions:
REMARK  status: ('A' for Active; 'I' for Inactive)
ROOT
ATOM      1  C   UNL d   1       2.530   2.259  -3.159  0.00  0.00     0.023 A 
ATOM      2  C1  UNL d   1       1.975   3.520  -3.380  0.00  0.00     0.003 A 
ATOM      3  C2  UNL d   1       2.634   4.442  -4.194  0.00  0.00     0.048 A 
ATOM      4  C3  UNL d   1       3.849   4.097  -4.786  0.00  0.00     0.023 A 
ATOM      5  C4  UNL d   1       4.408   2.837  -4.569  0.00  0.00     0.048 A 
ATOM      6  C5  UNL d   1       3.745   1.918  -3.753  0.00  0.00     0.003 A 
ATOM      7  I   UNL d   1       4.833   5.468  -6.000  0.00  0.00    -0.146 I 
ENDROOT
TORSDOF 0
ENDMDL
