MODEL 1
REMARK minimizedAffinity 9.00652885
REMARK minimizedRMSD -1
REMARK  0 active torsions:
REMARK  status: ('A' for Active; 'I' for Inactive)
ROOT
ATOM      1  C   UNL d   1      -2.350   1.161   2.493  0.00  0.00     0.023 A 
ATOM      2  C1  UNL d   1      -2.329   2.500   2.882  0.00  0.00     0.003 A 
ATOM      3  C2  UNL d   1      -3.187   2.951   3.887  0.00  0.00     0.048 A 
ATOM      4  C3  UNL d   1      -4.063   2.056   4.500  0.00  0.00     0.023 A 
ATOM      5  C4  UNL d   1      -4.087   0.714   4.115  0.00  0.00     0.048 A 
ATOM      6  C5  UNL d   1      -3.228   0.269   3.109  0.00  0.00     0.003 A 
ATOM      7  I   UNL d   1      -5.342   2.724   5.997  0.00  0.00    -0.146 I 
ENDROOT
TORSDOF 0
ENDMDL
