MODEL 1
REMARK minimizedAffinity 18.6094112
REMARK minimizedRMSD -1
REMARK  1 active torsions:
REMARK  status: ('A' for Active; 'I' for Inactive)
REMARK    1  A    between atoms: C1_2  and  C2_3 
ROOT
ATOM      1  C2  UNL d   1      -4.227   0.548   3.689  0.00  0.00    -0.077 A 
ATOM      2  C3  UNL d   1      -4.859   0.076   4.849  0.00  0.00     0.002 A 
ATOM      3  C4  UNL d   1      -4.910   0.869   5.997  0.00  0.00     0.002 A 
ATOM      4  C5  UNL d   1      -4.336   2.138   5.996  0.00  0.00    -0.004 A 
ATOM      5  C6  UNL d   1      -3.703   2.615   4.849  0.00  0.00     0.002 A 
ATOM      6  C7  UNL d   1      -3.650   1.824   3.700  0.00  0.00     0.002 A 
ENDROOT
BRANCH   1   7
ATOM      7  C1  UNL d   1      -4.214  -0.286   2.434  0.00  0.00     0.055 C 
ATOM      8  C   UNL d   1      -2.918  -1.073   2.306  0.00  0.00     0.019 C 
ENDBRANCH   1   7
TORSDOF 1
ENDMDL
