MODEL 1
REMARK minimizedAffinity 2.84082556
REMARK minimizedRMSD -1
REMARK  1 active torsions:
REMARK  status: ('A' for Active; 'I' for Inactive)
REMARK    1  A    between atoms: C1_2  and  C2_3 
ROOT
ATOM      1  C2  UNL d   1      -5.183   1.238   3.653  0.00  0.00    -0.077 A 
ATOM      2  C3  UNL d   1      -4.976   2.623   3.724  0.00  0.00     0.002 A 
ATOM      3  C4  UNL d   1      -5.281   3.323   4.893  0.00  0.00     0.002 A 
ATOM      4  C5  UNL d   1      -5.789   2.647   6.000  0.00  0.00    -0.004 A 
ATOM      5  C6  UNL d   1      -6.000   1.270   5.938  0.00  0.00     0.002 A 
ATOM      6  C7  UNL d   1      -5.697   0.569   4.770  0.00  0.00     0.002 A 
ENDROOT
BRANCH   1   7
ATOM      7  C1  UNL d   1      -4.809   0.474   2.410  0.00  0.00     0.055 C 
ATOM      8  C   UNL d   1      -3.361   0.009   2.460  0.00  0.00     0.019 C 
ENDBRANCH   1   7
TORSDOF 1
ENDMDL
