MODEL 1
REMARK minimizedAffinity 13.8486176
REMARK minimizedRMSD -1
REMARK  1 active torsions:
REMARK  status: ('A' for Active; 'I' for Inactive)
REMARK    1  A    between atoms: C1_2  and  C2_3 
ROOT
ATOM      1  C2  UNL d   1      -4.057   3.063   2.313  0.00  0.00    -0.077 A 
ATOM      2  C3  UNL d   1      -3.012   3.202   3.237  0.00  0.00     0.002 A 
ATOM      3  C4  UNL d   1      -2.657   2.137   4.068  0.00  0.00     0.002 A 
ATOM      4  C5  UNL d   1      -3.339   0.926   3.980  0.00  0.00    -0.004 A 
ATOM      5  C6  UNL d   1      -4.381   0.778   3.065  0.00  0.00     0.002 A 
ATOM      6  C7  UNL d   1      -4.737   1.841   2.235  0.00  0.00     0.002 A 
ENDROOT
BRANCH   1   7
ATOM      7  C1  UNL d   1      -4.408   4.193   1.382  0.00  0.00     0.055 C 
ATOM      8  C   UNL d   1      -3.242   4.541   0.468  0.00  0.00     0.019 C 
ENDBRANCH   1   7
TORSDOF 1
ENDMDL
