MODEL 1
REMARK minimizedAffinity 11.1162891
REMARK minimizedRMSD -1
REMARK  1 active torsions:
REMARK  status: ('A' for Active; 'I' for Inactive)
REMARK    1  A    between atoms: C1_2  and  C2_3 
ROOT
ATOM      1  C2  UNL d   1      -3.612  -5.295   1.415  0.00  0.00    -0.077 A 
ATOM      2  C3  UNL d   1      -3.445  -3.944   1.079  0.00  0.00     0.002 A 
ATOM      3  C4  UNL d   1      -2.217  -3.312   1.283  0.00  0.00     0.002 A 
ATOM      4  C5  UNL d   1      -1.146  -4.023   1.820  0.00  0.00    -0.004 A 
ATOM      5  C6  UNL d   1      -1.303  -5.366   2.160  0.00  0.00     0.002 A 
ATOM      6  C7  UNL d   1      -2.530  -6.000   1.957  0.00  0.00     0.002 A 
ENDROOT
BRANCH   1   7
ATOM      7  C1  UNL d   1      -4.921  -5.992   1.150  0.00  0.00     0.055 C 
ATOM      8  C   UNL d   1      -5.978  -5.589   2.167  0.00  0.00     0.019 C 
ENDBRANCH   1   7
TORSDOF 1
ENDMDL
