MODEL 1
REMARK minimizedAffinity 10.9176064
REMARK minimizedRMSD -1
REMARK  1 active torsions:
REMARK  status: ('A' for Active; 'I' for Inactive)
REMARK    1  A    between atoms: C1_2  and  C2_3 
ROOT
ATOM      1  C2  UNL d   1      -3.160  -4.654  -2.862  0.00  0.00    -0.077 A 
ATOM      2  C3  UNL d   1      -3.738  -5.876  -2.492  0.00  0.00     0.002 A 
ATOM      3  C4  UNL d   1      -5.125  -6.000  -2.392  0.00  0.00     0.002 A 
ATOM      4  C5  UNL d   1      -5.945  -4.907  -2.664  0.00  0.00    -0.004 A 
ATOM      5  C6  UNL d   1      -5.380  -3.686  -3.030  0.00  0.00     0.002 A 
ATOM      6  C7  UNL d   1      -3.993  -3.560  -3.130  0.00  0.00     0.002 A 
ENDROOT
BRANCH   1   7
ATOM      7  C1  UNL d   1      -1.667  -4.532  -3.019  0.00  0.00     0.055 C 
ATOM      8  C   UNL d   1      -1.145  -5.465  -4.101  0.00  0.00     0.019 C 
ENDBRANCH   1   7
TORSDOF 1
ENDMDL
