MODEL 1
REMARK minimizedAffinity 14.2539186
REMARK minimizedRMSD -1
REMARK  1 active torsions:
REMARK  status: ('A' for Active; 'I' for Inactive)
REMARK    1  A    between atoms: C1_2  and  C2_3 
ROOT
ATOM      1  C2  UNL d   1      -1.827  -4.456   1.890  0.00  0.00    -0.077 A 
ATOM      2  C3  UNL d   1      -1.415  -3.770   3.041  0.00  0.00     0.002 A 
ATOM      3  C4  UNL d   1      -1.014  -2.435   2.962  0.00  0.00     0.002 A 
ATOM      4  C5  UNL d   1      -1.025  -1.774   1.735  0.00  0.00    -0.004 A 
ATOM      5  C6  UNL d   1      -1.431  -2.448   0.584  0.00  0.00     0.002 A 
ATOM      6  C7  UNL d   1      -1.831  -3.783   0.661  0.00  0.00     0.002 A 
ENDROOT
BRANCH   1   7
ATOM      7  C1  UNL d   1      -2.306  -5.882   1.981  0.00  0.00     0.055 C 
ATOM      8  C   UNL d   1      -3.769  -6.000   1.579  0.00  0.00     0.019 C 
ENDBRANCH   1   7
TORSDOF 1
ENDMDL
