MODEL 1
REMARK minimizedAffinity 13.5068855
REMARK minimizedRMSD -1
REMARK  0 active torsions:
REMARK  status: ('A' for Active; 'I' for Inactive)
ROOT
ATOM      1  C1  DEN d   1      -5.991   2.201  -0.001  0.00  0.00     0.130 A 
ATOM      2  C2  DEN d   1      -4.970   1.164  -0.125  0.00  0.00    -0.031 A 
ATOM      3  C3  DEN d   1      -3.781   1.601   0.633  0.00  0.00     0.027 A 
ATOM      4  C4  DEN d   1      -3.425   3.770   1.983  0.00  0.00     0.027 A 
ATOM      5  C5  DEN d   1      -4.002   4.959   2.371  0.00  0.00    -0.003 A 
ATOM      6  C6  DEN d   1      -5.260   5.324   1.970  0.00  0.00     0.001 A 
ATOM      7  C7  DEN d   1      -6.000   4.471   1.194  0.00  0.00     0.017 A 
ATOM      8  C8  DEN d   1      -5.421   3.274   0.793  0.00  0.00    -0.094 A 
ATOM      9  C9  DEN d   1      -4.153   2.917   1.219  0.00  0.00    -0.072 A 
ENDROOT
TORSDOF 0
ENDMDL
