MODEL 1
REMARK minimizedAffinity 10.4193039
REMARK minimizedRMSD -1
REMARK  0 active torsions:
REMARK  status: ('A' for Active; 'I' for Inactive)
ROOT
ATOM      1  C1  DEN d   1       2.814  -0.780   4.113  0.00  0.00     0.130 A 
ATOM      2  C2  DEN d   1       2.087  -1.138   5.328  0.00  0.00    -0.031 A 
ATOM      3  C3  DEN d   1       2.827  -2.225   6.000  0.00  0.00     0.027 A 
ATOM      4  C4  DEN d   1       5.019  -3.380   5.283  0.00  0.00     0.027 A 
ATOM      5  C5  DEN d   1       5.999  -3.426   4.317  0.00  0.00    -0.003 A 
ATOM      6  C6  DEN d   1       5.969  -2.623   3.207  0.00  0.00     0.001 A 
ATOM      7  C7  DEN d   1       4.961  -1.708   3.058  0.00  0.00     0.017 A 
ATOM      8  C8  DEN d   1       3.964  -1.661   4.024  0.00  0.00    -0.094 A 
ATOM      9  C9  DEN d   1       4.019  -2.472   5.145  0.00  0.00    -0.072 A 
ENDROOT
TORSDOF 0
ENDMDL
