MODEL 1
REMARK minimizedAffinity 12.7365932
REMARK minimizedRMSD -1
REMARK  0 active torsions:
REMARK  status: ('A' for Active; 'I' for Inactive)
ROOT
ATOM      1  C1  DEN d   1       2.844  -3.784   0.020  0.00  0.00     0.130 A 
ATOM      2  C2  DEN d   1       3.249  -4.933   0.825  0.00  0.00    -0.031 A 
ATOM      3  C3  DEN d   1       2.242  -5.998   0.639  0.00  0.00     0.027 A 
ATOM      4  C4  DEN d   1       0.110  -5.978  -0.812  0.00  0.00     0.027 A 
ATOM      5  C5  DEN d   1      -0.660  -5.220  -1.666  0.00  0.00    -0.003 A 
ATOM      6  C6  DEN d   1      -0.336  -3.929  -1.989  0.00  0.00     0.001 A 
ATOM      7  C7  DEN d   1       0.811  -3.372  -1.489  0.00  0.00     0.017 A 
ATOM      8  C8  DEN d   1       1.588  -4.127  -0.621  0.00  0.00    -0.094 A 
ATOM      9  C9  DEN d   1       1.250  -5.435  -0.317  0.00  0.00    -0.072 A 
ENDROOT
TORSDOF 0
ENDMDL
