MODEL 1
REMARK minimizedAffinity 12.4547234
REMARK minimizedRMSD -1
REMARK  0 active torsions:
REMARK  status: ('A' for Active; 'I' for Inactive)
ROOT
ATOM      1  C1  DEN d   1       0.180   2.390   0.700  0.00  0.00     0.130 A 
ATOM      2  C2  DEN d   1      -0.608   3.287  -0.140  0.00  0.00    -0.031 A 
ATOM      3  C3  DEN d   1      -0.691   2.693  -1.490  0.00  0.00     0.027 A 
ATOM      4  C4  DEN d   1       0.315   0.481  -2.354  0.00  0.00     0.027 A 
ATOM      5  C5  DEN d   1       1.074  -0.616  -2.012  0.00  0.00    -0.003 A 
ATOM      6  C6  DEN d   1       1.612  -0.770  -0.762  0.00  0.00     0.001 A 
ATOM      7  C7  DEN d   1       1.361   0.166   0.206  0.00  0.00     0.017 A 
ATOM      8  C8  DEN d   1       0.603   1.279  -0.134  0.00  0.00    -0.094 A 
ATOM      9  C9  DEN d   1       0.057   1.411  -1.399  0.00  0.00    -0.072 A 
ENDROOT
TORSDOF 0
ENDMDL
