MODEL 1
REMARK minimizedAffinity 9.28076363
REMARK minimizedRMSD -1
REMARK  0 active torsions:
REMARK  status: ('A' for Active; 'I' for Inactive)
ROOT
ATOM      1  C1  DEN d   1      -3.576   1.264  -3.345  0.00  0.00     0.130 A 
ATOM      2  C2  DEN d   1      -4.784   0.486  -3.087  0.00  0.00    -0.031 A 
ATOM      3  C3  DEN d   1      -5.884   1.075  -3.877  0.00  0.00     0.027 A 
ATOM      4  C4  DEN d   1      -5.833   3.104  -5.468  0.00  0.00     0.027 A 
ATOM      5  C5  DEN d   1      -5.036   4.094  -6.000  0.00  0.00    -0.003 A 
ATOM      6  C6  DEN d   1      -3.716   4.230  -5.661  0.00  0.00     0.001 A 
ATOM      7  C7  DEN d   1      -3.141   3.333  -4.799  0.00  0.00     0.017 A 
ATOM      8  C8  DEN d   1      -3.940   2.337  -4.253  0.00  0.00    -0.094 A 
ATOM      9  C9  DEN d   1      -5.269   2.209  -4.618  0.00  0.00    -0.072 A 
ENDROOT
TORSDOF 0
ENDMDL
