MODEL 1
REMARK minimizedAffinity 14.3815346
REMARK minimizedRMSD -1
REMARK  0 active torsions:
REMARK  status: ('A' for Active; 'I' for Inactive)
ROOT
ATOM      1  C1  DEN d   1       2.534   4.867  -0.668  0.00  0.00     0.130 A 
ATOM      2  C2  DEN d   1       2.171   5.999  -1.516  0.00  0.00    -0.031 A 
ATOM      3  C3  DEN d   1       0.703   6.000  -1.673  0.00  0.00     0.027 A 
ATOM      4  C4  DEN d   1      -1.035   4.370  -0.686  0.00  0.00     0.027 A 
ATOM      5  C5  DEN d   1      -1.205   3.243   0.088  0.00  0.00    -0.003 A 
ATOM      6  C6  DEN d   1      -0.146   2.565   0.632  0.00  0.00     0.001 A 
ATOM      7  C7  DEN d   1       1.128   3.033   0.447  0.00  0.00     0.017 A 
ATOM      8  C8  DEN d   1       1.307   4.164  -0.339  0.00  0.00    -0.094 A 
ATOM      9  C9  DEN d   1       0.223   4.843  -0.870  0.00  0.00    -0.072 A 
ENDROOT
TORSDOF 0
ENDMDL
