MODEL 1
REMARK minimizedAffinity 15.6385317
REMARK minimizedRMSD -1
REMARK  0 active torsions:
REMARK  status: ('A' for Active; 'I' for Inactive)
ROOT
ATOM      1  C1  DEN d   1       0.442   6.000  -1.506  0.00  0.00     0.130 A 
ATOM      2  C2  DEN d   1       1.881   6.000  -1.256  0.00  0.00    -0.031 A 
ATOM      3  C3  DEN d   1       2.195   4.840  -0.398  0.00  0.00     0.027 A 
ATOM      4  C4  DEN d   1       0.602   3.050   0.558  0.00  0.00     0.027 A 
ATOM      5  C5  DEN d   1      -0.710   2.638   0.629  0.00  0.00    -0.003 A 
ATOM      6  C6  DEN d   1      -1.727   3.331   0.027  0.00  0.00     0.001 A 
ATOM      7  C7  DEN d   1      -1.441   4.449  -0.712  0.00  0.00     0.017 A 
ATOM      8  C8  DEN d   1      -0.122   4.875  -0.782  0.00  0.00    -0.094 A 
ATOM      9  C9  DEN d   1       0.893   4.154  -0.176  0.00  0.00    -0.072 A 
ENDROOT
TORSDOF 0
ENDMDL
