MODEL 1
REMARK minimizedAffinity 10.3670025
REMARK minimizedRMSD -1
REMARK  0 active torsions:
REMARK  status: ('A' for Active; 'I' for Inactive)
ROOT
ATOM      1  C1  DEN d   1      -0.177   5.993  -1.873  0.00  0.00     0.130 A 
ATOM      2  C2  DEN d   1       1.274   5.998  -1.710  0.00  0.00    -0.031 A 
ATOM      3  C3  DEN d   1       1.670   4.710  -1.105  0.00  0.00     0.027 A 
ATOM      4  C4  DEN d   1       0.185   2.718  -0.414  0.00  0.00     0.027 A 
ATOM      5  C5  DEN d   1      -1.110   2.252  -0.348  0.00  0.00    -0.003 A 
ATOM      6  C6  DEN d   1      -2.179   3.008  -0.751  0.00  0.00     0.001 A 
ATOM      7  C7  DEN d   1      -1.968   4.254  -1.280  0.00  0.00     0.017 A 
ATOM      8  C8  DEN d   1      -0.666   4.733  -1.343  0.00  0.00    -0.094 A 
ATOM      9  C9  DEN d   1       0.402   3.949  -0.943  0.00  0.00    -0.072 A 
ENDROOT
TORSDOF 0
ENDMDL
