MODEL 1
REMARK minimizedAffinity 3.01549792
REMARK minimizedRMSD -1
REMARK  0 active torsions:
REMARK  status: ('A' for Active; 'I' for Inactive)
ROOT
ATOM      1  C2' OXE d   1       2.227   2.273  -2.488  0.00  0.00     0.078 C 
ATOM      2  C1' OXE d   1       5.034   2.302  -2.474  0.00  0.00     0.078 C 
ATOM      3  C1  OXE d   1       4.317   3.227  -1.524  0.00  0.00    -0.078 A 
ATOM      4  C2  OXE d   1       2.943   3.240  -1.570  0.00  0.00    -0.078 A 
ATOM      5  C3  OXE d   1       2.231   4.035  -0.677  0.00  0.00     0.003 A 
ATOM      6  C4  OXE d   1       2.901   4.935   0.161  0.00  0.00    -0.002 A 
ATOM      7  C5  OXE d   1       4.299   4.966   0.196  0.00  0.00    -0.002 A 
ATOM      8  C6  OXE d   1       5.020   4.090  -0.608  0.00  0.00     0.003 A 
ENDROOT
TORSDOF 0
ENDMDL
