MODEL 1
REMARK minimizedAffinity -0.85501641
REMARK minimizedRMSD -1
REMARK  0 active torsions:
REMARK  status: ('A' for Active; 'I' for Inactive)
ROOT
ATOM      1  C2' OXE d   1       1.685   5.256  -5.999  0.00  0.00     0.078 C 
ATOM      2  C1' OXE d   1       1.160   2.499  -5.996  0.00  0.00     0.078 C 
ATOM      3  C1  OXE d   1      -0.019   3.439  -5.984  0.00  0.00    -0.078 A 
ATOM      4  C2  OXE d   1       0.247   4.787  -5.939  0.00  0.00    -0.078 A 
ATOM      5  C3  OXE d   1      -0.803   5.699  -5.981  0.00  0.00     0.003 A 
ATOM      6  C4  OXE d   1      -2.130   5.256  -5.914  0.00  0.00    -0.002 A 
ATOM      7  C5  OXE d   1      -2.423   3.888  -5.920  0.00  0.00    -0.002 A 
ATOM      8  C6  OXE d   1      -1.382   2.969  -5.998  0.00  0.00     0.003 A 
ENDROOT
TORSDOF 0
ENDMDL
