MODEL 1
REMARK minimizedAffinity -2.32382751
REMARK minimizedRMSD -1
REMARK  0 active torsions:
REMARK  status: ('A' for Active; 'I' for Inactive)
ROOT
ATOM      1  C2' OXE d   1      -4.116   3.382  -6.000  0.00  0.00     0.078 C 
ATOM      2  C1' OXE d   1      -3.015   5.965  -5.995  0.00  0.00     0.078 C 
ATOM      3  C1  OXE d   1      -2.064   4.794  -5.985  0.00  0.00    -0.078 A 
ATOM      4  C2  OXE d   1      -2.612   3.535  -5.940  0.00  0.00    -0.078 A 
ATOM      5  C3  OXE d   1      -1.780   2.420  -5.984  0.00  0.00     0.003 A 
ATOM      6  C4  OXE d   1      -0.389   2.569  -5.918  0.00  0.00    -0.002 A 
ATOM      7  C5  OXE d   1       0.189   3.843  -5.923  0.00  0.00    -0.002 A 
ATOM      8  C6  OXE d   1      -0.632   4.963  -5.999  0.00  0.00     0.003 A 
ENDROOT
TORSDOF 0
ENDMDL
