MODEL 1
REMARK minimizedAffinity 0.925337613
REMARK minimizedRMSD -1
REMARK  0 active torsions:
REMARK  status: ('A' for Active; 'I' for Inactive)
ROOT
ATOM      1  C2' OXE d   1       0.512   2.818  -5.953  0.00  0.00     0.078 C 
ATOM      2  C1' OXE d   1       0.840   5.605  -5.998  0.00  0.00     0.078 C 
ATOM      3  C1  OXE d   1      -0.567   5.063  -5.959  0.00  0.00    -0.078 A 
ATOM      4  C2  OXE d   1      -0.719   3.698  -5.984  0.00  0.00    -0.078 A 
ATOM      5  C3  OXE d   1      -1.993   3.144  -5.894  0.00  0.00     0.003 A 
ATOM      6  C4  OXE d   1      -3.127   3.965  -5.934  0.00  0.00    -0.002 A 
ATOM      7  C5  OXE d   1      -2.995   5.357  -5.948  0.00  0.00    -0.002 A 
ATOM      8  C6  OXE d   1      -1.725   5.922  -5.918  0.00  0.00     0.003 A 
ENDROOT
TORSDOF 0
ENDMDL
