MODEL 1
REMARK minimizedAffinity 3.05021572
REMARK minimizedRMSD -1
REMARK  0 active torsions:
REMARK  status: ('A' for Active; 'I' for Inactive)
ROOT
ATOM      1  C2' OXE d   1       0.753   3.935  -5.958  0.00  0.00     0.078 C 
ATOM      2  C1' OXE d   1       2.682   1.896  -5.999  0.00  0.00     0.078 C 
ATOM      3  C1  OXE d   1       3.168   3.324  -5.972  0.00  0.00    -0.078 A 
ATOM      4  C2  OXE d   1       2.217   4.316  -5.999  0.00  0.00    -0.078 A 
ATOM      5  C3  OXE d   1       2.610   5.649  -5.920  0.00  0.00     0.003 A 
ATOM      6  C4  OXE d   1       3.966   5.993  -5.969  0.00  0.00    -0.002 A 
ATOM      7  C5  OXE d   1       4.951   4.999  -5.981  0.00  0.00    -0.002 A 
ATOM      8  C6  OXE d   1       4.570   3.662  -5.940  0.00  0.00     0.003 A 
ENDROOT
TORSDOF 0
ENDMDL
