MODEL 1
REMARK minimizedAffinity 1.07156897
REMARK minimizedRMSD -1
REMARK  0 active torsions:
REMARK  status: ('A' for Active; 'I' for Inactive)
ROOT
ATOM      1  C2' OXE d   1       2.125   3.009  -5.929  0.00  0.00     0.078 C 
ATOM      2  C1' OXE d   1       2.128   5.815  -5.999  0.00  0.00     0.078 C 
ATOM      3  C1  OXE d   1       3.461   5.111  -5.968  0.00  0.00    -0.078 A 
ATOM      4  C2  OXE d   1       3.450   3.739  -5.886  0.00  0.00    -0.078 A 
ATOM      5  C3  OXE d   1       4.652   3.038  -5.909  0.00  0.00     0.003 A 
ATOM      6  C4  OXE d   1       5.873   3.721  -5.860  0.00  0.00    -0.002 A 
ATOM      7  C5  OXE d   1       5.906   5.119  -5.902  0.00  0.00    -0.002 A 
ATOM      8  C6  OXE d   1       4.713   5.827  -5.999  0.00  0.00     0.003 A 
ENDROOT
TORSDOF 0
ENDMDL
