MODEL 1
REMARK minimizedAffinity 2.24523759
REMARK minimizedRMSD -1
REMARK  0 active torsions:
REMARK  status: ('A' for Active; 'I' for Inactive)
ROOT
ATOM      1  C2' OXE d   1       2.706   5.783  -5.916  0.00  0.00     0.078 C 
ATOM      2  C1' OXE d   1       2.615   2.977  -5.890  0.00  0.00     0.078 C 
ATOM      3  C1  OXE d   1       1.305   3.723  -5.936  0.00  0.00    -0.078 A 
ATOM      4  C2  OXE d   1       1.357   5.095  -5.901  0.00  0.00    -0.078 A 
ATOM      5  C3  OXE d   1       0.181   5.833  -5.997  0.00  0.00     0.003 A 
ATOM      6  C4  OXE d   1      -1.063   5.189  -5.973  0.00  0.00    -0.002 A 
ATOM      7  C5  OXE d   1      -1.139   3.793  -5.969  0.00  0.00    -0.002 A 
ATOM      8  C6  OXE d   1       0.033   3.046  -5.993  0.00  0.00     0.003 A 
ENDROOT
TORSDOF 0
ENDMDL
