MODEL 1
REMARK minimizedAffinity -1.10900187
REMARK minimizedRMSD -1
REMARK  0 active torsions:
REMARK  status: ('A' for Active; 'I' for Inactive)
ROOT
ATOM      1  C2' OXE d   1       2.180   2.302  -6.000  0.00  0.00     0.078 C 
ATOM      2  C1' OXE d   1       0.880   4.790  -5.957  0.00  0.00     0.078 C 
ATOM      3  C1  OXE d   1       2.388   4.785  -5.965  0.00  0.00    -0.078 A 
ATOM      4  C2  OXE d   1       3.016   3.563  -5.938  0.00  0.00    -0.078 A 
ATOM      5  C3  OXE d   1       4.405   3.500  -5.999  0.00  0.00     0.003 A 
ATOM      6  C4  OXE d   1       5.171   4.670  -5.932  0.00  0.00    -0.002 A 
ATOM      7  C5  OXE d   1       4.551   5.924  -5.918  0.00  0.00    -0.002 A 
ATOM      8  C6  OXE d   1       3.164   6.000  -5.977  0.00  0.00     0.003 A 
ENDROOT
TORSDOF 0
ENDMDL
