MODEL 1
REMARK minimizedAffinity 0.029191006
REMARK minimizedRMSD -1
REMARK  0 active torsions:
REMARK  status: ('A' for Active; 'I' for Inactive)
ROOT
ATOM      1  C2' OXE d   1       2.230   2.803  -5.947  0.00  0.00     0.078 C 
ATOM      2  C1' OXE d   1       2.346   5.607  -5.999  0.00  0.00     0.078 C 
ATOM      3  C1  OXE d   1       0.984   4.960  -5.959  0.00  0.00    -0.078 A 
ATOM      4  C2  OXE d   1       0.936   3.587  -5.981  0.00  0.00    -0.078 A 
ATOM      5  C3  OXE d   1      -0.293   2.939  -5.890  0.00  0.00     0.003 A 
ATOM      6  C4  OXE d   1      -1.485   3.672  -5.932  0.00  0.00    -0.002 A 
ATOM      7  C5  OXE d   1      -1.459   5.071  -5.949  0.00  0.00    -0.002 A 
ATOM      8  C6  OXE d   1      -0.235   5.729  -5.920  0.00  0.00     0.003 A 
ENDROOT
TORSDOF 0
ENDMDL
