MODEL 1
REMARK minimizedAffinity -3.66761255
REMARK minimizedRMSD -1
REMARK  0 active torsions:
REMARK  status: ('A' for Active; 'I' for Inactive)
ROOT
ATOM      1  C2' OXE d   1      -3.117   3.004  -5.989  0.00  0.00     0.078 C 
ATOM      2  C1' OXE d   1      -2.260   5.678  -5.970  0.00  0.00     0.078 C 
ATOM      3  C1  OXE d   1      -1.204   4.600  -5.977  0.00  0.00    -0.078 A 
ATOM      4  C2  OXE d   1      -1.633   3.295  -5.939  0.00  0.00    -0.078 A 
ATOM      5  C3  OXE d   1      -0.701   2.262  -5.999  0.00  0.00     0.003 A 
ATOM      6  C4  OXE d   1       0.670   2.540  -5.942  0.00  0.00    -0.002 A 
ATOM      7  C5  OXE d   1       1.127   3.862  -5.940  0.00  0.00    -0.002 A 
ATOM      8  C6  OXE d   1       0.206   4.902  -6.000  0.00  0.00     0.003 A 
ENDROOT
TORSDOF 0
ENDMDL
