MODEL 1
REMARK minimizedAffinity 4.10557318
REMARK minimizedRMSD -1
REMARK  0 active torsions:
REMARK  status: ('A' for Active; 'I' for Inactive)
ROOT
ATOM      1  C2' OXE d   1      -4.702   3.321  -5.441  0.00  0.00     0.078 C 
ATOM      2  C1' OXE d   1      -3.864   6.000  -5.516  0.00  0.00     0.078 C 
ATOM      3  C1  OXE d   1      -2.816   4.929  -5.688  0.00  0.00    -0.078 A 
ATOM      4  C2  OXE d   1      -3.227   3.621  -5.604  0.00  0.00    -0.078 A 
ATOM      5  C3  OXE d   1      -2.310   2.595  -5.811  0.00  0.00     0.003 A 
ATOM      6  C4  OXE d   1      -0.946   2.881  -5.951  0.00  0.00    -0.002 A 
ATOM      7  C5  OXE d   1      -0.500   4.206  -6.000  0.00  0.00    -0.002 A 
ATOM      8  C6  OXE d   1      -1.425   5.240  -5.913  0.00  0.00     0.003 A 
ENDROOT
TORSDOF 0
ENDMDL
