MODEL 1
REMARK minimizedAffinity -2.43816185
REMARK minimizedRMSD -1
REMARK  0 active torsions:
REMARK  status: ('A' for Active; 'I' for Inactive)
ROOT
ATOM      1  C2' OXE d   1      -1.510   5.409  -5.946  0.00  0.00     0.078 C 
ATOM      2  C1' OXE d   1      -1.906   2.630  -5.990  0.00  0.00     0.078 C 
ATOM      3  C1  OXE d   1      -0.486   3.138  -5.972  0.00  0.00    -0.078 A 
ATOM      4  C2  OXE d   1      -0.301   4.499  -5.998  0.00  0.00    -0.078 A 
ATOM      5  C3  OXE d   1       0.987   5.021  -5.927  0.00  0.00     0.003 A 
ATOM      6  C4  OXE d   1       2.100   4.174  -5.986  0.00  0.00    -0.002 A 
ATOM      7  C5  OXE d   1       1.934   2.785  -6.000  0.00  0.00    -0.002 A 
ATOM      8  C6  OXE d   1       0.651   2.251  -5.950  0.00  0.00     0.003 A 
ENDROOT
TORSDOF 0
ENDMDL
