MODEL 1
REMARK minimizedAffinity 2.20189953
REMARK minimizedRMSD -1
REMARK  0 active torsions:
REMARK  status: ('A' for Active; 'I' for Inactive)
ROOT
ATOM      1  C2' OXE d   1      -1.947   5.837  -5.944  0.00  0.00     0.078 C 
ATOM      2  C1' OXE d   1      -1.904   3.031  -5.935  0.00  0.00     0.078 C 
ATOM      3  C1  OXE d   1      -0.581   3.755  -5.941  0.00  0.00    -0.078 A 
ATOM      4  C2  OXE d   1      -0.611   5.128  -5.992  0.00  0.00    -0.078 A 
ATOM      5  C3  OXE d   1       0.580   5.846  -5.945  0.00  0.00     0.003 A 
ATOM      6  C4  OXE d   1       1.811   5.182  -6.000  0.00  0.00    -0.002 A 
ATOM      7  C5  OXE d   1       1.865   3.784  -5.988  0.00  0.00    -0.002 A 
ATOM      8  C6  OXE d   1       0.681   3.057  -5.916  0.00  0.00     0.003 A 
ENDROOT
TORSDOF 0
ENDMDL
