MODEL 1
REMARK minimizedAffinity -1.54602969
REMARK minimizedRMSD -1
REMARK  0 active torsions:
REMARK  status: ('A' for Active; 'I' for Inactive)
ROOT
ATOM      1  C2' OXE d   1      -2.676   5.922  -5.890  0.00  0.00     0.078 C 
ATOM      2  C1' OXE d   1      -3.851   3.375  -5.997  0.00  0.00     0.078 C 
ATOM      3  C1  OXE d   1      -2.345   3.454  -5.966  0.00  0.00    -0.078 A 
ATOM      4  C2  OXE d   1      -1.778   4.706  -5.961  0.00  0.00    -0.078 A 
ATOM      5  C3  OXE d   1      -0.395   4.836  -5.878  0.00  0.00     0.003 A 
ATOM      6  C4  OXE d   1       0.429   3.706  -5.954  0.00  0.00    -0.002 A 
ATOM      7  C5  OXE d   1      -0.127   2.424  -6.000  0.00  0.00    -0.002 A 
ATOM      8  C6  OXE d   1      -1.510   2.279  -5.964  0.00  0.00     0.003 A 
ENDROOT
TORSDOF 0
ENDMDL
