MODEL 1
REMARK minimizedAffinity -0.306188732
REMARK minimizedRMSD -1
REMARK  0 active torsions:
REMARK  status: ('A' for Active; 'I' for Inactive)
ROOT
ATOM      1  C2' OXE d   1      -1.464   5.511  -5.949  0.00  0.00     0.078 C 
ATOM      2  C1' OXE d   1      -1.499   2.705  -5.992  0.00  0.00     0.078 C 
ATOM      3  C1  OXE d   1      -0.156   3.391  -5.972  0.00  0.00    -0.078 A 
ATOM      4  C2  OXE d   1      -0.148   4.765  -5.999  0.00  0.00    -0.078 A 
ATOM      5  C3  OXE d   1       1.063   5.449  -5.927  0.00  0.00     0.003 A 
ATOM      6  C4  OXE d   1       2.275   4.751  -5.984  0.00  0.00    -0.002 A 
ATOM      7  C5  OXE d   1       2.290   3.353  -5.997  0.00  0.00    -0.002 A 
ATOM      8  C6  OXE d   1       1.086   2.658  -5.949  0.00  0.00     0.003 A 
ENDROOT
TORSDOF 0
ENDMDL
