MODEL 1
REMARK minimizedAffinity 1.17020512
REMARK minimizedRMSD -1
REMARK  0 active torsions:
REMARK  status: ('A' for Active; 'I' for Inactive)
ROOT
ATOM      1  C2' OXE d   1      -2.612   3.122  -5.998  0.00  0.00     0.078 C 
ATOM      2  C1' OXE d   1      -2.532   5.928  -5.980  0.00  0.00     0.078 C 
ATOM      3  C1  OXE d   1      -1.219   5.187  -5.981  0.00  0.00    -0.078 A 
ATOM      4  C2  OXE d   1      -1.267   3.814  -5.942  0.00  0.00    -0.078 A 
ATOM      5  C3  OXE d   1      -0.086   3.080  -5.996  0.00  0.00     0.003 A 
ATOM      6  C4  OXE d   1       1.154   3.728  -5.934  0.00  0.00    -0.002 A 
ATOM      7  C5  OXE d   1       1.226   5.125  -5.933  0.00  0.00    -0.002 A 
ATOM      8  C6  OXE d   1       0.052   5.868  -5.999  0.00  0.00     0.003 A 
ENDROOT
TORSDOF 0
ENDMDL
