MODEL 1
REMARK minimizedAffinity -0.391147017
REMARK minimizedRMSD -1
REMARK  0 active torsions:
REMARK  status: ('A' for Active; 'I' for Inactive)
ROOT
ATOM      1  C2' OXE d   1      -0.824   4.718  -5.945  0.00  0.00     0.078 C 
ATOM      2  C1' OXE d   1      -0.456   1.935  -5.979  0.00  0.00     0.078 C 
ATOM      3  C1  OXE d   1       0.774   2.807  -5.966  0.00  0.00    -0.078 A 
ATOM      4  C2  OXE d   1       0.585   4.168  -5.997  0.00  0.00    -0.078 A 
ATOM      5  C3  OXE d   1       1.685   5.019  -5.932  0.00  0.00     0.003 A 
ATOM      6  C4  OXE d   1       2.985   4.502  -5.990  0.00  0.00    -0.002 A 
ATOM      7  C5  OXE d   1       3.200   3.120  -6.000  0.00  0.00    -0.002 A 
ATOM      8  C6  OXE d   1       2.109   2.260  -5.945  0.00  0.00     0.003 A 
ENDROOT
TORSDOF 0
ENDMDL
