MODEL 1
REMARK minimizedAffinity 3.07829857
REMARK minimizedRMSD -1
REMARK  0 active torsions:
REMARK  status: ('A' for Active; 'I' for Inactive)
ROOT
ATOM      1  C2' OXE d   1       2.337   2.613  -5.928  0.00  0.00     0.078 C 
ATOM      2  C1' OXE d   1       3.049   5.328  -5.954  0.00  0.00     0.078 C 
ATOM      3  C1  OXE d   1       1.580   4.986  -5.948  0.00  0.00    -0.078 A 
ATOM      4  C2  OXE d   1       1.241   3.655  -5.982  0.00  0.00    -0.078 A 
ATOM      5  C3  OXE d   1      -0.099   3.283  -5.923  0.00  0.00     0.003 A 
ATOM      6  C4  OXE d   1      -1.107   4.253  -5.984  0.00  0.00    -0.002 A 
ATOM      7  C5  OXE d   1      -0.783   5.614  -5.990  0.00  0.00    -0.002 A 
ATOM      8  C6  OXE d   1       0.552   5.997  -5.929  0.00  0.00     0.003 A 
ENDROOT
TORSDOF 0
ENDMDL
