MODEL 1
REMARK minimizedAffinity -2.25841045
REMARK minimizedRMSD -1
REMARK  0 active torsions:
REMARK  status: ('A' for Active; 'I' for Inactive)
ROOT
ATOM      1  C2' OXE d   1       1.579   4.125  -5.880  0.00  0.00     0.078 C 
ATOM      2  C1' OXE d   1       0.887   1.405  -5.857  0.00  0.00     0.078 C 
ATOM      3  C1  OXE d   1      -0.232   2.415  -5.923  0.00  0.00    -0.078 A 
ATOM      4  C2  OXE d   1       0.114   3.744  -5.887  0.00  0.00    -0.078 A 
ATOM      5  C3  OXE d   1      -0.875   4.717  -6.000  0.00  0.00     0.003 A 
ATOM      6  C4  OXE d   1      -2.228   4.356  -5.996  0.00  0.00    -0.002 A 
ATOM      7  C5  OXE d   1      -2.603   3.008  -5.993  0.00  0.00    -0.002 A 
ATOM      8  C6  OXE d   1      -1.618   2.027  -6.000  0.00  0.00     0.003 A 
ENDROOT
TORSDOF 0
ENDMDL
