MODEL 1
REMARK minimizedAffinity -3.72466278
REMARK minimizedRMSD -1
REMARK  0 active torsions:
REMARK  status: ('A' for Active; 'I' for Inactive)
ROOT
ATOM      1  C   UNL d   1       4.590   2.744  -1.108  0.00  0.00     0.077 C 
ATOM      2  C1  UNL d   1       3.563   1.661  -0.952  0.00  0.00    -0.074 A 
ATOM      3  C2  UNL d   1       2.463   1.831  -0.105  0.00  0.00    -0.005 A 
ATOM      4  C3  UNL d   1       1.511   0.820   0.023  0.00  0.00     0.006 A 
ATOM      5  C4  UNL d   1       1.649  -0.370  -0.694  0.00  0.00    -0.005 A 
ATOM      6  C5  UNL d   1       2.742  -0.557  -1.546  0.00  0.00    -0.074 A 
ATOM      7  C6  UNL d   1       2.901  -1.825  -2.331  0.00  0.00     0.077 C 
ATOM      8  C7  UNL d   1       3.691   0.467  -1.674  0.00  0.00    -0.001 A 
ENDROOT
TORSDOF 0
ENDMDL
