MODEL 1
REMARK minimizedAffinity 5.18414402
REMARK minimizedRMSD -1
REMARK  0 active torsions:
REMARK  status: ('A' for Active; 'I' for Inactive)
ROOT
ATOM      1  C   UNL d   1      -5.261   3.958   1.497  0.00  0.00     0.077 C 
ATOM      2  C1  UNL d   1      -5.266   2.662   0.742  0.00  0.00    -0.074 A 
ATOM      3  C2  UNL d   1      -5.996   1.563   1.207  0.00  0.00    -0.005 A 
ATOM      4  C3  UNL d   1      -6.000   0.367   0.489  0.00  0.00     0.006 A 
ATOM      5  C4  UNL d   1      -5.275   0.258  -0.699  0.00  0.00    -0.005 A 
ATOM      6  C5  UNL d   1      -4.540   1.347  -1.179  0.00  0.00    -0.074 A 
ATOM      7  C6  UNL d   1      -3.763   1.250  -2.458  0.00  0.00     0.077 C 
ATOM      8  C7  UNL d   1      -4.547   2.547  -0.455  0.00  0.00    -0.001 A 
ENDROOT
TORSDOF 0
ENDMDL
