MODEL 1
REMARK minimizedAffinity 2.80715799
REMARK minimizedRMSD -1
REMARK  0 active torsions:
REMARK  status: ('A' for Active; 'I' for Inactive)
ROOT
ATOM      1  C   UNL d   1       1.981   0.624   0.460  0.00  0.00     0.077 C 
ATOM      2  C1  UNL d   1       3.318   1.067  -0.055  0.00  0.00    -0.074 A 
ATOM      3  C2  UNL d   1       4.157   0.179  -0.736  0.00  0.00    -0.005 A 
ATOM      4  C3  UNL d   1       5.394   0.608  -1.217  0.00  0.00     0.006 A 
ATOM      5  C4  UNL d   1       5.804   1.928  -1.023  0.00  0.00    -0.005 A 
ATOM      6  C5  UNL d   1       4.978   2.830  -0.345  0.00  0.00    -0.074 A 
ATOM      7  C6  UNL d   1       5.399   4.255  -0.137  0.00  0.00     0.077 C 
ATOM      8  C7  UNL d   1       3.734   2.393   0.129  0.00  0.00    -0.001 A 
ENDROOT
TORSDOF 0
ENDMDL
