MODEL 1
REMARK minimizedAffinity -2.16848278
REMARK minimizedRMSD -1
REMARK  0 active torsions:
REMARK  status: ('A' for Active; 'I' for Inactive)
ROOT
ATOM      1  C   UNL d   1      -6.000  -0.376  -4.890  0.00  0.00     0.077 C 
ATOM      2  C1  UNL d   1      -5.092   0.677  -4.328  0.00  0.00    -0.074 A 
ATOM      3  C2  UNL d   1      -3.738   0.720  -4.678  0.00  0.00    -0.005 A 
ATOM      4  C3  UNL d   1      -2.908   1.711  -4.155  0.00  0.00     0.006 A 
ATOM      5  C4  UNL d   1      -3.422   2.668  -3.278  0.00  0.00    -0.005 A 
ATOM      6  C5  UNL d   1      -4.773   2.640  -2.917  0.00  0.00    -0.074 A 
ATOM      7  C6  UNL d   1      -5.343   3.666  -1.984  0.00  0.00     0.077 C 
ATOM      8  C7  UNL d   1      -5.602   1.646  -3.453  0.00  0.00    -0.001 A 
ENDROOT
TORSDOF 0
ENDMDL
