MODEL 1
REMARK minimizedAffinity 1.97012603
REMARK minimizedRMSD -1
REMARK  0 active torsions:
REMARK  status: ('A' for Active; 'I' for Inactive)
ROOT
ATOM      1  C   UNL d   1      -4.496  -0.040  -0.356  0.00  0.00     0.077 C 
ATOM      2  C1  UNL d   1      -4.212   0.415  -1.757  0.00  0.00    -0.074 A 
ATOM      3  C2  UNL d   1      -3.177  -0.158  -2.503  0.00  0.00    -0.005 A 
ATOM      4  C3  UNL d   1      -2.931   0.270  -3.808  0.00  0.00     0.006 A 
ATOM      5  C4  UNL d   1      -3.716   1.272  -4.378  0.00  0.00    -0.005 A 
ATOM      6  C5  UNL d   1      -4.756   1.856  -3.648  0.00  0.00    -0.074 A 
ATOM      7  C6  UNL d   1      -5.615   2.928  -4.250  0.00  0.00     0.077 C 
ATOM      8  C7  UNL d   1      -5.001   1.416  -2.340  0.00  0.00    -0.001 A 
ENDROOT
TORSDOF 0
ENDMDL
