MODEL 1
REMARK minimizedAffinity 0.725879669
REMARK minimizedRMSD -1
REMARK  0 active torsions:
REMARK  status: ('A' for Active; 'I' for Inactive)
ROOT
ATOM      1  C   UNL d   1      -2.649   0.126  -4.419  0.00  0.00     0.077 C 
ATOM      2  C1  UNL d   1      -3.817   0.677  -3.656  0.00  0.00    -0.074 A 
ATOM      3  C2  UNL d   1      -4.765   1.492  -4.283  0.00  0.00    -0.005 A 
ATOM      4  C3  UNL d   1      -5.851   1.989  -3.563  0.00  0.00     0.006 A 
ATOM      5  C4  UNL d   1      -6.000   1.677  -2.211  0.00  0.00    -0.005 A 
ATOM      6  C5  UNL d   1      -5.062   0.863  -1.568  0.00  0.00    -0.074 A 
ATOM      7  C6  UNL d   1      -5.213   0.510  -0.118  0.00  0.00     0.077 C 
ATOM      8  C7  UNL d   1      -3.978   0.361  -2.300  0.00  0.00    -0.001 A 
ENDROOT
TORSDOF 0
ENDMDL
