MODEL 1
REMARK minimizedAffinity 2.0456574
REMARK minimizedRMSD -1
REMARK  0 active torsions:
REMARK  status: ('A' for Active; 'I' for Inactive)
ROOT
ATOM      1  C   UNL d   1      -5.998  -0.844  -5.342  0.00  0.00     0.077 C 
ATOM      2  C1  UNL d   1      -5.245   0.123  -4.478  0.00  0.00    -0.074 A 
ATOM      3  C2  UNL d   1      -3.861   0.008  -4.308  0.00  0.00    -0.005 A 
ATOM      4  C3  UNL d   1      -3.173   0.920  -3.509  0.00  0.00     0.006 A 
ATOM      5  C4  UNL d   1      -3.860   1.954  -2.871  0.00  0.00    -0.005 A 
ATOM      6  C5  UNL d   1      -5.243   2.085  -3.029  0.00  0.00    -0.074 A 
ATOM      7  C6  UNL d   1      -5.995   3.196  -2.359  0.00  0.00     0.077 C 
ATOM      8  C7  UNL d   1      -5.927   1.169  -3.840  0.00  0.00    -0.001 A 
ENDROOT
TORSDOF 0
ENDMDL
