MODEL 1
REMARK minimizedAffinity 1.17946017
REMARK minimizedRMSD -1
REMARK  0 active torsions:
REMARK  status: ('A' for Active; 'I' for Inactive)
ROOT
ATOM      1  C   UNL d   1      -5.248   0.010   0.016  0.00  0.00     0.077 C 
ATOM      2  C1  UNL d   1      -5.249   0.579  -1.372  0.00  0.00    -0.074 A 
ATOM      3  C2  UNL d   1      -5.992   1.723  -1.679  0.00  0.00    -0.005 A 
ATOM      4  C3  UNL d   1      -5.976   2.246  -2.972  0.00  0.00     0.006 A 
ATOM      5  C4  UNL d   1      -5.218   1.632  -3.969  0.00  0.00    -0.005 A 
ATOM      6  C5  UNL d   1      -4.467   0.488  -3.680  0.00  0.00    -0.074 A 
ATOM      7  C6  UNL d   1      -3.639  -0.179  -4.738  0.00  0.00     0.077 C 
ATOM      8  C7  UNL d   1      -4.483  -0.028  -2.377  0.00  0.00    -0.001 A 
ENDROOT
TORSDOF 0
ENDMDL
