MODEL 1
REMARK minimizedAffinity 9.14458561
REMARK minimizedRMSD -1
REMARK  0 active torsions:
REMARK  status: ('A' for Active; 'I' for Inactive)
ROOT
ATOM      1  C   UNL d   1      -2.628  -5.999  -1.300  0.00  0.00     0.077 C 
ATOM      2  C1  UNL d   1      -2.884  -5.436  -2.666  0.00  0.00    -0.074 A 
ATOM      3  C2  UNL d   1      -2.080  -4.416  -3.186  0.00  0.00    -0.005 A 
ATOM      4  C3  UNL d   1      -2.325  -3.909  -4.463  0.00  0.00     0.006 A 
ATOM      5  C4  UNL d   1      -3.375  -4.416  -5.230  0.00  0.00    -0.005 A 
ATOM      6  C5  UNL d   1      -4.188  -5.436  -4.727  0.00  0.00    -0.074 A 
ATOM      7  C6  UNL d   1      -5.314  -5.998  -5.543  0.00  0.00     0.077 C 
ATOM      8  C7  UNL d   1      -3.932  -5.945  -3.447  0.00  0.00    -0.001 A 
ENDROOT
TORSDOF 0
ENDMDL
