MODEL 1
REMARK minimizedAffinity -2.06325126
REMARK minimizedRMSD -1
REMARK  1 active torsions:
REMARK  status: ('A' for Active; 'I' for Inactive)
REMARK    1  A    between atoms: C1_2  and  C2_3 
ROOT
ATOM      1  C2  UNL d   1       0.059  -0.441  -0.549  0.00  0.00    -0.081 A 
ATOM      2  C3  UNL d   1      -1.282  -0.195  -0.228  0.00  0.00     0.006 A 
ATOM      3  C4  UNL d   1      -1.614   0.535   0.915  0.00  0.00     0.002 A 
ATOM      4  C5  UNL d   1      -0.612   1.038   1.753  0.00  0.00    -0.080 A 
ATOM      5  C6  UNL d   1      -0.955   1.849   2.967  0.00  0.00     0.076 C 
ATOM      6  C7  UNL d   1       0.727   0.777   1.442  0.00  0.00     0.002 A 
ATOM      7  C8  UNL d   1       1.060   0.047   0.299  0.00  0.00     0.006 A 
ENDROOT
BRANCH   1   8
ATOM      8  C1  UNL d   1       0.423  -1.172  -1.816  0.00  0.00     0.054 C 
ATOM      9  C   UNL d   1       0.411  -0.238  -3.017  0.00  0.00     0.018 C 
ENDBRANCH   1   8
TORSDOF 1
ENDMDL
