MODEL 1
REMARK minimizedAffinity 8.35894108
REMARK minimizedRMSD -1
REMARK  1 active torsions:
REMARK  status: ('A' for Active; 'I' for Inactive)
REMARK    1  A    between atoms: C1_2  and  C2_3 
ROOT
ATOM      1  C2  UNL d   1      -0.780  -0.654  -0.930  0.00  0.00    -0.081 A 
ATOM      2  C3  UNL d   1      -2.092  -0.807  -0.466  0.00  0.00     0.006 A 
ATOM      3  C4  UNL d   1      -2.395  -0.601   0.882  0.00  0.00     0.002 A 
ATOM      4  C5  UNL d   1      -1.394  -0.229   1.785  0.00  0.00    -0.080 A 
ATOM      5  C6  UNL d   1      -1.711   0.025   3.229  0.00  0.00     0.076 C 
ATOM      6  C7  UNL d   1      -0.080  -0.093   1.325  0.00  0.00     0.002 A 
ATOM      7  C8  UNL d   1       0.224  -0.300  -0.022  0.00  0.00     0.006 A 
ENDROOT
BRANCH   1   8
ATOM      8  C1  UNL d   1      -0.461  -0.813  -2.395  0.00  0.00     0.054 C 
ATOM      9  C   UNL d   1      -0.335   0.538  -3.084  0.00  0.00     0.018 C 
ENDBRANCH   1   8
TORSDOF 1
ENDMDL
