MODEL 1
REMARK minimizedAffinity -4.02641058
REMARK minimizedRMSD -1
REMARK  1 active torsions:
REMARK  status: ('A' for Active; 'I' for Inactive)
REMARK    1  A    between atoms: C1_2  and  C2_3 
ROOT
ATOM      1  C2  UNL d   1       0.314  -0.401  -1.133  0.00  0.00    -0.081 A 
ATOM      2  C3  UNL d   1      -1.016  -0.140  -0.780  0.00  0.00     0.006 A 
ATOM      3  C4  UNL d   1      -1.324   0.401   0.471  0.00  0.00     0.002 A 
ATOM      4  C5  UNL d   1      -0.307   0.698   1.385  0.00  0.00    -0.080 A 
ATOM      5  C6  UNL d   1      -0.622   1.307   2.719  0.00  0.00     0.076 C 
ATOM      6  C7  UNL d   1       1.020   0.422   1.039  0.00  0.00     0.002 A 
ATOM      7  C8  UNL d   1       1.328  -0.120  -0.210  0.00  0.00     0.006 A 
ENDROOT
BRANCH   1   8
ATOM      8  C1  UNL d   1       0.654  -0.924  -2.505  0.00  0.00     0.054 C 
ATOM      9  C   UNL d   1       1.057   0.205  -3.443  0.00  0.00     0.018 C 
ENDBRANCH   1   8
TORSDOF 1
ENDMDL
