MODEL 1
REMARK minimizedAffinity -3.41613746
REMARK minimizedRMSD -1
REMARK  1 active torsions:
REMARK  status: ('A' for Active; 'I' for Inactive)
REMARK    1  A    between atoms: C1_2  and  C2_3 
ROOT
ATOM      1  C2  UNL d   1      -0.007   0.011  -0.731  0.00  0.00    -0.081 A 
ATOM      2  C3  UNL d   1       0.845  -1.072  -0.975  0.00  0.00     0.006 A 
ATOM      3  C4  UNL d   1       1.630  -1.110  -2.130  0.00  0.00     0.002 A 
ATOM      4  C5  UNL d   1       1.580  -0.062  -3.056  0.00  0.00    -0.080 A 
ATOM      5  C6  UNL d   1       2.440  -0.076  -4.285  0.00  0.00     0.076 C 
ATOM      6  C7  UNL d   1       0.716   1.012  -2.821  0.00  0.00     0.002 A 
ATOM      7  C8  UNL d   1      -0.069   1.050  -1.666  0.00  0.00     0.006 A 
ENDROOT
BRANCH   1   8
ATOM      8  C1  UNL d   1      -0.806   0.086   0.545  0.00  0.00     0.054 C 
ATOM      9  C   UNL d   1      -2.017   0.995   0.388  0.00  0.00     0.018 C 
ENDBRANCH   1   8
TORSDOF 1
ENDMDL
