MODEL 1
REMARK minimizedAffinity -3.89710903
REMARK minimizedRMSD -1
REMARK  1 active torsions:
REMARK  status: ('A' for Active; 'I' for Inactive)
REMARK    1  A    between atoms: C1_2  and  C2_3 
ROOT
ATOM      1  C2  UNL d   1       0.221  -0.615  -1.147  0.00  0.00    -0.081 A 
ATOM      2  C3  UNL d   1      -1.162  -0.782  -1.007  0.00  0.00     0.006 A 
ATOM      3  C4  UNL d   1      -1.803  -0.416   0.179  0.00  0.00     0.002 A 
ATOM      4  C5  UNL d   1      -1.074   0.130   1.241  0.00  0.00    -0.080 A 
ATOM      5  C6  UNL d   1      -1.754   0.555   2.508  0.00  0.00     0.076 C 
ATOM      6  C7  UNL d   1       0.311   0.280   1.108  0.00  0.00     0.002 A 
ATOM      7  C8  UNL d   1       0.952  -0.086  -0.078  0.00  0.00     0.006 A 
ENDROOT
BRANCH   1   8
ATOM      8  C1  UNL d   1       0.905  -0.948  -2.448  0.00  0.00     0.054 C 
ATOM      9  C   UNL d   1       1.132   0.300  -3.289  0.00  0.00     0.018 C 
ENDBRANCH   1   8
TORSDOF 1
ENDMDL
