MODEL 1
REMARK minimizedAffinity -4.74016809
REMARK minimizedRMSD -1
REMARK  1 active torsions:
REMARK  status: ('A' for Active; 'I' for Inactive)
REMARK    1  A    between atoms: C1_2  and  C2_3 
ROOT
ATOM      1  C2  UNL d   1       0.269  -0.399  -0.253  0.00  0.00    -0.081 A 
ATOM      2  C3  UNL d   1      -1.072  -0.220   0.110  0.00  0.00     0.006 A 
ATOM      3  C4  UNL d   1      -1.402   0.472   1.278  0.00  0.00     0.002 A 
ATOM      4  C5  UNL d   1      -0.400   1.003   2.096  0.00  0.00    -0.080 A 
ATOM      5  C6  UNL d   1      -0.742   1.774   3.337  0.00  0.00     0.076 C 
ATOM      6  C7  UNL d   1       0.940   0.809   1.743  0.00  0.00     0.002 A 
ATOM      7  C8  UNL d   1       1.271   0.117   0.576  0.00  0.00     0.006 A 
ENDROOT
BRANCH   1   8
ATOM      8  C1  UNL d   1       0.627  -1.088  -1.545  0.00  0.00     0.054 C 
ATOM      9  C   UNL d   1       1.033  -0.084  -2.614  0.00  0.00     0.018 C 
ENDBRANCH   1   8
TORSDOF 1
ENDMDL
