MODEL 1
REMARK minimizedAffinity 6.71375132
REMARK minimizedRMSD -1
REMARK  0 active torsions:
REMARK  status: ('A' for Active; 'I' for Inactive)
ROOT
ATOM      1  C4' PXY d   1       1.231   5.916  -5.198  0.00  0.00     0.077 C 
ATOM      2  C1' PXY d   1      -3.157   5.887  -1.436  0.00  0.00     0.077 C 
ATOM      3  C1  PXY d   1      -2.014   5.890  -2.432  0.00  0.00    -0.082 A 
ATOM      4  C2  PXY d   1      -0.768   5.794  -1.998  0.00  0.00     0.003 A 
ATOM      5  C3  PXY d   1       0.279   5.828  -2.883  0.00  0.00     0.003 A 
ATOM      6  C4  PXY d   1       0.046   5.907  -4.229  0.00  0.00    -0.082 A 
ATOM      7  C5  PXY d   1      -1.223   5.994  -4.681  0.00  0.00     0.003 A 
ATOM      8  C6  PXY d   1      -2.270   6.000  -3.764  0.00  0.00     0.003 A 
ENDROOT
TORSDOF 0
ENDMDL
