MODEL 1
REMARK minimizedAffinity 4.72778654
REMARK minimizedRMSD -1
REMARK  0 active torsions:
REMARK  status: ('A' for Active; 'I' for Inactive)
ROOT
ATOM      1  C4' PXY d   1       1.510   3.901  -0.451  0.00  0.00     0.077 C 
ATOM      2  C1' PXY d   1       0.126  -1.623   0.538  0.00  0.00     0.077 C 
ATOM      3  C1  PXY d   1       0.498  -0.178   0.270  0.00  0.00    -0.082 A 
ATOM      4  C2  PXY d   1       0.280   0.737   1.200  0.00  0.00     0.003 A 
ATOM      5  C3  PXY d   1       0.580   2.053   0.962  0.00  0.00     0.003 A 
ATOM      6  C4  PXY d   1       1.159   2.429  -0.221  0.00  0.00    -0.082 A 
ATOM      7  C5  PXY d   1       1.395   1.499  -1.171  0.00  0.00     0.003 A 
ATOM      8  C6  PXY d   1       1.045   0.175  -0.925  0.00  0.00     0.003 A 
ENDROOT
TORSDOF 0
ENDMDL
