MODEL 1
REMARK minimizedAffinity -3.9039309
REMARK minimizedRMSD -1
REMARK  0 active torsions:
REMARK  status: ('A' for Active; 'I' for Inactive)
ROOT
ATOM      1  C4' PXY d   1       3.036   5.870  -5.545  0.00  0.00     0.077 C 
ATOM      2  C1' PXY d   1      -2.451   6.000  -3.732  0.00  0.00     0.077 C 
ATOM      3  C1  PXY d   1      -1.016   5.960  -4.219  0.00  0.00    -0.082 A 
ATOM      4  C2  PXY d   1      -0.027   6.000  -3.341  0.00  0.00     0.003 A 
ATOM      5  C3  PXY d   1       1.277   5.997  -3.765  0.00  0.00     0.003 A 
ATOM      6  C4  PXY d   1       1.572   5.899  -5.099  0.00  0.00    -0.082 A 
ATOM      7  C5  PXY d   1       0.568   5.847  -6.000  0.00  0.00     0.003 A 
ATOM      8  C6  PXY d   1      -0.749   5.893  -5.551  0.00  0.00     0.003 A 
ENDROOT
TORSDOF 0
ENDMDL
