MODEL 1
REMARK minimizedAffinity -2.61995649
REMARK minimizedRMSD -1
REMARK  0 active torsions:
REMARK  status: ('A' for Active; 'I' for Inactive)
ROOT
ATOM      1  C4' PXY d   1       0.026   5.980  -6.000  0.00  0.00     0.077 C 
ATOM      2  C1' PXY d   1      -4.043   5.980  -1.894  0.00  0.00     0.077 C 
ATOM      3  C1  PXY d   1      -2.984   5.975  -2.979  0.00  0.00    -0.082 A 
ATOM      4  C2  PXY d   1      -1.704   5.972  -2.644  0.00  0.00     0.003 A 
ATOM      5  C3  PXY d   1      -0.734   6.000  -3.613  0.00  0.00     0.003 A 
ATOM      6  C4  PXY d   1      -1.077   5.976  -4.938  0.00  0.00    -0.082 A 
ATOM      7  C5  PXY d   1      -2.380   5.968  -5.288  0.00  0.00     0.003 A 
ATOM      8  C6  PXY d   1      -3.350   5.982  -4.290  0.00  0.00     0.003 A 
ENDROOT
TORSDOF 0
ENDMDL
