MODEL 1
REMARK minimizedAffinity -1.380072
REMARK minimizedRMSD -1
REMARK  0 active torsions:
REMARK  status: ('A' for Active; 'I' for Inactive)
ROOT
ATOM      1  C4' PXY d   1       3.952   5.964  -5.106  0.00  0.00     0.077 C 
ATOM      2  C1' PXY d   1      -1.771   5.994  -4.293  0.00  0.00     0.077 C 
ATOM      3  C1  PXY d   1      -0.272   5.981  -4.518  0.00  0.00    -0.082 A 
ATOM      4  C2  PXY d   1       0.545   5.968  -3.478  0.00  0.00     0.003 A 
ATOM      5  C3  PXY d   1       1.904   5.988  -3.663  0.00  0.00     0.003 A 
ATOM      6  C4  PXY d   1       2.431   5.968  -4.926  0.00  0.00    -0.082 A 
ATOM      7  C5  PXY d   1       1.604   5.971  -5.993  0.00  0.00     0.003 A 
ATOM      8  C6  PXY d   1       0.228   5.992  -5.784  0.00  0.00     0.003 A 
ENDROOT
TORSDOF 0
ENDMDL
