MODEL 1
REMARK minimizedAffinity -2.13654947
REMARK minimizedRMSD -1
REMARK  0 active torsions:
REMARK  status: ('A' for Active; 'I' for Inactive)
ROOT
ATOM      1  C4' PXY d   1      -2.210   5.964  -4.865  0.00  0.00     0.077 C 
ATOM      2  C1' PXY d   1       3.571   5.980  -4.850  0.00  0.00     0.077 C 
ATOM      3  C1  PXY d   1       2.055   5.971  -4.842  0.00  0.00    -0.082 A 
ATOM      4  C2  PXY d   1       1.395   5.947  -5.989  0.00  0.00     0.003 A 
ATOM      5  C3  PXY d   1       0.024   5.970  -6.000  0.00  0.00     0.003 A 
ATOM      6  C4  PXY d   1      -0.679   5.965  -4.825  0.00  0.00    -0.082 A 
ATOM      7  C5  PXY d   1      -0.013   5.979  -3.651  0.00  0.00     0.003 A 
ATOM      8  C6  PXY d   1       1.379   5.997  -3.662  0.00  0.00     0.003 A 
ENDROOT
TORSDOF 0
ENDMDL
