MODEL 1
REMARK minimizedAffinity -1.82095027
REMARK minimizedRMSD -1
REMARK  0 active torsions:
REMARK  status: ('A' for Active; 'I' for Inactive)
ROOT
ATOM      1  C4' PXY d   1       2.247   6.000  -5.221  0.00  0.00     0.077 C 
ATOM      2  C1' PXY d   1      -2.974   5.906  -2.743  0.00  0.00     0.077 C 
ATOM      3  C1  PXY d   1      -1.610   5.926  -3.404  0.00  0.00    -0.082 A 
ATOM      4  C2  PXY d   1      -0.520   5.942  -2.654  0.00  0.00     0.003 A 
ATOM      5  C3  PXY d   1       0.721   5.991  -3.235  0.00  0.00     0.003 A 
ATOM      6  C4  PXY d   1       0.849   5.971  -4.598  0.00  0.00    -0.082 A 
ATOM      7  C5  PXY d   1      -0.258   5.944  -5.370  0.00  0.00     0.003 A 
ATOM      8  C6  PXY d   1      -1.509   5.935  -4.761  0.00  0.00     0.003 A 
ENDROOT
TORSDOF 0
ENDMDL
