MODEL 1
REMARK minimizedAffinity 1.91227305
REMARK minimizedRMSD -1
REMARK  0 active torsions:
REMARK  status: ('A' for Active; 'I' for Inactive)
ROOT
ATOM      1  C4' PXY d   1      -0.801   5.963  -4.188  0.00  0.00     0.077 C 
ATOM      2  C1' PXY d   1       4.886   5.884  -5.218  0.00  0.00     0.077 C 
ATOM      3  C1  PXY d   1       3.392   5.909  -4.960  0.00  0.00    -0.082 A 
ATOM      4  C2  PXY d   1       2.945   6.000  -3.718  0.00  0.00     0.003 A 
ATOM      5  C3  PXY d   1       1.597   5.991  -3.464  0.00  0.00     0.003 A 
ATOM      6  C4  PXY d   1       0.698   5.944  -4.496  0.00  0.00    -0.082 A 
ATOM      7  C5  PXY d   1       1.147   5.862  -5.766  0.00  0.00     0.003 A 
ATOM      8  C6  PXY d   1       2.519   5.831  -6.000  0.00  0.00     0.003 A 
ENDROOT
TORSDOF 0
ENDMDL
