MODEL 1
REMARK minimizedAffinity 0.977378964
REMARK minimizedRMSD -1
REMARK  0 active torsions:
REMARK  status: ('A' for Active; 'I' for Inactive)
ROOT
ATOM      1  C4' PXY d   1      -3.680   5.974  -2.617  0.00  0.00     0.077 C 
ATOM      2  C1' PXY d   1       1.518   5.994  -5.145  0.00  0.00     0.077 C 
ATOM      3  C1  PXY d   1       0.160   5.984  -4.471  0.00  0.00    -0.082 A 
ATOM      4  C2  PXY d   1      -0.937   5.971  -5.211  0.00  0.00     0.003 A 
ATOM      5  C3  PXY d   1      -2.173   5.993  -4.618  0.00  0.00     0.003 A 
ATOM      6  C4  PXY d   1      -2.288   5.976  -3.254  0.00  0.00    -0.082 A 
ATOM      7  C5  PXY d   1      -1.174   5.978  -2.492  0.00  0.00     0.003 A 
ATOM      8  C6  PXY d   1       0.072   5.997  -3.113  0.00  0.00     0.003 A 
ENDROOT
TORSDOF 0
ENDMDL
