MODEL 1
REMARK minimizedAffinity 5.14940882
REMARK minimizedRMSD -1
REMARK  0 active torsions:
REMARK  status: ('A' for Active; 'I' for Inactive)
ROOT
ATOM      1  C4' PXY d   1       1.985   1.906  -1.634  0.00  0.00     0.077 C 
ATOM      2  C1' PXY d   1      -0.293   1.228   3.636  0.00  0.00     0.077 C 
ATOM      3  C1  PXY d   1       0.302   1.418   2.255  0.00  0.00    -0.082 A 
ATOM      4  C2  PXY d   1       0.334   0.400   1.410  0.00  0.00     0.003 A 
ATOM      5  C3  PXY d   1       0.897   0.547   0.168  0.00  0.00     0.003 A 
ATOM      6  C4  PXY d   1       1.385   1.762  -0.232  0.00  0.00    -0.082 A 
ATOM      7  C5  PXY d   1       1.347   2.808   0.620  0.00  0.00     0.003 A 
ATOM      8  C6  PXY d   1       0.808   2.628   1.891  0.00  0.00     0.003 A 
ENDROOT
TORSDOF 0
ENDMDL
