MODEL 1
REMARK minimizedAffinity 4.04438829
REMARK minimizedRMSD -1
REMARK  0 active torsions:
REMARK  status: ('A' for Active; 'I' for Inactive)
ROOT
ATOM      1  C4' PXY d   1      -3.917   5.974  -1.874  0.00  0.00     0.077 C 
ATOM      2  C1' PXY d   1       0.783   6.000  -5.239  0.00  0.00     0.077 C 
ATOM      3  C1  PXY d   1      -0.443   5.988  -4.347  0.00  0.00    -0.082 A 
ATOM      4  C2  PXY d   1      -1.649   5.975  -4.892  0.00  0.00     0.003 A 
ATOM      5  C3  PXY d   1      -2.768   5.996  -4.100  0.00  0.00     0.003 A 
ATOM      6  C4  PXY d   1      -2.652   5.977  -2.736  0.00  0.00    -0.082 A 
ATOM      7  C5  PXY d   1      -1.425   5.979  -2.173  0.00  0.00     0.003 A 
ATOM      8  C6  PXY d   1      -0.302   5.999  -2.994  0.00  0.00     0.003 A 
ENDROOT
TORSDOF 0
ENDMDL
