MODEL 1
REMARK minimizedAffinity -3.09457493
REMARK minimizedRMSD -1
REMARK  0 active torsions:
REMARK  status: ('A' for Active; 'I' for Inactive)
ROOT
ATOM      1  C4' PXY d   1       3.970   5.986  -5.249  0.00  0.00     0.077 C 
ATOM      2  C1' PXY d   1      -1.727   5.988  -4.271  0.00  0.00     0.077 C 
ATOM      3  C1  PXY d   1      -0.231   5.992  -4.516  0.00  0.00    -0.082 A 
ATOM      4  C2  PXY d   1       0.229   5.997  -5.756  0.00  0.00     0.003 A 
ATOM      5  C3  PXY d   1       1.579   5.969  -5.996  0.00  0.00     0.003 A 
ATOM      6  C4  PXY d   1       2.468   5.990  -4.954  0.00  0.00    -0.082 A 
ATOM      7  C5  PXY d   1       2.006   5.997  -3.686  0.00  0.00     0.003 A 
ATOM      8  C6  PXY d   1       0.632   5.983  -3.464  0.00  0.00     0.003 A 
ENDROOT
TORSDOF 0
ENDMDL
