MODEL 1
REMARK minimizedAffinity 3.24491501
REMARK minimizedRMSD -1
REMARK  0 active torsions:
REMARK  status: ('A' for Active; 'I' for Inactive)
ROOT
ATOM      1  C4' PXY d   1       2.513   2.080  -1.944  0.00  0.00     0.077 C 
ATOM      2  C1' PXY d   1      -0.334   1.302   3.026  0.00  0.00     0.077 C 
ATOM      3  C1  PXY d   1       0.407   1.518   1.721  0.00  0.00    -0.082 A 
ATOM      4  C2  PXY d   1       0.851   0.474   1.042  0.00  0.00     0.003 A 
ATOM      5  C3  PXY d   1       1.551   0.652  -0.124  0.00  0.00     0.003 A 
ATOM      6  C4  PXY d   1       1.751   1.910  -0.626  0.00  0.00    -0.082 A 
ATOM      7  C5  PXY d   1       1.291   2.980   0.056  0.00  0.00     0.003 A 
ATOM      8  C6  PXY d   1       0.619   2.779   1.258  0.00  0.00     0.003 A 
ENDROOT
TORSDOF 0
ENDMDL
