MODEL 1
REMARK minimizedAffinity -3.1450274
REMARK minimizedRMSD -1
REMARK  0 active torsions:
REMARK  status: ('A' for Active; 'I' for Inactive)
ROOT
ATOM      1  C4' PXY d   1       0.684   5.960  -4.874  0.00  0.00     0.077 C 
ATOM      2  C1' PXY d   1      -4.104   5.999  -1.635  0.00  0.00     0.077 C 
ATOM      3  C1  PXY d   1      -2.842   5.994  -2.475  0.00  0.00    -0.082 A 
ATOM      4  C2  PXY d   1      -2.934   6.000  -3.795  0.00  0.00     0.003 A 
ATOM      5  C3  PXY d   1      -1.803   5.963  -4.569  0.00  0.00     0.003 A 
ATOM      6  C4  PXY d   1      -0.564   5.975  -3.987  0.00  0.00    -0.082 A 
ATOM      7  C5  PXY d   1      -0.461   5.980  -2.641  0.00  0.00     0.003 A 
ATOM      8  C6  PXY d   1      -1.622   5.976  -1.872  0.00  0.00     0.003 A 
ENDROOT
TORSDOF 0
ENDMDL
