MODEL 1
REMARK minimizedAffinity -0.761459351
REMARK minimizedRMSD -1
REMARK  0 active torsions:
REMARK  status: ('A' for Active; 'I' for Inactive)
ROOT
ATOM      1  C4' PXY d   1       1.719   1.811  -1.744  0.00  0.00     0.077 C 
ATOM      2  C1' PXY d   1      -0.595   1.125   3.509  0.00  0.00     0.077 C 
ATOM      3  C1  PXY d   1       0.009   1.317   2.132  0.00  0.00    -0.082 A 
ATOM      4  C2  PXY d   1       0.112   0.284   1.313  0.00  0.00     0.003 A 
ATOM      5  C3  PXY d   1       0.684   0.433   0.076  0.00  0.00     0.003 A 
ATOM      6  C4  PXY d   1       1.108   1.665  -0.347  0.00  0.00    -0.082 A 
ATOM      7  C5  PXY d   1       0.996   2.727   0.479  0.00  0.00     0.003 A 
ATOM      8  C6  PXY d   1       0.450   2.545   1.746  0.00  0.00     0.003 A 
ENDROOT
TORSDOF 0
ENDMDL
