MODEL 1
REMARK minimizedAffinity -0.543383121
REMARK minimizedRMSD -1
REMARK  0 active torsions:
REMARK  status: ('A' for Active; 'I' for Inactive)
ROOT
ATOM      1  C4' PXY d   1       1.208  -0.831  -1.621  0.00  0.00     0.077 C 
ATOM      2  C1' PXY d   1       1.044   3.741   1.912  0.00  0.00     0.077 C 
ATOM      3  C1  PXY d   1       1.086   2.534   0.996  0.00  0.00    -0.082 A 
ATOM      4  C2  PXY d   1       1.683   2.627  -0.182  0.00  0.00     0.003 A 
ATOM      5  C3  PXY d   1       1.702   1.555  -1.036  0.00  0.00     0.003 A 
ATOM      6  C4  PXY d   1       1.150   0.359  -0.660  0.00  0.00    -0.082 A 
ATOM      7  C5  PXY d   1       0.548   0.254   0.544  0.00  0.00     0.003 A 
ATOM      8  C6  PXY d   1       0.504   1.366   1.380  0.00  0.00     0.003 A 
ENDROOT
TORSDOF 0
ENDMDL
