MODEL 1
REMARK minimizedAffinity -3.22870564
REMARK minimizedRMSD -1
REMARK  0 active torsions:
REMARK  status: ('A' for Active; 'I' for Inactive)
ROOT
ATOM      1  C4' PXY d   1      -0.343   5.612  -5.737  0.00  0.00     0.077 C 
ATOM      2  C1' PXY d   1      -3.375   6.000  -0.831  0.00  0.00     0.077 C 
ATOM      3  C1  PXY d   1      -2.591   5.894  -2.124  0.00  0.00    -0.082 A 
ATOM      4  C2  PXY d   1      -1.281   5.708  -2.081  0.00  0.00     0.003 A 
ATOM      5  C3  PXY d   1      -0.552   5.642  -3.241  0.00  0.00     0.003 A 
ATOM      6  C4  PXY d   1      -1.176   5.715  -4.457  0.00  0.00    -0.082 A 
ATOM      7  C5  PXY d   1      -2.513   5.894  -4.509  0.00  0.00     0.003 A 
ATOM      8  C6  PXY d   1      -3.230   5.999  -3.321  0.00  0.00     0.003 A 
ENDROOT
TORSDOF 0
ENDMDL
