MODEL 1
REMARK minimizedAffinity 4.137321
REMARK minimizedRMSD -1
REMARK  0 active torsions:
REMARK  status: ('A' for Active; 'I' for Inactive)
ROOT
ATOM      1  C4' PXY d   1      -3.822   5.982  -1.331  0.00  0.00     0.077 C 
ATOM      2  C1' PXY d   1       0.308   5.996  -5.376  0.00  0.00     0.077 C 
ATOM      3  C1  PXY d   1      -0.767   5.987  -4.307  0.00  0.00    -0.082 A 
ATOM      4  C2  PXY d   1      -2.042   5.976  -4.661  0.00  0.00     0.003 A 
ATOM      5  C3  PXY d   1      -3.026   6.000  -3.707  0.00  0.00     0.003 A 
ATOM      6  C4  PXY d   1      -2.703   5.982  -2.377  0.00  0.00    -0.082 A 
ATOM      7  C5  PXY d   1      -1.404   5.982  -2.008  0.00  0.00     0.003 A 
ATOM      8  C6  PXY d   1      -0.420   5.999  -2.991  0.00  0.00     0.003 A 
ENDROOT
TORSDOF 0
ENDMDL
