MODEL 1
REMARK minimizedAffinity 5.14446068
REMARK minimizedRMSD -1
REMARK  0 active torsions:
REMARK  status: ('A' for Active; 'I' for Inactive)
ROOT
ATOM      1  C4' PXY d   1       0.385   1.173   3.266  0.00  0.00     0.077 C 
ATOM      2  C1' PXY d   1       1.275   1.787  -2.412  0.00  0.00     0.077 C 
ATOM      3  C1  PXY d   1       1.034   1.616  -0.925  0.00  0.00    -0.082 A 
ATOM      4  C2  PXY d   1       1.213   2.643  -0.111  0.00  0.00     0.003 A 
ATOM      5  C3  PXY d   1       1.030   2.498   1.240  0.00  0.00     0.003 A 
ATOM      6  C4  PXY d   1       0.608   1.302   1.757  0.00  0.00    -0.082 A 
ATOM      7  C5  PXY d   1       0.413   0.252   0.932  0.00  0.00     0.003 A 
ATOM      8  C6  PXY d   1       0.644   0.409  -0.432  0.00  0.00     0.003 A 
ENDROOT
TORSDOF 0
ENDMDL
