MODEL 1
REMARK minimizedAffinity 9.21080971
REMARK minimizedRMSD -1
REMARK  0 active torsions:
REMARK  status: ('A' for Active; 'I' for Inactive)
ROOT
ATOM      1  C4' PXY d   1       1.952   2.576  -2.430  0.00  0.00     0.077 C 
ATOM      2  C1' PXY d   1      -0.016   0.736   2.685  0.00  0.00     0.077 C 
ATOM      3  C1  PXY d   1       0.500   1.231   1.348  0.00  0.00    -0.082 A 
ATOM      4  C2  PXY d   1       0.301   0.504   0.261  0.00  0.00     0.003 A 
ATOM      5  C3  PXY d   1       0.789   0.921  -0.951  0.00  0.00     0.003 A 
ATOM      6  C4  PXY d   1       1.440   2.120  -1.060  0.00  0.00    -0.082 A 
ATOM      7  C5  PXY d   1       1.638   2.873   0.043  0.00  0.00     0.003 A 
ATOM      8  C6  PXY d   1       1.171   2.412   1.271  0.00  0.00     0.003 A 
ENDROOT
TORSDOF 0
ENDMDL
