MODEL 1
REMARK minimizedAffinity 7.29979944
REMARK minimizedRMSD -1
REMARK  3 active torsions:
REMARK  status: ('A' for Active; 'I' for Inactive)
REMARK    1  A    between atoms: C3'_2  and  C2'_3 
REMARK    2  A    between atoms: C2'_3  and  C1'_4 
REMARK    3  A    between atoms: C1'_4  and  C1_5 
ROOT
ATOM      1  C1  N4B d   1       1.071   4.167  -3.907  0.00  0.00    -0.075 A 
ATOM      2  C2  N4B d   1       1.671   4.825  -5.003  0.00  0.00     0.002 A 
ATOM      3  C3  N4B d   1       0.887   5.351  -6.000  0.00  0.00     0.002 A 
ATOM      4  C4  N4B d   1      -0.492   5.215  -5.933  0.00  0.00    -0.004 A 
ATOM      5  C5  N4B d   1      -1.064   4.600  -4.858  0.00  0.00     0.002 A 
ATOM      6  C6  N4B d   1      -0.289   4.070  -3.846  0.00  0.00     0.002 A 
ENDROOT
BRANCH   1   7
ATOM      7  C1' N4B d   1       1.891   3.500  -2.836  0.00  0.00     0.057 C 
BRANCH   7   8
ATOM      8  C2' N4B d   1       1.550   2.014  -2.796  0.00  0.00     0.009 C 
BRANCH   8   9
ATOM      9  C3' N4B d   1       2.322   1.283  -1.711  0.00  0.00     0.004 C 
ATOM     10  C4' N4B d   1       1.954   1.737  -0.330  0.00  0.00     0.003 C 
ENDBRANCH   8   9
ENDBRANCH   7   8
ENDBRANCH   1   7
TORSDOF 3
ENDMDL
