MODEL 1
REMARK minimizedAffinity 1.30023289
REMARK minimizedRMSD -1
REMARK  3 active torsions:
REMARK  status: ('A' for Active; 'I' for Inactive)
REMARK    1  A    between atoms: C3'_2  and  C2'_3 
REMARK    2  A    between atoms: C2'_3  and  C1'_4 
REMARK    3  A    between atoms: C1'_4  and  C1_5 
ROOT
ATOM      1  C1  N4B d   1       0.704   4.399  -3.812  0.00  0.00    -0.075 A 
ATOM      2  C2  N4B d   1       1.439   4.870  -4.923  0.00  0.00     0.002 A 
ATOM      3  C3  N4B d   1       0.782   5.413  -6.000  0.00  0.00     0.002 A 
ATOM      4  C4  N4B d   1      -0.603   5.478  -5.997  0.00  0.00    -0.004 A 
ATOM      5  C5  N4B d   1      -1.304   5.045  -4.909  0.00  0.00     0.002 A 
ATOM      6  C6  N4B d   1      -0.657   4.500  -3.818  0.00  0.00     0.002 A 
ENDROOT
BRANCH   1   7
ATOM      7  C1' N4B d   1       1.373   3.719  -2.649  0.00  0.00     0.057 C 
BRANCH   7   8
ATOM      8  C2' N4B d   1       0.709   2.366  -2.410  0.00  0.00     0.009 C 
BRANCH   8   9
ATOM      9  C3' N4B d   1       1.430   1.559  -1.345  0.00  0.00     0.004 C 
ATOM     10  C4' N4B d   1       1.369   2.198   0.010  0.00  0.00     0.003 C 
ENDBRANCH   8   9
ENDBRANCH   7   8
ENDBRANCH   1   7
TORSDOF 3
ENDMDL
