MODEL 1
REMARK minimizedAffinity 4.56864214
REMARK minimizedRMSD -1
REMARK  3 active torsions:
REMARK  status: ('A' for Active; 'I' for Inactive)
REMARK    1  A    between atoms: C3'_2  and  C2'_3 
REMARK    2  A    between atoms: C2'_3  and  C1'_4 
REMARK    3  A    between atoms: C1'_4  and  C1_5 
ROOT
ATOM      1  C1  N4B d   1      -2.456  -3.516   1.356  0.00  0.00    -0.075 A 
ATOM      2  C2  N4B d   1      -1.853  -4.384   0.419  0.00  0.00     0.002 A 
ATOM      3  C3  N4B d   1      -0.487  -4.401   0.279  0.00  0.00     0.002 A 
ATOM      4  C4  N4B d   1       0.292  -3.550   1.048  0.00  0.00    -0.004 A 
ATOM      5  C5  N4B d   1      -0.296  -2.733   1.969  0.00  0.00     0.002 A 
ATOM      6  C6  N4B d   1      -1.668  -2.708   2.123  0.00  0.00     0.002 A 
ENDROOT
BRANCH   1   7
ATOM      7  C1' N4B d   1      -3.950  -3.400   1.484  0.00  0.00     0.057 C 
BRANCH   7   8
ATOM      8  C2' N4B d   1      -4.399  -4.099   2.764  0.00  0.00     0.009 C 
BRANCH   8   9
ATOM      9  C3' N4B d   1      -4.699  -5.570   2.534  0.00  0.00     0.004 C 
ATOM     10  C4' N4B d   1      -6.000  -5.999   3.144  0.00  0.00     0.003 C 
ENDBRANCH   8   9
ENDBRANCH   7   8
ENDBRANCH   1   7
TORSDOF 3
ENDMDL
