MODEL 1
REMARK minimizedAffinity -0.263145149
REMARK minimizedRMSD -1
REMARK  3 active torsions:
REMARK  status: ('A' for Active; 'I' for Inactive)
REMARK    1  A    between atoms: C3'_2  and  C2'_3 
REMARK    2  A    between atoms: C2'_3  and  C1'_4 
REMARK    3  A    between atoms: C1'_4  and  C1_5 
ROOT
ATOM      1  C1  N4B d   1       1.046   3.033  -2.081  0.00  0.00    -0.075 A 
ATOM      2  C2  N4B d   1       1.104   3.748  -0.864  0.00  0.00     0.002 A 
ATOM      3  C3  N4B d   1       1.466   3.105   0.293  0.00  0.00     0.002 A 
ATOM      4  C4  N4B d   1       1.756   1.749   0.263  0.00  0.00    -0.004 A 
ATOM      5  C5  N4B d   1       1.723   1.071  -0.921  0.00  0.00     0.002 A 
ATOM      6  C6  N4B d   1       1.364   1.706  -2.093  0.00  0.00     0.002 A 
ENDROOT
BRANCH   1   7
ATOM      7  C1' N4B d   1       0.572   3.674  -3.357  0.00  0.00     0.057 C 
BRANCH   7   8
ATOM      8  C2' N4B d   1       1.580   4.735  -3.789  0.00  0.00     0.009 C 
BRANCH   8   9
ATOM      9  C3' N4B d   1       1.270   5.283  -5.171  0.00  0.00     0.004 C 
ATOM     10  C4' N4B d   1      -0.198   5.496  -5.396  0.00  0.00     0.003 C 
ENDBRANCH   8   9
ENDBRANCH   7   8
ENDBRANCH   1   7
TORSDOF 3
ENDMDL
