MODEL 1
REMARK minimizedAffinity 10.4473467
REMARK minimizedRMSD -1
REMARK  3 active torsions:
REMARK  status: ('A' for Active; 'I' for Inactive)
REMARK    1  A    between atoms: C3'_2  and  C2'_3 
REMARK    2  A    between atoms: C2'_3  and  C1'_4 
REMARK    3  A    between atoms: C1'_4  and  C1_5 
ROOT
ATOM      1  C1  N4B d   1      -0.721  -2.215   1.957  0.00  0.00    -0.075 A 
ATOM      2  C2  N4B d   1      -1.830  -2.746   1.264  0.00  0.00     0.002 A 
ATOM      3  C3  N4B d   1      -1.654  -3.777   0.374  0.00  0.00     0.002 A 
ATOM      4  C4  N4B d   1      -0.381  -4.279   0.149  0.00  0.00    -0.004 A 
ATOM      5  C5  N4B d   1       0.682  -3.778   0.842  0.00  0.00     0.002 A 
ATOM      6  C6  N4B d   1       0.519  -2.744   1.742  0.00  0.00     0.002 A 
ENDROOT
BRANCH   1   7
ATOM      7  C1' N4B d   1      -0.851  -1.031   2.876  0.00  0.00     0.057 C 
BRANCH   7   8
ATOM      8  C2' N4B d   1      -1.505   0.121   2.118  0.00  0.00     0.009 C 
BRANCH   8   9
ATOM      9  C3' N4B d   1      -2.386   0.967   3.020  0.00  0.00     0.004 C 
ATOM     10  C4' N4B d   1      -2.368   0.506   4.447  0.00  0.00     0.003 C 
ENDBRANCH   8   9
ENDBRANCH   7   8
ENDBRANCH   1   7
TORSDOF 3
ENDMDL
