MODEL 1
REMARK minimizedAffinity 1.43958271
REMARK minimizedRMSD -1
REMARK  3 active torsions:
REMARK  status: ('A' for Active; 'I' for Inactive)
REMARK    1  A    between atoms: C3'_2  and  C2'_3 
REMARK    2  A    between atoms: C2'_3  and  C1'_4 
REMARK    3  A    between atoms: C1'_4  and  C1_5 
ROOT
ATOM      1  C1  N4B d   1       0.992   4.300  -3.825  0.00  0.00    -0.075 A 
ATOM      2  C2  N4B d   1       1.630   4.492  -5.070  0.00  0.00     0.002 A 
ATOM      3  C3  N4B d   1       1.081   5.341  -6.000  0.00  0.00     0.002 A 
ATOM      4  C4  N4B d   1      -0.110   5.991  -5.715  0.00  0.00    -0.004 A 
ATOM      5  C5  N4B d   1      -0.707   5.820  -4.501  0.00  0.00     0.002 A 
ATOM      6  C6  N4B d   1      -0.164   4.973  -3.555  0.00  0.00     0.002 A 
ENDROOT
BRANCH   1   7
ATOM      7  C1' N4B d   1       1.509   3.317  -2.811  0.00  0.00     0.057 C 
BRANCH   7   8
ATOM      8  C2' N4B d   1       1.543   3.984  -1.439  0.00  0.00     0.009 C 
BRANCH   8   9
ATOM      9  C3' N4B d   1       1.600   2.965  -0.314  0.00  0.00     0.004 C 
ATOM     10  C4' N4B d   1       1.979   3.575   1.003  0.00  0.00     0.003 C 
ENDBRANCH   8   9
ENDBRANCH   7   8
ENDBRANCH   1   7
TORSDOF 3
ENDMDL
