MODEL 1
REMARK minimizedAffinity 7.89126348
REMARK minimizedRMSD -1
REMARK  3 active torsions:
REMARK  status: ('A' for Active; 'I' for Inactive)
REMARK    1  A    between atoms: C3'_2  and  C2'_3 
REMARK    2  A    between atoms: C2'_3  and  C1'_4 
REMARK    3  A    between atoms: C1'_4  and  C1_5 
ROOT
ATOM      1  C1  N4B d   1       0.123  -3.092   2.253  0.00  0.00    -0.075 A 
ATOM      2  C2  N4B d   1      -0.130  -4.104   1.301  0.00  0.00     0.002 A 
ATOM      3  C3  N4B d   1      -1.346  -4.159   0.665  0.00  0.00     0.002 A 
ATOM      4  C4  N4B d   1      -2.326  -3.228   0.977  0.00  0.00    -0.004 A 
ATOM      5  C5  N4B d   1      -2.064  -2.239   1.878  0.00  0.00     0.002 A 
ATOM      6  C6  N4B d   1      -0.845  -2.169   2.522  0.00  0.00     0.002 A 
ENDROOT
BRANCH   1   7
ATOM      7  C1' N4B d   1       1.406  -3.043   3.037  0.00  0.00     0.057 C 
BRANCH   7   8
ATOM      8  C2' N4B d   1       1.992  -1.637   2.950  0.00  0.00     0.009 C 
BRANCH   8   9
ATOM      9  C3' N4B d   1       2.903  -1.474   1.745  0.00  0.00     0.004 C 
ATOM     10  C4' N4B d   1       2.961  -0.060   1.248  0.00  0.00     0.003 C 
ENDBRANCH   8   9
ENDBRANCH   7   8
ENDBRANCH   1   7
TORSDOF 3
ENDMDL
