MODEL 1
REMARK minimizedAffinity 4.2449708
REMARK minimizedRMSD -1
REMARK  3 active torsions:
REMARK  status: ('A' for Active; 'I' for Inactive)
REMARK    1  A    between atoms: C3'_2  and  C2'_3 
REMARK    2  A    between atoms: C2'_3  and  C1'_4 
REMARK    3  A    between atoms: C1'_4  and  C1_5 
ROOT
ATOM      1  C1  N4B d   1      -5.932   1.835  -3.432  0.00  0.00    -0.075 A 
ATOM      2  C2  N4B d   1      -5.918   0.578  -2.788  0.00  0.00     0.002 A 
ATOM      3  C3  N4B d   1      -5.943  -0.575  -3.533  0.00  0.00     0.002 A 
ATOM      4  C4  N4B d   1      -6.000  -0.497  -4.917  0.00  0.00    -0.004 A 
ATOM      5  C5  N4B d   1      -5.986   0.721  -5.532  0.00  0.00     0.002 A 
ATOM      6  C6  N4B d   1      -5.958   1.888  -4.795  0.00  0.00     0.002 A 
ENDROOT
BRANCH   1   7
ATOM      7  C1' N4B d   1      -5.993   3.123  -2.657  0.00  0.00     0.057 C 
BRANCH   7   8
ATOM      8  C2' N4B d   1      -4.881   3.132  -1.611  0.00  0.00     0.009 C 
BRANCH   8   9
ATOM      9  C3' N4B d   1      -4.258   4.508  -1.457  0.00  0.00     0.004 C 
ATOM     10  C4' N4B d   1      -3.833   4.798  -0.048  0.00  0.00     0.003 C 
ENDBRANCH   8   9
ENDBRANCH   7   8
ENDBRANCH   1   7
TORSDOF 3
ENDMDL
