MODEL 1
REMARK minimizedAffinity -0.127525672
REMARK minimizedRMSD -1
REMARK  3 active torsions:
REMARK  status: ('A' for Active; 'I' for Inactive)
REMARK    1  A    between atoms: C3'_2  and  C2'_3 
REMARK    2  A    between atoms: C2'_3  and  C1'_4 
REMARK    3  A    between atoms: C1'_4  and  C1_5 
ROOT
ATOM      1  C1  N4B d   1      -5.511   3.047  -1.742  0.00  0.00    -0.075 A 
ATOM      2  C2  N4B d   1      -4.620   4.137  -1.852  0.00  0.00     0.002 A 
ATOM      3  C3  N4B d   1      -4.260   4.846  -0.732  0.00  0.00     0.002 A 
ATOM      4  C4  N4B d   1      -4.792   4.497   0.500  0.00  0.00    -0.004 A 
ATOM      5  C5  N4B d   1      -5.632   3.427   0.602  0.00  0.00     0.002 A 
ATOM      6  C6  N4B d   1      -5.999   2.703  -0.515  0.00  0.00     0.002 A 
ENDROOT
BRANCH   1   7
ATOM      7  C1' N4B d   1      -6.000   2.296  -2.950  0.00  0.00     0.057 C 
BRANCH   7   8
ATOM      8  C2' N4B d   1      -5.913   0.797  -2.677  0.00  0.00     0.009 C 
BRANCH   8   9
ATOM      9  C3' N4B d   1      -5.973  -0.018  -3.957  0.00  0.00     0.004 C 
ATOM     10  C4' N4B d   1      -5.617   0.783  -5.173  0.00  0.00     0.003 C 
ENDBRANCH   8   9
ENDBRANCH   7   8
ENDBRANCH   1   7
TORSDOF 3
ENDMDL
