MODEL 1
REMARK minimizedAffinity -3.39557385
REMARK minimizedRMSD -1
REMARK  0 active torsions:
REMARK  status: ('A' for Active; 'I' for Inactive)
ROOT
ATOM      1  C   UNL d   1      -1.218   3.436   1.420  0.00  0.00    -0.002 A 
ATOM      2  C1  UNL d   1      -1.321   3.660   0.054  0.00  0.00     0.010 A 
ATOM      3  C2  UNL d   1      -0.884   2.699  -0.859  0.00  0.00     0.041 A 
ATOM      4  C3  UNL d   1      -0.338   1.495  -0.372  0.00  0.00    -0.075 A 
ATOM      5  S   UNL d   1       0.262   0.173  -1.303  0.00  0.00     0.015 SA
ATOM      6  C4  UNL d   1       0.668  -0.721   0.089  0.00  0.00     0.022 A 
ATOM      7  C5  UNL d   1       0.361  -0.043   1.245  0.00  0.00     0.026 A 
ATOM      8  C6  UNL d   1      -0.224   1.245   0.999  0.00  0.00    -0.082 A 
ATOM      9  C7  UNL d   1      -0.675   2.240   1.899  0.00  0.00     0.045 A 
ENDROOT
TORSDOF 0
ENDMDL
