MODEL 1
REMARK minimizedAffinity -4.13659143
REMARK minimizedRMSD -1
REMARK  0 active torsions:
REMARK  status: ('A' for Active; 'I' for Inactive)
ROOT
ATOM      1  C   UNL d   1      -0.693   3.629   0.387  0.00  0.00    -0.002 A 
ATOM      2  C1  UNL d   1      -0.577   3.434  -0.982  0.00  0.00     0.010 A 
ATOM      3  C2  UNL d   1      -0.219   2.185  -1.493  0.00  0.00     0.041 A 
ATOM      4  C3  UNL d   1       0.021   1.125  -0.597  0.00  0.00    -0.075 A 
ATOM      5  S   UNL d   1       0.471  -0.491  -0.995  0.00  0.00     0.015 SA
ATOM      6  C4  UNL d   1       0.520  -0.961   0.642  0.00  0.00     0.022 A 
ATOM      7  C5  UNL d   1       0.203   0.078   1.486  0.00  0.00     0.026 A 
ATOM      8  C6  UNL d   1      -0.090   1.297   0.786  0.00  0.00    -0.082 A 
ATOM      9  C7  UNL d   1      -0.454   2.575   1.273  0.00  0.00     0.045 A 
ENDROOT
TORSDOF 0
ENDMDL
