MODEL 1
REMARK minimizedAffinity 0.536725938
REMARK minimizedRMSD -1
REMARK  0 active torsions:
REMARK  status: ('A' for Active; 'I' for Inactive)
ROOT
ATOM      1  C   UNL d   1       0.359  -0.147  -2.067  0.00  0.00     0.124 A 
ATOM      2  C1  UNL d   1       1.419  -0.953  -1.677  0.00  0.00     0.062 A 
ATOM      3  C2  UNL d   1       1.689  -1.148  -0.325  0.00  0.00     0.162 A 
ATOM      4  C3  UNL d   1       0.896  -0.537   0.646  0.00  0.00    -0.034 A 
ATOM      5  C4  UNL d   1      -0.169   0.272   0.245  0.00  0.00     0.162 A 
ATOM      6  C5  UNL d   1      -0.434   0.464  -1.106  0.00  0.00     0.062 A 
ATOM      7  F   UNL d   1      -1.459   1.243  -1.482  0.00  0.00    -0.097 F 
ATOM      8  F1  UNL d   1      -0.951   0.875   1.153  0.00  0.00    -0.096 F 
ATOM      9  I   UNL d   1       1.296  -0.827   2.668  0.00  0.00    -0.060 I 
ATOM     10  F2  UNL d   1       2.720  -1.932   0.024  0.00  0.00    -0.096 F 
ATOM     11  F3  UNL d   1       2.187  -1.544  -2.603  0.00  0.00    -0.097 F 
ATOM     12  F4  UNL d   1       0.102   0.040  -3.368  0.00  0.00    -0.092 F 
ENDROOT
TORSDOF 0
ENDMDL
