MODEL 1
REMARK minimizedAffinity -5.07970285
REMARK minimizedRMSD -1
REMARK  0 active torsions:
REMARK  status: ('A' for Active; 'I' for Inactive)
ROOT
ATOM      1  C   UNL d   1      -2.770   3.038  -2.834  0.00  0.00     0.124 A 
ATOM      2  C1  UNL d   1      -3.110   1.895  -2.124  0.00  0.00     0.062 A 
ATOM      3  C2  UNL d   1      -2.115   1.078  -1.595  0.00  0.00     0.162 A 
ATOM      4  C3  UNL d   1      -0.770   1.403  -1.773  0.00  0.00    -0.034 A 
ATOM      5  C4  UNL d   1      -0.436   2.554  -2.488  0.00  0.00     0.162 A 
ATOM      6  C5  UNL d   1      -1.434   3.367  -3.015  0.00  0.00     0.062 A 
ATOM      7  F   UNL d   1      -1.105   4.471  -3.701  0.00  0.00    -0.097 F 
ATOM      8  F1  UNL d   1       0.847   2.896  -2.678  0.00  0.00    -0.096 F 
ATOM      9  I   UNL d   1       0.722   0.185  -0.983  0.00  0.00    -0.060 I 
ATOM     10  F2  UNL d   1      -2.471  -0.020  -0.913  0.00  0.00    -0.096 F 
ATOM     11  F3  UNL d   1      -4.400   1.575  -1.948  0.00  0.00    -0.097 F 
ATOM     12  F4  UNL d   1      -3.730   3.822  -3.343  0.00  0.00    -0.092 F 
ENDROOT
TORSDOF 0
ENDMDL
