MODEL 1
REMARK minimizedAffinity 2.28728223
REMARK minimizedRMSD -1
REMARK  0 active torsions:
REMARK  status: ('A' for Active; 'I' for Inactive)
ROOT
ATOM      1  C   UNL d   1       1.339  -1.733   1.497  0.00  0.00     0.124 A 
ATOM      2  C1  UNL d   1       0.198  -1.062   1.915  0.00  0.00     0.062 A 
ATOM      3  C2  UNL d   1      -0.505  -0.256   1.025  0.00  0.00     0.162 A 
ATOM      4  C3  UNL d   1      -0.071  -0.117  -0.293  0.00  0.00    -0.034 A 
ATOM      5  C4  UNL d   1       1.078  -0.794  -0.706  0.00  0.00     0.162 A 
ATOM      6  C5  UNL d   1       1.778  -1.598   0.187  0.00  0.00     0.062 A 
ATOM      7  F   UNL d   1       2.880  -2.246  -0.219  0.00  0.00    -0.097 F 
ATOM      8  F1  UNL d   1       1.523  -0.683  -1.967  0.00  0.00    -0.096 F 
ATOM      9  I   UNL d   1      -1.121   1.087  -1.627  0.00  0.00    -0.060 I 
ATOM     10  F2  UNL d   1      -1.604   0.381   1.456  0.00  0.00    -0.096 F 
ATOM     11  F3  UNL d   1      -0.227  -1.189   3.180  0.00  0.00    -0.097 F 
ATOM     12  F4  UNL d   1       2.015  -2.507   2.355  0.00  0.00    -0.092 F 
ENDROOT
TORSDOF 0
ENDMDL
