MODEL 1
REMARK minimizedAffinity 4.92570257
REMARK minimizedRMSD -1
REMARK  0 active torsions:
REMARK  status: ('A' for Active; 'I' for Inactive)
ROOT
ATOM      1  C   UNL d   1      -1.519   4.381  -3.044  0.00  0.00     0.124 A 
ATOM      2  C1  UNL d   1      -2.670   3.666  -2.745  0.00  0.00     0.062 A 
ATOM      3  C2  UNL d   1      -2.578   2.399  -2.175  0.00  0.00     0.162 A 
ATOM      4  C3  UNL d   1      -1.330   1.841  -1.898  0.00  0.00    -0.034 A 
ATOM      5  C4  UNL d   1      -0.177   2.566  -2.202  0.00  0.00     0.162 A 
ATOM      6  C5  UNL d   1      -0.274   3.831  -2.772  0.00  0.00     0.062 A 
ATOM      7  F   UNL d   1       0.839   4.521  -3.060  0.00  0.00    -0.097 F 
ATOM      8  F1  UNL d   1       1.038   2.059  -1.948  0.00  0.00    -0.096 F 
ATOM      9  I   UNL d   1      -1.189  -0.052  -1.044  0.00  0.00    -0.060 I 
ATOM     10  F2  UNL d   1      -3.707   1.730  -1.897  0.00  0.00    -0.096 F 
ATOM     11  F3  UNL d   1      -3.873   4.194  -3.008  0.00  0.00    -0.097 F 
ATOM     12  F4  UNL d   1      -1.609   5.599  -3.594  0.00  0.00    -0.092 F 
ENDROOT
TORSDOF 0
ENDMDL
