MODEL 1
REMARK minimizedAffinity -1.78848672
REMARK minimizedRMSD -1
REMARK  0 active torsions:
REMARK  status: ('A' for Active; 'I' for Inactive)
ROOT
ATOM      1  C   UNL d   1       1.585  -2.478   1.706  0.00  0.00     0.124 A 
ATOM      2  C1  UNL d   1       0.511  -1.660   2.030  0.00  0.00     0.062 A 
ATOM      3  C2  UNL d   1      -0.066  -0.846   1.060  0.00  0.00     0.162 A 
ATOM      4  C3  UNL d   1       0.428  -0.846  -0.245  0.00  0.00    -0.034 A 
ATOM      5  C4  UNL d   1       1.509  -1.670  -0.563  0.00  0.00     0.162 A 
ATOM      6  C5  UNL d   1       2.083  -2.482   0.410  0.00  0.00     0.062 A 
ATOM      7  F   UNL d   1       3.120  -3.271   0.095  0.00  0.00    -0.097 F 
ATOM      8  F1  UNL d   1       2.010  -1.695  -1.807  0.00  0.00    -0.096 F 
ATOM      9  I   UNL d   1      -0.432   0.370  -1.698  0.00  0.00    -0.060 I 
ATOM     10  F2  UNL d   1      -1.103  -0.066   1.401  0.00  0.00    -0.096 F 
ATOM     11  F3  UNL d   1       0.029  -1.654   3.281  0.00  0.00    -0.097 F 
ATOM     12  F4  UNL d   1       2.139  -3.260   2.641  0.00  0.00    -0.092 F 
ENDROOT
TORSDOF 0
ENDMDL
