MODEL 1
REMARK minimizedAffinity 9.41645432
REMARK minimizedRMSD -1
REMARK  0 active torsions:
REMARK  status: ('A' for Active; 'I' for Inactive)
ROOT
ATOM      1  C   UNL d   1       1.127  -0.960   2.395  0.00  0.00     0.124 A 
ATOM      2  C1  UNL d   1       1.704  -0.333   1.299  0.00  0.00     0.062 A 
ATOM      3  C2  UNL d   1       0.927  -0.002   0.193  0.00  0.00     0.162 A 
ATOM      4  C3  UNL d   1      -0.437  -0.297   0.177  0.00  0.00    -0.034 A 
ATOM      5  C4  UNL d   1      -1.010  -0.928   1.282  0.00  0.00     0.162 A 
ATOM      6  C5  UNL d   1      -0.229  -1.256   2.386  0.00  0.00     0.062 A 
ATOM      7  F   UNL d   1      -0.788  -1.862   3.444  0.00  0.00    -0.097 F 
ATOM      8  F1  UNL d   1      -2.317  -1.226   1.300  0.00  0.00    -0.096 F 
ATOM      9  I   UNL d   1      -1.602   0.196  -1.476  0.00  0.00    -0.060 I 
ATOM     10  F2  UNL d   1       1.511   0.603  -0.852  0.00  0.00    -0.096 F 
ATOM     11  F3  UNL d   1       3.013  -0.046   1.306  0.00  0.00    -0.097 F 
ATOM     12  F4  UNL d   1       1.877  -1.277   3.458  0.00  0.00    -0.092 F 
ENDROOT
TORSDOF 0
ENDMDL
