MODEL 1
REMARK minimizedAffinity 2.08143592
REMARK minimizedRMSD -1
REMARK  0 active torsions:
REMARK  status: ('A' for Active; 'I' for Inactive)
ROOT
ATOM      1  C   UNL d   1       1.198  -0.935   2.167  0.00  0.00     0.124 A 
ATOM      2  C1  UNL d   1      -0.100  -0.544   2.464  0.00  0.00     0.062 A 
ATOM      3  C2  UNL d   1      -0.902   0.027   1.479  0.00  0.00     0.162 A 
ATOM      4  C3  UNL d   1      -0.407   0.209   0.188  0.00  0.00    -0.034 A 
ATOM      5  C4  UNL d   1       0.900  -0.186  -0.103  0.00  0.00     0.162 A 
ATOM      6  C5  UNL d   1       1.697  -0.756   0.885  0.00  0.00     0.062 A 
ATOM      7  F   UNL d   1       2.951  -1.133   0.597  0.00  0.00    -0.097 F 
ATOM      8  F1  UNL d   1       1.407  -0.025  -1.334  0.00  0.00    -0.096 F 
ATOM      9  I   UNL d   1      -1.602   1.062  -1.287  0.00  0.00    -0.060 I 
ATOM     10  F2  UNL d   1      -2.152   0.395   1.794  0.00  0.00    -0.096 F 
ATOM     11  F3  UNL d   1      -0.584  -0.715   3.703  0.00  0.00    -0.097 F 
ATOM     12  F4  UNL d   1       1.967  -1.483   3.117  0.00  0.00    -0.092 F 
ENDROOT
TORSDOF 0
ENDMDL
