MODEL 1
REMARK minimizedAffinity 0.612870812
REMARK minimizedRMSD -1
REMARK  0 active torsions:
REMARK  status: ('A' for Active; 'I' for Inactive)
ROOT
ATOM      1  C   UNL d   1       2.067  -0.858   0.007  0.00  0.00     0.124 A 
ATOM      2  C1  UNL d   1       0.951  -0.737  -0.810  0.00  0.00     0.062 A 
ATOM      3  C2  UNL d   1      -0.302  -0.501  -0.253  0.00  0.00     0.162 A 
ATOM      4  C3  UNL d   1      -0.448  -0.385   1.129  0.00  0.00    -0.034 A 
ATOM      5  C4  UNL d   1       0.678  -0.509   1.945  0.00  0.00     0.162 A 
ATOM      6  C5  UNL d   1       1.929  -0.744   1.383  0.00  0.00     0.062 A 
ATOM      7  F   UNL d   1       3.006  -0.861   2.174  0.00  0.00    -0.097 F 
ATOM      8  F1  UNL d   1       0.575  -0.402   3.278  0.00  0.00    -0.096 F 
ATOM      9  I   UNL d   1      -2.321  -0.033   1.966  0.00  0.00    -0.060 I 
ATOM     10  F2  UNL d   1      -1.363  -0.389  -1.067  0.00  0.00    -0.096 F 
ATOM     11  F3  UNL d   1       1.081  -0.848  -2.140  0.00  0.00    -0.097 F 
ATOM     12  F4  UNL d   1       3.271  -1.086  -0.532  0.00  0.00    -0.092 F 
ENDROOT
TORSDOF 0
ENDMDL
