MODEL 1
REMARK minimizedAffinity -4.99858522
REMARK minimizedRMSD -1
REMARK  2 active torsions:
REMARK  status: ('A' for Active; 'I' for Inactive)
REMARK    1  A    between atoms: C1_2  and  C2_3 
REMARK    2  A    between atoms: C2_3  and  C3_4 
ROOT
ATOM      1  C3  UNL d   1       0.133   0.131   0.213  0.00  0.00    -0.075 A 
ATOM      2  C4  UNL d   1       1.345   0.784   0.482  0.00  0.00     0.002 A 
ATOM      3  C5  UNL d   1       2.067   0.489   1.639  0.00  0.00     0.002 A 
ATOM      4  C6  UNL d   1       1.583  -0.452   2.545  0.00  0.00    -0.004 A 
ATOM      5  C7  UNL d   1       0.372  -1.095   2.296  0.00  0.00     0.002 A 
ATOM      6  C8  UNL d   1      -0.351  -0.805   1.137  0.00  0.00     0.002 A 
ENDROOT
BRANCH   1   7
ATOM      7  C2  UNL d   1      -0.638   0.424  -1.052  0.00  0.00     0.056 C 
BRANCH   7   8
ATOM      8  C1  UNL d   1       0.135   1.265  -2.073  0.00  0.00     0.007 C 
ATOM      9  C   UNL d   1      -0.654   2.464  -2.583  0.00  0.00     0.009 C 
ENDBRANCH   7   8
ENDBRANCH   1   7
TORSDOF 2
ENDMDL
