MODEL 1
REMARK minimizedAffinity -5.14972496
REMARK minimizedRMSD -1
REMARK  2 active torsions:
REMARK  status: ('A' for Active; 'I' for Inactive)
REMARK    1  A    between atoms: C1_2  and  C2_3 
REMARK    2  A    between atoms: C2_3  and  C3_4 
ROOT
ATOM      1  C3  UNL d   1      -0.077  -0.060   0.043  0.00  0.00    -0.075 A 
ATOM      2  C4  UNL d   1      -0.751  -0.389   1.228  0.00  0.00     0.002 A 
ATOM      3  C5  UNL d   1      -0.037  -0.731   2.377  0.00  0.00     0.002 A 
ATOM      4  C6  UNL d   1       1.355  -0.758   2.353  0.00  0.00    -0.004 A 
ATOM      5  C7  UNL d   1       2.035  -0.449   1.177  0.00  0.00     0.002 A 
ATOM      6  C8  UNL d   1       1.324  -0.102   0.027  0.00  0.00     0.002 A 
ENDROOT
BRANCH   1   7
ATOM      7  C2  UNL d   1      -0.843   0.339  -1.196  0.00  0.00     0.056 C 
BRANCH   7   8
ATOM      8  C1  UNL d   1      -0.351   1.639  -1.841  0.00  0.00     0.007 C 
ATOM      9  C   UNL d   1      -1.457   2.416  -2.543  0.00  0.00     0.009 C 
ENDBRANCH   7   8
ENDBRANCH   1   7
TORSDOF 2
ENDMDL
