MODEL 1
REMARK minimizedAffinity -3.95995188
REMARK minimizedRMSD -1
REMARK  2 active torsions:
REMARK  status: ('A' for Active; 'I' for Inactive)
REMARK    1  A    between atoms: C1_2  and  C2_3 
REMARK    2  A    between atoms: C2_3  and  C3_4 
ROOT
ATOM      1  C3  UNL d   1      -0.099   0.169  -0.114  0.00  0.00    -0.075 A 
ATOM      2  C4  UNL d   1       1.251   0.201   0.264  0.00  0.00     0.002 A 
ATOM      3  C5  UNL d   1       1.627  -0.099   1.574  0.00  0.00     0.002 A 
ATOM      4  C6  UNL d   1       0.660  -0.425   2.522  0.00  0.00    -0.004 A 
ATOM      5  C7  UNL d   1      -0.686  -0.444   2.162  0.00  0.00     0.002 A 
ATOM      6  C8  UNL d   1      -1.064  -0.148   0.851  0.00  0.00     0.002 A 
ENDROOT
BRANCH   1   7
ATOM      7  C2  UNL d   1      -0.510   0.463  -1.537  0.00  0.00     0.056 C 
BRANCH   7   8
ATOM      8  C1  UNL d   1       0.103   1.746  -2.110  0.00  0.00     0.007 C 
ATOM      9  C   UNL d   1      -0.938   2.723  -2.640  0.00  0.00     0.009 C 
ENDBRANCH   7   8
ENDBRANCH   1   7
TORSDOF 2
ENDMDL
