MODEL 1
REMARK minimizedAffinity 8.36700821
REMARK minimizedRMSD -1
REMARK  0 active torsions:
REMARK  status: ('A' for Active; 'I' for Inactive)
ROOT
ATOM      1  C   UNL d   1       1.309  -2.899   0.755  0.00  0.00     0.023 A 
ATOM      2  C1  UNL d   1       1.812  -3.841  -0.143  0.00  0.00     0.003 A 
ATOM      3  C2  UNL d   1       3.157  -3.804  -0.515  0.00  0.00     0.048 A 
ATOM      4  C3  UNL d   1       3.994  -2.822   0.015  0.00  0.00     0.023 A 
ATOM      5  C4  UNL d   1       3.496  -1.878   0.914  0.00  0.00     0.048 A 
ATOM      6  C5  UNL d   1       2.150  -1.919   1.282  0.00  0.00     0.003 A 
ATOM      7  I   UNL d   1       5.997  -2.765  -0.538  0.00  0.00    -0.146 I 
ENDROOT
TORSDOF 0
ENDMDL
