MODEL 1
REMARK minimizedAffinity 6.18330431
REMARK minimizedRMSD -1
REMARK  0 active torsions:
REMARK  status: ('A' for Active; 'I' for Inactive)
ROOT
ATOM      1  C   UNL d   1      -2.315  -0.058   3.683  0.00  0.00     0.023 A 
ATOM      2  C1  UNL d   1      -1.556  -1.009   3.002  0.00  0.00     0.003 A 
ATOM      3  C2  UNL d   1      -1.689  -1.150   1.619  0.00  0.00     0.048 A 
ATOM      4  C3  UNL d   1      -2.582  -0.335   0.923  0.00  0.00     0.023 A 
ATOM      5  C4  UNL d   1      -3.343   0.619   1.601  0.00  0.00     0.048 A 
ATOM      6  C5  UNL d   1      -3.207   0.755   2.984  0.00  0.00     0.003 A 
ATOM      7  I   UNL d   1      -2.781  -0.542  -1.135  0.00  0.00    -0.146 I 
ENDROOT
TORSDOF 0
ENDMDL
