MODEL 1
REMARK minimizedAffinity 2.74276018
REMARK minimizedRMSD -1
REMARK  0 active torsions:
REMARK  status: ('A' for Active; 'I' for Inactive)
ROOT
ATOM      1  C   UNL d   1      -0.388  -1.713   2.534  0.00  0.00     0.023 A 
ATOM      2  C1  UNL d   1      -0.274  -0.767   3.553  0.00  0.00     0.003 A 
ATOM      3  C2  UNL d   1      -1.345   0.080   3.844  0.00  0.00     0.048 A 
ATOM      4  C3  UNL d   1      -2.528  -0.026   3.113  0.00  0.00     0.023 A 
ATOM      5  C4  UNL d   1      -2.647  -0.971   2.094  0.00  0.00     0.048 A 
ATOM      6  C5  UNL d   1      -1.573  -1.815   1.806  0.00  0.00     0.003 A 
ATOM      7  I   UNL d   1      -4.124   1.233   3.545  0.00  0.00    -0.146 I 
ENDROOT
TORSDOF 0
ENDMDL
