MODEL 1
REMARK minimizedAffinity 5.14411116
REMARK minimizedRMSD -1
REMARK  0 active torsions:
REMARK  status: ('A' for Active; 'I' for Inactive)
ROOT
ATOM      1  C   UNL d   1      -0.508  -1.653   2.661  0.00  0.00     0.023 A 
ATOM      2  C1  UNL d   1      -1.622  -1.377   1.868  0.00  0.00     0.003 A 
ATOM      3  C2  UNL d   1      -2.521  -0.377   2.247  0.00  0.00     0.048 A 
ATOM      4  C3  UNL d   1      -2.299   0.343   3.420  0.00  0.00     0.023 A 
ATOM      5  C4  UNL d   1      -1.185   0.072   4.216  0.00  0.00     0.048 A 
ATOM      6  C5  UNL d   1      -0.290  -0.929   3.834  0.00  0.00     0.003 A 
ATOM      7  I   UNL d   1      -3.635   1.832   3.985  0.00  0.00    -0.146 I 
ENDROOT
TORSDOF 0
ENDMDL
