MODEL 1
REMARK minimizedAffinity 6.47896433
REMARK minimizedRMSD -1
REMARK  0 active torsions:
REMARK  status: ('A' for Active; 'I' for Inactive)
ROOT
ATOM      1  C   UNL d   1       2.194  -3.156   0.675  0.00  0.00     0.023 A 
ATOM      2  C1  UNL d   1       1.691  -3.663   1.873  0.00  0.00     0.003 A 
ATOM      3  C2  UNL d   1       0.718  -2.953   2.580  0.00  0.00     0.048 A 
ATOM      4  C3  UNL d   1       0.251  -1.737   2.082  0.00  0.00     0.023 A 
ATOM      5  C4  UNL d   1       0.751  -1.226   0.883  0.00  0.00     0.048 A 
ATOM      6  C5  UNL d   1       1.724  -1.939   0.180  0.00  0.00     0.003 A 
ATOM      7  I   UNL d   1      -1.197  -0.679   3.132  0.00  0.00    -0.146 I 
ENDROOT
TORSDOF 0
ENDMDL
