MODEL 1
REMARK minimizedAffinity 9.22570419
REMARK minimizedRMSD -1
REMARK  0 active torsions:
REMARK  status: ('A' for Active; 'I' for Inactive)
ROOT
ATOM      1  C   UNL d   1       1.349  -2.787   2.179  0.00  0.00     0.023 A 
ATOM      2  C1  UNL d   1       1.944  -2.619   0.929  0.00  0.00     0.003 A 
ATOM      3  C2  UNL d   1       1.336  -1.810  -0.033  0.00  0.00     0.048 A 
ATOM      4  C3  UNL d   1       0.132  -1.171   0.263  0.00  0.00     0.023 A 
ATOM      5  C4  UNL d   1      -0.467  -1.335   1.513  0.00  0.00     0.048 A 
ATOM      6  C5  UNL d   1       0.145  -2.145   2.471  0.00  0.00     0.003 A 
ATOM      7  I   UNL d   1      -0.776   0.034  -1.166  0.00  0.00    -0.146 I 
ENDROOT
TORSDOF 0
ENDMDL
