MODEL 1
REMARK minimizedAffinity 3.28603745
REMARK minimizedRMSD -1
REMARK  0 active torsions:
REMARK  status: ('A' for Active; 'I' for Inactive)
ROOT
ATOM      1  C   UNL d   1      -0.922  -0.549   3.545  0.00  0.00     0.023 A 
ATOM      2  C1  UNL d   1      -0.995  -0.618   2.153  0.00  0.00     0.003 A 
ATOM      3  C2  UNL d   1      -0.267  -1.589   1.462  0.00  0.00     0.048 A 
ATOM      4  C3  UNL d   1       0.531  -2.488   2.168  0.00  0.00     0.023 A 
ATOM      5  C4  UNL d   1       0.607  -2.423   3.561  0.00  0.00     0.048 A 
ATOM      6  C5  UNL d   1      -0.122  -1.450   4.247  0.00  0.00     0.003 A 
ATOM      7  I   UNL d   1       1.615  -3.934   1.142  0.00  0.00    -0.146 I 
ENDROOT
TORSDOF 0
ENDMDL
