MODEL 1
REMARK minimizedAffinity -0.444126397
REMARK minimizedRMSD -1
REMARK  0 active torsions:
REMARK  status: ('A' for Active; 'I' for Inactive)
ROOT
ATOM      1  C   UNL d   1       4.647  -5.068   1.541  0.00  0.00     0.023 A 
ATOM      2  C1  UNL d   1       3.276  -5.272   1.383  0.00  0.00     0.003 A 
ATOM      3  C2  UNL d   1       2.458  -4.224   0.957  0.00  0.00     0.048 A 
ATOM      4  C3  UNL d   1       3.017  -2.974   0.691  0.00  0.00     0.023 A 
ATOM      5  C4  UNL d   1       4.388  -2.766   0.848  0.00  0.00     0.048 A 
ATOM      6  C5  UNL d   1       5.202  -3.817   1.274  0.00  0.00     0.003 A 
ATOM      7  I   UNL d   1       1.801  -1.412   0.058  0.00  0.00    -0.146 I 
ENDROOT
TORSDOF 0
ENDMDL
