MODEL 1
REMARK minimizedAffinity -4.95635223
REMARK minimizedRMSD -1
REMARK  1 active torsions:
REMARK  status: ('A' for Active; 'I' for Inactive)
REMARK    1  A    between atoms: C1_2  and  C2_3 
ROOT
ATOM      1  C2  UNL d   1      -0.772   0.022  -0.200  0.00  0.00    -0.073 A 
ATOM      2  C3  UNL d   1      -1.142  -0.897  -1.188  0.00  0.00    -0.002 A 
ATOM      3  C4  UNL d   1      -0.347  -2.016  -1.443  0.00  0.00     0.004 A 
ATOM      4  C5  UNL d   1       0.820  -2.230  -0.710  0.00  0.00    -0.004 A 
ATOM      5  C6  UNL d   1       1.200  -1.329   0.290  0.00  0.00    -0.075 A 
ATOM      6  C7  UNL d   1       2.454  -1.544   1.086  0.00  0.00     0.076 C 
ATOM      7  C8  UNL d   1       0.398  -0.207   0.539  0.00  0.00     0.001 A 
ENDROOT
BRANCH   1   8
ATOM      8  C1  UNL d   1      -1.630   1.228   0.084  0.00  0.00     0.053 C 
ATOM      9  C   UNL d   1      -3.113   0.902   0.010  0.00  0.00     0.018 C 
ENDBRANCH   1   8
TORSDOF 1
ENDMDL
