MODEL 1
REMARK minimizedAffinity -5.33433008
REMARK minimizedRMSD -1
REMARK  0 active torsions:
REMARK  status: ('A' for Active; 'I' for Inactive)
ROOT
ATOM      1  C   UNL d   1       1.004   1.842   1.738  0.00  0.00     0.078 C 
ATOM      2  C1  UNL d   1       1.116   1.595   0.264  0.00  0.00    -0.077 A 
ATOM      3  C2  UNL d   1       0.978   0.306  -0.265  0.00  0.00    -0.001 A 
ATOM      4  C3  UNL d   1       1.094   0.090  -1.639  0.00  0.00     0.003 A 
ATOM      5  C4  UNL d   1       1.351   1.158  -2.496  0.00  0.00    -0.005 A 
ATOM      6  C5  UNL d   1       1.493   2.444  -1.979  0.00  0.00     0.003 A 
ATOM      7  C6  UNL d   1       1.377   2.662  -0.605  0.00  0.00    -0.001 A 
ENDROOT
TORSDOF 0
ENDMDL
