MODEL 1
REMARK minimizedAffinity -2.20754862
REMARK minimizedRMSD -1
REMARK  0 active torsions:
REMARK  status: ('A' for Active; 'I' for Inactive)
ROOT
ATOM      1  C   UNL d   1       1.162   4.913  -0.767  0.00  0.00     0.078 C 
ATOM      2  C1  UNL d   1       1.068   3.420  -0.871  0.00  0.00    -0.077 A 
ATOM      3  C2  UNL d   1       0.633   2.647   0.213  0.00  0.00    -0.001 A 
ATOM      4  C3  UNL d   1       0.560   1.257   0.104  0.00  0.00     0.003 A 
ATOM      5  C4  UNL d   1       0.921   0.628  -1.086  0.00  0.00    -0.005 A 
ATOM      6  C5  UNL d   1       1.357   1.389  -2.169  0.00  0.00     0.003 A 
ATOM      7  C6  UNL d   1       1.431   2.778  -2.062  0.00  0.00    -0.001 A 
ENDROOT
TORSDOF 0
ENDMDL
