MODEL 1
REMARK minimizedAffinity -5.82402563
REMARK minimizedRMSD -1
REMARK  0 active torsions:
REMARK  status: ('A' for Active; 'I' for Inactive)
ROOT
ATOM      1  C   UNL d   1       1.007  -1.956  -0.696  0.00  0.00     0.078 C 
ATOM      2  C1  UNL d   1       1.107  -0.463  -0.794  0.00  0.00    -0.077 A 
ATOM      3  C2  UNL d   1       1.181   0.331   0.356  0.00  0.00    -0.001 A 
ATOM      4  C3  UNL d   1       1.264   1.721   0.250  0.00  0.00     0.003 A 
ATOM      5  C4  UNL d   1       1.273   2.327  -1.004  0.00  0.00    -0.005 A 
ATOM      6  C5  UNL d   1       1.198   1.545  -2.155  0.00  0.00     0.003 A 
ATOM      7  C6  UNL d   1       1.115   0.156  -2.051  0.00  0.00    -0.001 A 
ENDROOT
TORSDOF 0
ENDMDL
