MODEL 1
REMARK minimizedAffinity -3.08570337
REMARK minimizedRMSD -1
REMARK  0 active torsions:
REMARK  status: ('A' for Active; 'I' for Inactive)
ROOT
ATOM      1  C   UNL d   1       0.745   3.490   0.635  0.00  0.00     0.078 C 
ATOM      2  C1  UNL d   1       1.212   2.213   0.003  0.00  0.00    -0.077 A 
ATOM      3  C2  UNL d   1       1.220   1.012   0.724  0.00  0.00    -0.001 A 
ATOM      4  C3  UNL d   1       1.667  -0.167   0.126  0.00  0.00     0.003 A 
ATOM      5  C4  UNL d   1       2.111  -0.158  -1.195  0.00  0.00    -0.005 A 
ATOM      6  C5  UNL d   1       2.109   1.033  -1.920  0.00  0.00     0.003 A 
ATOM      7  C6  UNL d   1       1.662   2.213  -1.323  0.00  0.00    -0.001 A 
ENDROOT
TORSDOF 0
ENDMDL
