MODEL 1
REMARK minimizedAffinity -5.88737726
REMARK minimizedRMSD -1
REMARK  0 active torsions:
REMARK  status: ('A' for Active; 'I' for Inactive)
ROOT
ATOM      1  C   UNL d   1       1.441   4.180  -1.408  0.00  0.00     0.078 C 
ATOM      2  C1  UNL d   1       1.271   2.735  -1.043  0.00  0.00    -0.077 A 
ATOM      3  C2  UNL d   1       0.830   2.360   0.232  0.00  0.00    -0.001 A 
ATOM      4  C3  UNL d   1       0.685   1.012   0.560  0.00  0.00     0.003 A 
ATOM      5  C4  UNL d   1       0.980   0.027  -0.380  0.00  0.00    -0.005 A 
ATOM      6  C5  UNL d   1       1.422   0.390  -1.651  0.00  0.00     0.003 A 
ATOM      7  C6  UNL d   1       1.567   1.738  -1.981  0.00  0.00    -0.001 A 
ENDROOT
TORSDOF 0
ENDMDL
