MODEL 1
REMARK minimizedAffinity -0.802039921
REMARK minimizedRMSD -1
REMARK  0 active torsions:
REMARK  status: ('A' for Active; 'I' for Inactive)
ROOT
ATOM      1  C   UNL d   1       2.133   3.294  -2.122  0.00  0.00     0.078 C 
ATOM      2  C1  UNL d   1       1.726   1.985  -1.516  0.00  0.00    -0.077 A 
ATOM      3  C2  UNL d   1       1.330   0.910  -2.320  0.00  0.00    -0.001 A 
ATOM      4  C3  UNL d   1       0.944  -0.301  -1.742  0.00  0.00     0.003 A 
ATOM      5  C4  UNL d   1       0.951  -0.447  -0.356  0.00  0.00    -0.005 A 
ATOM      6  C5  UNL d   1       1.342   0.617   0.453  0.00  0.00     0.003 A 
ATOM      7  C6  UNL d   1       1.728   1.829  -0.124  0.00  0.00    -0.001 A 
ENDROOT
TORSDOF 0
ENDMDL
