MODEL 1
REMARK minimizedAffinity -2.38916302
REMARK minimizedRMSD -1
REMARK  0 active torsions:
REMARK  status: ('A' for Active; 'I' for Inactive)
ROOT
ATOM      1  C   UNL d   1       1.806   4.031  -1.978  0.00  0.00     0.078 C 
ATOM      2  C1  UNL d   1       1.497   2.667  -1.439  0.00  0.00    -0.077 A 
ATOM      3  C2  UNL d   1       1.476   2.424  -0.060  0.00  0.00    -0.001 A 
ATOM      4  C3  UNL d   1       1.197   1.146   0.427  0.00  0.00     0.003 A 
ATOM      5  C4  UNL d   1       0.938   0.101  -0.457  0.00  0.00    -0.005 A 
ATOM      6  C5  UNL d   1       0.959   0.332  -1.831  0.00  0.00     0.003 A 
ATOM      7  C6  UNL d   1       1.238   1.609  -2.320  0.00  0.00    -0.001 A 
ENDROOT
TORSDOF 0
ENDMDL
