MODEL 1
REMARK minimizedAffinity -3.8686347
REMARK minimizedRMSD -1
REMARK  0 active torsions:
REMARK  status: ('A' for Active; 'I' for Inactive)
ROOT
ATOM      1  C   UNL d   1       1.679   3.731  -1.891  0.00  0.00     0.078 C 
ATOM      2  C1  UNL d   1       1.465   2.431  -1.174  0.00  0.00    -0.077 A 
ATOM      3  C2  UNL d   1       1.312   2.391   0.217  0.00  0.00    -0.001 A 
ATOM      4  C3  UNL d   1       1.124   1.173   0.872  0.00  0.00     0.003 A 
ATOM      5  C4  UNL d   1       1.088  -0.014   0.144  0.00  0.00    -0.005 A 
ATOM      6  C5  UNL d   1       1.242   0.015  -1.240  0.00  0.00     0.003 A 
ATOM      7  C6  UNL d   1       1.430   1.232  -1.897  0.00  0.00    -0.001 A 
ENDROOT
TORSDOF 0
ENDMDL
