MODEL 1
REMARK minimizedAffinity 2.09772086
REMARK minimizedRMSD -1
REMARK  0 active torsions:
REMARK  status: ('A' for Active; 'I' for Inactive)
ROOT
ATOM      1  C   UNL d   1       0.185  -1.491   4.877  0.00  0.00     0.078 C 
ATOM      2  C1  UNL d   1      -0.891  -2.418   4.396  0.00  0.00    -0.077 A 
ATOM      3  C2  UNL d   1      -0.591  -3.496   3.554  0.00  0.00    -0.001 A 
ATOM      4  C3  UNL d   1      -1.605  -4.345   3.106  0.00  0.00     0.003 A 
ATOM      5  C4  UNL d   1      -2.925  -4.124   3.493  0.00  0.00    -0.005 A 
ATOM      6  C5  UNL d   1      -3.233  -3.052   4.328  0.00  0.00     0.003 A 
ATOM      7  C6  UNL d   1      -2.221  -2.202   4.777  0.00  0.00    -0.001 A 
ENDROOT
TORSDOF 0
ENDMDL
