MODEL 1
REMARK minimizedAffinity -2.45634723
REMARK minimizedRMSD -1
REMARK  0 active torsions:
REMARK  status: ('A' for Active; 'I' for Inactive)
ROOT
ATOM      1  C   UNL d   1       1.089   3.771   0.395  0.00  0.00     0.078 C 
ATOM      2  C1  UNL d   1       1.318   2.499  -0.365  0.00  0.00    -0.077 A 
ATOM      3  C2  UNL d   1       0.847   2.347  -1.675  0.00  0.00    -0.001 A 
ATOM      4  C3  UNL d   1       1.059   1.154  -2.368  0.00  0.00     0.003 A 
ATOM      5  C4  UNL d   1       1.740   0.103  -1.758  0.00  0.00    -0.005 A 
ATOM      6  C5  UNL d   1       2.210   0.244  -0.454  0.00  0.00     0.003 A 
ATOM      7  C6  UNL d   1       2.000   1.436   0.240  0.00  0.00    -0.001 A 
ENDROOT
TORSDOF 0
ENDMDL
