MODEL 1
REMARK minimizedAffinity -3.19598055
REMARK minimizedRMSD -1
REMARK  0 active torsions:
REMARK  status: ('A' for Active; 'I' for Inactive)
ROOT
ATOM      1  C   UNL d   1       0.305   1.825   1.517  0.00  0.00     0.078 C 
ATOM      2  C1  UNL d   1       0.735   1.514   0.115  0.00  0.00    -0.077 A 
ATOM      3  C2  UNL d   1       0.924   0.191  -0.305  0.00  0.00    -0.001 A 
ATOM      4  C3  UNL d   1       1.334  -0.084  -1.611  0.00  0.00     0.003 A 
ATOM      5  C4  UNL d   1       1.559   0.959  -2.507  0.00  0.00    -0.005 A 
ATOM      6  C5  UNL d   1       1.376   2.278  -2.098  0.00  0.00     0.003 A 
ATOM      7  C6  UNL d   1       0.966   2.555  -0.793  0.00  0.00    -0.001 A 
ENDROOT
TORSDOF 0
ENDMDL
