MODEL 1
REMARK minimizedAffinity -2.90100217
REMARK minimizedRMSD -1
REMARK  0 active torsions:
REMARK  status: ('A' for Active; 'I' for Inactive)
ROOT
ATOM      1  C   UNL d   1       1.000  -0.897  -1.080  0.00  0.00     0.078 C 
ATOM      2  C1  UNL d   1       1.134   0.579  -0.853  0.00  0.00    -0.077 A 
ATOM      3  C2  UNL d   1       1.045   1.121   0.435  0.00  0.00    -0.001 A 
ATOM      4  C3  UNL d   1       1.162   2.499   0.630  0.00  0.00     0.003 A 
ATOM      5  C4  UNL d   1       1.366   3.345  -0.458  0.00  0.00    -0.005 A 
ATOM      6  C5  UNL d   1       1.453   2.814  -1.743  0.00  0.00     0.003 A 
ATOM      7  C6  UNL d   1       1.337   1.437  -1.940  0.00  0.00    -0.001 A 
ENDROOT
TORSDOF 0
ENDMDL
