MODEL 1
REMARK minimizedAffinity -2.18832994
REMARK minimizedRMSD -1
REMARK  0 active torsions:
REMARK  status: ('A' for Active; 'I' for Inactive)
ROOT
ATOM      1  C   UNL d   1       0.937  -0.694  -1.057  0.00  0.00     0.078 C 
ATOM      2  C1  UNL d   1       1.081   0.795  -0.953  0.00  0.00    -0.077 A 
ATOM      3  C2  UNL d   1       1.276   1.583  -2.094  0.00  0.00    -0.001 A 
ATOM      4  C3  UNL d   1       1.418   2.967  -1.981  0.00  0.00     0.003 A 
ATOM      5  C4  UNL d   1       1.368   3.575  -0.728  0.00  0.00    -0.005 A 
ATOM      6  C5  UNL d   1       1.177   2.799   0.413  0.00  0.00     0.003 A 
ATOM      7  C6  UNL d   1       1.034   1.415   0.302  0.00  0.00    -0.001 A 
ENDROOT
TORSDOF 0
ENDMDL
