MODEL 1
REMARK minimizedAffinity 0.474499643
REMARK minimizedRMSD -1
REMARK  0 active torsions:
REMARK  status: ('A' for Active; 'I' for Inactive)
ROOT
ATOM      1  C   UNL d   1      -1.800  -4.053  -5.296  0.00  0.00     0.078 C 
ATOM      2  C1  UNL d   1      -1.794  -4.057  -3.797  0.00  0.00    -0.077 A 
ATOM      3  C2  UNL d   1      -2.536  -3.119  -3.070  0.00  0.00    -0.001 A 
ATOM      4  C3  UNL d   1      -2.513  -3.129  -1.674  0.00  0.00     0.003 A 
ATOM      5  C4  UNL d   1      -1.749  -4.074  -0.993  0.00  0.00    -0.005 A 
ATOM      6  C5  UNL d   1      -1.006  -5.011  -1.708  0.00  0.00     0.003 A 
ATOM      7  C6  UNL d   1      -1.027  -5.003  -3.104  0.00  0.00    -0.001 A 
ENDROOT
TORSDOF 0
ENDMDL
