MODEL 1
REMARK minimizedAffinity 0.194938809
REMARK minimizedRMSD -1
REMARK  0 active torsions:
REMARK  status: ('A' for Active; 'I' for Inactive)
ROOT
ATOM      1  C   UNL d   1      -2.540   2.409   5.268  0.00  0.00     0.078 C 
ATOM      2  C1  UNL d   1      -2.922   2.577   3.828  0.00  0.00    -0.077 A 
ATOM      3  C2  UNL d   1      -2.409   3.633   3.064  0.00  0.00    -0.001 A 
ATOM      4  C3  UNL d   1      -2.781   3.783   1.727  0.00  0.00     0.003 A 
ATOM      5  C4  UNL d   1      -3.668   2.881   1.142  0.00  0.00    -0.005 A 
ATOM      6  C5  UNL d   1      -4.186   1.829   1.895  0.00  0.00     0.003 A 
ATOM      7  C6  UNL d   1      -3.815   1.677   3.232  0.00  0.00    -0.001 A 
ENDROOT
TORSDOF 0
ENDMDL
