MODEL 1
REMARK minimizedAffinity -0.141921014
REMARK minimizedRMSD -1
REMARK  0 active torsions:
REMARK  status: ('A' for Active; 'I' for Inactive)
ROOT
ATOM      1  C   UNL d   1       1.504   0.811  -1.530  0.00  0.00     0.078 C 
ATOM      2  C1  UNL d   1       1.460   2.284  -1.255  0.00  0.00    -0.077 A 
ATOM      3  C2  UNL d   1       1.208   2.771   0.033  0.00  0.00    -0.001 A 
ATOM      4  C3  UNL d   1       1.159   4.145   0.272  0.00  0.00     0.003 A 
ATOM      5  C4  UNL d   1       1.361   5.044  -0.773  0.00  0.00    -0.005 A 
ATOM      6  C5  UNL d   1       1.609   4.570  -2.060  0.00  0.00     0.003 A 
ATOM      7  C6  UNL d   1       1.658   3.196  -2.300  0.00  0.00    -0.001 A 
ENDROOT
TORSDOF 0
ENDMDL
