MODEL 1
REMARK minimizedAffinity -0.972747028
REMARK minimizedRMSD -1
REMARK  0 active torsions:
REMARK  status: ('A' for Active; 'I' for Inactive)
ROOT
ATOM      1  C   UNL d   1       1.283   1.856  -2.386  0.00  0.00     0.078 C 
ATOM      2  C1  UNL d   1       1.285   0.545  -1.658  0.00  0.00    -0.077 A 
ATOM      3  C2  UNL d   1       1.460   0.491  -0.270  0.00  0.00    -0.001 A 
ATOM      4  C3  UNL d   1       1.470  -0.738   0.393  0.00  0.00     0.003 A 
ATOM      5  C4  UNL d   1       1.306  -1.921  -0.324  0.00  0.00    -0.005 A 
ATOM      6  C5  UNL d   1       1.133  -1.877  -1.706  0.00  0.00     0.003 A 
ATOM      7  C6  UNL d   1       1.123  -0.650  -2.371  0.00  0.00    -0.001 A 
ENDROOT
TORSDOF 0
ENDMDL
