MODEL 1
REMARK minimizedAffinity -2.44668865
REMARK minimizedRMSD -1
REMARK  0 active torsions:
REMARK  status: ('A' for Active; 'I' for Inactive)
ROOT
ATOM      1  C   UNL d   1       1.032   0.210  -1.205  0.00  0.00     0.078 C 
ATOM      2  C1  UNL d   1       1.237   1.674  -0.953  0.00  0.00    -0.077 A 
ATOM      3  C2  UNL d   1       1.501   2.558  -2.007  0.00  0.00    -0.001 A 
ATOM      4  C3  UNL d   1       1.699   3.917  -1.756  0.00  0.00     0.003 A 
ATOM      5  C4  UNL d   1       1.637   4.404  -0.452  0.00  0.00    -0.005 A 
ATOM      6  C5  UNL d   1       1.378   3.532   0.603  0.00  0.00     0.003 A 
ATOM      7  C6  UNL d   1       1.179   2.173   0.354  0.00  0.00    -0.001 A 
ENDROOT
TORSDOF 0
ENDMDL
