MODEL 1
REMARK minimizedAffinity -5.88774967
REMARK minimizedRMSD -1
REMARK  0 active torsions:
REMARK  status: ('A' for Active; 'I' for Inactive)
ROOT
ATOM      1  C   UNL d   1       1.956   5.262  -1.068  0.00  0.00     0.078 C 
ATOM      2  C1  UNL d   1       1.541   3.848  -0.790  0.00  0.00    -0.077 A 
ATOM      3  C2  UNL d   1       1.455   2.906  -1.823  0.00  0.00    -0.001 A 
ATOM      4  C3  UNL d   1       1.058   1.596  -1.551  0.00  0.00     0.003 A 
ATOM      5  C4  UNL d   1       0.743   1.216  -0.248  0.00  0.00    -0.005 A 
ATOM      6  C5  UNL d   1       0.824   2.147   0.785  0.00  0.00     0.003 A 
ATOM      7  C6  UNL d   1       1.220   3.457   0.516  0.00  0.00    -0.001 A 
ENDROOT
TORSDOF 0
ENDMDL
