MODEL 1
REMARK minimizedAffinity -0.0998307094
REMARK minimizedRMSD -1
REMARK  0 active torsions:
REMARK  status: ('A' for Active; 'I' for Inactive)
ROOT
ATOM      1  C   UNL d   1       2.184  -1.249   0.426  0.00  0.00     0.020 A 
ATOM      2  C1  UNL d   1       2.126  -0.282  -0.577  0.00  0.00     0.020 A 
ATOM      3  C2  UNL d   1       0.980   0.502  -0.725  0.00  0.00     0.034 A 
ATOM      4  C3  UNL d   1      -0.113   0.320   0.130  0.00  0.00     0.017 A 
ATOM      5  C4  UNL d   1      -0.054  -0.651   1.136  0.00  0.00     0.017 A 
ATOM      6  C5  UNL d   1       1.096  -1.433   1.280  0.00  0.00     0.034 A 
ATOM      7 Cl   UNL d   1      -1.363  -0.933   2.229  0.00  0.00    -0.070 Cl
ATOM      8 Cl1  UNL d   1      -1.498   1.325  -0.111  0.00  0.00    -0.070 Cl
ENDROOT
TORSDOF 0
ENDMDL
