MODEL 1
REMARK minimizedAffinity -1.08295655
REMARK minimizedRMSD -1
REMARK  0 active torsions:
REMARK  status: ('A' for Active; 'I' for Inactive)
ROOT
ATOM      1  C   UNL d   1       1.053  -1.837   1.877  0.00  0.00     0.020 A 
ATOM      2  C1  UNL d   1      -0.224  -1.289   1.982  0.00  0.00     0.020 A 
ATOM      3  C2  UNL d   1      -0.640  -0.307   1.080  0.00  0.00     0.034 A 
ATOM      4  C3  UNL d   1       0.223   0.129   0.068  0.00  0.00     0.017 A 
ATOM      5  C4  UNL d   1       1.505  -0.421  -0.037  0.00  0.00     0.017 A 
ATOM      6  C5  UNL d   1       1.916  -1.404   0.869  0.00  0.00     0.034 A 
ATOM      7 Cl   UNL d   1       2.626   0.067  -1.259  0.00  0.00    -0.070 Cl
ATOM      8 Cl1  UNL d   1      -0.358   1.346  -1.013  0.00  0.00    -0.070 Cl
ENDROOT
TORSDOF 0
ENDMDL
