MODEL 1
REMARK minimizedAffinity -0.797483742
REMARK minimizedRMSD -1
REMARK  0 active torsions:
REMARK  status: ('A' for Active; 'I' for Inactive)
ROOT
ATOM      1  C   UNL d   1      -0.502  -0.083  -0.477  0.00  0.00     0.020 A 
ATOM      2  C1  UNL d   1      -0.072   1.027   0.249  0.00  0.00     0.020 A 
ATOM      3  C2  UNL d   1      -0.496   2.306  -0.115  0.00  0.00     0.034 A 
ATOM      4  C3  UNL d   1      -1.353   2.479  -1.208  0.00  0.00     0.017 A 
ATOM      5  C4  UNL d   1      -1.785   1.364  -1.936  0.00  0.00     0.017 A 
ATOM      6  C5  UNL d   1      -1.357   0.085  -1.567  0.00  0.00     0.034 A 
ATOM      7 Cl   UNL d   1      -2.842   1.498  -3.296  0.00  0.00    -0.070 Cl
ATOM      8 Cl1  UNL d   1      -1.838   4.090  -1.602  0.00  0.00    -0.070 Cl
ENDROOT
TORSDOF 0
ENDMDL
