MODEL 1
REMARK minimizedAffinity -2.67358565
REMARK minimizedRMSD -1
REMARK  0 active torsions:
REMARK  status: ('A' for Active; 'I' for Inactive)
ROOT
ATOM      1  C   UNL d   1       1.029  -0.510  -0.438  0.00  0.00     0.020 A 
ATOM      2  C1  UNL d   1       0.794   0.596   0.377  0.00  0.00     0.020 A 
ATOM      3  C2  UNL d   1      -0.152   1.552   0.001  0.00  0.00     0.034 A 
ATOM      4  C3  UNL d   1      -0.866   1.404  -1.194  0.00  0.00     0.017 A 
ATOM      5  C4  UNL d   1      -0.629   0.293  -2.012  0.00  0.00     0.017 A 
ATOM      6  C5  UNL d   1       0.320  -0.661  -1.630  0.00  0.00     0.034 A 
ATOM      7 Cl   UNL d   1      -1.470   0.041  -3.500  0.00  0.00    -0.070 Cl
ATOM      8 Cl1  UNL d   1      -2.021   2.624  -1.597  0.00  0.00    -0.070 Cl
ENDROOT
TORSDOF 0
ENDMDL
