MODEL 1
REMARK minimizedAffinity -0.58886224
REMARK minimizedRMSD -1
REMARK  0 active torsions:
REMARK  status: ('A' for Active; 'I' for Inactive)
ROOT
ATOM      1  C   UNL d   1      -1.208   1.367  -0.004  0.00  0.00     0.020 A 
ATOM      2  C1  UNL d   1       0.010   0.982  -0.562  0.00  0.00     0.020 A 
ATOM      3  C2  UNL d   1       0.726  -0.083  -0.010  0.00  0.00     0.034 A 
ATOM      4  C3  UNL d   1       0.224  -0.766   1.104  0.00  0.00     0.017 A 
ATOM      5  C4  UNL d   1      -1.000  -0.379   1.663  0.00  0.00     0.017 A 
ATOM      6  C5  UNL d   1      -1.712   0.687   1.106  0.00  0.00     0.034 A 
ATOM      7 Cl   UNL d   1      -1.683  -1.174   3.037  0.00  0.00    -0.070 Cl
ATOM      8 Cl1  UNL d   1       1.161  -2.074   1.734  0.00  0.00    -0.070 Cl
ENDROOT
TORSDOF 0
ENDMDL
