MODEL 1
REMARK minimizedAffinity -3.50766516
REMARK minimizedRMSD -1
REMARK  0 active torsions:
REMARK  status: ('A' for Active; 'I' for Inactive)
ROOT
ATOM      1  C   UNL d   1       2.038  -1.983   0.218  0.00  0.00     0.020 A 
ATOM      2  C1  UNL d   1       1.892  -0.934  -0.688  0.00  0.00     0.020 A 
ATOM      3  C2  UNL d   1       0.942   0.063  -0.455  0.00  0.00     0.034 A 
ATOM      4  C3  UNL d   1       0.134   0.012   0.687  0.00  0.00     0.017 A 
ATOM      5  C4  UNL d   1       0.281  -1.042   1.596  0.00  0.00     0.017 A 
ATOM      6  C5  UNL d   1       1.234  -2.037   1.358  0.00  0.00     0.034 A 
ATOM      7 Cl   UNL d   1      -0.678  -1.172   3.027  0.00  0.00    -0.070 Cl
ATOM      8 Cl1  UNL d   1      -1.020   1.278   0.912  0.00  0.00    -0.070 Cl
ENDROOT
TORSDOF 0
ENDMDL
