MODEL 1
REMARK minimizedAffinity 4.50959396
REMARK minimizedRMSD -1
REMARK  0 active torsions:
REMARK  status: ('A' for Active; 'I' for Inactive)
ROOT
ATOM      1  C   UNL d   1      -1.240   2.291  -3.213  0.00  0.00     0.020 A 
ATOM      2  C1  UNL d   1      -2.397   1.588  -2.880  0.00  0.00     0.020 A 
ATOM      3  C2  UNL d   1      -2.423   0.788  -1.735  0.00  0.00     0.034 A 
ATOM      4  C3  UNL d   1      -1.290   0.690  -0.919  0.00  0.00     0.017 A 
ATOM      5  C4  UNL d   1      -0.129   1.396  -1.255  0.00  0.00     0.017 A 
ATOM      6  C5  UNL d   1      -0.109   2.195  -2.402  0.00  0.00     0.034 A 
ATOM      7 Cl   UNL d   1       1.308   1.325  -0.297  0.00  0.00    -0.070 Cl
ATOM      8 Cl1  UNL d   1      -1.393  -0.317   0.481  0.00  0.00    -0.070 Cl
ENDROOT
TORSDOF 0
ENDMDL
