MODEL 1
REMARK minimizedAffinity -3.23656368
REMARK minimizedRMSD -1
REMARK  0 active torsions:
REMARK  status: ('A' for Active; 'I' for Inactive)
ROOT
ATOM      1  C   UNL d   1      -0.254  -1.617   2.570  0.00  0.00     0.020 A 
ATOM      2  C1  UNL d   1       1.041  -2.116   2.433  0.00  0.00     0.020 A 
ATOM      3  C2  UNL d   1       1.822  -1.740   1.339  0.00  0.00     0.034 A 
ATOM      4  C3  UNL d   1       1.310  -0.861   0.378  0.00  0.00     0.017 A 
ATOM      5  C4  UNL d   1       0.011  -0.359   0.516  0.00  0.00     0.017 A 
ATOM      6  C5  UNL d   1      -0.767  -0.740   1.614  0.00  0.00     0.034 A 
ATOM      7 Cl   UNL d   1      -0.690   0.729  -0.629  0.00  0.00    -0.070 Cl
ATOM      8 Cl1  UNL d   1       2.333  -0.437  -0.949  0.00  0.00    -0.070 Cl
ENDROOT
TORSDOF 0
ENDMDL
