MODEL 1
REMARK minimizedAffinity -2.1327095
REMARK minimizedRMSD -1
REMARK  0 active torsions:
REMARK  status: ('A' for Active; 'I' for Inactive)
ROOT
ATOM      1  C   UNL d   1       2.152  -0.137  -1.155  0.00  0.00     0.020 A 
ATOM      2  C1  UNL d   1       2.388  -1.203  -0.288  0.00  0.00     0.020 A 
ATOM      3  C2  UNL d   1       1.526  -1.435   0.786  0.00  0.00     0.034 A 
ATOM      4  C3  UNL d   1       0.423  -0.599   0.995  0.00  0.00     0.017 A 
ATOM      5  C4  UNL d   1       0.186   0.471   0.125  0.00  0.00     0.017 A 
ATOM      6  C5  UNL d   1       1.053   0.698  -0.949  0.00  0.00     0.034 A 
ATOM      7 Cl   UNL d   1      -1.154   1.545   0.319  0.00  0.00    -0.070 Cl
ATOM      8 Cl1  UNL d   1      -0.602  -0.944   2.343  0.00  0.00    -0.070 Cl
ENDROOT
TORSDOF 0
ENDMDL
