MODEL 1
REMARK minimizedAffinity -3.78618169
REMARK minimizedRMSD -1
REMARK  0 active torsions:
REMARK  status: ('A' for Active; 'I' for Inactive)
ROOT
ATOM      1  C   UNL d   1       1.649  -0.149  -0.627  0.00  0.00     0.020 A 
ATOM      2  C1  UNL d   1       2.248  -1.199   0.068  0.00  0.00     0.020 A 
ATOM      3  C2  UNL d   1       1.730  -1.605   1.300  0.00  0.00     0.034 A 
ATOM      4  C3  UNL d   1       0.610  -0.960   1.840  0.00  0.00     0.017 A 
ATOM      5  C4  UNL d   1       0.011   0.093   1.141  0.00  0.00     0.017 A 
ATOM      6  C5  UNL d   1       0.533   0.496  -0.092  0.00  0.00     0.034 A 
ATOM      7 Cl   UNL d   1      -1.373   0.937   1.742  0.00  0.00    -0.070 Cl
ATOM      8 Cl1  UNL d   1       0.023  -1.515   3.367  0.00  0.00    -0.070 Cl
ENDROOT
TORSDOF 0
ENDMDL
