MODEL 1
REMARK minimizedAffinity -2.33648181
REMARK minimizedRMSD -1
REMARK  0 active torsions:
REMARK  status: ('A' for Active; 'I' for Inactive)
ROOT
ATOM      1  C   UNL d   1      -0.920   1.406  -0.309  0.00  0.00     0.020 A 
ATOM      2  C1  UNL d   1       0.305   1.125  -0.913  0.00  0.00     0.020 A 
ATOM      3  C2  UNL d   1       1.128   0.126  -0.389  0.00  0.00     0.034 A 
ATOM      4  C3  UNL d   1       0.728  -0.596   0.741  0.00  0.00     0.017 A 
ATOM      5  C4  UNL d   1      -0.502  -0.313   1.346  0.00  0.00     0.017 A 
ATOM      6  C5  UNL d   1      -1.323   0.688   0.817  0.00  0.00     0.034 A 
ATOM      7 Cl   UNL d   1      -1.065  -1.162   2.743  0.00  0.00    -0.070 Cl
ATOM      8 Cl1  UNL d   1       1.796  -1.818   1.334  0.00  0.00    -0.070 Cl
ENDROOT
TORSDOF 0
ENDMDL
