MODEL 1
REMARK minimizedAffinity -2.038517
REMARK minimizedRMSD -1
REMARK  0 active torsions:
REMARK  status: ('A' for Active; 'I' for Inactive)
ROOT
ATOM      1  C   UNL d   1       1.926  -0.829  -0.075  0.00  0.00     0.020 A 
ATOM      2  C1  UNL d   1       1.688  -1.558   1.090  0.00  0.00     0.020 A 
ATOM      3  C2  UNL d   1       0.475  -1.416   1.767  0.00  0.00     0.034 A 
ATOM      4  C3  UNL d   1      -0.504  -0.543   1.280  0.00  0.00     0.017 A 
ATOM      5  C4  UNL d   1      -0.265   0.188   0.111  0.00  0.00     0.017 A 
ATOM      6  C5  UNL d   1       0.951   0.042  -0.563  0.00  0.00     0.034 A 
ATOM      7 Cl   UNL d   1      -1.425   1.285  -0.550  0.00  0.00    -0.070 Cl
ATOM      8 Cl1  UNL d   1      -1.981  -0.417   2.169  0.00  0.00    -0.070 Cl
ENDROOT
TORSDOF 0
ENDMDL
