MODEL 1
REMARK minimizedAffinity -1.61995816
REMARK minimizedRMSD -1
REMARK  0 active torsions:
REMARK  status: ('A' for Active; 'I' for Inactive)
ROOT
ATOM      1  C   UNL d   1       0.412   1.131  -0.481  0.00  0.00     0.020 A 
ATOM      2  C1  UNL d   1      -0.679   0.342  -0.122  0.00  0.00     0.020 A 
ATOM      3  C2  UNL d   1      -0.491  -0.786   0.679  0.00  0.00     0.034 A 
ATOM      4  C3  UNL d   1       0.791  -1.128   1.123  0.00  0.00     0.017 A 
ATOM      5  C4  UNL d   1       1.886  -0.335   0.762  0.00  0.00     0.017 A 
ATOM      6  C5  UNL d   1       1.692   0.794  -0.040  0.00  0.00     0.034 A 
ATOM      7 Cl   UNL d   1       3.499  -0.693   1.271  0.00  0.00    -0.070 Cl
ATOM      8 Cl1  UNL d   1       0.951  -2.537   2.111  0.00  0.00    -0.070 Cl
ENDROOT
TORSDOF 0
ENDMDL
