MODEL 1
REMARK minimizedAffinity -3.87761068
REMARK minimizedRMSD -1
REMARK  0 active torsions:
REMARK  status: ('A' for Active; 'I' for Inactive)
ROOT
ATOM      1  C   UNL d   1      -0.307   0.366  -0.405  0.00  0.00     0.020 A 
ATOM      2  C1  UNL d   1      -0.834   1.591   0.002  0.00  0.00     0.020 A 
ATOM      3  C2  UNL d   1      -1.800   2.229  -0.779  0.00  0.00     0.034 A 
ATOM      4  C3  UNL d   1      -2.242   1.642  -1.970  0.00  0.00     0.017 A 
ATOM      5  C4  UNL d   1      -1.712   0.412  -2.378  0.00  0.00     0.017 A 
ATOM      6  C5  UNL d   1      -0.745  -0.222  -1.592  0.00  0.00     0.034 A 
ATOM      7 Cl   UNL d   1      -2.208  -0.374  -3.835  0.00  0.00    -0.070 Cl
ATOM      8 Cl1  UNL d   1      -3.440   2.486  -2.886  0.00  0.00    -0.070 Cl
ENDROOT
TORSDOF 0
ENDMDL
