MODEL 1
REMARK minimizedAffinity -2.47760272
REMARK minimizedRMSD -1
REMARK  0 active torsions:
REMARK  status: ('A' for Active; 'I' for Inactive)
ROOT
ATOM      1  C   UNL d   1       1.428  -1.060   1.643  0.00  0.00     0.020 A 
ATOM      2  C1  UNL d   1       2.331  -1.827   0.908  0.00  0.00     0.020 A 
ATOM      3  C2  UNL d   1       2.422  -1.663  -0.476  0.00  0.00     0.034 A 
ATOM      4  C3  UNL d   1       1.609  -0.730  -1.129  0.00  0.00     0.017 A 
ATOM      5  C4  UNL d   1       0.703   0.040  -0.391  0.00  0.00     0.017 A 
ATOM      6  C5  UNL d   1       0.616  -0.128   0.994  0.00  0.00     0.034 A 
ATOM      7 Cl   UNL d   1      -0.333   1.211  -1.127  0.00  0.00    -0.070 Cl
ATOM      8 Cl1  UNL d   1       1.775  -0.580  -2.843  0.00  0.00    -0.070 Cl
ENDROOT
TORSDOF 0
ENDMDL
