MODEL 1
REMARK minimizedAffinity -2.40616179
REMARK minimizedRMSD -1
REMARK  0 active torsions:
REMARK  status: ('A' for Active; 'I' for Inactive)
ROOT
ATOM      1  C   UNL d   1       1.463  -2.131   1.990  0.00  0.00     0.020 A 
ATOM      2  C1  UNL d   1       0.141  -1.777   2.256  0.00  0.00     0.020 A 
ATOM      3  C2  UNL d   1      -0.524  -0.879   1.418  0.00  0.00     0.034 A 
ATOM      4  C3  UNL d   1       0.134  -0.332   0.310  0.00  0.00     0.017 A 
ATOM      5  C4  UNL d   1       1.461  -0.688   0.044  0.00  0.00     0.017 A 
ATOM      6  C5  UNL d   1       2.122  -1.587   0.886  0.00  0.00     0.034 A 
ATOM      7 Cl   UNL d   1       2.338  -0.054  -1.304  0.00  0.00    -0.070 Cl
ATOM      8 Cl1  UNL d   1      -0.750   0.772  -0.684  0.00  0.00    -0.070 Cl
ENDROOT
TORSDOF 0
ENDMDL
