MODEL 1
REMARK minimizedAffinity -3.25759888
REMARK minimizedRMSD -1
REMARK  0 active torsions:
REMARK  status: ('A' for Active; 'I' for Inactive)
ROOT
ATOM      1  C   UNL d   1       2.098  -1.318   1.046  0.00  0.00     0.020 A 
ATOM      2  C1  UNL d   1       2.331  -1.235  -0.326  0.00  0.00     0.020 A 
ATOM      3  C2  UNL d   1       1.477  -0.481  -1.134  0.00  0.00     0.034 A 
ATOM      4  C3  UNL d   1       0.387   0.193  -0.571  0.00  0.00     0.017 A 
ATOM      5  C4  UNL d   1       0.155   0.109   0.807  0.00  0.00     0.017 A 
ATOM      6  C5  UNL d   1       1.013  -0.648   1.611  0.00  0.00     0.034 A 
ATOM      7 Cl   UNL d   1      -1.169   0.912   1.574  0.00  0.00    -0.070 Cl
ATOM      8 Cl1  UNL d   1      -0.626   1.108  -1.630  0.00  0.00    -0.070 Cl
ENDROOT
TORSDOF 0
ENDMDL
