MODEL 1
REMARK minimizedAffinity -3.41908407
REMARK minimizedRMSD -1
REMARK  0 active torsions:
REMARK  status: ('A' for Active; 'I' for Inactive)
ROOT
ATOM      1  C   UNL d   1       0.214  -2.520   2.448  0.00  0.00     0.020 A 
ATOM      2  C1  UNL d   1      -0.877  -1.663   2.591  0.00  0.00     0.020 A 
ATOM      3  C2  UNL d   1      -0.989  -0.533   1.777  0.00  0.00     0.034 A 
ATOM      4  C3  UNL d   1      -0.009  -0.258   0.816  0.00  0.00     0.017 A 
ATOM      5  C4  UNL d   1       1.086  -1.119   0.674  0.00  0.00     0.017 A 
ATOM      6  C5  UNL d   1       1.193  -2.248   1.491  0.00  0.00     0.034 A 
ATOM      7 Cl   UNL d   1       2.335  -0.845  -0.489  0.00  0.00    -0.070 Cl
ATOM      8 Cl1  UNL d   1      -0.211   1.156  -0.156  0.00  0.00    -0.070 Cl
ENDROOT
TORSDOF 0
ENDMDL
