MODEL 1
REMARK minimizedAffinity -1.67561138
REMARK minimizedRMSD -1
REMARK  0 active torsions:
REMARK  status: ('A' for Active; 'I' for Inactive)
ROOT
ATOM      1  C   UNL d   1      -1.974   1.163   0.151  0.00  0.00     0.020 A 
ATOM      2  C1  UNL d   1      -0.967   1.157  -0.814  0.00  0.00     0.020 A 
ATOM      3  C2  UNL d   1       0.191   0.403  -0.610  0.00  0.00     0.034 A 
ATOM      4  C3  UNL d   1       0.345  -0.347   0.561  0.00  0.00     0.017 A 
ATOM      5  C4  UNL d   1      -0.666  -0.341   1.529  0.00  0.00     0.017 A 
ATOM      6  C5  UNL d   1      -1.823   0.416   1.320  0.00  0.00     0.034 A 
ATOM      7 Cl   UNL d   1      -0.548  -1.242   2.999  0.00  0.00    -0.070 Cl
ATOM      8 Cl1  UNL d   1       1.803  -1.256   0.747  0.00  0.00    -0.070 Cl
ENDROOT
TORSDOF 0
ENDMDL
