MODEL 1
REMARK minimizedAffinity -3.35069418
REMARK minimizedRMSD -1
REMARK  1 active torsions:
REMARK  status: ('A' for Active; 'I' for Inactive)
REMARK    1  A    between atoms: C3_4  and  O_7 
ROOT
ATOM      1  C   UNL d   1      -0.134  -0.073   0.582  0.00  0.00    -0.033 A 
ATOM      2  C1  UNL d   1      -0.278  -1.096  -0.357  0.00  0.00     0.039 A 
ATOM      3  C2  UNL d   1       0.359  -1.003  -1.596  0.00  0.00    -0.080 A 
ATOM      4  C3  UNL d   1       1.138   0.115  -1.882  0.00  0.00     0.150 A 
ATOM      5  C4  UNL d   1       1.290   1.136  -0.949  0.00  0.00    -0.007 A 
ATOM      6  C5  UNL d   1       0.651   1.042   0.287  0.00  0.00     0.039 A 
ENDROOT
BRANCH   4   7
ATOM      7  O   UNL d   1       1.776   0.252  -3.079  0.00  0.00    -0.526 OA
ATOM      8  H5  UNL d   1       1.557  -0.515  -3.634  0.00  0.00     0.418 HD
ENDBRANCH   4   7
TORSDOF 1
ENDMDL
