MODEL 1
REMARK minimizedAffinity -3.81236959
REMARK minimizedRMSD -1
REMARK  1 active torsions:
REMARK  status: ('A' for Active; 'I' for Inactive)
REMARK    1  A    between atoms: C3_4  and  O_7 
ROOT
ATOM      1  C   UNL d   1       1.375   0.452  -2.734  0.00  0.00    -0.033 A 
ATOM      2  C1  UNL d   1       1.976   1.139  -1.677  0.00  0.00     0.039 A 
ATOM      3  C2  UNL d   1       1.582   0.883  -0.362  0.00  0.00    -0.080 A 
ATOM      4  C3  UNL d   1       0.589  -0.062  -0.118  0.00  0.00     0.150 A 
ATOM      5  C4  UNL d   1      -0.011  -0.753  -1.165  0.00  0.00    -0.007 A 
ATOM      6  C5  UNL d   1       0.383  -0.495  -2.478  0.00  0.00     0.039 A 
ENDROOT
BRANCH   4   7
ATOM      7  O   UNL d   1       0.169  -0.343   1.149  0.00  0.00    -0.526 OA
ATOM      8  H5  UNL d   1       0.651   0.230   1.767  0.00  0.00     0.418 HD
ENDBRANCH   4   7
TORSDOF 1
ENDMDL
