MODEL 1
REMARK minimizedAffinity -4.74217987
REMARK minimizedRMSD -1
REMARK  1 active torsions:
REMARK  status: ('A' for Active; 'I' for Inactive)
REMARK    1  A    between atoms: C3_4  and  O_7 
ROOT
ATOM      1  C   UNL d   1       0.560  -1.770  -0.376  0.00  0.00    -0.033 A 
ATOM      2  C1  UNL d   1      -0.069  -0.589  -0.776  0.00  0.00     0.039 A 
ATOM      3  C2  UNL d   1       0.430   0.137  -1.859  0.00  0.00    -0.080 A 
ATOM      4  C3  UNL d   1       1.556  -0.327  -2.533  0.00  0.00     0.150 A 
ATOM      5  C4  UNL d   1       2.185  -1.505  -2.142  0.00  0.00    -0.007 A 
ATOM      6  C5  UNL d   1       1.686  -2.229  -1.060  0.00  0.00     0.039 A 
ENDROOT
BRANCH   4   7
ATOM      7  O   UNL d   1       2.082   0.350  -3.592  0.00  0.00    -0.526 OA
ATOM      8  H5  UNL d   1       1.561   1.159  -3.730  0.00  0.00     0.418 HD
ENDBRANCH   4   7
TORSDOF 1
ENDMDL
