MODEL 1
REMARK minimizedAffinity -3.94220781
REMARK minimizedRMSD -1
REMARK  1 active torsions:
REMARK  status: ('A' for Active; 'I' for Inactive)
REMARK    1  A    between atoms: C3_4  and  O_7 
ROOT
ATOM      1  C   UNL d   1       0.324  -0.509  -1.141  0.00  0.00    -0.033 A 
ATOM      2  C1  UNL d   1       0.796   0.432  -0.224  0.00  0.00     0.039 A 
ATOM      3  C2  UNL d   1       2.086   0.950  -0.355  0.00  0.00    -0.080 A 
ATOM      4  C3  UNL d   1       2.892   0.521  -1.406  0.00  0.00     0.150 A 
ATOM      5  C4  UNL d   1       2.426  -0.413  -2.326  0.00  0.00    -0.007 A 
ATOM      6  C5  UNL d   1       1.138  -0.930  -2.193  0.00  0.00     0.039 A 
ENDROOT
BRANCH   4   7
ATOM      7  O   UNL d   1       4.159   0.995  -1.572  0.00  0.00    -0.526 OA
ATOM      8  H5  UNL d   1       4.355   1.611  -0.846  0.00  0.00     0.418 HD
ENDBRANCH   4   7
TORSDOF 1
ENDMDL
