MODEL 1
REMARK minimizedAffinity -5.34784031
REMARK minimizedRMSD -1
REMARK  1 active torsions:
REMARK  status: ('A' for Active; 'I' for Inactive)
REMARK    1  A    between atoms: C3_4  and  O_7 
ROOT
ATOM      1  C   UNL d   1       2.081  -1.052  -2.505  0.00  0.00    -0.033 A 
ATOM      2  C1  UNL d   1       1.881   0.234  -2.000  0.00  0.00     0.039 A 
ATOM      3  C2  UNL d   1       1.288   0.410  -0.748  0.00  0.00    -0.080 A 
ATOM      4  C3  UNL d   1       0.902  -0.707  -0.012  0.00  0.00     0.150 A 
ATOM      5  C4  UNL d   1       1.102  -1.991  -0.508  0.00  0.00    -0.007 A 
ATOM      6  C5  UNL d   1       1.693  -2.165  -1.758  0.00  0.00     0.039 A 
ENDROOT
BRANCH   4   7
ATOM      7  O   UNL d   1       0.315  -0.585   1.212  0.00  0.00    -0.526 OA
ATOM      8  H5  UNL d   1       0.215   0.360   1.413  0.00  0.00     0.418 HD
ENDBRANCH   4   7
TORSDOF 1
ENDMDL
