MODEL 1
REMARK minimizedAffinity -4.29011774
REMARK minimizedRMSD -1
REMARK  1 active torsions:
REMARK  status: ('A' for Active; 'I' for Inactive)
REMARK    1  A    between atoms: C3_4  and  O_7 
ROOT
ATOM      1  C   UNL d   1       0.509   0.236  -0.054  0.00  0.00    -0.033 A 
ATOM      2  C1  UNL d   1       1.571   1.057  -0.438  0.00  0.00     0.039 A 
ATOM      3  C2  UNL d   1       2.096   0.963  -1.728  0.00  0.00    -0.080 A 
ATOM      4  C3  UNL d   1       1.552   0.047  -2.623  0.00  0.00     0.150 A 
ATOM      5  C4  UNL d   1       0.491  -0.772  -2.249  0.00  0.00    -0.007 A 
ATOM      6  C5  UNL d   1      -0.032  -0.678  -0.960  0.00  0.00     0.039 A 
ENDROOT
BRANCH   4   7
ATOM      7  O   UNL d   1       2.035  -0.084  -3.892  0.00  0.00    -0.526 OA
ATOM      8  H5  UNL d   1       2.784   0.525  -4.000  0.00  0.00     0.418 HD
ENDBRANCH   4   7
TORSDOF 1
ENDMDL
