MODEL 1
REMARK minimizedAffinity -2.97558618
REMARK minimizedRMSD -1
REMARK  1 active torsions:
REMARK  status: ('A' for Active; 'I' for Inactive)
REMARK    1  A    between atoms: C3_4  and  O_7 
ROOT
ATOM      1  C   UNL d   1       0.577   0.219  -1.139  0.00  0.00    -0.033 A 
ATOM      2  C1  UNL d   1       0.123   0.466   0.158  0.00  0.00     0.039 A 
ATOM      3  C2  UNL d   1      -0.144  -0.598   1.021  0.00  0.00    -0.080 A 
ATOM      4  C3  UNL d   1       0.048  -1.903   0.576  0.00  0.00     0.150 A 
ATOM      5  C4  UNL d   1       0.504  -2.157  -0.714  0.00  0.00    -0.007 A 
ATOM      6  C5  UNL d   1       0.768  -1.093  -1.575  0.00  0.00     0.039 A 
ENDROOT
BRANCH   4   7
ATOM      7  O   UNL d   1      -0.203  -2.975   1.380  0.00  0.00    -0.526 OA
ATOM      8  H5  UNL d   1      -0.539  -2.649   2.232  0.00  0.00     0.418 HD
ENDBRANCH   4   7
TORSDOF 1
ENDMDL
