MODEL 1
REMARK minimizedAffinity -4.56997395
REMARK minimizedRMSD -1
REMARK  1 active torsions:
REMARK  status: ('A' for Active; 'I' for Inactive)
REMARK    1  A    between atoms: C3_4  and  O_7 
ROOT
ATOM      1  C   UNL d   1       0.437  -1.450  -1.807  0.00  0.00    -0.033 A 
ATOM      2  C1  UNL d   1       0.213  -2.157  -0.623  0.00  0.00     0.039 A 
ATOM      3  C2  UNL d   1      -0.398  -1.527   0.463  0.00  0.00    -0.080 A 
ATOM      4  C3  UNL d   1      -0.781  -0.193   0.352  0.00  0.00     0.150 A 
ATOM      5  C4  UNL d   1      -0.564   0.516  -0.825  0.00  0.00    -0.007 A 
ATOM      6  C5  UNL d   1       0.047  -0.115  -1.908  0.00  0.00     0.039 A 
ENDROOT
BRANCH   4   7
ATOM      7  O   UNL d   1      -1.376   0.465   1.387  0.00  0.00    -0.526 OA
ATOM      8  H5  UNL d   1      -1.435  -0.141   2.144  0.00  0.00     0.418 HD
ENDBRANCH   4   7
TORSDOF 1
ENDMDL
