MODEL 1
REMARK minimizedAffinity -4.17948818
REMARK minimizedRMSD -1
REMARK  1 active torsions:
REMARK  status: ('A' for Active; 'I' for Inactive)
REMARK    1  A    between atoms: C3_4  and  O_7 
ROOT
ATOM      1  C   UNL d   1      -3.033   0.077   1.872  0.00  0.00    -0.033 A 
ATOM      2  C1  UNL d   1      -1.880   0.722   2.324  0.00  0.00     0.039 A 
ATOM      3  C2  UNL d   1      -1.927   2.071   2.681  0.00  0.00    -0.080 A 
ATOM      4  C3  UNL d   1      -3.132   2.762   2.583  0.00  0.00     0.150 A 
ATOM      5  C4  UNL d   1      -4.285   2.124   2.138  0.00  0.00    -0.007 A 
ATOM      6  C5  UNL d   1      -4.236   0.777   1.780  0.00  0.00     0.039 A 
ENDROOT
BRANCH   4   7
ATOM      7  O   UNL d   1      -3.226   4.080   2.916  0.00  0.00    -0.526 OA
ATOM      8  H5  UNL d   1      -2.345   4.395   3.179  0.00  0.00     0.418 HD
ENDBRANCH   4   7
TORSDOF 1
ENDMDL
