MODEL 1
REMARK minimizedAffinity -3.29141307
REMARK minimizedRMSD -1
REMARK  1 active torsions:
REMARK  status: ('A' for Active; 'I' for Inactive)
REMARK    1  A    between atoms: C3_4  and  O_7 
ROOT
ATOM      1  C   UNL d   1      -2.873  -0.193   1.251  0.00  0.00    -0.033 A 
ATOM      2  C1  UNL d   1      -4.114   0.417   1.450  0.00  0.00     0.039 A 
ATOM      3  C2  UNL d   1      -4.182   1.725   1.932  0.00  0.00    -0.080 A 
ATOM      4  C3  UNL d   1      -3.003   2.413   2.210  0.00  0.00     0.150 A 
ATOM      5  C4  UNL d   1      -1.764   1.814   2.010  0.00  0.00    -0.007 A 
ATOM      6  C5  UNL d   1      -1.698   0.506   1.530  0.00  0.00     0.039 A 
ENDROOT
BRANCH   4   7
ATOM      7  O   UNL d   1      -3.019   3.690   2.687  0.00  0.00    -0.526 OA
ATOM      8  H5  UNL d   1      -3.945   3.964   2.802  0.00  0.00     0.418 HD
ENDBRANCH   4   7
TORSDOF 1
ENDMDL
