MODEL 1
REMARK minimizedAffinity -4.75106287
REMARK minimizedRMSD -1
REMARK  1 active torsions:
REMARK  status: ('A' for Active; 'I' for Inactive)
REMARK    1  A    between atoms: C3_4  and  O_7 
ROOT
ATOM      1  C   UNL d   1      -0.057  -0.319   0.267  0.00  0.00    -0.033 A 
ATOM      2  C1  UNL d   1       0.015  -1.489  -0.491  0.00  0.00     0.039 A 
ATOM      3  C2  UNL d   1       0.724  -1.502  -1.694  0.00  0.00    -0.080 A 
ATOM      4  C3  UNL d   1       1.358  -0.340  -2.125  0.00  0.00     0.150 A 
ATOM      5  C4  UNL d   1       1.294   0.828  -1.373  0.00  0.00    -0.007 A 
ATOM      6  C5  UNL d   1       0.584   0.839  -0.173  0.00  0.00     0.039 A 
ENDROOT
BRANCH   4   7
ATOM      7  O   UNL d   1       2.059  -0.303  -3.294  0.00  0.00    -0.526 OA
ATOM      8  H5  UNL d   1       1.992  -1.173  -3.721  0.00  0.00     0.418 HD
ENDBRANCH   4   7
TORSDOF 1
ENDMDL
