MODEL 1
REMARK minimizedAffinity -3.36645603
REMARK minimizedRMSD -1
REMARK  1 active torsions:
REMARK  status: ('A' for Active; 'I' for Inactive)
REMARK    1  A    between atoms: C3_4  and  O_7 
ROOT
ATOM      1  C   UNL d   1       0.468   0.103   0.256  0.00  0.00    -0.033 A 
ATOM      2  C1  UNL d   1       1.409   1.056  -0.135  0.00  0.00     0.039 A 
ATOM      3  C2  UNL d   1       1.830   1.119  -1.465  0.00  0.00    -0.080 A 
ATOM      4  C3  UNL d   1       1.302   0.225  -2.392  0.00  0.00     0.150 A 
ATOM      5  C4  UNL d   1       0.360  -0.725  -2.010  0.00  0.00    -0.007 A 
ATOM      6  C5  UNL d   1      -0.058  -0.787  -0.681  0.00  0.00     0.039 A 
ENDROOT
BRANCH   4   7
ATOM      7  O   UNL d   1       1.685   0.245  -3.700  0.00  0.00    -0.526 OA
ATOM      8  H5  UNL d   1       2.362   0.934  -3.812  0.00  0.00     0.418 HD
ENDBRANCH   4   7
TORSDOF 1
ENDMDL
