MODEL 1
REMARK minimizedAffinity -3.03284407
REMARK minimizedRMSD -1
REMARK  1 active torsions:
REMARK  status: ('A' for Active; 'I' for Inactive)
REMARK    1  A    between atoms: C3_4  and  O_7 
ROOT
ATOM      1  C   UNL d   1      -2.593  -0.081   1.527  0.00  0.00    -0.033 A 
ATOM      2  C1  UNL d   1      -3.799   0.516   1.153  0.00  0.00     0.039 A 
ATOM      3  C2  UNL d   1      -4.076   1.831   1.532  0.00  0.00    -0.080 A 
ATOM      4  C3  UNL d   1      -3.140   2.538   2.282  0.00  0.00     0.150 A 
ATOM      5  C4  UNL d   1      -1.935   1.951   2.654  0.00  0.00    -0.007 A 
ATOM      6  C5  UNL d   1      -1.660   0.638   2.276  0.00  0.00     0.039 A 
ENDROOT
BRANCH   4   7
ATOM      7  O   UNL d   1      -3.368   3.822   2.678  0.00  0.00    -0.526 OA
ATOM      8  H5  UNL d   1      -4.253   4.086   2.374  0.00  0.00     0.418 HD
ENDBRANCH   4   7
TORSDOF 1
ENDMDL
