MODEL 1
REMARK minimizedAffinity -4.88167763
REMARK minimizedRMSD -1
REMARK  1 active torsions:
REMARK  status: ('A' for Active; 'I' for Inactive)
REMARK    1  A    between atoms: C3_4  and  O_7 
ROOT
ATOM      1  C   UNL d   1       0.293  -0.879   0.920  0.00  0.00    -0.033 A 
ATOM      2  C1  UNL d   1       0.175  -1.946   0.028  0.00  0.00     0.039 A 
ATOM      3  C2  UNL d   1       0.450  -1.758  -1.328  0.00  0.00    -0.080 A 
ATOM      4  C3  UNL d   1       0.842  -0.500  -1.778  0.00  0.00     0.150 A 
ATOM      5  C4  UNL d   1       0.965   0.567  -0.893  0.00  0.00    -0.007 A 
ATOM      6  C5  UNL d   1       0.689   0.377   0.460  0.00  0.00     0.039 A 
ENDROOT
BRANCH   4   7
ATOM      7  O   UNL d   1       1.117  -0.267  -3.093  0.00  0.00    -0.526 OA
ATOM      8  H5  UNL d   1       0.962  -1.087  -3.589  0.00  0.00     0.418 HD
ENDBRANCH   4   7
TORSDOF 1
ENDMDL
