MODEL 1
REMARK minimizedAffinity -3.6232338
REMARK minimizedRMSD -1
REMARK  1 active torsions:
REMARK  status: ('A' for Active; 'I' for Inactive)
REMARK    1  A    between atoms: C3_4  and  O_7 
ROOT
ATOM      1  C   UNL d   1      -0.007  -0.535   0.543  0.00  0.00    -0.033 A 
ATOM      2  C1  UNL d   1       0.297   0.817   0.719  0.00  0.00     0.039 A 
ATOM      3  C2  UNL d   1       1.056   1.494  -0.238  0.00  0.00    -0.080 A 
ATOM      4  C3  UNL d   1       1.502   0.809  -1.365  0.00  0.00     0.150 A 
ATOM      5  C4  UNL d   1       1.199  -0.536  -1.549  0.00  0.00    -0.007 A 
ATOM      6  C5  UNL d   1       0.442  -1.210  -0.592  0.00  0.00     0.039 A 
ENDROOT
BRANCH   4   7
ATOM      7  O   UNL d   1       2.249   1.426  -2.324  0.00  0.00    -0.526 OA
ATOM      8  H5  UNL d   1       2.404   2.345  -2.049  0.00  0.00     0.418 HD
ENDBRANCH   4   7
TORSDOF 1
ENDMDL
