MODEL 1
REMARK minimizedAffinity -1.26777077
REMARK minimizedRMSD -1
REMARK  1 active torsions:
REMARK  status: ('A' for Active; 'I' for Inactive)
REMARK    1  A    between atoms: C3_4  and  O_7 
ROOT
ATOM      1  C   UNL d   1      -0.155   1.322  -0.288  0.00  0.00    -0.033 A 
ATOM      2  C1  UNL d   1       1.129   0.844  -0.556  0.00  0.00     0.039 A 
ATOM      3  C2  UNL d   1       1.432  -0.503  -0.344  0.00  0.00    -0.080 A 
ATOM      4  C3  UNL d   1       0.444  -1.359   0.133  0.00  0.00     0.150 A 
ATOM      5  C4  UNL d   1      -0.838  -0.890   0.399  0.00  0.00    -0.007 A 
ATOM      6  C5  UNL d   1      -1.139   0.455   0.188  0.00  0.00     0.039 A 
ENDROOT
BRANCH   4   7
ATOM      7  O   UNL d   1       0.695  -2.680   0.359  0.00  0.00    -0.526 OA
ATOM      8  H5  UNL d   1       1.629  -2.855   0.159  0.00  0.00     0.418 HD
ENDBRANCH   4   7
TORSDOF 1
ENDMDL
