MODEL 1
REMARK minimizedAffinity -4.54308605
REMARK minimizedRMSD -1
REMARK  0 active torsions:
REMARK  status: ('A' for Active; 'I' for Inactive)
ROOT
ATOM      1  O1  BZF d   1      -2.968   1.033  -1.809  0.00  0.00    -0.204 OA
ATOM      2  C2  BZF d   1      -2.304   1.914  -2.640  0.00  0.00     0.174 A 
ATOM      3  C3  BZF d   1      -0.995   1.979  -2.321  0.00  0.00    -0.012 A 
ATOM      4  C3A BZF d   1      -0.813   1.013  -1.282  0.00  0.00    -0.107 A 
ATOM      5  C4  BZF d   1       0.273   0.601  -0.563  0.00  0.00     0.055 A 
ATOM      6  C5  BZF d   1       0.100  -0.309   0.431  0.00  0.00    -0.016 A 
ATOM      7  C6  BZF d   1      -1.143  -0.824   0.737  0.00  0.00     0.022 A 
ATOM      8  C7  BZF d   1      -2.249  -0.449   0.048  0.00  0.00     0.029 A 
ATOM      9  C7A BZF d   1      -2.072   0.446  -0.979  0.00  0.00     0.058 A 
ENDROOT
TORSDOF 0
ENDMDL
