MODEL 1
REMARK minimizedAffinity -6.09312677
REMARK minimizedRMSD -1
REMARK  0 active torsions:
REMARK  status: ('A' for Active; 'I' for Inactive)
ROOT
ATOM      1  O1  BZF d   1      -0.373   1.137  -1.026  0.00  0.00    -0.204 OA
ATOM      2  C2  BZF d   1      -1.705   1.204  -0.664  0.00  0.00     0.174 A 
ATOM      3  C3  BZF d   1      -2.026   0.190   0.166  0.00  0.00    -0.012 A 
ATOM      4  C3A BZF d   1      -0.797  -0.503   0.406  0.00  0.00    -0.107 A 
ATOM      5  C4  BZF d   1      -0.466  -1.591   1.163  0.00  0.00     0.055 A 
ATOM      6  C5  BZF d   1       0.809  -2.059   1.123  0.00  0.00    -0.016 A 
ATOM      7  C6  BZF d   1       1.775  -1.468   0.335  0.00  0.00     0.022 A 
ATOM      8  C7  BZF d   1       1.495  -0.384  -0.429  0.00  0.00     0.029 A 
ATOM      9  C7A BZF d   1       0.216   0.111  -0.365  0.00  0.00     0.058 A 
ENDROOT
TORSDOF 0
ENDMDL
