MODEL 1
REMARK minimizedAffinity -0.448499084
REMARK minimizedRMSD -1
REMARK  0 active torsions:
REMARK  status: ('A' for Active; 'I' for Inactive)
ROOT
ATOM      1  O1  BZF d   1       0.889  -1.431   1.809  0.00  0.00    -0.204 OA
ATOM      2  C2  BZF d   1       2.178  -1.751   1.426  0.00  0.00     0.174 A 
ATOM      3  C3  BZF d   1       2.524  -1.085   0.306  0.00  0.00    -0.012 A 
ATOM      4  C3A BZF d   1       1.413  -0.229   0.019  0.00  0.00    -0.107 A 
ATOM      5  C4  BZF d   1       1.164   0.689  -0.961  0.00  0.00     0.055 A 
ATOM      6  C5  BZF d   1      -0.048   1.302  -0.999  0.00  0.00    -0.016 A 
ATOM      7  C6  BZF d   1      -1.035   1.017  -0.078  0.00  0.00     0.022 A 
ATOM      8  C7  BZF d   1      -0.833   0.117   0.915  0.00  0.00     0.029 A 
ATOM      9  C7A BZF d   1       0.403  -0.479   0.976  0.00  0.00     0.058 A 
ENDROOT
TORSDOF 0
ENDMDL
