MODEL 1
REMARK minimizedAffinity -2.93757272
REMARK minimizedRMSD -1
REMARK  0 active torsions:
REMARK  status: ('A' for Active; 'I' for Inactive)
ROOT
ATOM      1  O1  BZF d   1       0.676   0.539  -0.294  0.00  0.00    -0.204 OA
ATOM      2  C2  BZF d   1       0.271  -0.345   0.688  0.00  0.00     0.174 A 
ATOM      3  C3  BZF d   1      -1.063  -0.535   0.639  0.00  0.00    -0.012 A 
ATOM      4  C3A BZF d   1      -1.508   0.209  -0.499  0.00  0.00    -0.107 A 
ATOM      5  C4  BZF d   1      -2.731   0.400  -1.077  0.00  0.00     0.055 A 
ATOM      6  C5  BZF d   1      -2.836   1.244  -2.137  0.00  0.00    -0.016 A 
ATOM      7  C6  BZF d   1      -1.743   1.916  -2.641  0.00  0.00     0.022 A 
ATOM      8  C7  BZF d   1      -0.508   1.755  -2.105  0.00  0.00     0.029 A 
ATOM      9  C7A BZF d   1      -0.393   0.878  -1.054  0.00  0.00     0.058 A 
ENDROOT
TORSDOF 0
ENDMDL
