MODEL 1
REMARK minimizedAffinity -4.78025579
REMARK minimizedRMSD -1
REMARK  0 active torsions:
REMARK  status: ('A' for Active; 'I' for Inactive)
ROOT
ATOM      1  O1  BZF d   1      -0.884  -0.457   2.162  0.00  0.00    -0.204 OA
ATOM      2  C2  BZF d   1      -1.677   0.640   1.889  0.00  0.00     0.174 A 
ATOM      3  C3  BZF d   1      -1.121   1.406   0.928  0.00  0.00    -0.012 A 
ATOM      4  C3A BZF d   1       0.051   0.697   0.514  0.00  0.00    -0.107 A 
ATOM      5  C4  BZF d   1       1.014   0.942  -0.423  0.00  0.00     0.055 A 
ATOM      6  C5  BZF d   1       2.065   0.087  -0.528  0.00  0.00    -0.016 A 
ATOM      7  C6  BZF d   1       2.187  -1.018   0.289  0.00  0.00     0.022 A 
ATOM      8  C7  BZF d   1       1.254  -1.305   1.229  0.00  0.00     0.029 A 
ATOM      9  C7A BZF d   1       0.174  -0.461   1.316  0.00  0.00     0.058 A 
ENDROOT
TORSDOF 0
ENDMDL
