MODEL 1
REMARK minimizedAffinity 1.50888324
REMARK minimizedRMSD -1
REMARK  0 active torsions:
REMARK  status: ('A' for Active; 'I' for Inactive)
ROOT
ATOM      1  O1  BZF d   1      -2.675   0.923  -2.651  0.00  0.00    -0.204 OA
ATOM      2  C2  BZF d   1      -2.013   1.808  -3.479  0.00  0.00     0.174 A 
ATOM      3  C3  BZF d   1      -0.834   2.178  -2.938  0.00  0.00    -0.012 A 
ATOM      4  C3A BZF d   1      -0.713   1.409  -1.737  0.00  0.00    -0.107 A 
ATOM      5  C4  BZF d   1       0.248   1.321  -0.771  0.00  0.00     0.055 A 
ATOM      6  C5  BZF d   1       0.028   0.528   0.310  0.00  0.00    -0.016 A 
ATOM      7  C6  BZF d   1      -1.143  -0.185   0.460  0.00  0.00     0.022 A 
ATOM      8  C7  BZF d   1      -2.124  -0.134  -0.474  0.00  0.00     0.029 A 
ATOM      9  C7A BZF d   1      -1.890   0.641  -1.584  0.00  0.00     0.058 A 
ENDROOT
TORSDOF 0
ENDMDL
