MODEL 1
REMARK minimizedAffinity 0.609792769
REMARK minimizedRMSD -1
REMARK  0 active torsions:
REMARK  status: ('A' for Active; 'I' for Inactive)
ROOT
ATOM      1  O1  BZF d   1      -0.101  -0.378   0.110  0.00  0.00    -0.204 OA
ATOM      2  C2  BZF d   1       1.169   0.160   0.185  0.00  0.00     0.174 A 
ATOM      3  C3  BZF d   1       1.300   1.198  -0.667  0.00  0.00    -0.012 A 
ATOM      4  C3A BZF d   1       0.004   1.374  -1.246  0.00  0.00    -0.107 A 
ATOM      5  C4  BZF d   1      -0.506   2.257  -2.155  0.00  0.00     0.055 A 
ATOM      6  C5  BZF d   1      -1.794   2.114  -2.565  0.00  0.00    -0.016 A 
ATOM      7  C6  BZF d   1      -2.597   1.097  -2.092  0.00  0.00     0.022 A 
ATOM      8  C7  BZF d   1      -2.138   0.201  -1.185  0.00  0.00     0.029 A 
ATOM      9  C7A BZF d   1      -0.847   0.363  -0.744  0.00  0.00     0.058 A 
ENDROOT
TORSDOF 0
ENDMDL
