MODEL 1
REMARK minimizedAffinity -1.15518188
REMARK minimizedRMSD -1
REMARK  0 active torsions:
REMARK  status: ('A' for Active; 'I' for Inactive)
ROOT
ATOM      1  O1  BZF d   1      -1.236  -0.351   0.108  0.00  0.00    -0.204 OA
ATOM      2  C2  BZF d   1      -0.031  -0.024   0.699  0.00  0.00     0.174 A 
ATOM      3  C3  BZF d   1       0.561   0.996   0.045  0.00  0.00    -0.012 A 
ATOM      4  C3A BZF d   1      -0.372   1.388  -0.966  0.00  0.00    -0.107 A 
ATOM      5  C4  BZF d   1      -0.363   2.358  -1.927  0.00  0.00     0.055 A 
ATOM      6  C5  BZF d   1      -1.400   2.428  -2.804  0.00  0.00    -0.016 A 
ATOM      7  C6  BZF d   1      -2.457   1.544  -2.751  0.00  0.00     0.022 A 
ATOM      8  C7  BZF d   1      -2.513   0.568  -1.812  0.00  0.00     0.029 A 
ATOM      9  C7A BZF d   1      -1.483   0.515  -0.904  0.00  0.00     0.058 A 
ENDROOT
TORSDOF 0
ENDMDL
