MODEL 1
REMARK minimizedAffinity 1.25331354
REMARK minimizedRMSD -1
REMARK  0 active torsions:
REMARK  status: ('A' for Active; 'I' for Inactive)
ROOT
ATOM      1  O1  BZF d   1       1.474   0.354   0.548  0.00  0.00    -0.204 OA
ATOM      2  C2  BZF d   1       1.741   0.442  -0.804  0.00  0.00     0.174 A 
ATOM      3  C3  BZF d   1       0.646   0.136  -1.530  0.00  0.00    -0.012 A 
ATOM      4  C3A BZF d   1      -0.395  -0.072  -0.570  0.00  0.00    -0.107 A 
ATOM      5  C4  BZF d   1      -1.719  -0.388  -0.675  0.00  0.00     0.055 A 
ATOM      6  C5  BZF d   1      -2.441  -0.591   0.458  0.00  0.00    -0.016 A 
ATOM      7  C6  BZF d   1      -1.871  -0.492   1.710  0.00  0.00     0.022 A 
ATOM      8  C7  BZF d   1      -0.563  -0.176   1.865  0.00  0.00     0.029 A 
ATOM      9  C7A BZF d   1       0.162   0.062   0.723  0.00  0.00     0.058 A 
ENDROOT
TORSDOF 0
ENDMDL
