MODEL 1
REMARK minimizedAffinity -2.66443229
REMARK minimizedRMSD -1
REMARK  0 active torsions:
REMARK  status: ('A' for Active; 'I' for Inactive)
ROOT
ATOM      1  O1  BZF d   1      -1.784  -0.252  -0.135  0.00  0.00    -0.204 OA
ATOM      2  C2  BZF d   1      -0.650   0.073   0.584  0.00  0.00     0.174 A 
ATOM      3  C3  BZF d   1       0.043   1.052  -0.032  0.00  0.00    -0.012 A 
ATOM      4  C3A BZF d   1      -0.752   1.422  -1.162  0.00  0.00    -0.107 A 
ATOM      5  C4  BZF d   1      -0.603   2.352  -2.152  0.00  0.00     0.055 A 
ATOM      6  C5  BZF d   1      -1.525   2.410  -3.148  0.00  0.00    -0.016 A 
ATOM      7  C6  BZF d   1      -2.605   1.552  -3.189  0.00  0.00     0.022 A 
ATOM      8  C7  BZF d   1      -2.798   0.617  -2.227  0.00  0.00     0.029 A 
ATOM      9  C7A BZF d   1      -1.886   0.578  -1.201  0.00  0.00     0.058 A 
ENDROOT
TORSDOF 0
ENDMDL
