MODEL 1
REMARK minimizedAffinity -2.58131456
REMARK minimizedRMSD -1
REMARK  0 active torsions:
REMARK  status: ('A' for Active; 'I' for Inactive)
ROOT
ATOM      1  O1  BZF d   1      -0.484  -1.086   2.198  0.00  0.00    -0.204 OA
ATOM      2  C2  BZF d   1      -1.501  -0.199   1.903  0.00  0.00     0.174 A 
ATOM      3  C3  BZF d   1      -1.175   0.568   0.843  0.00  0.00    -0.012 A 
ATOM      4  C3A BZF d   1       0.089   0.071   0.393  0.00  0.00    -0.107 A 
ATOM      5  C4  BZF d   1       0.921   0.413  -0.634  0.00  0.00     0.055 A 
ATOM      6  C5  BZF d   1       2.117  -0.221  -0.755  0.00  0.00    -0.016 A 
ATOM      7  C6  BZF d   1       2.514  -1.198   0.135  0.00  0.00     0.022 A 
ATOM      8  C7  BZF d   1       1.720  -1.576   1.166  0.00  0.00     0.029 A 
ATOM      9  C7A BZF d   1       0.497  -0.960   1.272  0.00  0.00     0.058 A 
ENDROOT
TORSDOF 0
ENDMDL
