MODEL 1
REMARK minimizedAffinity 2.88663387
REMARK minimizedRMSD -1
REMARK  0 active torsions:
REMARK  status: ('A' for Active; 'I' for Inactive)
ROOT
ATOM      1  O1  BZF d   1      -0.796   2.404  -2.505  0.00  0.00    -0.204 OA
ATOM      2  C2  BZF d   1      -1.903   1.711  -2.954  0.00  0.00     0.174 A 
ATOM      3  C3  BZF d   1      -1.885   0.439  -2.505  0.00  0.00    -0.012 A 
ATOM      4  C3A BZF d   1      -0.739   0.357  -1.652  0.00  0.00    -0.107 A 
ATOM      5  C4  BZF d   1      -0.198  -0.646  -0.900  0.00  0.00     0.055 A 
ATOM      6  C5  BZF d   1       0.968  -0.421  -0.239  0.00  0.00    -0.016 A 
ATOM      7  C6  BZF d   1       1.621   0.791  -0.312  0.00  0.00     0.022 A 
ATOM      8  C7  BZF d   1       1.121   1.818  -1.041  0.00  0.00     0.029 A 
ATOM      9  C7A BZF d   1      -0.074   1.605  -1.684  0.00  0.00     0.058 A 
ENDROOT
TORSDOF 0
ENDMDL
