MODEL 1
REMARK minimizedAffinity -2.92606997
REMARK minimizedRMSD -1
REMARK  0 active torsions:
REMARK  status: ('A' for Active; 'I' for Inactive)
ROOT
ATOM      1  O1  BZF d   1      -0.761   0.445  -1.107  0.00  0.00    -0.204 OA
ATOM      2  C2  BZF d   1      -1.762  -0.260  -0.467  0.00  0.00     0.174 A 
ATOM      3  C3  BZF d   1      -1.239  -1.172   0.379  0.00  0.00    -0.012 A 
ATOM      4  C3A BZF d   1       0.176  -0.965   0.328  0.00  0.00    -0.107 A 
ATOM      5  C4  BZF d   1       1.234  -1.554   0.959  0.00  0.00     0.055 A 
ATOM      6  C5  BZF d   1       2.495  -1.169   0.632  0.00  0.00    -0.016 A 
ATOM      7  C6  BZF d   1       2.735  -0.204  -0.324  0.00  0.00     0.022 A 
ATOM      8  C7  BZF d   1       1.718   0.412  -0.973  0.00  0.00     0.029 A 
ATOM      9  C7A BZF d   1       0.441   0.049  -0.621  0.00  0.00     0.058 A 
ENDROOT
TORSDOF 0
ENDMDL
