MODEL 1
REMARK minimizedAffinity -6.21839714
REMARK minimizedRMSD -1
REMARK  0 active torsions:
REMARK  status: ('A' for Active; 'I' for Inactive)
ROOT
ATOM      1  O1  BZF d   1       0.347  -0.136  -0.479  0.00  0.00    -0.204 OA
ATOM      2  C2  BZF d   1      -0.757   0.673  -0.296  0.00  0.00     0.174 A 
ATOM      3  C3  BZF d   1      -1.569   0.166   0.655  0.00  0.00    -0.012 A 
ATOM      4  C3A BZF d   1      -0.887  -0.986   1.157  0.00  0.00    -0.107 A 
ATOM      5  C4  BZF d   1      -1.180  -1.902   2.126  0.00  0.00     0.055 A 
ATOM      6  C5  BZF d   1      -0.336  -2.950   2.321  0.00  0.00    -0.016 A 
ATOM      7  C6  BZF d   1       0.805  -3.115   1.563  0.00  0.00     0.022 A 
ATOM      8  C7  BZF d   1       1.140  -2.229   0.594  0.00  0.00     0.029 A 
ATOM      9  C7A BZF d   1       0.307  -1.151   0.416  0.00  0.00     0.058 A 
ENDROOT
TORSDOF 0
ENDMDL
