MODEL 1
REMARK minimizedAffinity -5.72113228
REMARK minimizedRMSD -1
REMARK  0 active torsions:
REMARK  status: ('A' for Active; 'I' for Inactive)
ROOT
ATOM      1  O1  BZF d   1      -1.737  -0.031   1.792  0.00  0.00    -0.204 OA
ATOM      2  C2  BZF d   1      -1.766   0.793   0.683  0.00  0.00     0.174 A 
ATOM      3  C3  BZF d   1      -0.675   0.598  -0.085  0.00  0.00    -0.012 A 
ATOM      4  C3A BZF d   1       0.037  -0.475   0.537  0.00  0.00    -0.107 A 
ATOM      5  C4  BZF d   1       1.194  -1.135   0.234  0.00  0.00     0.055 A 
ATOM      6  C5  BZF d   1       1.654  -2.087   1.087  0.00  0.00    -0.016 A 
ATOM      7  C6  BZF d   1       0.987  -2.402   2.253  0.00  0.00     0.022 A 
ATOM      8  C7  BZF d   1      -0.167  -1.778   2.594  0.00  0.00     0.029 A 
ATOM      9  C7A BZF d   1      -0.652  -0.838   1.717  0.00  0.00     0.058 A 
ENDROOT
TORSDOF 0
ENDMDL
