MODEL 1
REMARK minimizedAffinity -0.426055253
REMARK minimizedRMSD -1
REMARK  0 active torsions:
REMARK  status: ('A' for Active; 'I' for Inactive)
ROOT
ATOM      1  O1  BZF d   1      -0.077  -1.370   2.935  0.00  0.00    -0.204 OA
ATOM      2  C2  BZF d   1      -1.402  -1.286   3.318  0.00  0.00     0.174 A 
ATOM      3  C3  BZF d   1      -2.124  -0.614   2.399  0.00  0.00    -0.012 A 
ATOM      4  C3A BZF d   1      -1.211  -0.335   1.333  0.00  0.00    -0.107 A 
ATOM      5  C4  BZF d   1      -1.339   0.295   0.128  0.00  0.00     0.055 A 
ATOM      6  C5  BZF d   1      -0.236   0.465  -0.648  0.00  0.00    -0.016 A 
ATOM      7  C6  BZF d   1       1.008   0.023  -0.248  0.00  0.00     0.022 A 
ATOM      8  C7  BZF d   1       1.183  -0.611   0.936  0.00  0.00     0.029 A 
ATOM      9  C7A BZF d   1       0.065  -0.814   1.708  0.00  0.00     0.058 A 
ENDROOT
TORSDOF 0
ENDMDL
