MODEL 1
REMARK minimizedAffinity -4.56839323
REMARK minimizedRMSD -1
REMARK  0 active torsions:
REMARK  status: ('A' for Active; 'I' for Inactive)
ROOT
ATOM      1  O1  BZF d   1      -0.393   0.682   0.476  0.00  0.00    -0.204 OA
ATOM      2  C2  BZF d   1      -0.980  -0.130   1.427  0.00  0.00     0.174 A 
ATOM      3  C3  BZF d   1      -2.175  -0.583   0.997  0.00  0.00    -0.012 A 
ATOM      4  C3A BZF d   1      -2.305  -0.093  -0.341  0.00  0.00    -0.107 A 
ATOM      5  C4  BZF d   1      -3.270  -0.222  -1.298  0.00  0.00     0.055 A 
ATOM      6  C5  BZF d   1      -3.125   0.442  -2.475  0.00  0.00    -0.016 A 
ATOM      7  C6  BZF d   1      -2.032   1.246  -2.725  0.00  0.00     0.022 A 
ATOM      8  C7  BZF d   1      -1.047   1.401  -1.808  0.00  0.00     0.029 A 
ATOM      9  C7A BZF d   1      -1.174   0.705  -0.631  0.00  0.00     0.058 A 
ENDROOT
TORSDOF 0
ENDMDL
