MODEL 1
REMARK minimizedAffinity -3.6044383
REMARK minimizedRMSD -1
REMARK  0 active torsions:
REMARK  status: ('A' for Active; 'I' for Inactive)
ROOT
ATOM      1  O1  BZF d   1      -0.646  -1.018   2.097  0.00  0.00    -0.204 OA
ATOM      2  C2  BZF d   1      -1.867  -0.376   2.179  0.00  0.00     0.174 A 
ATOM      3  C3  BZF d   1      -1.954   0.605   1.258  0.00  0.00    -0.012 A 
ATOM      4  C3A BZF d   1      -0.747   0.514   0.495  0.00  0.00    -0.107 A 
ATOM      5  C4  BZF d   1      -0.257   1.211  -0.572  0.00  0.00     0.055 A 
ATOM      6  C5  BZF d   1       0.988   0.920  -1.035  0.00  0.00    -0.016 A 
ATOM      7  C6  BZF d   1       1.770  -0.055  -0.451  0.00  0.00     0.022 A 
ATOM      8  C7  BZF d   1       1.324  -0.776   0.607  0.00  0.00     0.029 A 
ATOM      9  C7A BZF d   1       0.054  -0.507   1.056  0.00  0.00     0.058 A 
ENDROOT
TORSDOF 0
ENDMDL
