MODEL 1
REMARK minimizedAffinity -5.8991375
REMARK minimizedRMSD -1
REMARK  0 active torsions:
REMARK  status: ('A' for Active; 'I' for Inactive)
ROOT
ATOM      1  O1  BZF d   1       1.881  -1.905   1.405  0.00  0.00    -0.204 OA
ATOM      2  C2  BZF d   1       1.423  -2.725   2.418  0.00  0.00     0.174 A 
ATOM      3  C3  BZF d   1       0.167  -2.387   2.775  0.00  0.00    -0.012 A 
ATOM      4  C3A BZF d   1      -0.215  -1.348   1.869  0.00  0.00    -0.107 A 
ATOM      5  C4  BZF d   1      -1.356  -0.615   1.709  0.00  0.00     0.055 A 
ATOM      6  C5  BZF d   1      -1.380   0.375   0.778  0.00  0.00    -0.016 A 
ATOM      7  C6  BZF d   1      -0.282   0.662  -0.005  0.00  0.00     0.022 A 
ATOM      8  C7  BZF d   1       0.871  -0.042   0.114  0.00  0.00     0.029 A 
ATOM      9  C7A BZF d   1       0.888  -1.064   1.031  0.00  0.00     0.058 A 
ENDROOT
TORSDOF 0
ENDMDL
