MODEL 1
REMARK minimizedAffinity 11.5346041
REMARK minimizedRMSD -1
REMARK  0 active torsions:
REMARK  status: ('A' for Active; 'I' for Inactive)
ROOT
ATOM      1  C2' OXE d   1      -5.766  -5.804  -2.979  0.00  0.00     0.078 C 
ATOM      2  C1' OXE d   1      -6.000  -3.092  -3.662  0.00  0.00     0.078 C 
ATOM      3  C1  OXE d   1      -4.640  -3.599  -3.252  0.00  0.00    -0.078 A 
ATOM      4  C2  OXE d   1      -4.544  -4.917  -2.875  0.00  0.00    -0.078 A 
ATOM      5  C3  OXE d   1      -3.303  -5.450  -2.540  0.00  0.00     0.003 A 
ATOM      6  C4  OXE d   1      -2.180  -4.620  -2.437  0.00  0.00    -0.002 A 
ATOM      7  C5  OXE d   1      -2.264  -3.266  -2.778  0.00  0.00    -0.002 A 
ATOM      8  C6  OXE d   1      -3.474  -2.750  -3.228  0.00  0.00     0.003 A 
ENDROOT
TORSDOF 0
ENDMDL
