MODEL 1
REMARK minimizedAffinity 9.48429203
REMARK minimizedRMSD -1
REMARK  0 active torsions:
REMARK  status: ('A' for Active; 'I' for Inactive)
ROOT
ATOM      1  C2' OXE d   1       0.399   2.902   1.498  0.00  0.00     0.078 C 
ATOM      2  C1' OXE d   1       0.727   0.952   3.490  0.00  0.00     0.078 C 
ATOM      3  C1  OXE d   1       1.699   0.951   2.337  0.00  0.00    -0.078 A 
ATOM      4  C2  OXE d   1       1.503   1.879   1.343  0.00  0.00    -0.078 A 
ATOM      5  C3  OXE d   1       2.403   1.956   0.284  0.00  0.00     0.003 A 
ATOM      6  C4  OXE d   1       3.415   0.999   0.144  0.00  0.00    -0.002 A 
ATOM      7  C5  OXE d   1       3.609   0.021   1.124  0.00  0.00    -0.002 A 
ATOM      8  C6  OXE d   1       2.788   0.009   2.246  0.00  0.00     0.003 A 
ENDROOT
TORSDOF 0
ENDMDL
