MODEL 1
REMARK minimizedAffinity 8.48043823
REMARK minimizedRMSD -1
REMARK  0 active torsions:
REMARK  status: ('A' for Active; 'I' for Inactive)
ROOT
ATOM      1  C2' OXE d   1      -6.000  -5.702  -2.616  0.00  0.00     0.078 C 
ATOM      2  C1' OXE d   1      -5.999  -3.007  -3.399  0.00  0.00     0.078 C 
ATOM      3  C1  OXE d   1      -4.678  -3.632  -3.029  0.00  0.00    -0.078 A 
ATOM      4  C2  OXE d   1      -4.694  -4.938  -2.602  0.00  0.00    -0.078 A 
ATOM      5  C3  OXE d   1      -3.496  -5.579  -2.300  0.00  0.00     0.003 A 
ATOM      6  C4  OXE d   1      -2.293  -4.862  -2.279  0.00  0.00    -0.002 A 
ATOM      7  C5  OXE d   1      -2.261  -3.520  -2.672  0.00  0.00    -0.002 A 
ATOM      8  C6  OXE d   1      -3.435  -2.903  -3.090  0.00  0.00     0.003 A 
ENDROOT
TORSDOF 0
ENDMDL
