MODEL 1
REMARK minimizedAffinity 12.5387573
REMARK minimizedRMSD -1
REMARK  0 active torsions:
REMARK  status: ('A' for Active; 'I' for Inactive)
ROOT
ATOM      1  C2' OXE d   1       4.404  -0.107   3.420  0.00  0.00     0.078 C 
ATOM      2  C1' OXE d   1       1.957   0.678   4.550  0.00  0.00     0.078 C 
ATOM      3  C1  OXE d   1       2.134   0.853   3.062  0.00  0.00    -0.078 A 
ATOM      4  C2  OXE d   1       3.351   0.510   2.525  0.00  0.00    -0.078 A 
ATOM      5  C3  OXE d   1       3.548   0.601   1.150  0.00  0.00     0.003 A 
ATOM      6  C4  OXE d   1       2.573   1.182   0.331  0.00  0.00    -0.002 A 
ATOM      7  C5  OXE d   1       1.340   1.575   0.864  0.00  0.00    -0.002 A 
ATOM      8  C6  OXE d   1       1.089   1.379   2.218  0.00  0.00     0.003 A 
ENDROOT
TORSDOF 0
ENDMDL
