MODEL 1
REMARK minimizedAffinity 12.1993103
REMARK minimizedRMSD -1
REMARK  0 active torsions:
REMARK  status: ('A' for Active; 'I' for Inactive)
ROOT
ATOM      1  C2' OXE d   1      -6.000  -2.928  -3.548  0.00  0.00     0.078 C 
ATOM      2  C1' OXE d   1      -5.957  -5.640  -2.825  0.00  0.00     0.078 C 
ATOM      3  C1  OXE d   1      -4.659  -4.875  -2.762  0.00  0.00    -0.078 A 
ATOM      4  C2  OXE d   1      -4.680  -3.560  -3.163  0.00  0.00    -0.078 A 
ATOM      5  C3  OXE d   1      -3.522  -2.794  -3.072  0.00  0.00     0.003 A 
ATOM      6  C4  OXE d   1      -2.303  -3.389  -2.724  0.00  0.00    -0.002 A 
ATOM      7  C5  OXE d   1      -2.252  -4.736  -2.351  0.00  0.00    -0.002 A 
ATOM      8  C6  OXE d   1      -3.426  -5.481  -2.324  0.00  0.00     0.003 A 
ENDROOT
TORSDOF 0
ENDMDL
