MODEL 1
REMARK minimizedAffinity 7.12821865
REMARK minimizedRMSD -1
REMARK  0 active torsions:
REMARK  status: ('A' for Active; 'I' for Inactive)
ROOT
ATOM      1  C2' OXE d   1       1.775   0.789   1.873  0.00  0.00     0.078 C 
ATOM      2  C1' OXE d   1       3.583  -0.733   3.388  0.00  0.00     0.078 C 
ATOM      3  C1  OXE d   1       3.953  -0.417   1.961  0.00  0.00    -0.078 A 
ATOM      4  C2  OXE d   1       3.042   0.289   1.213  0.00  0.00    -0.078 A 
ATOM      5  C3  OXE d   1       3.357   0.655  -0.093  0.00  0.00     0.003 A 
ATOM      6  C4  OXE d   1       4.527   0.180  -0.699  0.00  0.00    -0.002 A 
ATOM      7  C5  OXE d   1       5.450  -0.573   0.033  0.00  0.00    -0.002 A 
ATOM      8  C6  OXE d   1       5.199  -0.844   1.374  0.00  0.00     0.003 A 
ENDROOT
TORSDOF 0
ENDMDL
