MODEL 1
REMARK minimizedAffinity 11.7286758
REMARK minimizedRMSD -1
REMARK  0 active torsions:
REMARK  status: ('A' for Active; 'I' for Inactive)
ROOT
ATOM      1  C2' OXE d   1       0.005  -5.019  -4.449  0.00  0.00     0.078 C 
ATOM      2  C1' OXE d   1      -0.794  -2.425  -5.165  0.00  0.00     0.078 C 
ATOM      3  C1  OXE d   1      -1.661  -3.185  -4.192  0.00  0.00    -0.078 A 
ATOM      4  C2  OXE d   1      -1.287  -4.471  -3.884  0.00  0.00    -0.078 A 
ATOM      5  C3  OXE d   1      -2.021  -5.197  -2.950  0.00  0.00     0.003 A 
ATOM      6  C4  OXE d   1      -3.221  -4.686  -2.439  0.00  0.00    -0.002 A 
ATOM      7  C5  OXE d   1      -3.641  -3.394  -2.771  0.00  0.00    -0.002 A 
ATOM      8  C6  OXE d   1      -2.852  -2.616  -3.611  0.00  0.00     0.003 A 
ENDROOT
TORSDOF 0
ENDMDL
