MODEL 1
REMARK minimizedAffinity 10.078207
REMARK minimizedRMSD -1
REMARK  0 active torsions:
REMARK  status: ('A' for Active; 'I' for Inactive)
ROOT
ATOM      1  C2' OXE d   1      -4.238   2.672   2.474  0.00  0.00     0.078 C 
ATOM      2  C1' OXE d   1      -4.599   4.117   4.854  0.00  0.00     0.078 C 
ATOM      3  C1  OXE d   1      -5.021   2.669   4.839  0.00  0.00    -0.078 A 
ATOM      4  C2  OXE d   1      -4.885   1.983   3.656  0.00  0.00    -0.078 A 
ATOM      5  C3  OXE d   1      -5.208   0.630   3.603  0.00  0.00     0.003 A 
ATOM      6  C4  OXE d   1      -5.814   0.003   4.698  0.00  0.00    -0.002 A 
ATOM      7  C5  OXE d   1      -6.000   0.694   5.900  0.00  0.00    -0.002 A 
ATOM      8  C6  OXE d   1      -5.570   2.013   6.000  0.00  0.00     0.003 A 
ENDROOT
TORSDOF 0
ENDMDL
