MODEL 1
REMARK minimizedAffinity 6.76943016
REMARK minimizedRMSD -1
REMARK  0 active torsions:
REMARK  status: ('A' for Active; 'I' for Inactive)
ROOT
ATOM      1  C2' OXE d   1       3.633   2.577  -1.165  0.00  0.00     0.078 C 
ATOM      2  C1' OXE d   1       2.138   1.632   1.015  0.00  0.00     0.078 C 
ATOM      3  C1  OXE d   1       3.495   1.020   0.774  0.00  0.00    -0.078 A 
ATOM      4  C2  OXE d   1       4.200   1.455  -0.323  0.00  0.00    -0.078 A 
ATOM      5  C3  OXE d   1       5.480   0.962  -0.560  0.00  0.00     0.003 A 
ATOM      6  C4  OXE d   1       5.992  -0.083   0.218  0.00  0.00    -0.002 A 
ATOM      7  C5  OXE d   1       5.274  -0.569   1.316  0.00  0.00    -0.002 A 
ATOM      8  C6  OXE d   1       4.045  -0.000   1.632  0.00  0.00     0.003 A 
ENDROOT
TORSDOF 0
ENDMDL
