MODEL 1
REMARK minimizedAffinity 12.5299416
REMARK minimizedRMSD -1
REMARK  0 active torsions:
REMARK  status: ('A' for Active; 'I' for Inactive)
ROOT
ATOM      1  C2' OXE d   1       2.210   2.285   0.964  0.00  0.00     0.078 C 
ATOM      2  C1' OXE d   1       3.979   2.871  -1.135  0.00  0.00     0.078 C 
ATOM      3  C1  OXE d   1       4.208   1.600  -0.356  0.00  0.00    -0.078 A 
ATOM      4  C2  OXE d   1       3.366   1.345   0.700  0.00  0.00    -0.078 A 
ATOM      5  C3  OXE d   1       3.499   0.160   1.417  0.00  0.00     0.003 A 
ATOM      6  C4  OXE d   1       4.577  -0.699   1.172  0.00  0.00    -0.002 A 
ATOM      7  C5  OXE d   1       5.471  -0.438   0.128  0.00  0.00    -0.002 A 
ATOM      8  C6  OXE d   1       5.276   0.683  -0.671  0.00  0.00     0.003 A 
ENDROOT
TORSDOF 0
ENDMDL
