MODEL 1
REMARK minimizedAffinity 9.56531334
REMARK minimizedRMSD -1
REMARK  0 active torsions:
REMARK  status: ('A' for Active; 'I' for Inactive)
ROOT
ATOM      1  C2' OXE d   1      -5.219  -0.256   3.142  0.00  0.00     0.078 C 
ATOM      2  C1' OXE d   1      -5.999  -0.255   5.839  0.00  0.00     0.078 C 
ATOM      3  C1  OXE d   1      -5.527   1.047   5.243  0.00  0.00    -0.078 A 
ATOM      4  C2  OXE d   1      -5.102   1.027   3.936  0.00  0.00    -0.078 A 
ATOM      5  C3  OXE d   1      -4.708   2.212   3.322  0.00  0.00     0.003 A 
ATOM      6  C4  OXE d   1      -4.594   3.393   4.066  0.00  0.00    -0.002 A 
ATOM      7  C5  OXE d   1      -4.983   3.426   5.409  0.00  0.00    -0.002 A 
ATOM      8  C6  OXE d   1      -5.491   2.274   6.000  0.00  0.00     0.003 A 
ENDROOT
TORSDOF 0
ENDMDL
