MODEL 1
REMARK minimizedAffinity 15.1078358
REMARK minimizedRMSD -1
REMARK  0 active torsions:
REMARK  status: ('A' for Active; 'I' for Inactive)
ROOT
ATOM      1  C2' OXE d   1      -5.447   5.992   5.797  0.00  0.00     0.078 C 
ATOM      2  C1' OXE d   1      -3.694   3.810   6.000  0.00  0.00     0.078 C 
ATOM      3  C1  OXE d   1      -4.435   3.999   4.700  0.00  0.00    -0.078 A 
ATOM      4  C2  OXE d   1      -5.326   5.042   4.626  0.00  0.00    -0.078 A 
ATOM      5  C3  OXE d   1      -5.995   5.294   3.431  0.00  0.00     0.003 A 
ATOM      6  C4  OXE d   1      -5.884   4.405   2.356  0.00  0.00    -0.002 A 
ATOM      7  C5  OXE d   1      -5.012   3.313   2.424  0.00  0.00    -0.002 A 
ATOM      8  C6  OXE d   1      -4.250   3.120   3.571  0.00  0.00     0.003 A 
ENDROOT
TORSDOF 0
ENDMDL
