MODEL 1
REMARK minimizedAffinity 11.2747612
REMARK minimizedRMSD -1
REMARK  0 active torsions:
REMARK  status: ('A' for Active; 'I' for Inactive)
ROOT
ATOM      1  C2' OXE d   1       1.174   0.130   1.787  0.00  0.00     0.078 C 
ATOM      2  C1' OXE d   1       3.760  -0.786   1.192  0.00  0.00     0.078 C 
ATOM      3  C1  OXE d   1       3.230   0.385   0.403  0.00  0.00    -0.078 A 
ATOM      4  C2  OXE d   1       1.946   0.797   0.668  0.00  0.00    -0.078 A 
ATOM      5  C3  OXE d   1       1.427   1.906   0.008  0.00  0.00     0.003 A 
ATOM      6  C4  OXE d   1       2.144   2.511  -1.032  0.00  0.00    -0.002 A 
ATOM      7  C5  OXE d   1       3.438   2.082  -1.346  0.00  0.00    -0.002 A 
ATOM      8  C6  OXE d   1       4.011   1.050  -0.611  0.00  0.00     0.003 A 
ENDROOT
TORSDOF 0
ENDMDL
