MODEL 1
REMARK minimizedAffinity 12.9271059
REMARK minimizedRMSD -1
REMARK  0 active torsions:
REMARK  status: ('A' for Active; 'I' for Inactive)
ROOT
ATOM      1  C2' OXE d   1       5.800  -1.254   0.343  0.00  0.00     0.078 C 
ATOM      2  C1' OXE d   1       4.075   0.259  -1.274  0.00  0.00     0.078 C 
ATOM      3  C1  OXE d   1       3.695   0.067   0.173  0.00  0.00    -0.078 A 
ATOM      4  C2  OXE d   1       4.521  -0.713   0.945  0.00  0.00    -0.078 A 
ATOM      5  C3  OXE d   1       4.245  -0.877   2.300  0.00  0.00     0.003 A 
ATOM      6  C4  OXE d   1       3.055  -0.382   2.846  0.00  0.00    -0.002 A 
ATOM      7  C5  OXE d   1       2.180   0.383   2.067  0.00  0.00    -0.002 A 
ATOM      8  C6  OXE d   1       2.506   0.652   0.742  0.00  0.00     0.003 A 
ENDROOT
TORSDOF 0
ENDMDL
