MODEL 1
REMARK minimizedAffinity 21.1206608
REMARK minimizedRMSD -1
REMARK  0 active torsions:
REMARK  status: ('A' for Active; 'I' for Inactive)
ROOT
ATOM      1  C2' OXE d   1      -5.596  -2.665  -4.146  0.00  0.00     0.078 C 
ATOM      2  C1' OXE d   1      -3.056  -2.584  -2.954  0.00  0.00     0.078 C 
ATOM      3  C1  OXE d   1      -3.917  -3.794  -2.693  0.00  0.00    -0.078 A 
ATOM      4  C2  OXE d   1      -5.176  -3.804  -3.243  0.00  0.00    -0.078 A 
ATOM      5  C3  OXE d   1      -5.991  -4.921  -3.079  0.00  0.00     0.003 A 
ATOM      6  C4  OXE d   1      -5.599  -5.966  -2.234  0.00  0.00    -0.002 A 
ATOM      7  C5  OXE d   1      -4.336  -5.958  -1.633  0.00  0.00    -0.002 A 
ATOM      8  C6  OXE d   1      -3.468  -4.902  -1.886  0.00  0.00     0.003 A 
ENDROOT
TORSDOF 0
ENDMDL
