MODEL 1
REMARK minimizedAffinity 14.3019247
REMARK minimizedRMSD -1
REMARK  0 active torsions:
REMARK  status: ('A' for Active; 'I' for Inactive)
ROOT
ATOM      1  C2' OXE d   1      -4.816  -0.086   3.009  0.00  0.00     0.078 C 
ATOM      2  C1' OXE d   1      -6.000  -0.366   5.539  0.00  0.00     0.078 C 
ATOM      3  C1  OXE d   1      -5.504   1.002   5.142  0.00  0.00    -0.078 A 
ATOM      4  C2  OXE d   1      -4.884   1.120   3.921  0.00  0.00    -0.078 A 
ATOM      5  C3  OXE d   1      -4.457   2.370   3.483  0.00  0.00     0.003 A 
ATOM      6  C4  OXE d   1      -4.514   3.478   4.337  0.00  0.00    -0.002 A 
ATOM      7  C5  OXE d   1      -5.105   3.371   5.600  0.00  0.00    -0.002 A 
ATOM      8  C6  OXE d   1      -5.642   2.153   6.000  0.00  0.00     0.003 A 
ENDROOT
TORSDOF 0
ENDMDL
