MODEL 1
REMARK minimizedAffinity 14.0432682
REMARK minimizedRMSD -1
REMARK  0 active torsions:
REMARK  status: ('A' for Active; 'I' for Inactive)
ROOT
ATOM      1  C2' OXE d   1      -5.987   5.999   4.506  0.00  0.00     0.078 C 
ATOM      2  C1' OXE d   1      -6.000   4.919   1.915  0.00  0.00     0.078 C 
ATOM      3  C1  OXE d   1      -5.352   4.110   3.011  0.00  0.00    -0.078 A 
ATOM      4  C2  OXE d   1      -5.309   4.667   4.267  0.00  0.00    -0.078 A 
ATOM      5  C3  OXE d   1      -4.772   3.940   5.325  0.00  0.00     0.003 A 
ATOM      6  C4  OXE d   1      -4.139   2.713   5.093  0.00  0.00    -0.002 A 
ATOM      7  C5  OXE d   1      -4.136   2.146   3.814  0.00  0.00    -0.002 A 
ATOM      8  C6  OXE d   1      -4.775   2.810   2.773  0.00  0.00     0.003 A 
ENDROOT
TORSDOF 0
ENDMDL
