MODEL 1
REMARK minimizedAffinity 16.3176632
REMARK minimizedRMSD -1
REMARK  0 active torsions:
REMARK  status: ('A' for Active; 'I' for Inactive)
ROOT
ATOM      1  C2' OXE d   1       6.000  -1.101   0.537  0.00  0.00     0.078 C 
ATOM      2  C1' OXE d   1       5.854   0.998  -1.321  0.00  0.00     0.078 C 
ATOM      3  C1  OXE d   1       4.793   0.930  -0.252  0.00  0.00    -0.078 A 
ATOM      4  C2  OXE d   1       4.845  -0.127   0.625  0.00  0.00    -0.078 A 
ATOM      5  C3  OXE d   1       3.923  -0.207   1.664  0.00  0.00     0.003 A 
ATOM      6  C4  OXE d   1       2.852   0.693   1.732  0.00  0.00    -0.002 A 
ATOM      7  C5  OXE d   1       2.757   1.754   0.826  0.00  0.00    -0.002 A 
ATOM      8  C6  OXE d   1       3.741   1.911  -0.144  0.00  0.00     0.003 A 
ENDROOT
TORSDOF 0
ENDMDL
