MODEL 1
REMARK minimizedAffinity 15.8389473
REMARK minimizedRMSD -1
REMARK  0 active torsions:
REMARK  status: ('A' for Active; 'I' for Inactive)
ROOT
ATOM      1  C2' OXE d   1      -3.897  -5.232  -1.475  0.00  0.00     0.078 C 
ATOM      2  C1' OXE d   1      -3.186  -2.568  -2.004  0.00  0.00     0.078 C 
ATOM      3  C1  OXE d   1      -2.308  -3.656  -2.569  0.00  0.00    -0.078 A 
ATOM      4  C2  OXE d   1      -2.637  -4.955  -2.267  0.00  0.00    -0.078 A 
ATOM      5  C3  OXE d   1      -1.892  -5.999  -2.808  0.00  0.00     0.003 A 
ATOM      6  C4  OXE d   1      -0.723  -5.735  -3.531  0.00  0.00    -0.002 A 
ATOM      7  C5  OXE d   1      -0.347  -4.418  -3.817  0.00  0.00    -0.002 A 
ATOM      8  C6  OXE d   1      -1.151  -3.370  -3.381  0.00  0.00     0.003 A 
ENDROOT
TORSDOF 0
ENDMDL
