MODEL 1
REMARK minimizedAffinity 20.0891438
REMARK minimizedRMSD -1
REMARK  0 active torsions:
REMARK  status: ('A' for Active; 'I' for Inactive)
ROOT
ATOM      1  C2' OXE d   1      -5.358  -2.623  -4.040  0.00  0.00     0.078 C 
ATOM      2  C1' OXE d   1      -2.896  -2.744  -2.698  0.00  0.00     0.078 C 
ATOM      3  C1  OXE d   1      -3.866  -3.881  -2.492  0.00  0.00    -0.078 A 
ATOM      4  C2  OXE d   1      -5.087  -3.790  -3.116  0.00  0.00    -0.078 A 
ATOM      5  C3  OXE d   1      -5.998  -4.837  -3.003  0.00  0.00     0.003 A 
ATOM      6  C4  OXE d   1      -5.744  -5.908  -2.138  0.00  0.00    -0.002 A 
ATOM      7  C5  OXE d   1      -4.522  -6.000  -1.462  0.00  0.00    -0.002 A 
ATOM      8  C6  OXE d   1      -3.558  -5.018  -1.660  0.00  0.00     0.003 A 
ENDROOT
TORSDOF 0
ENDMDL
