MODEL 1
REMARK minimizedAffinity 5.24811745
REMARK minimizedRMSD -1
REMARK  0 active torsions:
REMARK  status: ('A' for Active; 'I' for Inactive)
ROOT
ATOM      1  C   UNL d   1      -1.411   0.500  -1.169  0.00  0.00     0.020 A 
ATOM      2  C1  UNL d   1      -2.274  -0.192  -2.017  0.00  0.00     0.020 A 
ATOM      3  C2  UNL d   1      -3.622  -0.331  -1.679  0.00  0.00     0.034 A 
ATOM      4  C3  UNL d   1      -4.110   0.223  -0.490  0.00  0.00     0.017 A 
ATOM      5  C4  UNL d   1      -3.243   0.917   0.360  0.00  0.00     0.017 A 
ATOM      6  C5  UNL d   1      -1.894   1.054   0.017  0.00  0.00     0.034 A 
ATOM      7 Cl   UNL d   1      -3.772   1.629   1.844  0.00  0.00    -0.070 Cl
ATOM      8 Cl1  UNL d   1      -5.788   0.013  -0.136  0.00  0.00    -0.070 Cl
ENDROOT
TORSDOF 0
ENDMDL
