MODEL 1
REMARK minimizedAffinity 7.35476971
REMARK minimizedRMSD -1
REMARK  0 active torsions:
REMARK  status: ('A' for Active; 'I' for Inactive)
ROOT
ATOM      1  C   UNL d   1       4.985   2.240   1.079  0.00  0.00     0.020 A 
ATOM      2  C1  UNL d   1       5.996   2.346   0.124  0.00  0.00     0.020 A 
ATOM      3  C2  UNL d   1       5.804   1.823  -1.156  0.00  0.00     0.034 A 
ATOM      4  C3  UNL d   1       4.599   1.192  -1.486  0.00  0.00     0.017 A 
ATOM      5  C4  UNL d   1       3.585   1.086  -0.527  0.00  0.00     0.017 A 
ATOM      6  C5  UNL d   1       3.782   1.612   0.754  0.00  0.00     0.034 A 
ATOM      7 Cl   UNL d   1       2.071   0.322  -0.859  0.00  0.00    -0.070 Cl
ATOM      8 Cl1  UNL d   1       4.430   0.568  -3.088  0.00  0.00    -0.070 Cl
ENDROOT
TORSDOF 0
ENDMDL
