MODEL 1
REMARK minimizedAffinity 4.17234755
REMARK minimizedRMSD -1
REMARK  0 active torsions:
REMARK  status: ('A' for Active; 'I' for Inactive)
ROOT
ATOM      1  C   UNL d   1       2.611  -3.312  -0.480  0.00  0.00     0.020 A 
ATOM      2  C1  UNL d   1       2.799  -3.514  -1.847  0.00  0.00     0.020 A 
ATOM      3  C2  UNL d   1       3.262  -2.469  -2.650  0.00  0.00     0.034 A 
ATOM      4  C3  UNL d   1       3.537  -1.217  -2.087  0.00  0.00     0.017 A 
ATOM      5  C4  UNL d   1       3.347  -1.015  -0.715  0.00  0.00     0.017 A 
ATOM      6  C5  UNL d   1       2.884  -2.065   0.084  0.00  0.00     0.034 A 
ATOM      7 Cl   UNL d   1       3.665   0.501   0.051  0.00  0.00    -0.070 Cl
ATOM      8 Cl1  UNL d   1       4.106   0.029  -3.140  0.00  0.00    -0.070 Cl
ENDROOT
TORSDOF 0
ENDMDL
