MODEL 1
REMARK minimizedAffinity 5.54828978
REMARK minimizedRMSD -1
REMARK  0 active torsions:
REMARK  status: ('A' for Active; 'I' for Inactive)
ROOT
ATOM      1  C   UNL d   1      -2.643  -0.379  -1.794  0.00  0.00     0.020 A 
ATOM      2  C1  UNL d   1      -1.678   0.358  -1.109  0.00  0.00     0.020 A 
ATOM      3  C2  UNL d   1      -2.040   1.116   0.008  0.00  0.00     0.034 A 
ATOM      4  C3  UNL d   1      -3.371   1.137   0.442  0.00  0.00     0.017 A 
ATOM      5  C4  UNL d   1      -4.339   0.397  -0.247  0.00  0.00     0.017 A 
ATOM      6  C5  UNL d   1      -3.970  -0.359  -1.364  0.00  0.00     0.034 A 
ATOM      7 Cl   UNL d   1      -6.000   0.374   0.229  0.00  0.00    -0.070 Cl
ATOM      8 Cl1  UNL d   1      -3.747   2.095   1.830  0.00  0.00    -0.070 Cl
ENDROOT
TORSDOF 0
ENDMDL
