MODEL 1
REMARK minimizedAffinity 8.84462929
REMARK minimizedRMSD -1
REMARK  0 active torsions:
REMARK  status: ('A' for Active; 'I' for Inactive)
ROOT
ATOM      1  C   UNL d   1       4.203   4.294   3.503  0.00  0.00     0.020 A 
ATOM      2  C1  UNL d   1       3.452   5.470   3.503  0.00  0.00     0.020 A 
ATOM      3  C2  UNL d   1       2.296   5.559   4.281  0.00  0.00     0.034 A 
ATOM      4  C3  UNL d   1       1.887   4.472   5.062  0.00  0.00     0.017 A 
ATOM      5  C4  UNL d   1       2.641   3.293   5.061  0.00  0.00     0.017 A 
ATOM      6  C5  UNL d   1       3.798   3.209   4.280  0.00  0.00     0.034 A 
ATOM      7 Cl   UNL d   1       2.199   1.910   5.999  0.00  0.00    -0.070 Cl
ATOM      8 Cl1  UNL d   1       0.447   4.654   6.000  0.00  0.00    -0.070 Cl
ENDROOT
TORSDOF 0
ENDMDL
