MODEL 1
REMARK minimizedAffinity 9.36313915
REMARK minimizedRMSD -1
REMARK  0 active torsions:
REMARK  status: ('A' for Active; 'I' for Inactive)
ROOT
ATOM      1  C   UNL d   1       6.000   2.292  -0.007  0.00  0.00     0.020 A 
ATOM      2  C1  UNL d   1       5.115   1.700  -0.907  0.00  0.00     0.020 A 
ATOM      3  C2  UNL d   1       3.796   1.448  -0.526  0.00  0.00     0.034 A 
ATOM      4  C3  UNL d   1       3.357   1.789   0.758  0.00  0.00     0.017 A 
ATOM      5  C4  UNL d   1       4.245   2.384   1.662  0.00  0.00     0.017 A 
ATOM      6  C5  UNL d   1       5.566   2.634   1.275  0.00  0.00     0.034 A 
ATOM      7 Cl   UNL d   1       3.777   2.832   3.264  0.00  0.00    -0.070 Cl
ATOM      8 Cl1  UNL d   1       1.711   1.450   1.162  0.00  0.00    -0.070 Cl
ENDROOT
TORSDOF 0
ENDMDL
