MODEL 1
REMARK minimizedAffinity 10.0436401
REMARK minimizedRMSD -1
REMARK  0 active torsions:
REMARK  status: ('A' for Active; 'I' for Inactive)
ROOT
ATOM      1  C   UNL d   1       5.431   3.365   1.143  0.00  0.00     0.020 A 
ATOM      2  C1  UNL d   1       4.095   3.605   0.822  0.00  0.00     0.020 A 
ATOM      3  C2  UNL d   1       3.325   2.596   0.238  0.00  0.00     0.034 A 
ATOM      4  C3  UNL d   1       3.890   1.343  -0.026  0.00  0.00     0.017 A 
ATOM      5  C4  UNL d   1       5.231   1.103   0.297  0.00  0.00     0.017 A 
ATOM      6  C5  UNL d   1       5.997   2.117   0.881  0.00  0.00     0.034 A 
ATOM      7 Cl   UNL d   1       5.997  -0.417   0.002  0.00  0.00    -0.070 Cl
ATOM      8 Cl1  UNL d   1       2.880   0.143  -0.749  0.00  0.00    -0.070 Cl
ENDROOT
TORSDOF 0
ENDMDL
