MODEL 1
REMARK minimizedAffinity 14.6176004
REMARK minimizedRMSD -1
REMARK  0 active torsions:
REMARK  status: ('A' for Active; 'I' for Inactive)
ROOT
ATOM      1  C   UNL d   1      -5.854   0.559  -0.757  0.00  0.00     0.020 A 
ATOM      2  C1  UNL d   1      -5.121   0.781   0.408  0.00  0.00     0.020 A 
ATOM      3  C2  UNL d   1      -4.533   2.027   0.636  0.00  0.00     0.034 A 
ATOM      4  C3  UNL d   1      -4.677   3.055  -0.302  0.00  0.00     0.017 A 
ATOM      5  C4  UNL d   1      -5.413   2.831  -1.471  0.00  0.00     0.017 A 
ATOM      6  C5  UNL d   1      -6.000   1.582  -1.695  0.00  0.00     0.034 A 
ATOM      7 Cl   UNL d   1      -5.634   4.052  -2.675  0.00  0.00    -0.070 Cl
ATOM      8 Cl1  UNL d   1      -3.923   4.571   0.046  0.00  0.00    -0.070 Cl
ENDROOT
TORSDOF 0
ENDMDL
