MODEL 1
REMARK minimizedAffinity -3.67433357
REMARK minimizedRMSD -1
REMARK  1 active torsions:
REMARK  status: ('A' for Active; 'I' for Inactive)
REMARK    1  A    between atoms: N_2  and  C1_3 
ROOT
ATOM      1  C1  UNL d   1      -0.334   0.537  -0.029  0.00  0.00     0.143 A 
ATOM      2  C2  UNL d   1      -1.397   1.363  -0.411  0.00  0.00    -0.057 A 
ATOM      3  C3  UNL d   1      -1.947   2.295   0.478  0.00  0.00     0.033 A 
ATOM      4  C4  UNL d   1      -1.461   2.397   1.777  0.00  0.00    -0.042 A 
ATOM      5  C5  UNL d   1      -0.422   1.569   2.186  0.00  0.00     0.033 A 
ATOM      6  C6  UNL d   1       0.128   0.645   1.292  0.00  0.00    -0.057 A 
ENDROOT
BRANCH   1   7
ATOM      7  N   UNL d   1       0.191  -0.477  -0.834  0.00  0.00    -0.732 N 
ATOM      8  C   UNL d   1      -0.424  -1.786  -0.865  0.00  0.00     0.284 C 
ATOM      9  H3  UNL d   1       0.487  -0.135  -1.746  0.00  0.00     0.395 HD
ENDBRANCH   1   7
TORSDOF 1
ENDMDL
