MODEL 1
REMARK minimizedAffinity -5.43539953
REMARK minimizedRMSD -1
REMARK  1 active torsions:
REMARK  status: ('A' for Active; 'I' for Inactive)
REMARK    1  A    between atoms: N_2  and  C1_3 
ROOT
ATOM      1  C1  UNL d   1       0.690   0.664   1.781  0.00  0.00     0.143 A 
ATOM      2  C2  UNL d   1       0.016   1.772   2.307  0.00  0.00    -0.057 A 
ATOM      3  C3  UNL d   1      -0.849   2.539   1.516  0.00  0.00     0.033 A 
ATOM      4  C4  UNL d   1      -1.033   2.227   0.173  0.00  0.00    -0.042 A 
ATOM      5  C5  UNL d   1      -0.354   1.145  -0.377  0.00  0.00     0.033 A 
ATOM      6  C6  UNL d   1       0.503   0.379   0.419  0.00  0.00    -0.057 A 
ENDROOT
BRANCH   1   7
ATOM      7  N   UNL d   1       1.638  -0.078   2.490  0.00  0.00    -0.732 N 
ATOM      8  C   UNL d   1       2.967  -0.279   1.954  0.00  0.00     0.284 C 
ATOM      9  H3  UNL d   1       1.617   0.118   3.488  0.00  0.00     0.395 HD
ENDBRANCH   1   7
TORSDOF 1
ENDMDL
