MODEL 1
REMARK minimizedAffinity -0.864389896
REMARK minimizedRMSD -1
REMARK  1 active torsions:
REMARK  status: ('A' for Active; 'I' for Inactive)
REMARK    1  A    between atoms: N_2  and  C1_3 
ROOT
ATOM      1  C1  UNL d   1      -0.365   1.804   0.868  0.00  0.00     0.143 A 
ATOM      2  C2  UNL d   1       0.065   0.474   0.814  0.00  0.00    -0.057 A 
ATOM      3  C3  UNL d   1       0.305  -0.163  -0.409  0.00  0.00     0.033 A 
ATOM      4  C4  UNL d   1       0.091   0.513  -1.606  0.00  0.00    -0.042 A 
ATOM      5  C5  UNL d   1      -0.361   1.828  -1.577  0.00  0.00     0.033 A 
ATOM      6  C6  UNL d   1      -0.592   2.460  -0.352  0.00  0.00    -0.057 A 
ENDROOT
BRANCH   1   7
ATOM      7  N   UNL d   1      -0.715   2.462   2.049  0.00  0.00    -0.732 N 
ATOM      8  C   UNL d   1      -1.857   3.351   2.088  0.00  0.00     0.284 C 
ATOM      9  H3  UNL d   1      -0.626   1.863   2.868  0.00  0.00     0.395 HD
ENDBRANCH   1   7
TORSDOF 1
ENDMDL
