MODEL 1
REMARK minimizedAffinity -3.12182617
REMARK minimizedRMSD -1
REMARK  1 active torsions:
REMARK  status: ('A' for Active; 'I' for Inactive)
REMARK    1  A    between atoms: N_2  and  C1_3 
ROOT
ATOM      1  C1  UNL d   1      -0.812  -3.932  -1.410  0.00  0.00     0.143 A 
ATOM      2  C2  UNL d   1      -0.334  -5.080  -0.770  0.00  0.00    -0.057 A 
ATOM      3  C3  UNL d   1       0.912  -5.089  -0.131  0.00  0.00     0.033 A 
ATOM      4  C4  UNL d   1       1.717  -3.955  -0.148  0.00  0.00    -0.042 A 
ATOM      5  C5  UNL d   1       1.273  -2.810  -0.800  0.00  0.00     0.033 A 
ATOM      6  C6  UNL d   1       0.025  -2.805  -1.430  0.00  0.00    -0.057 A 
ENDROOT
BRANCH   1   7
ATOM      7  N   UNL d   1      -1.999  -3.890  -2.147  0.00  0.00    -0.732 N 
ATOM      8  C   UNL d   1      -1.969  -3.893  -3.594  0.00  0.00     0.284 C 
ATOM      9  H3  UNL d   1      -2.727  -4.476  -1.744  0.00  0.00     0.395 HD
ENDBRANCH   1   7
TORSDOF 1
ENDMDL
