MODEL 1
REMARK minimizedAffinity -3.1442821
REMARK minimizedRMSD -1
REMARK  1 active torsions:
REMARK  status: ('A' for Active; 'I' for Inactive)
REMARK    1  A    between atoms: N_2  and  C1_3 
ROOT
ATOM      1  C1  UNL d   1      -1.382   0.945   0.199  0.00  0.00     0.143 A 
ATOM      2  C2  UNL d   1      -0.653  -0.234   0.387  0.00  0.00    -0.057 A 
ATOM      3  C3  UNL d   1       0.359  -0.613  -0.504  0.00  0.00     0.033 A 
ATOM      4  C4  UNL d   1       0.641   0.170  -1.619  0.00  0.00    -0.042 A 
ATOM      5  C5  UNL d   1      -0.088   1.333  -1.840  0.00  0.00     0.033 A 
ATOM      6  C6  UNL d   1      -1.093   1.709  -0.943  0.00  0.00    -0.057 A 
ENDROOT
BRANCH   1   7
ATOM      7  N   UNL d   1      -2.466   1.325   0.994  0.00  0.00    -0.732 N 
ATOM      8  C   UNL d   1      -3.576   0.422   1.208  0.00  0.00     0.284 C 
ATOM      9  H3  UNL d   1      -2.177   1.834   1.826  0.00  0.00     0.395 HD
ENDBRANCH   1   7
TORSDOF 1
ENDMDL
