MODEL 1
REMARK minimizedAffinity 0.193434283
REMARK minimizedRMSD -1
REMARK  0 active torsions:
REMARK  status: ('A' for Active; 'I' for Inactive)
ROOT
ATOM      1  O1  BZF d   1      -0.714  -1.265  -0.447  0.00  0.00    -0.204 OA
ATOM      2  C2  BZF d   1      -0.506  -0.324   0.543  0.00  0.00     0.174 A 
ATOM      3  C3  BZF d   1      -1.023   0.869   0.185  0.00  0.00    -0.012 A 
ATOM      4  C3A BZF d   1      -1.670   0.638  -1.069  0.00  0.00    -0.107 A 
ATOM      5  C4  BZF d   1      -2.379   1.436  -1.921  0.00  0.00     0.055 A 
ATOM      6  C5  BZF d   1      -2.815   0.920  -3.101  0.00  0.00    -0.016 A 
ATOM      7  C6  BZF d   1      -2.556  -0.386  -3.462  0.00  0.00     0.022 A 
ATOM      8  C7  BZF d   1      -1.861  -1.217  -2.647  0.00  0.00     0.029 A 
ATOM      9  C7A BZF d   1      -1.447  -0.708  -1.440  0.00  0.00     0.058 A 
ENDROOT
TORSDOF 0
ENDMDL
