MODEL 1
REMARK minimizedAffinity -5.02837229
REMARK minimizedRMSD -1
REMARK  0 active torsions:
REMARK  status: ('A' for Active; 'I' for Inactive)
ROOT
ATOM      1  O1  BZF d   1      -0.581  -1.113  -0.020  0.00  0.00    -0.204 OA
ATOM      2  C2  BZF d   1      -1.448  -0.083  -0.328  0.00  0.00     0.174 A 
ATOM      3  C3  BZF d   1      -0.814   1.107  -0.280  0.00  0.00    -0.012 A 
ATOM      4  C3A BZF d   1       0.556   0.792  -0.010  0.00  0.00    -0.107 A 
ATOM      5  C4  BZF d   1       1.682   1.550   0.137  0.00  0.00     0.055 A 
ATOM      6  C5  BZF d   1       2.850   0.940   0.468  0.00  0.00    -0.016 A 
ATOM      7  C6  BZF d   1       2.927  -0.423   0.664  0.00  0.00     0.022 A 
ATOM      8  C7  BZF d   1       1.838  -1.218   0.523  0.00  0.00     0.029 A 
ATOM      9  C7A BZF d   1       0.663  -0.608   0.157  0.00  0.00     0.058 A 
ENDROOT
TORSDOF 0
ENDMDL
