MODEL 1
REMARK minimizedAffinity 0.429068089
REMARK minimizedRMSD -1
REMARK  0 active torsions:
REMARK  status: ('A' for Active; 'I' for Inactive)
ROOT
ATOM      1  O1  BZF d   1      -1.843   1.082  -0.135  0.00  0.00    -0.204 OA
ATOM      2  C2  BZF d   1      -0.522   0.721   0.042  0.00  0.00     0.174 A 
ATOM      3  C3  BZF d   1      -0.113  -0.097  -0.950  0.00  0.00    -0.012 A 
ATOM      4  C3A BZF d   1      -1.223  -0.183  -1.849  0.00  0.00    -0.107 A 
ATOM      5  C4  BZF d   1      -1.424  -0.835  -3.032  0.00  0.00     0.055 A 
ATOM      6  C5  BZF d   1      -2.648  -0.772  -3.620  0.00  0.00    -0.016 A 
ATOM      7  C6  BZF d   1      -3.692  -0.072  -3.052  0.00  0.00     0.022 A 
ATOM      8  C7  BZF d   1      -3.538   0.595  -1.882  0.00  0.00     0.029 A 
ATOM      9  C7A BZF d   1      -2.294   0.560  -1.301  0.00  0.00     0.058 A 
ENDROOT
TORSDOF 0
ENDMDL
