MODEL 1
REMARK minimizedAffinity -4.08190536
REMARK minimizedRMSD -1
REMARK  0 active torsions:
REMARK  status: ('A' for Active; 'I' for Inactive)
ROOT
ATOM      1  O1  BZF d   1      -1.018   0.994   0.066  0.00  0.00    -0.204 OA
ATOM      2  C2  BZF d   1      -1.479  -0.275  -0.226  0.00  0.00     0.174 A 
ATOM      3  C3  BZF d   1      -0.458  -1.153  -0.286  0.00  0.00    -0.012 A 
ATOM      4  C3A BZF d   1       0.706  -0.403   0.076  0.00  0.00    -0.107 A 
ATOM      5  C4  BZF d   1       2.026  -0.725   0.213  0.00  0.00     0.055 A 
ATOM      6  C5  BZF d   1       2.918   0.257   0.507  0.00  0.00    -0.016 A 
ATOM      7  C6  BZF d   1       2.526   1.570   0.666  0.00  0.00     0.022 A 
ATOM      8  C7  BZF d   1       1.227   1.937   0.545  0.00  0.00     0.029 A 
ATOM      9  C7A BZF d   1       0.318   0.942   0.280  0.00  0.00     0.058 A 
ENDROOT
TORSDOF 0
ENDMDL
