MODEL 1
REMARK minimizedAffinity -6.36969042
REMARK minimizedRMSD -1
REMARK  0 active torsions:
REMARK  status: ('A' for Active; 'I' for Inactive)
ROOT
ATOM      1  O1  BZF d   1      -0.942  -1.396   1.064  0.00  0.00    -0.204 OA
ATOM      2  C2  BZF d   1      -1.739  -0.463   0.429  0.00  0.00     0.174 A 
ATOM      3  C3  BZF d   1      -0.988   0.516  -0.116  0.00  0.00    -0.012 A 
ATOM      4  C3A BZF d   1       0.368   0.124   0.119  0.00  0.00    -0.107 A 
ATOM      5  C4  BZF d   1       1.574   0.680  -0.199  0.00  0.00     0.055 A 
ATOM      6  C5  BZF d   1       2.713   0.084   0.240  0.00  0.00    -0.016 A 
ATOM      7  C6  BZF d   1       2.683  -1.065   1.003  0.00  0.00     0.022 A 
ATOM      8  C7  BZF d   1       1.511  -1.656   1.340  0.00  0.00     0.029 A 
ATOM      9  C7A BZF d   1       0.359  -1.074   0.869  0.00  0.00     0.058 A 
ENDROOT
TORSDOF 0
ENDMDL
