MODEL 1
REMARK minimizedAffinity -5.46504593
REMARK minimizedRMSD -1
REMARK  0 active torsions:
REMARK  status: ('A' for Active; 'I' for Inactive)
ROOT
ATOM      1  O1  BZF d   1       0.679  -1.204  -0.072  0.00  0.00    -0.204 OA
ATOM      2  C2  BZF d   1       1.883  -1.737   0.345  0.00  0.00     0.174 A 
ATOM      3  C3  BZF d   1       2.729  -0.762   0.735  0.00  0.00    -0.012 A 
ATOM      4  C3A BZF d   1       1.976   0.451   0.638  0.00  0.00    -0.107 A 
ATOM      5  C4  BZF d   1       2.264   1.759   0.904  0.00  0.00     0.055 A 
ATOM      6  C5  BZF d   1       1.331   2.709   0.633  0.00  0.00    -0.016 A 
ATOM      7  C6  BZF d   1       0.103   2.387   0.092  0.00  0.00     0.022 A 
ATOM      8  C7  BZF d   1      -0.230   1.103  -0.184  0.00  0.00     0.029 A 
ATOM      9  C7A BZF d   1       0.698   0.137   0.119  0.00  0.00     0.058 A 
ENDROOT
TORSDOF 0
ENDMDL
