MODEL 1
REMARK minimizedAffinity -2.91763163
REMARK minimizedRMSD -1
REMARK  0 active torsions:
REMARK  status: ('A' for Active; 'I' for Inactive)
ROOT
ATOM      1  O1  BZF d   1       0.074  -1.246   0.769  0.00  0.00    -0.204 OA
ATOM      2  C2  BZF d   1      -1.070  -0.738   0.184  0.00  0.00     0.174 A 
ATOM      3  C3  BZF d   1      -0.907   0.563  -0.135  0.00  0.00    -0.012 A 
ATOM      4  C3A BZF d   1       0.453   0.863   0.193  0.00  0.00    -0.107 A 
ATOM      5  C4  BZF d   1       1.217   1.990   0.089  0.00  0.00     0.055 A 
ATOM      6  C5  BZF d   1       2.489   1.972   0.566  0.00  0.00    -0.016 A 
ATOM      7  C6  BZF d   1       3.027   0.847   1.156  0.00  0.00     0.022 A 
ATOM      8  C7  BZF d   1       2.310  -0.296   1.277  0.00  0.00     0.029 A 
ATOM      9  C7A BZF d   1       1.035  -0.291   0.766  0.00  0.00     0.058 A 
ENDROOT
TORSDOF 0
ENDMDL
