MODEL 1
REMARK minimizedAffinity -4.90001488
REMARK minimizedRMSD -1
REMARK  0 active torsions:
REMARK  status: ('A' for Active; 'I' for Inactive)
ROOT
ATOM      1  O1  BZF d   1      -0.649  -1.294   0.093  0.00  0.00    -0.204 OA
ATOM      2  C2  BZF d   1      -1.316  -0.405  -0.727  0.00  0.00     0.174 A 
ATOM      3  C3  BZF d   1      -0.590   0.717  -0.907  0.00  0.00    -0.012 A 
ATOM      4  C3A BZF d   1       0.646   0.478  -0.227  0.00  0.00    -0.107 A 
ATOM      5  C4  BZF d   1       1.783   1.216  -0.060  0.00  0.00     0.055 A 
ATOM      6  C5  BZF d   1       2.781   0.724   0.721  0.00  0.00    -0.016 A 
ATOM      7  C6  BZF d   1       2.673  -0.498   1.352  0.00  0.00     0.022 A 
ATOM      8  C7  BZF d   1       1.567  -1.268   1.212  0.00  0.00     0.029 A 
ATOM      9  C7A BZF d   1       0.571  -0.788   0.397  0.00  0.00     0.058 A 
ENDROOT
TORSDOF 0
ENDMDL
