MODEL 1
REMARK minimizedAffinity -3.50847077
REMARK minimizedRMSD -1
REMARK  0 active torsions:
REMARK  status: ('A' for Active; 'I' for Inactive)
ROOT
ATOM      1  O1  BZF d   1      -0.423  -1.145   0.589  0.00  0.00    -0.204 OA
ATOM      2  C2  BZF d   1      -1.580  -0.590   0.076  0.00  0.00     0.174 A 
ATOM      3  C3  BZF d   1      -1.422   0.733  -0.137  0.00  0.00    -0.012 A 
ATOM      4  C3A BZF d   1      -0.053   1.004   0.180  0.00  0.00    -0.107 A 
ATOM      5  C4  BZF d   1       0.710   2.136   0.152  0.00  0.00     0.055 A 
ATOM      6  C5  BZF d   1       1.994   2.079   0.595  0.00  0.00    -0.016 A 
ATOM      7  C6  BZF d   1       2.544   0.909   1.076  0.00  0.00     0.022 A 
ATOM      8  C7  BZF d   1       1.827  -0.241   1.119  0.00  0.00     0.029 A 
ATOM      9  C7A BZF d   1       0.540  -0.193   0.642  0.00  0.00     0.058 A 
ENDROOT
TORSDOF 0
ENDMDL
