MODEL 1
REMARK minimizedAffinity -2.23283052
REMARK minimizedRMSD -1
REMARK  0 active torsions:
REMARK  status: ('A' for Active; 'I' for Inactive)
ROOT
ATOM      1  O1  BZF d   1      -0.281  -1.066  -0.823  0.00  0.00    -0.204 OA
ATOM      2  C2  BZF d   1      -1.380  -0.244  -0.977  0.00  0.00     0.174 A 
ATOM      3  C3  BZF d   1      -1.224   0.900  -0.279  0.00  0.00    -0.012 A 
ATOM      4  C3A BZF d   1       0.093   0.825   0.277  0.00  0.00    -0.107 A 
ATOM      5  C4  BZF d   1       0.832   1.667   1.056  0.00  0.00     0.055 A 
ATOM      6  C5  BZF d   1       2.056   1.264   1.488  0.00  0.00    -0.016 A 
ATOM      7  C6  BZF d   1       2.569   0.025   1.164  0.00  0.00     0.022 A 
ATOM      8  C7  BZF d   1       1.874  -0.843   0.389  0.00  0.00     0.029 A 
ATOM      9  C7A BZF d   1       0.651  -0.426  -0.076  0.00  0.00     0.058 A 
ENDROOT
TORSDOF 0
ENDMDL
