MODEL 1
REMARK minimizedAffinity -4.60259581
REMARK minimizedRMSD -1
REMARK  2 active torsions:
REMARK  status: ('A' for Active; 'I' for Inactive)
REMARK    1  A    between atoms: C2'_3  and  C1'_4 
REMARK    2  A    between atoms: C1'_4  and  C1_5 
ROOT
ATOM      1  C1  I4B d   1      -1.100  -0.376  -0.990  0.00  0.00    -0.075 A 
ATOM      2  C2  I4B d   1      -1.890   0.680  -1.374  0.00  0.00     0.003 A 
ATOM      3  C3  I4B d   1      -2.680   0.591  -2.545  0.00  0.00     0.002 A 
ATOM      4  C4  I4B d   1      -2.611  -0.545  -3.326  0.00  0.00    -0.004 A 
ATOM      5  C5  I4B d   1      -1.828  -1.623  -2.924  0.00  0.00     0.002 A 
ATOM      6  C6  I4B d   1      -1.077  -1.543  -1.742  0.00  0.00     0.003 A 
ENDROOT
BRANCH   1   7
ATOM      7  C1' I4B d   1      -0.254  -0.235   0.235  0.00  0.00     0.060 C 
BRANCH   7   8
ATOM      8  C2' I4B d   1       0.981   0.560  -0.139  0.00  0.00    -0.013 C 
ATOM      9  C4' I4B d   1       0.745   2.039   0.018  0.00  0.00     0.013 C 
ATOM     10  C3' I4B d   1       2.111   0.096   0.730  0.00  0.00     0.013 C 
ENDBRANCH   7   8
ENDBRANCH   1   7
TORSDOF 2
ENDMDL
