MODEL 1
REMARK minimizedAffinity -3.08984923
REMARK minimizedRMSD -1
REMARK  2 active torsions:
REMARK  status: ('A' for Active; 'I' for Inactive)
REMARK    1  A    between atoms: C2'_3  and  C1'_4 
REMARK    2  A    between atoms: C1'_4  and  C1_5 
ROOT
ATOM      1  C1  I4B d   1       0.745   0.420   0.071  0.00  0.00    -0.075 A 
ATOM      2  C2  I4B d   1       1.340  -0.600  -0.628  0.00  0.00     0.003 A 
ATOM      3  C3  I4B d   1       2.618  -1.076  -0.246  0.00  0.00     0.002 A 
ATOM      4  C4  I4B d   1       3.282  -0.472   0.803  0.00  0.00    -0.004 A 
ATOM      5  C5  I4B d   1       2.667   0.547   1.524  0.00  0.00     0.002 A 
ATOM      6  C6  I4B d   1       1.386   0.988   1.164  0.00  0.00     0.003 A 
ENDROOT
BRANCH   1   7
ATOM      7  C1' I4B d   1      -0.591   0.920  -0.381  0.00  0.00     0.060 C 
BRANCH   7   8
ATOM      8  C2' I4B d   1      -1.417  -0.277  -0.805  0.00  0.00    -0.013 C 
ATOM      9  C4' I4B d   1      -2.170  -0.862   0.361  0.00  0.00     0.013 C 
ATOM     10  C3' I4B d   1      -2.356   0.169  -1.887  0.00  0.00     0.013 C 
ENDBRANCH   7   8
ENDBRANCH   1   7
TORSDOF 2
ENDMDL
