MODEL 1
REMARK minimizedAffinity -4.5085535
REMARK minimizedRMSD -1
REMARK  2 active torsions:
REMARK  status: ('A' for Active; 'I' for Inactive)
REMARK    1  A    between atoms: C2'_3  and  C1'_4 
REMARK    2  A    between atoms: C1'_4  and  C1_5 
ROOT
ATOM      1  C1  I4B d   1       1.597  -0.139   0.382  0.00  0.00    -0.075 A 
ATOM      2  C2  I4B d   1       2.913   0.113   0.677  0.00  0.00     0.003 A 
ATOM      3  C3  I4B d   1       3.612  -0.717   1.586  0.00  0.00     0.002 A 
ATOM      4  C4  I4B d   1       2.945  -1.751   2.212  0.00  0.00    -0.004 A 
ATOM      5  C5  I4B d   1       1.617  -2.019   1.895  0.00  0.00     0.002 A 
ATOM      6  C6  I4B d   1       0.941  -1.216   0.965  0.00  0.00     0.003 A 
ENDROOT
BRANCH   1   7
ATOM      7  C1' I4B d   1       0.880   0.778  -0.558  0.00  0.00     0.060 C 
BRANCH   7   8
ATOM      8  C2' I4B d   1      -0.395   1.237   0.119  0.00  0.00    -0.013 C 
ATOM      9  C4' I4B d   1      -0.451   2.739   0.215  0.00  0.00     0.013 C 
ATOM     10  C3' I4B d   1      -1.555   0.701  -0.665  0.00  0.00     0.013 C 
ENDBRANCH   7   8
ENDBRANCH   1   7
TORSDOF 2
ENDMDL
