MODEL 1
REMARK minimizedAffinity -3.54139137
REMARK minimizedRMSD -1
REMARK  2 active torsions:
REMARK  status: ('A' for Active; 'I' for Inactive)
REMARK    1  A    between atoms: C2'_3  and  C1'_4 
REMARK    2  A    between atoms: C1'_4  and  C1_5 
ROOT
ATOM      1  C1  I4B d   1      -0.286  -0.462  -0.296  0.00  0.00    -0.075 A 
ATOM      2  C2  I4B d   1       0.265   0.655   0.279  0.00  0.00     0.003 A 
ATOM      3  C3  I4B d   1       1.640   0.677   0.619  0.00  0.00     0.002 A 
ATOM      4  C4  I4B d   1       2.409  -0.450   0.414  0.00  0.00    -0.004 A 
ATOM      5  C5  I4B d   1       1.853  -1.574  -0.191  0.00  0.00     0.002 A 
ATOM      6  C6  I4B d   1       0.500  -1.576  -0.560  0.00  0.00     0.003 A 
ENDROOT
BRANCH   1   7
ATOM      7  C1' I4B d   1      -1.748  -0.463  -0.613  0.00  0.00     0.060 C 
BRANCH   7   8
ATOM      8  C2' I4B d   1      -1.913  -0.053  -2.062  0.00  0.00    -0.013 C 
ATOM      9  C4' I4B d   1      -2.173  -1.248  -2.941  0.00  0.00     0.013 C 
ATOM     10  C3' I4B d   1      -3.041   0.932  -2.139  0.00  0.00     0.013 C 
ENDBRANCH   7   8
ENDBRANCH   1   7
TORSDOF 2
ENDMDL
