MODEL 1
REMARK minimizedAffinity -5.30950451
REMARK minimizedRMSD -1
REMARK  2 active torsions:
REMARK  status: ('A' for Active; 'I' for Inactive)
REMARK    1  A    between atoms: C2'_3  and  C1'_4 
REMARK    2  A    between atoms: C1'_4  and  C1_5 
ROOT
ATOM      1  C1  I4B d   1      -0.249  -0.124  -0.144  0.00  0.00    -0.075 A 
ATOM      2  C2  I4B d   1       0.627  -1.173  -0.019  0.00  0.00     0.003 A 
ATOM      3  C3  I4B d   1       1.982  -0.935   0.316  0.00  0.00     0.002 A 
ATOM      4  C4  I4B d   1       2.427   0.363   0.468  0.00  0.00    -0.004 A 
ATOM      5  C5  I4B d   1       1.532   1.424   0.364  0.00  0.00     0.002 A 
ATOM      6  C6  I4B d   1       0.183   1.179   0.068  0.00  0.00     0.003 A 
ENDROOT
BRANCH   1   7
ATOM      7  C1' I4B d   1      -1.665  -0.409  -0.532  0.00  0.00     0.060 C 
BRANCH   7   8
ATOM      8  C2' I4B d   1      -1.884   0.132  -1.930  0.00  0.00    -0.013 C 
ATOM      9  C4' I4B d   1      -2.130  -0.982  -2.914  0.00  0.00     0.013 C 
ATOM     10  C3' I4B d   1      -3.045   1.080  -1.883  0.00  0.00     0.013 C 
ENDBRANCH   7   8
ENDBRANCH   1   7
TORSDOF 2
ENDMDL
