MODEL 1
REMARK minimizedAffinity -3.10951114
REMARK minimizedRMSD -1
REMARK  2 active torsions:
REMARK  status: ('A' for Active; 'I' for Inactive)
REMARK    1  A    between atoms: C2'_3  and  C1'_4 
REMARK    2  A    between atoms: C1'_4  and  C1_5 
ROOT
ATOM      1  C1  I4B d   1       0.855   0.497  -0.030  0.00  0.00    -0.075 A 
ATOM      2  C2  I4B d   1       1.485   1.120   1.018  0.00  0.00     0.003 A 
ATOM      3  C3  I4B d   1       2.687   0.589   1.544  0.00  0.00     0.002 A 
ATOM      4  C4  I4B d   1       3.193  -0.587   1.029  0.00  0.00    -0.004 A 
ATOM      5  C5  I4B d   1       2.565  -1.205  -0.049  0.00  0.00     0.002 A 
ATOM      6  C6  I4B d   1       1.395  -0.653  -0.590  0.00  0.00     0.003 A 
ENDROOT
BRANCH   1   7
ATOM      7  C1' I4B d   1      -0.431   1.068  -0.540  0.00  0.00     0.060 C 
BRANCH   7   8
ATOM      8  C2' I4B d   1      -1.372  -0.085  -0.826  0.00  0.00    -0.013 C 
ATOM      9  C4' I4B d   1      -1.841  -0.735   0.449  0.00  0.00     0.013 C 
ATOM     10  C3' I4B d   1      -2.528   0.447  -1.619  0.00  0.00     0.013 C 
ENDBRANCH   7   8
ENDBRANCH   1   7
TORSDOF 2
ENDMDL
