MODEL 1
REMARK minimizedAffinity -3.25605321
REMARK minimizedRMSD -1
REMARK  0 active torsions:
REMARK  status: ('A' for Active; 'I' for Inactive)
ROOT
ATOM      1  C   UNL d   1      -1.304  -1.605   1.435  0.00  0.00     0.172 C 
ATOM      2  N   UNL d   1      -0.954  -0.426   0.678  0.00  0.00    -0.070 N 
ATOM      3  C1  UNL d   1      -1.801   0.282  -0.133  0.00  0.00    -0.004 A 
ATOM      4  C2  UNL d   1      -1.089   1.332  -0.672  0.00  0.00    -0.047 A 
ATOM      5  C3  UNL d   1       0.231   1.251  -0.168  0.00  0.00    -0.047 A 
ATOM      6  C4  UNL d   1       0.287   0.154   0.665  0.00  0.00    -0.004 A 
ENDROOT
TORSDOF 0
ENDMDL
