MODEL 1
REMARK minimizedAffinity -3.70854878
REMARK minimizedRMSD -1
REMARK  0 active torsions:
REMARK  status: ('A' for Active; 'I' for Inactive)
ROOT
ATOM      1  C   UNL d   1      -1.231  -0.634   2.680  0.00  0.00     0.172 C 
ATOM      2  N   UNL d   1      -1.184  -0.154   1.319  0.00  0.00    -0.070 N 
ATOM      3  C1  UNL d   1      -0.051  -0.008   0.563  0.00  0.00    -0.004 A 
ATOM      4  C2  UNL d   1      -0.428   0.472  -0.673  0.00  0.00    -0.047 A 
ATOM      5  C3  UNL d   1      -1.835   0.620  -0.659  0.00  0.00    -0.047 A 
ATOM      6  C4  UNL d   1      -2.277   0.226   0.586  0.00  0.00    -0.004 A 
ENDROOT
TORSDOF 0
ENDMDL
