MODEL 1
REMARK minimizedAffinity -2.9579711
REMARK minimizedRMSD -1
REMARK  0 active torsions:
REMARK  status: ('A' for Active; 'I' for Inactive)
ROOT
ATOM      1  C   UNL d   1      -0.041   0.630  -0.855  0.00  0.00     0.172 C 
ATOM      2  N   UNL d   1      -0.137   0.268   0.540  0.00  0.00    -0.070 N 
ATOM      3  C1  UNL d   1      -0.908  -0.742   1.050  0.00  0.00    -0.004 A 
ATOM      4  C2  UNL d   1      -0.723  -0.765   2.416  0.00  0.00    -0.047 A 
ATOM      5  C3  UNL d   1       0.190   0.267   2.737  0.00  0.00    -0.047 A 
ATOM      6  C4  UNL d   1       0.537   0.891   1.557  0.00  0.00    -0.004 A 
ENDROOT
TORSDOF 0
ENDMDL
