MODEL 1
REMARK minimizedAffinity -3.30728889
REMARK minimizedRMSD -1
REMARK  0 active torsions:
REMARK  status: ('A' for Active; 'I' for Inactive)
ROOT
ATOM      1  C   UNL d   1      -2.258   0.817  -0.396  0.00  0.00     0.172 C 
ATOM      2  N   UNL d   1      -1.189   0.617   0.554  0.00  0.00    -0.070 N 
ATOM      3  C1  UNL d   1      -1.275   0.819   1.906  0.00  0.00    -0.004 A 
ATOM      4  C2  UNL d   1      -0.048   0.518   2.456  0.00  0.00    -0.047 A 
ATOM      5  C3  UNL d   1       0.805   0.122   1.399  0.00  0.00    -0.047 A 
ATOM      6  C4  UNL d   1       0.073   0.192   0.232  0.00  0.00    -0.004 A 
ENDROOT
TORSDOF 0
ENDMDL
