MODEL 1
REMARK minimizedAffinity -1.75002337
REMARK minimizedRMSD -1
REMARK  0 active torsions:
REMARK  status: ('A' for Active; 'I' for Inactive)
ROOT
ATOM      1  C   UNL d   1      -0.067   0.324  -0.130  0.00  0.00     0.172 C 
ATOM      2  N   UNL d   1      -0.469   0.387   1.256  0.00  0.00    -0.070 N 
ATOM      3  C1  UNL d   1      -1.742   0.609   1.709  0.00  0.00    -0.004 A 
ATOM      4  C2  UNL d   1      -1.708   0.595   3.086  0.00  0.00    -0.047 A 
ATOM      5  C3  UNL d   1      -0.369   0.356   3.475  0.00  0.00    -0.047 A 
ATOM      6  C4  UNL d   1       0.377   0.232   2.322  0.00  0.00    -0.004 A 
ENDROOT
TORSDOF 0
ENDMDL
