MODEL 1
REMARK minimizedAffinity -4.13318443
REMARK minimizedRMSD -1
REMARK  0 active torsions:
REMARK  status: ('A' for Active; 'I' for Inactive)
ROOT
ATOM      1  C   UNL d   1      -0.411   0.253  -0.555  0.00  0.00     0.172 C 
ATOM      2  N   UNL d   1      -1.025   0.152   0.747  0.00  0.00    -0.070 N 
ATOM      3  C1  UNL d   1      -2.360   0.303   1.014  0.00  0.00    -0.004 A 
ATOM      4  C2  UNL d   1      -2.541   0.133   2.370  0.00  0.00    -0.047 A 
ATOM      5  C3  UNL d   1      -1.272  -0.129   2.937  0.00  0.00    -0.047 A 
ATOM      6  C4  UNL d   1      -0.351  -0.111   1.911  0.00  0.00    -0.004 A 
ENDROOT
TORSDOF 0
ENDMDL
