MODEL 1
REMARK minimizedAffinity -3.95720983
REMARK minimizedRMSD -1
REMARK  0 active torsions:
REMARK  status: ('A' for Active; 'I' for Inactive)
ROOT
ATOM      1  C   UNL d   1       0.579   0.404   0.028  0.00  0.00     0.172 C 
ATOM      2  N   UNL d   1      -0.474   0.122   0.975  0.00  0.00    -0.070 N 
ATOM      3  C1  UNL d   1      -0.319  -0.521   2.174  0.00  0.00    -0.004 A 
ATOM      4  C2  UNL d   1      -1.556  -0.592   2.778  0.00  0.00    -0.047 A 
ATOM      5  C3  UNL d   1      -2.486   0.029   1.911  0.00  0.00    -0.047 A 
ATOM      6  C4  UNL d   1      -1.790   0.462   0.803  0.00  0.00    -0.004 A 
ENDROOT
TORSDOF 0
ENDMDL
