MODEL 1
REMARK minimizedAffinity -2.60668349
REMARK minimizedRMSD -1
REMARK  0 active torsions:
REMARK  status: ('A' for Active; 'I' for Inactive)
ROOT
ATOM      1  C   UNL d   1      -0.733   0.197   2.664  0.00  0.00     0.172 C 
ATOM      2  N   UNL d   1      -0.750   0.436   1.239  0.00  0.00    -0.070 N 
ATOM      3  C1  UNL d   1      -1.870   0.629   0.475  0.00  0.00    -0.004 A 
ATOM      4  C2  UNL d   1      -1.464   0.823  -0.827  0.00  0.00    -0.047 A 
ATOM      5  C3  UNL d   1      -0.051   0.743  -0.847  0.00  0.00    -0.047 A 
ATOM      6  C4  UNL d   1       0.365   0.503   0.446  0.00  0.00    -0.004 A 
ENDROOT
TORSDOF 0
ENDMDL
