MODEL 1
REMARK minimizedAffinity 1.46097422
REMARK minimizedRMSD -1
REMARK  0 active torsions:
REMARK  status: ('A' for Active; 'I' for Inactive)
ROOT
ATOM      1  C   UNL d   1       0.081   0.322  -1.174  0.00  0.00     0.172 C 
ATOM      2  N   UNL d   1       0.092   0.583   0.247  0.00  0.00    -0.070 N 
ATOM      3  C1  UNL d   1      -1.005   0.868   1.015  0.00  0.00    -0.004 A 
ATOM      4  C2  UNL d   1      -0.576   1.051   2.312  0.00  0.00    -0.047 A 
ATOM      5  C3  UNL d   1       0.827   0.870   2.324  0.00  0.00    -0.047 A 
ATOM      6  C4  UNL d   1       1.215   0.581   1.032  0.00  0.00    -0.004 A 
ENDROOT
TORSDOF 0
ENDMDL
