MODEL 1
REMARK minimizedAffinity -1.79748452
REMARK minimizedRMSD -1
REMARK  0 active torsions:
REMARK  status: ('A' for Active; 'I' for Inactive)
ROOT
ATOM      1  C   UNL d   1       0.345   0.725  -1.219  0.00  0.00     0.172 C 
ATOM      2  N   UNL d   1       0.086   0.637   0.199  0.00  0.00    -0.070 N 
ATOM      3  C1  UNL d   1      -1.151   0.658   0.787  0.00  0.00    -0.004 A 
ATOM      4  C2  UNL d   1      -0.972   0.551   2.150  0.00  0.00    -0.047 A 
ATOM      5  C3  UNL d   1       0.420   0.463   2.388  0.00  0.00    -0.047 A 
ATOM      6  C4  UNL d   1       1.051   0.519   1.163  0.00  0.00    -0.004 A 
ENDROOT
TORSDOF 0
ENDMDL
