MODEL 1
REMARK minimizedAffinity -3.92020059
REMARK minimizedRMSD -1
REMARK  0 active torsions:
REMARK  status: ('A' for Active; 'I' for Inactive)
ROOT
ATOM      1  C   UNL d   1       0.216   0.281  -0.286  0.00  0.00     0.172 C 
ATOM      2  N   UNL d   1      -0.327   0.069   1.035  0.00  0.00    -0.070 N 
ATOM      3  C1  UNL d   1      -1.622  -0.272   1.320  0.00  0.00    -0.004 A 
ATOM      4  C2  UNL d   1      -1.738  -0.381   2.689  0.00  0.00    -0.047 A 
ATOM      5  C3  UNL d   1      -0.469  -0.095   3.246  0.00  0.00    -0.047 A 
ATOM      6  C4  UNL d   1       0.385   0.181   2.199  0.00  0.00    -0.004 A 
ENDROOT
TORSDOF 0
ENDMDL
