MODEL 1
REMARK minimizedAffinity -3.32447982
REMARK minimizedRMSD -1
REMARK  0 active torsions:
REMARK  status: ('A' for Active; 'I' for Inactive)
ROOT
ATOM      1  C   UNL d   1      -0.037   0.044  -0.597  0.00  0.00     0.172 C 
ATOM      2  N   UNL d   1      -0.346   0.157   0.809  0.00  0.00    -0.070 N 
ATOM      3  C1  UNL d   1      -1.536  -0.181   1.394  0.00  0.00    -0.004 A 
ATOM      4  C2  UNL d   1      -1.430   0.074   2.745  0.00  0.00    -0.047 A 
ATOM      5  C3  UNL d   1      -0.131   0.583   2.979  0.00  0.00    -0.047 A 
ATOM      6  C4  UNL d   1       0.519   0.624   1.763  0.00  0.00    -0.004 A 
ENDROOT
TORSDOF 0
ENDMDL
