MODEL 1
REMARK minimizedAffinity -3.52312112
REMARK minimizedRMSD -1
REMARK  0 active torsions:
REMARK  status: ('A' for Active; 'I' for Inactive)
ROOT
ATOM      1  C   UNL d   1       0.410   0.447  -0.428  0.00  0.00     0.172 C 
ATOM      2  N   UNL d   1      -0.197  -0.054   0.783  0.00  0.00    -0.070 N 
ATOM      3  C1  UNL d   1       0.227   0.212   2.058  0.00  0.00    -0.004 A 
ATOM      4  C2  UNL d   1      -0.613  -0.449   2.928  0.00  0.00    -0.047 A 
ATOM      5  C3  UNL d   1      -1.574  -1.137   2.149  0.00  0.00    -0.047 A 
ATOM      6  C4  UNL d   1      -1.293  -0.875   0.825  0.00  0.00    -0.004 A 
ENDROOT
TORSDOF 0
ENDMDL
