MODEL 1
REMARK minimizedAffinity -4.16894913
REMARK minimizedRMSD -1
REMARK  0 active torsions:
REMARK  status: ('A' for Active; 'I' for Inactive)
ROOT
ATOM      1  C   UNL d   1      -0.429   0.185  -0.541  0.00  0.00     0.172 C 
ATOM      2  N   UNL d   1      -0.738  -0.116   0.837  0.00  0.00    -0.070 N 
ATOM      3  C1  UNL d   1      -1.994  -0.299   1.352  0.00  0.00    -0.004 A 
ATOM      4  C2  UNL d   1      -1.863  -0.567   2.697  0.00  0.00    -0.047 A 
ATOM      5  C3  UNL d   1      -0.482  -0.544   3.002  0.00  0.00    -0.047 A 
ATOM      6  C4  UNL d   1       0.192  -0.262   1.832  0.00  0.00    -0.004 A 
ENDROOT
TORSDOF 0
ENDMDL
