MODEL 1
REMARK minimizedAffinity -1.86286974
REMARK minimizedRMSD -1
REMARK  0 active torsions:
REMARK  status: ('A' for Active; 'I' for Inactive)
ROOT
ATOM      1  C   UNL d   1      -1.694  -0.785   1.438  0.00  0.00     0.172 C 
ATOM      2  N   UNL d   1      -0.605  -0.295   0.625  0.00  0.00    -0.070 N 
ATOM      3  C1  UNL d   1       0.684  -0.106   1.048  0.00  0.00    -0.004 A 
ATOM      4  C2  UNL d   1       1.412   0.369  -0.021  0.00  0.00    -0.047 A 
ATOM      5  C3  UNL d   1       0.531   0.470  -1.124  0.00  0.00    -0.047 A 
ATOM      6  C4  UNL d   1      -0.712   0.052  -0.695  0.00  0.00    -0.004 A 
ENDROOT
TORSDOF 0
ENDMDL
