MODEL 1
REMARK minimizedAffinity -2.64412904
REMARK minimizedRMSD -1
REMARK  0 active torsions:
REMARK  status: ('A' for Active; 'I' for Inactive)
ROOT
ATOM      1  C   UNL d   1      -0.235  -0.169   3.002  0.00  0.00     0.172 C 
ATOM      2  N   UNL d   1      -0.200   0.028   1.571  0.00  0.00    -0.070 N 
ATOM      3  C1  UNL d   1       0.924   0.251   0.823  0.00  0.00    -0.004 A 
ATOM      4  C2  UNL d   1       0.536   0.386  -0.492  0.00  0.00    -0.047 A 
ATOM      5  C3  UNL d   1      -0.871   0.239  -0.536  0.00  0.00    -0.047 A 
ATOM      6  C4  UNL d   1      -1.301   0.019   0.755  0.00  0.00    -0.004 A 
ENDROOT
TORSDOF 0
ENDMDL
