MODEL 1
REMARK minimizedAffinity -2.44345999
REMARK minimizedRMSD -1
REMARK  0 active torsions:
REMARK  status: ('A' for Active; 'I' for Inactive)
ROOT
ATOM      1  C   UNL d   1       1.331  -2.189  -4.011  0.00  0.00     0.172 C 
ATOM      2  N   UNL d   1       2.293  -1.186  -3.620  0.00  0.00    -0.070 N 
ATOM      3  C1  UNL d   1       3.611  -1.156  -3.992  0.00  0.00    -0.004 A 
ATOM      4  C2  UNL d   1       4.187  -0.045  -3.414  0.00  0.00    -0.047 A 
ATOM      5  C3  UNL d   1       3.180   0.615  -2.669  0.00  0.00    -0.047 A 
ATOM      6  C4  UNL d   1       2.018  -0.113  -2.814  0.00  0.00    -0.004 A 
ENDROOT
TORSDOF 0
ENDMDL
