MODEL 1
REMARK minimizedAffinity -3.55216289
REMARK minimizedRMSD -1
REMARK  0 active torsions:
REMARK  status: ('A' for Active; 'I' for Inactive)
ROOT
ATOM      1  C   UNL d   1      -0.056   0.130  -0.873  0.00  0.00     0.172 C 
ATOM      2  N   UNL d   1      -0.390  -0.045   0.521  0.00  0.00    -0.070 N 
ATOM      3  C1  UNL d   1       0.506  -0.237   1.538  0.00  0.00    -0.004 A 
ATOM      4  C2  UNL d   1      -0.207  -0.360   2.712  0.00  0.00    -0.047 A 
ATOM      5  C3  UNL d   1      -1.579  -0.237   2.388  0.00  0.00    -0.047 A 
ATOM      6  C4  UNL d   1      -1.664  -0.043   1.025  0.00  0.00    -0.004 A 
ENDROOT
TORSDOF 0
ENDMDL
