MODEL 1
REMARK minimizedAffinity -2.79796982
REMARK minimizedRMSD -1
REMARK  0 active torsions:
REMARK  status: ('A' for Active; 'I' for Inactive)
ROOT
ATOM      1  C   UNL d   1       0.023   0.323  -0.921  0.00  0.00     0.172 C 
ATOM      2  N   UNL d   1      -0.156   0.127   0.498  0.00  0.00    -0.070 N 
ATOM      3  C1  UNL d   1      -1.343  -0.151   1.122  0.00  0.00    -0.004 A 
ATOM      4  C2  UNL d   1      -1.094  -0.265   2.473  0.00  0.00    -0.047 A 
ATOM      5  C3  UNL d   1       0.291  -0.046   2.667  0.00  0.00    -0.047 A 
ATOM      6  C4  UNL d   1       0.847   0.194   1.429  0.00  0.00    -0.004 A 
ENDROOT
TORSDOF 0
ENDMDL
