MODEL 1
REMARK minimizedAffinity 6.48342276
REMARK minimizedRMSD -1
REMARK  2 active torsions:
REMARK  status: ('A' for Active; 'I' for Inactive)
REMARK    1  A    between atoms: C2'_3  and  C1'_4 
REMARK    2  A    between atoms: C1'_4  and  C1_5 
ROOT
ATOM      1  C1  I4B d   1      -2.964  -1.459  -0.541  0.00  0.00    -0.075 A 
ATOM      2  C2  I4B d   1      -1.964  -0.716  -1.116  0.00  0.00     0.003 A 
ATOM      3  C3  I4B d   1      -2.282   0.349  -1.994  0.00  0.00     0.002 A 
ATOM      4  C4  I4B d   1      -3.603   0.601  -2.306  0.00  0.00    -0.004 A 
ATOM      5  C5  I4B d   1      -4.616  -0.139  -1.703  0.00  0.00     0.002 A 
ATOM      6  C6  I4B d   1      -4.296  -1.168  -0.806  0.00  0.00     0.003 A 
ENDROOT
BRANCH   1   7
ATOM      7  C1' I4B d   1      -2.591  -2.597   0.356  0.00  0.00     0.060 C 
BRANCH   7   8
ATOM      8  C2' I4B d   1      -1.083  -2.740   0.326  0.00  0.00    -0.013 C 
ATOM      9  C4' I4B d   1      -0.555  -3.223   1.651  0.00  0.00     0.013 C 
ATOM     10  C3' I4B d   1      -0.730  -3.693  -0.778  0.00  0.00     0.013 C 
ENDBRANCH   7   8
ENDBRANCH   1   7
TORSDOF 2
ENDMDL
