MODEL 1
REMARK minimizedAffinity 9.85245895
REMARK minimizedRMSD -1
REMARK  2 active torsions:
REMARK  status: ('A' for Active; 'I' for Inactive)
REMARK    1  A    between atoms: C2'_3  and  C1'_4 
REMARK    2  A    between atoms: C1'_4  and  C1_5 
ROOT
ATOM      1  C1  I4B d   1      -2.739  -2.775   0.049  0.00  0.00    -0.075 A 
ATOM      2  C2  I4B d   1      -1.875  -3.355  -0.845  0.00  0.00     0.003 A 
ATOM      3  C3  I4B d   1      -0.807  -4.162  -0.384  0.00  0.00     0.002 A 
ATOM      4  C4  I4B d   1      -0.611  -4.320   0.973  0.00  0.00    -0.004 A 
ATOM      5  C5  I4B d   1      -1.502  -3.749   1.878  0.00  0.00     0.002 A 
ATOM      6  C6  I4B d   1      -2.580  -2.982   1.413  0.00  0.00     0.003 A 
ENDROOT
BRANCH   1   7
ATOM      7  C1' I4B d   1      -3.837  -1.901  -0.471  0.00  0.00     0.060 C 
BRANCH   7   8
ATOM      8  C2' I4B d   1      -5.116  -2.283   0.245  0.00  0.00    -0.013 C 
ATOM      9  C4' I4B d   1      -5.804  -1.071   0.816  0.00  0.00     0.013 C 
ATOM     10  C3' I4B d   1      -6.000  -2.997  -0.734  0.00  0.00     0.013 C 
ENDBRANCH   7   8
ENDBRANCH   1   7
TORSDOF 2
ENDMDL
