MODEL 1
REMARK minimizedAffinity 9.36578083
REMARK minimizedRMSD -1
REMARK  2 active torsions:
REMARK  status: ('A' for Active; 'I' for Inactive)
REMARK    1  A    between atoms: C2'_3  and  C1'_4 
REMARK    2  A    between atoms: C1'_4  and  C1_5 
ROOT
ATOM      1  C1  I4B d   1      -2.152  -3.259   0.364  0.00  0.00    -0.075 A 
ATOM      2  C2  I4B d   1      -1.155  -2.563  -0.274  0.00  0.00     0.003 A 
ATOM      3  C3  I4B d   1       0.035  -3.221  -0.668  0.00  0.00     0.002 A 
ATOM      4  C4  I4B d   1       0.207  -4.555  -0.360  0.00  0.00    -0.004 A 
ATOM      5  C5  I4B d   1      -0.813  -5.265   0.266  0.00  0.00     0.002 A 
ATOM      6  C6  I4B d   1      -2.005  -4.616   0.619  0.00  0.00     0.003 A 
ENDROOT
BRANCH   1   7
ATOM      7  C1' I4B d   1      -3.382  -2.525   0.794  0.00  0.00     0.060 C 
BRANCH   7   8
ATOM      8  C2' I4B d   1      -4.371  -2.558  -0.353  0.00  0.00    -0.013 C 
ATOM      9  C4' I4B d   1      -5.769  -2.823   0.140  0.00  0.00     0.013 C 
ATOM     10  C3' I4B d   1      -4.290  -1.244  -1.071  0.00  0.00     0.013 C 
ENDBRANCH   7   8
ENDBRANCH   1   7
TORSDOF 2
ENDMDL
