MODEL 1
REMARK minimizedAffinity 8.16842079
REMARK minimizedRMSD -1
REMARK  2 active torsions:
REMARK  status: ('A' for Active; 'I' for Inactive)
REMARK    1  A    between atoms: C2'_3  and  C1'_4 
REMARK    2  A    between atoms: C1'_4  and  C1_5 
ROOT
ATOM      1  C1  I4B d   1      -0.407   2.431  -0.691  0.00  0.00    -0.075 A 
ATOM      2  C2  I4B d   1      -1.701   1.981  -0.777  0.00  0.00     0.003 A 
ATOM      3  C3  I4B d   1      -2.708   2.808  -1.330  0.00  0.00     0.002 A 
ATOM      4  C4  I4B d   1      -2.390   4.088  -1.736  0.00  0.00    -0.004 A 
ATOM      5  C5  I4B d   1      -1.073   4.534  -1.670  0.00  0.00     0.002 A 
ATOM      6  C6  I4B d   1      -0.073   3.697  -1.156  0.00  0.00     0.003 A 
ENDROOT
BRANCH   1   7
ATOM      7  C1' I4B d   1       0.626   1.544  -0.071  0.00  0.00     0.060 C 
BRANCH   7   8
ATOM      8  C2' I4B d   1       0.706   1.881   1.404  0.00  0.00    -0.013 C 
ATOM      9  C4' I4B d   1       0.740   0.634   2.247  0.00  0.00     0.013 C 
ATOM     10  C3' I4B d   1       1.932   2.717   1.622  0.00  0.00     0.013 C 
ENDBRANCH   7   8
ENDBRANCH   1   7
TORSDOF 2
ENDMDL
