MODEL 1
REMARK minimizedAffinity 13.2347393
REMARK minimizedRMSD -1
REMARK  0 active torsions:
REMARK  status: ('A' for Active; 'I' for Inactive)
ROOT
ATOM      1  N1  IND d   1      -1.981   2.318  -3.839  0.00  0.00    -0.196 N 
ATOM      2  C2  IND d   1      -2.696   1.542  -4.708  0.00  0.00     0.054 A 
ATOM      3  C3  IND d   1      -3.294   2.313  -5.644  0.00  0.00    -0.031 A 
ATOM      4  C4  IND d   1      -3.153   4.859  -6.000  0.00  0.00     0.051 A 
ATOM      5  C5  IND d   1      -2.650   5.999  -5.438  0.00  0.00    -0.031 A 
ATOM      6  C6  IND d   1      -1.880   5.969  -4.293  0.00  0.00     0.015 A 
ATOM      7  C7  IND d   1      -1.574   4.792  -3.670  0.00  0.00    -0.016 A 
ATOM      8  C8  IND d   1      -2.089   3.633  -4.234  0.00  0.00    -0.047 A 
ATOM      9  C9  IND d   1      -2.906   3.661  -5.372  0.00  0.00    -0.096 A 
ATOM     10  HN1 IND d   1      -1.538   2.032  -3.159  0.00  0.00     0.298 HD
ENDROOT
TORSDOF 0
ENDMDL
