MODEL 1
REMARK minimizedAffinity 17.1639996
REMARK minimizedRMSD -1
REMARK  0 active torsions:
REMARK  status: ('A' for Active; 'I' for Inactive)
ROOT
ATOM      1  N1  IND d   1      -3.546   1.827   3.251  0.00  0.00    -0.196 N 
ATOM      2  C2  IND d   1      -3.952   0.779   4.029  0.00  0.00     0.054 A 
ATOM      3  C3  IND d   1      -2.899  -0.010   4.342  0.00  0.00    -0.031 A 
ATOM      4  C4  IND d   1      -0.407   0.287   3.770  0.00  0.00     0.051 A 
ATOM      5  C5  IND d   1       0.447   1.075   3.049  0.00  0.00    -0.031 A 
ATOM      6  C6  IND d   1       0.004   2.177   2.347  0.00  0.00     0.015 A 
ATOM      7  C7  IND d   1      -1.313   2.541   2.348  0.00  0.00    -0.016 A 
ATOM      8  C8  IND d   1      -2.183   1.740   3.074  0.00  0.00    -0.047 A 
ATOM      9  C9  IND d   1      -1.746   0.596   3.754  0.00  0.00    -0.096 A 
ATOM     10  HN1 IND d   1      -4.057   2.438   2.927  0.00  0.00     0.298 HD
ENDROOT
TORSDOF 0
ENDMDL
