MODEL 1
REMARK minimizedAffinity 23.8735447
REMARK minimizedRMSD -1
REMARK  0 active torsions:
REMARK  status: ('A' for Active; 'I' for Inactive)
ROOT
ATOM      1  N1  IND d   1       0.295   0.266   2.470  0.00  0.00    -0.196 N 
ATOM      2  C2  IND d   1       0.508   1.379   3.236  0.00  0.00     0.054 A 
ATOM      3  C3  IND d   1       1.549   2.091   2.751  0.00  0.00    -0.031 A 
ATOM      4  C4  IND d   1       2.983   1.671   0.654  0.00  0.00     0.051 A 
ATOM      5  C5  IND d   1       3.190   0.762  -0.345  0.00  0.00    -0.031 A 
ATOM      6  C6  IND d   1       2.425  -0.381  -0.460  0.00  0.00     0.015 A 
ATOM      7  C7  IND d   1       1.413  -0.652   0.416  0.00  0.00    -0.016 A 
ATOM      8  C8  IND d   1       1.205   0.265   1.436  0.00  0.00    -0.047 A 
ATOM      9  C9  IND d   1       2.005   1.405   1.583  0.00  0.00    -0.096 A 
ATOM     10  HN1 IND d   1      -0.307  -0.332   2.611  0.00  0.00     0.298 HD
ENDROOT
TORSDOF 0
ENDMDL
