MODEL 1
REMARK minimizedAffinity 19.9591637
REMARK minimizedRMSD -1
REMARK  0 active torsions:
REMARK  status: ('A' for Active; 'I' for Inactive)
ROOT
ATOM      1  N1  IND d   1       0.527  -0.027   2.804  0.00  0.00    -0.196 N 
ATOM      2  C2  IND d   1      -0.385   0.562   1.973  0.00  0.00     0.054 A 
ATOM      3  C3  IND d   1      -0.846   1.710   2.519  0.00  0.00    -0.031 A 
ATOM      4  C4  IND d   1      -0.168   2.863   4.718  0.00  0.00     0.051 A 
ATOM      5  C5  IND d   1       0.601   2.687   5.834  0.00  0.00    -0.031 A 
ATOM      6  C6  IND d   1       1.403   1.576   5.999  0.00  0.00     0.015 A 
ATOM      7  C7  IND d   1       1.475   0.601   5.045  0.00  0.00    -0.016 A 
ATOM      8  C8  IND d   1       0.689   0.773   3.913  0.00  0.00    -0.047 A 
ATOM      9  C9  IND d   1      -0.159   1.877   3.760  0.00  0.00    -0.096 A 
ATOM     10  HN1 IND d   1       0.930  -0.772   2.658  0.00  0.00     0.298 HD
ENDROOT
TORSDOF 0
ENDMDL
