MODEL 1
REMARK minimizedAffinity 16.8826714
REMARK minimizedRMSD -1
REMARK  0 active torsions:
REMARK  status: ('A' for Active; 'I' for Inactive)
ROOT
ATOM      1  N1  IND d   1       4.270   1.779   1.740  0.00  0.00    -0.196 N 
ATOM      2  C2  IND d   1       3.961   1.609   0.419  0.00  0.00     0.054 A 
ATOM      3  C3  IND d   1       2.643   1.342   0.275  0.00  0.00    -0.031 A 
ATOM      4  C4  IND d   1       0.792   1.237   2.061  0.00  0.00     0.051 A 
ATOM      5  C5  IND d   1       0.594   1.288   3.412  0.00  0.00    -0.031 A 
ATOM      6  C6  IND d   1       1.633   1.513   4.293  0.00  0.00     0.015 A 
ATOM      7  C7  IND d   1       2.911   1.707   3.852  0.00  0.00    -0.016 A 
ATOM      8  C8  IND d   1       3.117   1.648   2.481  0.00  0.00    -0.047 A 
ATOM      9  C9  IND d   1       2.074   1.378   1.585  0.00  0.00    -0.096 A 
ATOM     10  HN1 IND d   1       5.054   1.940   2.054  0.00  0.00     0.298 HD
ENDROOT
TORSDOF 0
ENDMDL
