MODEL 1
REMARK minimizedAffinity 14.4018831
REMARK minimizedRMSD -1
REMARK  0 active torsions:
REMARK  status: ('A' for Active; 'I' for Inactive)
ROOT
ATOM      1  N1  IND d   1      -5.240   3.003   3.816  0.00  0.00    -0.196 N 
ATOM      2  C2  IND d   1      -5.417   3.607   5.029  0.00  0.00     0.054 A 
ATOM      3  C3  IND d   1      -4.790   2.905   6.000  0.00  0.00    -0.031 A 
ATOM      4  C4  IND d   1      -3.332   0.792   5.808  0.00  0.00     0.051 A 
ATOM      5  C5  IND d   1      -2.910  -0.147   4.909  0.00  0.00    -0.031 A 
ATOM      6  C6  IND d   1      -3.247  -0.082   3.573  0.00  0.00     0.015 A 
ATOM      7  C7  IND d   1      -4.014   0.937   3.081  0.00  0.00    -0.016 A 
ATOM      8  C8  IND d   1      -4.450   1.888   3.992  0.00  0.00    -0.047 A 
ATOM      9  C9  IND d   1      -4.146   1.803   5.357  0.00  0.00    -0.096 A 
ATOM     10  HN1 IND d   1      -5.568   3.273   3.068  0.00  0.00     0.298 HD
ENDROOT
TORSDOF 0
ENDMDL
