MODEL 1
REMARK minimizedAffinity 26.2577419
REMARK minimizedRMSD -1
REMARK  0 active torsions:
REMARK  status: ('A' for Active; 'I' for Inactive)
ROOT
ATOM      1  N1  IND d   1      -4.847   2.384   3.794  0.00  0.00    -0.196 N 
ATOM      2  C2  IND d   1      -4.926   3.090   4.962  0.00  0.00     0.054 A 
ATOM      3  C3  IND d   1      -4.510   2.329   6.000  0.00  0.00    -0.031 A 
ATOM      4  C4  IND d   1      -3.563  -0.064   5.997  0.00  0.00     0.051 A 
ATOM      5  C5  IND d   1      -3.331  -1.130   5.174  0.00  0.00    -0.031 A 
ATOM      6  C6  IND d   1      -3.596  -1.077   3.821  0.00  0.00     0.015 A 
ATOM      7  C7  IND d   1      -4.094   0.053   3.236  0.00  0.00    -0.016 A 
ATOM      8  C8  IND d   1      -4.336   1.135   4.070  0.00  0.00    -0.047 A 
ATOM      9  C9  IND d   1      -4.110   1.073   5.451  0.00  0.00    -0.096 A 
ATOM     10  HN1 IND d   1      -5.077   2.673   3.017  0.00  0.00     0.298 HD
ENDROOT
TORSDOF 0
ENDMDL
