MODEL 1
REMARK minimizedAffinity 24.181942
REMARK minimizedRMSD -1
REMARK  0 active torsions:
REMARK  status: ('A' for Active; 'I' for Inactive)
ROOT
ATOM      1  N1  IND d   1       3.907   2.240  -1.363  0.00  0.00    -0.196 N 
ATOM      2  C2  IND d   1       4.439   2.075  -0.115  0.00  0.00     0.054 A 
ATOM      3  C3  IND d   1       3.978   0.935   0.446  0.00  0.00    -0.031 A 
ATOM      4  C4  IND d   1       2.424  -0.863  -0.545  0.00  0.00     0.051 A 
ATOM      5  C5  IND d   1       1.655  -1.136  -1.640  0.00  0.00    -0.031 A 
ATOM      6  C6  IND d   1       1.597  -0.282  -2.723  0.00  0.00     0.015 A 
ATOM      7  C7  IND d   1       2.320   0.877  -2.755  0.00  0.00    -0.016 A 
ATOM      8  C8  IND d   1       3.097   1.161  -1.641  0.00  0.00    -0.047 A 
ATOM      9  C9  IND d   1       3.126   0.319  -0.521  0.00  0.00    -0.096 A 
ATOM     10  HN1 IND d   1       4.054   2.906  -1.887  0.00  0.00     0.298 HD
ENDROOT
TORSDOF 0
ENDMDL
