MODEL 1
REMARK minimizedAffinity 14.9742613
REMARK minimizedRMSD -1
REMARK  0 active torsions:
REMARK  status: ('A' for Active; 'I' for Inactive)
ROOT
ATOM      1  N1  IND d   1      -3.002   0.397   4.769  0.00  0.00    -0.196 N 
ATOM      2  C2  IND d   1      -3.341  -0.192   3.582  0.00  0.00     0.054 A 
ATOM      3  C3  IND d   1      -4.355   0.484   2.995  0.00  0.00    -0.031 A 
ATOM      4  C4  IND d   1      -5.539   2.640   3.754  0.00  0.00     0.051 A 
ATOM      5  C5  IND d   1      -5.600   3.527   4.792  0.00  0.00    -0.031 A 
ATOM      6  C6  IND d   1      -4.781   3.415   5.896  0.00  0.00     0.015 A 
ATOM      7  C7  IND d   1      -3.857   2.414   5.999  0.00  0.00    -0.016 A 
ATOM      8  C8  IND d   1      -3.796   1.508   4.950  0.00  0.00    -0.047 A 
ATOM      9  C9  IND d   1      -4.654   1.591   3.846  0.00  0.00    -0.096 A 
ATOM     10  HN1 IND d   1      -2.395   0.119   5.311  0.00  0.00     0.298 HD
ENDROOT
TORSDOF 0
ENDMDL
