MODEL 1
REMARK minimizedAffinity 19.4249992
REMARK minimizedRMSD -1
REMARK  0 active torsions:
REMARK  status: ('A' for Active; 'I' for Inactive)
ROOT
ATOM      1  N1  IND d   1      -2.797   0.759  -4.153  0.00  0.00    -0.196 N 
ATOM      2  C2  IND d   1      -2.007   1.838  -3.871  0.00  0.00     0.054 A 
ATOM      3  C3  IND d   1      -0.804   1.432  -3.406  0.00  0.00    -0.031 A 
ATOM      4  C4  IND d   1       0.119  -0.954  -3.122  0.00  0.00     0.051 A 
ATOM      5  C5  IND d   1      -0.245  -2.268  -3.213  0.00  0.00    -0.031 A 
ATOM      6  C6  IND d   1      -1.503  -2.648  -3.634  0.00  0.00     0.015 A 
ATOM      7  C7  IND d   1      -2.444  -1.724  -3.991  0.00  0.00    -0.016 A 
ATOM      8  C8  IND d   1      -2.080  -0.389  -3.892  0.00  0.00    -0.047 A 
ATOM      9  C9  IND d   1      -0.819   0.004  -3.426  0.00  0.00    -0.096 A 
ATOM     10  HN1 IND d   1      -3.605   0.791  -4.443  0.00  0.00     0.298 HD
ENDROOT
TORSDOF 0
ENDMDL
