MODEL 1
REMARK minimizedAffinity 4.60524607
REMARK minimizedRMSD -1
REMARK  0 active torsions:
REMARK  status: ('A' for Active; 'I' for Inactive)
ROOT
ATOM      1  N1  IND d   1      -3.687   2.385  -5.992  0.00  0.00    -0.196 N 
ATOM      2  C2  IND d   1      -2.945   1.502  -5.258  0.00  0.00     0.054 A 
ATOM      3  C3  IND d   1      -2.162   2.163  -4.377  0.00  0.00    -0.031 A 
ATOM      4  C4  IND d   1      -2.012   4.688  -3.898  0.00  0.00     0.051 A 
ATOM      5  C5  IND d   1      -2.471   5.898  -4.339  0.00  0.00    -0.031 A 
ATOM      6  C6  IND d   1      -3.379   6.000  -5.373  0.00  0.00     0.015 A 
ATOM      7  C7  IND d   1      -3.873   4.891  -5.999  0.00  0.00    -0.016 A 
ATOM      8  C8  IND d   1      -3.404   3.661  -5.559  0.00  0.00    -0.047 A 
ATOM      9  C9  IND d   1      -2.450   3.553  -4.538  0.00  0.00    -0.096 A 
ATOM     10  HN1 IND d   1      -4.238   2.178  -6.619  0.00  0.00     0.298 HD
ENDROOT
TORSDOF 0
ENDMDL
