MODEL 1
REMARK minimizedAffinity 5.88785219
REMARK minimizedRMSD -1
REMARK  0 active torsions:
REMARK  status: ('A' for Active; 'I' for Inactive)
ROOT
ATOM      1  N1  IND d   1      -1.091   3.777  -3.646  0.00  0.00    -0.196 N 
ATOM      2  C2  IND d   1      -0.605   4.956  -3.154  0.00  0.00     0.054 A 
ATOM      3  C3  IND d   1      -1.294   6.000  -3.667  0.00  0.00    -0.031 A 
ATOM      4  C4  IND d   1      -3.323   6.000  -5.251  0.00  0.00     0.051 A 
ATOM      5  C5  IND d   1      -4.106   5.166  -5.999  0.00  0.00    -0.031 A 
ATOM      6  C6  IND d   1      -3.922   3.798  -5.999  0.00  0.00     0.015 A 
ATOM      7  C7  IND d   1      -2.951   3.210  -5.238  0.00  0.00    -0.016 A 
ATOM      8  C8  IND d   1      -2.150   4.055  -4.483  0.00  0.00    -0.047 A 
ATOM      9  C9  IND d   1      -2.304   5.447  -4.512  0.00  0.00    -0.096 A 
ATOM     10  HN1 IND d   1      -0.788   2.994  -3.463  0.00  0.00     0.298 HD
ENDROOT
TORSDOF 0
ENDMDL
