MODEL 1
REMARK minimizedAffinity 19.8739529
REMARK minimizedRMSD -1
REMARK  0 active torsions:
REMARK  status: ('A' for Active; 'I' for Inactive)
ROOT
ATOM      1  N1  IND d   1      -4.493  -3.750  -5.693  0.00  0.00    -0.196 N 
ATOM      2  C2  IND d   1      -4.803  -5.046  -6.000  0.00  0.00     0.054 A 
ATOM      3  C3  IND d   1      -4.115  -5.895  -5.205  0.00  0.00    -0.031 A 
ATOM      4  C4  IND d   1      -2.503  -5.378  -3.265  0.00  0.00     0.051 A 
ATOM      5  C5  IND d   1      -1.878  -4.341  -2.632  0.00  0.00    -0.031 A 
ATOM      6  C6  IND d   1      -2.099  -3.027  -2.991  0.00  0.00     0.015 A 
ATOM      7  C7  IND d   1      -2.966  -2.699  -3.995  0.00  0.00    -0.016 A 
ATOM      8  C8  IND d   1      -3.597  -3.750  -4.646  0.00  0.00    -0.047 A 
ATOM      9  C9  IND d   1      -3.345  -5.088  -4.313  0.00  0.00    -0.096 A 
ATOM     10  HN1 IND d   1      -4.804  -3.053  -6.087  0.00  0.00     0.298 HD
ENDROOT
TORSDOF 0
ENDMDL
