MODEL 1
REMARK minimizedAffinity 12.1919947
REMARK minimizedRMSD -1
REMARK  0 active torsions:
REMARK  status: ('A' for Active; 'I' for Inactive)
ROOT
ATOM      1  N1  IND d   1      -4.447  -0.374   2.841  0.00  0.00    -0.196 N 
ATOM      2  C2  IND d   1      -4.310  -1.733   2.785  0.00  0.00     0.054 A 
ATOM      3  C3  IND d   1      -3.003  -2.071   2.713  0.00  0.00    -0.031 A 
ATOM      4  C4  IND d   1      -0.918  -0.563   2.775  0.00  0.00     0.051 A 
ATOM      5  C5  IND d   1      -0.537   0.750   2.784  0.00  0.00    -0.031 A 
ATOM      6  C6  IND d   1      -1.460   1.776   2.815  0.00  0.00     0.015 A 
ATOM      7  C7  IND d   1      -2.802   1.526   2.851  0.00  0.00    -0.016 A 
ATOM      8  C8  IND d   1      -3.192   0.194   2.835  0.00  0.00    -0.047 A 
ATOM      9  C9  IND d   1      -2.262  -0.851   2.760  0.00  0.00    -0.096 A 
ATOM     10  HN1 IND d   1      -5.192   0.054   2.874  0.00  0.00     0.298 HD
ENDROOT
TORSDOF 0
ENDMDL
