MODEL 1
REMARK minimizedAffinity 8.92132187
REMARK minimizedRMSD -1
REMARK  0 active torsions:
REMARK  status: ('A' for Active; 'I' for Inactive)
ROOT
ATOM      1  N1  IND d   1       0.462   2.258  -1.459  0.00  0.00    -0.196 N 
ATOM      2  C2  IND d   1       0.152   3.454  -2.044  0.00  0.00     0.054 A 
ATOM      3  C3  IND d   1      -0.524   4.241  -1.177  0.00  0.00    -0.031 A 
ATOM      4  C4  IND d   1      -1.143   3.807   1.284  0.00  0.00     0.051 A 
ATOM      5  C5  IND d   1      -1.105   2.842   2.250  0.00  0.00    -0.031 A 
ATOM      6  C6  IND d   1      -0.529   1.608   2.026  0.00  0.00     0.015 A 
ATOM      7  C7  IND d   1       0.043   1.297   0.825  0.00  0.00    -0.016 A 
ATOM      8  C8  IND d   1       0.000   2.273  -0.161  0.00  0.00    -0.047 A 
ATOM      9  C9  IND d   1      -0.620   3.511   0.048  0.00  0.00    -0.096 A 
ATOM     10  HN1 IND d   1       0.875   1.606  -1.838  0.00  0.00     0.298 HD
ENDROOT
TORSDOF 0
ENDMDL
