MODEL 1
REMARK minimizedAffinity 3.65109444
REMARK minimizedRMSD -1
REMARK  0 active torsions:
REMARK  status: ('A' for Active; 'I' for Inactive)
ROOT
ATOM      1  N1  IND d   1       0.292   3.592  -1.093  0.00  0.00    -0.196 N 
ATOM      2  C2  IND d   1       0.336   3.171   0.206  0.00  0.00     0.054 A 
ATOM      3  C3  IND d   1      -0.598   2.218   0.424  0.00  0.00    -0.031 A 
ATOM      4  C4  IND d   1      -2.238   1.127  -1.234  0.00  0.00     0.051 A 
ATOM      5  C5  IND d   1      -2.677   1.207  -2.525  0.00  0.00    -0.031 A 
ATOM      6  C6  IND d   1      -2.136   2.103  -3.425  0.00  0.00     0.015 A 
ATOM      7  C7  IND d   1      -1.123   2.948  -3.067  0.00  0.00    -0.016 A 
ATOM      8  C8  IND d   1      -0.680   2.874  -1.754  0.00  0.00    -0.047 A 
ATOM      9  C9  IND d   1      -1.254   1.996  -0.826  0.00  0.00    -0.096 A 
ATOM     10  HN1 IND d   1       0.788   4.204  -1.440  0.00  0.00     0.298 HD
ENDROOT
TORSDOF 0
ENDMDL
