MODEL 1
REMARK minimizedAffinity -2.30874825
REMARK minimizedRMSD -1
REMARK  0 active torsions:
REMARK  status: ('A' for Active; 'I' for Inactive)
ROOT
ATOM      1  N1  IND d   1      -2.000   2.554  -3.381  0.00  0.00    -0.196 N 
ATOM      2  C2  IND d   1      -2.907   1.610  -2.988  0.00  0.00     0.054 A 
ATOM      3  C3  IND d   1      -2.718   1.288  -1.689  0.00  0.00    -0.031 A 
ATOM      4  C4  IND d   1      -1.045   2.260   0.010  0.00  0.00     0.051 A 
ATOM      5  C5  IND d   1       0.012   3.120   0.109  0.00  0.00    -0.031 A 
ATOM      6  C6  IND d   1       0.460   3.852  -0.971  0.00  0.00     0.015 A 
ATOM      7  C7  IND d   1      -0.142   3.760  -2.194  0.00  0.00    -0.016 A 
ATOM      8  C8  IND d   1      -1.212   2.882  -2.300  0.00  0.00    -0.047 A 
ATOM      9  C9  IND d   1      -1.644   2.104  -1.218  0.00  0.00    -0.096 A 
ATOM     10  HN1 IND d   1      -1.932   2.887  -4.171  0.00  0.00     0.298 HD
ENDROOT
TORSDOF 0
ENDMDL
