MODEL 1
REMARK minimizedAffinity 16.3083992
REMARK minimizedRMSD -1
REMARK  0 active torsions:
REMARK  status: ('A' for Active; 'I' for Inactive)
ROOT
ATOM      1  N1  IND d   1       1.604   3.184   2.801  0.00  0.00    -0.196 N 
ATOM      2  C2  IND d   1       0.978   2.254   3.584  0.00  0.00     0.054 A 
ATOM      3  C3  IND d   1      -0.012   1.646   2.892  0.00  0.00    -0.031 A 
ATOM      4  C4  IND d   1      -0.714   1.949   0.434  0.00  0.00     0.051 A 
ATOM      5  C5  IND d   1      -0.462   2.711  -0.672  0.00  0.00    -0.031 A 
ATOM      6  C6  IND d   1       0.514   3.687  -0.678  0.00  0.00     0.015 A 
ATOM      7  C7  IND d   1       1.284   3.931   0.423  0.00  0.00    -0.016 A 
ATOM      8  C8  IND d   1       1.026   3.164   1.551  0.00  0.00    -0.047 A 
ATOM      9  C9  IND d   1       0.008   2.202   1.576  0.00  0.00    -0.096 A 
ATOM     10  HN1 IND d   1       2.249   3.695   3.048  0.00  0.00     0.298 HD
ENDROOT
TORSDOF 0
ENDMDL
