MODEL 1
REMARK minimizedAffinity 6.07653999
REMARK minimizedRMSD -1
REMARK  0 active torsions:
REMARK  status: ('A' for Active; 'I' for Inactive)
ROOT
ATOM      1  N1  IND d   1      -5.999  -5.636   2.274  0.00  0.00    -0.196 N 
ATOM      2  C2  IND d   1      -5.981  -5.254   3.587  0.00  0.00     0.054 A 
ATOM      3  C3  IND d   1      -5.941  -3.906   3.684  0.00  0.00    -0.031 A 
ATOM      4  C4  IND d   1      -5.999  -2.130   1.822  0.00  0.00     0.051 A 
ATOM      5  C5  IND d   1      -5.979  -1.994   0.462  0.00  0.00    -0.031 A 
ATOM      6  C6  IND d   1      -5.967  -3.087  -0.380  0.00  0.00     0.015 A 
ATOM      7  C7  IND d   1      -5.986  -4.362   0.108  0.00  0.00    -0.016 A 
ATOM      8  C8  IND d   1      -5.999  -4.505   1.488  0.00  0.00    -0.047 A 
ATOM      9  C9  IND d   1      -5.969  -3.399   2.349  0.00  0.00    -0.096 A 
ATOM     10  HN1 IND d   1      -6.007  -6.447   1.988  0.00  0.00     0.298 HD
ENDROOT
TORSDOF 0
ENDMDL
