MODEL 1
REMARK minimizedAffinity 12.3432941
REMARK minimizedRMSD -1
REMARK  0 active torsions:
REMARK  status: ('A' for Active; 'I' for Inactive)
ROOT
ATOM      1  N1  IND d   1      -0.317   4.595  -3.142  0.00  0.00    -0.196 N 
ATOM      2  C2  IND d   1      -1.269   3.768  -3.669  0.00  0.00     0.054 A 
ATOM      3  C3  IND d   1      -1.540   2.757  -2.813  0.00  0.00    -0.031 A 
ATOM      4  C4  IND d   1      -0.613   2.321  -0.451  0.00  0.00     0.051 A 
ATOM      5  C5  IND d   1       0.309   2.782   0.446  0.00  0.00    -0.031 A 
ATOM      6  C6  IND d   1       1.083   3.895   0.189  0.00  0.00     0.015 A 
ATOM      7  C7  IND d   1       0.956   4.598  -0.975  0.00  0.00    -0.016 A 
ATOM      8  C8  IND d   1       0.025   4.129  -1.892  0.00  0.00    -0.047 A 
ATOM      9  C9  IND d   1      -0.733   2.975  -1.655  0.00  0.00    -0.096 A 
ATOM     10  HN1 IND d   1       0.013   5.289  -3.527  0.00  0.00     0.298 HD
ENDROOT
TORSDOF 0
ENDMDL
