MODEL 1
REMARK minimizedAffinity 15.1407032
REMARK minimizedRMSD -1
REMARK  0 active torsions:
REMARK  status: ('A' for Active; 'I' for Inactive)
ROOT
ATOM      1  N1  IND d   1      -5.987   5.948   2.764  0.00  0.00    -0.196 N 
ATOM      2  C2  IND d   1      -5.291   5.961   3.940  0.00  0.00     0.054 A 
ATOM      3  C3  IND d   1      -3.961   5.941   3.700  0.00  0.00    -0.031 A 
ATOM      4  C4  IND d   1      -2.704   5.986   1.453  0.00  0.00     0.051 A 
ATOM      5  C5  IND d   1      -2.909   5.941   0.103  0.00  0.00    -0.031 A 
ATOM      6  C6  IND d   1      -4.176   5.898  -0.441  0.00  0.00     0.015 A 
ATOM      7  C7  IND d   1      -5.291   5.910   0.349  0.00  0.00    -0.016 A 
ATOM      8  C8  IND d   1      -5.086   5.948   1.721  0.00  0.00    -0.047 A 
ATOM      9  C9  IND d   1      -3.802   5.949   2.280  0.00  0.00    -0.096 A 
ATOM     10  HN1 IND d   1      -6.843   5.940   2.688  0.00  0.00     0.298 HD
ENDROOT
TORSDOF 0
ENDMDL
