MODEL 1
REMARK minimizedAffinity -1.58331001
REMARK minimizedRMSD -1
REMARK  0 active torsions:
REMARK  status: ('A' for Active; 'I' for Inactive)
ROOT
ATOM      1  N1  IND d   1       1.049   3.486   0.677  0.00  0.00    -0.196 N 
ATOM      2  C2  IND d   1       0.395   3.489  -0.524  0.00  0.00     0.054 A 
ATOM      3  C3  IND d   1      -0.806   2.878  -0.406  0.00  0.00    -0.031 A 
ATOM      4  C4  IND d   1      -1.943   1.894   1.684  0.00  0.00     0.051 A 
ATOM      5  C5  IND d   1      -1.720   1.626   3.005  0.00  0.00    -0.031 A 
ATOM      6  C6  IND d   1      -0.541   1.974   3.632  0.00  0.00     0.015 A 
ATOM      7  C7  IND d   1       0.460   2.616   2.959  0.00  0.00    -0.016 A 
ATOM      8  C8  IND d   1       0.241   2.883   1.615  0.00  0.00    -0.047 A 
ATOM      9  C9  IND d   1      -0.937   2.495   0.964  0.00  0.00    -0.096 A 
ATOM     10  HN1 IND d   1       1.834   3.807   0.821  0.00  0.00     0.298 HD
ENDROOT
TORSDOF 0
ENDMDL
