MODEL 1
REMARK minimizedAffinity 23.4254189
REMARK minimizedRMSD -1
REMARK  0 active torsions:
REMARK  status: ('A' for Active; 'I' for Inactive)
ROOT
ATOM      1  N1  IND d   1      -5.669   6.000   0.297  0.00  0.00    -0.196 N 
ATOM      2  C2  IND d   1      -5.263   5.999   1.602  0.00  0.00     0.054 A 
ATOM      3  C3  IND d   1      -3.984   5.573   1.697  0.00  0.00    -0.031 A 
ATOM      4  C4  IND d   1      -2.335   4.922  -0.170  0.00  0.00     0.051 A 
ATOM      5  C5  IND d   1      -2.258   4.729  -1.521  0.00  0.00    -0.031 A 
ATOM      6  C6  IND d   1      -3.336   4.958  -2.352  0.00  0.00     0.015 A 
ATOM      7  C7  IND d   1      -4.532   5.400  -1.862  0.00  0.00    -0.016 A 
ATOM      8  C8  IND d   1      -4.616   5.590  -0.490  0.00  0.00    -0.047 A 
ATOM      9  C9  IND d   1      -3.538   5.319   0.363  0.00  0.00    -0.096 A 
ATOM     10  HN1 IND d   1      -6.451   6.219   0.015  0.00  0.00     0.298 HD
ENDROOT
TORSDOF 0
ENDMDL
