MODEL 1
REMARK minimizedAffinity 5.03513432
REMARK minimizedRMSD -1
REMARK  0 active torsions:
REMARK  status: ('A' for Active; 'I' for Inactive)
ROOT
ATOM      1  N1  IND d   1      -3.304   4.283   1.112  0.00  0.00    -0.196 N 
ATOM      2  C2  IND d   1      -3.339   5.604   0.762  0.00  0.00     0.054 A 
ATOM      3  C3  IND d   1      -2.133   6.000   0.298  0.00  0.00    -0.031 A 
ATOM      4  C4  IND d   1       0.011   4.622  -0.069  0.00  0.00     0.051 A 
ATOM      5  C5  IND d   1       0.541   3.379   0.137  0.00  0.00    -0.031 A 
ATOM      6  C6  IND d   1      -0.199   2.353   0.688  0.00  0.00     0.015 A 
ATOM      7  C7  IND d   1      -1.506   2.529   1.043  0.00  0.00    -0.016 A 
ATOM      8  C8  IND d   1      -2.046   3.791   0.842  0.00  0.00    -0.047 A 
ATOM      9  C9  IND d   1      -1.287   4.848   0.323  0.00  0.00    -0.096 A 
ATOM     10  HN1 IND d   1      -3.958   3.834   1.445  0.00  0.00     0.298 HD
ENDROOT
TORSDOF 0
ENDMDL
