MODEL 1
REMARK minimizedAffinity 0.0593096465
REMARK minimizedRMSD -1
REMARK  0 active torsions:
REMARK  status: ('A' for Active; 'I' for Inactive)
ROOT
ATOM      1  N1  IND d   1      -0.422   2.667   2.789  0.00  0.00    -0.196 N 
ATOM      2  C2  IND d   1      -1.327   1.760   2.312  0.00  0.00     0.054 A 
ATOM      3  C3  IND d   1      -1.366   1.802   0.961  0.00  0.00    -0.031 A 
ATOM      4  C4  IND d   1       0.040   3.208  -0.674  0.00  0.00     0.051 A 
ATOM      5  C5  IND d   1       0.972   4.207  -0.709  0.00  0.00    -0.031 A 
ATOM      6  C6  IND d   1       1.500   4.752   0.443  0.00  0.00     0.015 A 
ATOM      7  C7  IND d   1       1.122   4.310   1.679  0.00  0.00    -0.016 A 
ATOM      8  C8  IND d   1       0.170   3.301   1.719  0.00  0.00    -0.047 A 
ATOM      9  C9  IND d   1      -0.401   2.772   0.554  0.00  0.00    -0.096 A 
ATOM     10  HN1 IND d   1      -0.252   2.817   3.619  0.00  0.00     0.298 HD
ENDROOT
TORSDOF 0
ENDMDL
