MODEL 1
REMARK minimizedAffinity -4.74182749
REMARK minimizedRMSD -1
REMARK  0 active torsions:
REMARK  status: ('A' for Active; 'I' for Inactive)
ROOT
ATOM      1  N1  IND d   1       1.050   4.211   1.498  0.00  0.00    -0.196 N 
ATOM      2  C2  IND d   1       0.686   4.361   0.188  0.00  0.00     0.054 A 
ATOM      3  C3  IND d   1      -0.237   3.434  -0.152  0.00  0.00    -0.031 A 
ATOM      4  C4  IND d   1      -1.369   1.640   1.307  0.00  0.00     0.051 A 
ATOM      5  C5  IND d   1      -1.337   1.093   2.559  0.00  0.00    -0.031 A 
ATOM      6  C6  IND d   1      -0.493   1.568   3.542  0.00  0.00     0.015 A 
ATOM      7  C7  IND d   1       0.347   2.621   3.311  0.00  0.00    -0.016 A 
ATOM      8  C8  IND d   1       0.322   3.175   2.039  0.00  0.00    -0.047 A 
ATOM      9  C9  IND d   1      -0.501   2.669   1.025  0.00  0.00    -0.096 A 
ATOM     10  HN1 IND d   1       1.636   4.685   1.913  0.00  0.00     0.298 HD
ENDROOT
TORSDOF 0
ENDMDL
