MODEL 1
REMARK minimizedAffinity 4.43463516
REMARK minimizedRMSD -1
REMARK  0 active torsions:
REMARK  status: ('A' for Active; 'I' for Inactive)
ROOT
ATOM      1  N1  IND d   1      -2.730   0.719   2.618  0.00  0.00    -0.196 N 
ATOM      2  C2  IND d   1      -1.693   1.416   2.062  0.00  0.00     0.054 A 
ATOM      3  C3  IND d   1      -0.512   0.856   2.409  0.00  0.00    -0.031 A 
ATOM      4  C4  IND d   1      -0.050  -1.265   3.793  0.00  0.00     0.051 A 
ATOM      5  C5  IND d   1      -0.678  -2.220   4.542  0.00  0.00    -0.031 A 
ATOM      6  C6  IND d   1      -2.050  -2.246   4.689  0.00  0.00     0.015 A 
ATOM      7  C7  IND d   1      -2.849  -1.321   4.080  0.00  0.00    -0.016 A 
ATOM      8  C8  IND d   1      -2.215  -0.345   3.324  0.00  0.00    -0.047 A 
ATOM      9  C9  IND d   1      -0.820  -0.289   3.206  0.00  0.00    -0.096 A 
ATOM     10  HN1 IND d   1      -3.564   0.914   2.539  0.00  0.00     0.298 HD
ENDROOT
TORSDOF 0
ENDMDL
