MODEL 1
REMARK minimizedAffinity 1.7646445
REMARK minimizedRMSD -1
REMARK  0 active torsions:
REMARK  status: ('A' for Active; 'I' for Inactive)
ROOT
ATOM      1  N1  IND d   1      -0.367   1.237   0.024  0.00  0.00    -0.196 N 
ATOM      2  C2  IND d   1       0.235   2.278  -0.626  0.00  0.00     0.054 A 
ATOM      3  C3  IND d   1       0.565   3.253   0.251  0.00  0.00    -0.031 A 
ATOM      4  C4  IND d   1       0.302   3.307   2.811  0.00  0.00     0.051 A 
ATOM      5  C5  IND d   1      -0.226   2.600   3.855  0.00  0.00    -0.031 A 
ATOM      6  C6  IND d   1      -0.839   1.377   3.671  0.00  0.00     0.015 A 
ATOM      7  C7  IND d   1      -0.936   0.808   2.433  0.00  0.00    -0.016 A 
ATOM      8  C8  IND d   1      -0.406   1.525   1.370  0.00  0.00    -0.047 A 
ATOM      9  C9  IND d   1       0.178   2.786   1.544  0.00  0.00    -0.096 A 
ATOM     10  HN1 IND d   1      -0.670   0.523  -0.346  0.00  0.00     0.298 HD
ENDROOT
TORSDOF 0
ENDMDL
