MODEL 1
REMARK minimizedAffinity 5.49182081
REMARK minimizedRMSD -1
REMARK  0 active torsions:
REMARK  status: ('A' for Active; 'I' for Inactive)
ROOT
ATOM      1  N1  IND d   1      -2.248   0.018   3.755  0.00  0.00    -0.196 N 
ATOM      2  C2  IND d   1      -1.508   0.869   2.982  0.00  0.00     0.054 A 
ATOM      3  C3  IND d   1      -0.509   0.197   2.367  0.00  0.00    -0.031 A 
ATOM      4  C4  IND d   1       0.036  -2.319   2.403  0.00  0.00     0.051 A 
ATOM      5  C5  IND d   1      -0.337  -3.493   2.995  0.00  0.00    -0.031 A 
ATOM      6  C6  IND d   1      -1.388  -3.559   3.886  0.00  0.00     0.015 A 
ATOM      7  C7  IND d   1      -2.117  -2.450   4.212  0.00  0.00    -0.016 A 
ATOM      8  C8  IND d   1      -1.737  -1.254   3.618  0.00  0.00    -0.047 A 
ATOM      9  C9  IND d   1      -0.644  -1.174   2.746  0.00  0.00    -0.096 A 
ATOM     10  HN1 IND d   1      -2.919   0.240   4.244  0.00  0.00     0.298 HD
ENDROOT
TORSDOF 0
ENDMDL
