MODEL 1
REMARK minimizedAffinity 0.310499042
REMARK minimizedRMSD -1
REMARK  0 active torsions:
REMARK  status: ('A' for Active; 'I' for Inactive)
ROOT
ATOM      1  N1  IND d   1      -0.767   2.538  -1.452  0.00  0.00    -0.196 N 
ATOM      2  C2  IND d   1      -0.162   3.655  -1.959  0.00  0.00     0.054 A 
ATOM      3  C3  IND d   1       0.441   4.353  -0.971  0.00  0.00    -0.031 A 
ATOM      4  C4  IND d   1       0.651   3.794   1.534  0.00  0.00     0.051 A 
ATOM      5  C5  IND d   1       0.232   2.896   2.476  0.00  0.00    -0.031 A 
ATOM      6  C6  IND d   1      -0.555   1.811   2.149  0.00  0.00     0.015 A 
ATOM      7  C7  IND d   1      -0.944   1.574   0.861  0.00  0.00    -0.016 A 
ATOM      8  C8  IND d   1      -0.527   2.487  -0.097  0.00  0.00    -0.047 A 
ATOM      9  C9  IND d   1       0.236   3.614   0.235  0.00  0.00    -0.096 A 
ATOM     10  HN1 IND d   1      -1.220   1.965  -1.904  0.00  0.00     0.298 HD
ENDROOT
TORSDOF 0
ENDMDL
