MODEL 1
REMARK minimizedAffinity 3.18815064
REMARK minimizedRMSD -1
REMARK  0 active torsions:
REMARK  status: ('A' for Active; 'I' for Inactive)
ROOT
ATOM      1  N1  IND d   1      -2.770   0.115   3.446  0.00  0.00    -0.196 N 
ATOM      2  C2  IND d   1      -2.029  -1.023   3.605  0.00  0.00     0.054 A 
ATOM      3  C3  IND d   1      -0.874  -0.933   2.909  0.00  0.00    -0.031 A 
ATOM      4  C4  IND d   1       0.052   1.027   1.521  0.00  0.00     0.051 A 
ATOM      5  C5  IND d   1      -0.281   2.267   1.052  0.00  0.00    -0.031 A 
ATOM      6  C6  IND d   1      -1.484   2.866   1.366  0.00  0.00     0.015 A 
ATOM      7  C7  IND d   1      -2.398   2.250   2.173  0.00  0.00    -0.016 A 
ATOM      8  C8  IND d   1      -2.066   0.988   2.645  0.00  0.00    -0.047 A 
ATOM      9  C9  IND d   1      -0.865   0.357   2.295  0.00  0.00    -0.096 A 
ATOM     10  HN1 IND d   1      -3.545   0.261   3.788  0.00  0.00     0.298 HD
ENDROOT
TORSDOF 0
ENDMDL
