MODEL 1
REMARK minimizedAffinity -1.14639747
REMARK minimizedRMSD -1
REMARK  0 active torsions:
REMARK  status: ('A' for Active; 'I' for Inactive)
ROOT
ATOM      1  N1  IND d   1      -0.850   2.089   3.322  0.00  0.00    -0.196 N 
ATOM      2  C2  IND d   1      -1.289   0.796   3.258  0.00  0.00     0.054 A 
ATOM      3  C3  IND d   1      -1.252   0.350   1.982  0.00  0.00    -0.031 A 
ATOM      4  C4  IND d   1      -0.410   1.536  -0.142  0.00  0.00     0.051 A 
ATOM      5  C5  IND d   1       0.053   2.741  -0.591  0.00  0.00    -0.031 A 
ATOM      6  C6  IND d   1       0.245   3.811   0.259  0.00  0.00     0.015 A 
ATOM      7  C7  IND d   1      -0.009   3.712   1.597  0.00  0.00    -0.016 A 
ATOM      8  C8  IND d   1      -0.486   2.492   2.056  0.00  0.00    -0.047 A 
ATOM      9  C9  IND d   1      -0.723   1.416   1.191  0.00  0.00    -0.096 A 
ATOM     10  HN1 IND d   1      -0.808   2.570   4.034  0.00  0.00     0.298 HD
ENDROOT
TORSDOF 0
ENDMDL
