MODEL 1
REMARK minimizedAffinity 5.31557894
REMARK minimizedRMSD -1
REMARK  1 active torsions:
REMARK  status: ('A' for Active; 'I' for Inactive)
REMARK    1  A    between atoms: C1_2  and  C2_3 
ROOT
ATOM      1  C2  UNL d   1       1.171   0.384   0.477  0.00  0.00    -0.077 A 
ATOM      2  C3  UNL d   1       0.939   1.664   1.000  0.00  0.00     0.002 A 
ATOM      3  C4  UNL d   1       0.316   2.642   0.223  0.00  0.00     0.002 A 
ATOM      4  C5  UNL d   1      -0.082   2.350  -1.080  0.00  0.00    -0.004 A 
ATOM      5  C6  UNL d   1       0.146   1.081  -1.610  0.00  0.00     0.002 A 
ATOM      6  C7  UNL d   1       0.770   0.102  -0.835  0.00  0.00     0.002 A 
ENDROOT
BRANCH   1   7
ATOM      7  C1  UNL d   1       1.798  -0.688   1.330  0.00  0.00     0.055 C 
ATOM      8  C   UNL d   1       2.907  -1.413   0.582  0.00  0.00     0.019 C 
ENDBRANCH   1   7
TORSDOF 1
ENDMDL
