MODEL 1
REMARK minimizedAffinity 0.945607901
REMARK minimizedRMSD -1
REMARK  1 active torsions:
REMARK  status: ('A' for Active; 'I' for Inactive)
REMARK    1  A    between atoms: C1_2  and  C2_3 
ROOT
ATOM      1  C2  UNL d   1       0.610   0.228  -1.583  0.00  0.00    -0.077 A 
ATOM      2  C3  UNL d   1       0.315   1.549  -1.217  0.00  0.00     0.002 A 
ATOM      3  C4  UNL d   1       0.591   2.004   0.074  0.00  0.00     0.002 A 
ATOM      4  C5  UNL d   1       1.167   1.145   1.008  0.00  0.00    -0.004 A 
ATOM      5  C6  UNL d   1       1.462  -0.171   0.655  0.00  0.00     0.002 A 
ATOM      6  C7  UNL d   1       1.185  -0.627  -0.635  0.00  0.00     0.002 A 
ENDROOT
BRANCH   1   7
ATOM      7  C1  UNL d   1       0.358  -0.249  -2.989  0.00  0.00     0.055 C 
ATOM      8  C   UNL d   1      -1.045   0.113  -3.453  0.00  0.00     0.019 C 
ENDBRANCH   1   7
TORSDOF 1
ENDMDL
