MODEL 1
REMARK minimizedAffinity 2.72937584
REMARK minimizedRMSD -1
REMARK  1 active torsions:
REMARK  status: ('A' for Active; 'I' for Inactive)
REMARK    1  A    between atoms: C1_2  and  C2_3 
ROOT
ATOM      1  C2  UNL d   1       0.741   1.420   0.111  0.00  0.00    -0.077 A 
ATOM      2  C3  UNL d   1       1.288   0.616   1.121  0.00  0.00     0.002 A 
ATOM      3  C4  UNL d   1       1.779  -0.657   0.823  0.00  0.00     0.002 A 
ATOM      4  C5  UNL d   1       1.733  -1.134  -0.485  0.00  0.00    -0.004 A 
ATOM      5  C6  UNL d   1       1.189  -0.343  -1.496  0.00  0.00     0.002 A 
ATOM      6  C7  UNL d   1       0.697   0.929  -1.200  0.00  0.00     0.002 A 
ENDROOT
BRANCH   1   7
ATOM      7  C1  UNL d   1       0.256   2.811   0.422  0.00  0.00     0.055 C 
ATOM      8  C   UNL d   1       1.072   3.861  -0.318  0.00  0.00     0.019 C 
ENDBRANCH   1   7
TORSDOF 1
ENDMDL
