MODEL 1
REMARK minimizedAffinity -1.80118048
REMARK minimizedRMSD -1
REMARK  1 active torsions:
REMARK  status: ('A' for Active; 'I' for Inactive)
REMARK    1  A    between atoms: C1_2  and  C2_3 
ROOT
ATOM      1  C2  UNL d   1      -5.266   2.565  -4.763  0.00  0.00    -0.077 A 
ATOM      2  C3  UNL d   1      -4.220   3.209  -4.088  0.00  0.00     0.002 A 
ATOM      3  C4  UNL d   1      -3.915   4.543  -4.368  0.00  0.00     0.002 A 
ATOM      4  C5  UNL d   1      -4.653   5.243  -5.319  0.00  0.00    -0.004 A 
ATOM      5  C6  UNL d   1      -5.694   4.611  -5.997  0.00  0.00     0.002 A 
ATOM      6  C7  UNL d   1      -6.000   3.278  -5.719  0.00  0.00     0.002 A 
ENDROOT
BRANCH   1   7
ATOM      7  C1  UNL d   1      -5.629   1.142  -4.427  0.00  0.00     0.055 C 
ATOM      8  C   UNL d   1      -5.255   0.799  -2.992  0.00  0.00     0.019 C 
ENDBRANCH   1   7
TORSDOF 1
ENDMDL
