MODEL 1
REMARK minimizedAffinity 4.95180321
REMARK minimizedRMSD -1
REMARK  1 active torsions:
REMARK  status: ('A' for Active; 'I' for Inactive)
REMARK    1  A    between atoms: C1_2  and  C2_3 
ROOT
ATOM      1  C2  UNL d   1      -3.099   1.720  -3.829  0.00  0.00    -0.077 A 
ATOM      2  C3  UNL d   1      -3.839   2.910  -3.836  0.00  0.00     0.002 A 
ATOM      3  C4  UNL d   1      -3.752   3.790  -4.916  0.00  0.00     0.002 A 
ATOM      4  C5  UNL d   1      -2.928   3.487  -5.998  0.00  0.00    -0.004 A 
ATOM      5  C6  UNL d   1      -2.186   2.307  -6.000  0.00  0.00     0.002 A 
ATOM      6  C7  UNL d   1      -2.271   1.427  -4.920  0.00  0.00     0.002 A 
ENDROOT
BRANCH   1   7
ATOM      7  C1  UNL d   1      -3.229   0.746  -2.687  0.00  0.00     0.055 C 
ATOM      8  C   UNL d   1      -4.138  -0.418  -3.054  0.00  0.00     0.019 C 
ENDBRANCH   1   7
TORSDOF 1
ENDMDL
