MODEL 1
REMARK minimizedAffinity 4.38838005
REMARK minimizedRMSD -1
REMARK  1 active torsions:
REMARK  status: ('A' for Active; 'I' for Inactive)
REMARK    1  A    between atoms: C1_2  and  C2_3 
ROOT
ATOM      1  C2  UNL d   1       0.641   1.280  -0.038  0.00  0.00    -0.077 A 
ATOM      2  C3  UNL d   1       0.964   0.492   1.076  0.00  0.00     0.002 A 
ATOM      3  C4  UNL d   1       1.481  -0.794   0.905  0.00  0.00     0.002 A 
ATOM      4  C5  UNL d   1       1.683  -1.301  -0.376  0.00  0.00    -0.004 A 
ATOM      5  C6  UNL d   1       1.364  -0.526  -1.490  0.00  0.00     0.002 A 
ATOM      6  C7  UNL d   1       0.846   0.759  -1.322  0.00  0.00     0.002 A 
ENDROOT
BRANCH   1   7
ATOM      7  C1  UNL d   1       0.130   2.685   0.143  0.00  0.00     0.055 C 
ATOM      8  C   UNL d   1       0.891   3.668  -0.735  0.00  0.00     0.019 C 
ENDBRANCH   1   7
TORSDOF 1
ENDMDL
