MODEL 1
REMARK minimizedAffinity 7.28282404
REMARK minimizedRMSD -1
REMARK  1 active torsions:
REMARK  status: ('A' for Active; 'I' for Inactive)
REMARK    1  A    between atoms: C1_2  and  C2_3 
ROOT
ATOM      1  C2  UNL d   1       1.248   3.548   0.074  0.00  0.00    -0.077 A 
ATOM      2  C3  UNL d   1      -0.031   4.038  -0.226  0.00  0.00     0.002 A 
ATOM      3  C4  UNL d   1      -0.183   5.259  -0.885  0.00  0.00     0.002 A 
ATOM      4  C5  UNL d   1       0.939   5.999  -1.252  0.00  0.00    -0.004 A 
ATOM      5  C6  UNL d   1       2.216   5.522  -0.955  0.00  0.00     0.002 A 
ATOM      6  C7  UNL d   1       2.369   4.302  -0.296  0.00  0.00     0.002 A 
ENDROOT
BRANCH   1   7
ATOM      7  C1  UNL d   1       1.415   2.207   0.740  0.00  0.00     0.055 C 
ATOM      8  C   UNL d   1       0.697   1.111  -0.033  0.00  0.00     0.019 C 
ENDBRANCH   1   7
TORSDOF 1
ENDMDL
