MODEL 1
REMARK minimizedAffinity -3.07148409
REMARK minimizedRMSD -1
REMARK  0 active torsions:
REMARK  status: ('A' for Active; 'I' for Inactive)
ROOT
ATOM      1  C2' OXE d   1      -2.115  -4.697  -5.678  0.00  0.00     0.078 C 
ATOM      2  C1' OXE d   1      -3.711  -6.000  -3.772  0.00  0.00     0.078 C 
ATOM      3  C1  OXE d   1      -4.264  -4.756  -4.421  0.00  0.00    -0.078 A 
ATOM      4  C2  OXE d   1      -3.457  -4.099  -5.318  0.00  0.00    -0.078 A 
ATOM      5  C3  OXE d   1      -3.940  -2.977  -5.987  0.00  0.00     0.003 A 
ATOM      6  C4  OXE d   1      -5.179  -2.424  -5.640  0.00  0.00    -0.002 A 
ATOM      7  C5  OXE d   1      -6.000  -3.056  -4.700  0.00  0.00    -0.002 A 
ATOM      8  C6  OXE d   1      -5.577  -4.243  -4.114  0.00  0.00     0.003 A 
ENDROOT
TORSDOF 0
ENDMDL
