MODEL 1
REMARK minimizedAffinity -1.39130044
REMARK minimizedRMSD -1
REMARK  0 active torsions:
REMARK  status: ('A' for Active; 'I' for Inactive)
ROOT
ATOM      1  C2' OXE d   1      -5.996  -4.805  -5.369  0.00  0.00     0.078 C 
ATOM      2  C1' OXE d   1      -4.677  -2.358  -5.760  0.00  0.00     0.078 C 
ATOM      3  C1  OXE d   1      -3.844  -3.616  -5.771  0.00  0.00    -0.078 A 
ATOM      4  C2  OXE d   1      -4.491  -4.805  -5.533  0.00  0.00    -0.078 A 
ATOM      5  C3  OXE d   1      -3.779  -6.000  -5.587  0.00  0.00     0.003 A 
ATOM      6  C4  OXE d   1      -2.386  -5.989  -5.729  0.00  0.00    -0.002 A 
ATOM      7  C5  OXE d   1      -1.702  -4.786  -5.934  0.00  0.00    -0.002 A 
ATOM      8  C6  OXE d   1      -2.420  -3.597  -6.000  0.00  0.00     0.003 A 
ENDROOT
TORSDOF 0
ENDMDL
