MODEL 1
REMARK minimizedAffinity -1.64966738
REMARK minimizedRMSD -1
REMARK  0 active torsions:
REMARK  status: ('A' for Active; 'I' for Inactive)
ROOT
ATOM      1  C2' OXE d   1      -4.952  -2.613  -5.999  0.00  0.00     0.078 C 
ATOM      2  C1' OXE d   1      -5.297  -3.359  -3.315  0.00  0.00     0.078 C 
ATOM      3  C1  OXE d   1      -4.024  -3.782  -4.004  0.00  0.00    -0.078 A 
ATOM      4  C2  OXE d   1      -3.884  -3.452  -5.331  0.00  0.00    -0.078 A 
ATOM      5  C3  OXE d   1      -2.706  -3.771  -6.000  0.00  0.00     0.003 A 
ATOM      6  C4  OXE d   1      -1.727  -4.556  -5.378  0.00  0.00    -0.002 A 
ATOM      7  C5  OXE d   1      -1.868  -4.936  -4.039  0.00  0.00    -0.002 A 
ATOM      8  C6  OXE d   1      -2.988  -4.522  -3.327  0.00  0.00     0.003 A 
ENDROOT
TORSDOF 0
ENDMDL
