MODEL 1
REMARK minimizedAffinity -1.95839751
REMARK minimizedRMSD -1
REMARK  0 active torsions:
REMARK  status: ('A' for Active; 'I' for Inactive)
ROOT
ATOM      1  C2' OXE d   1      -4.694  -0.298  -5.346  0.00  0.00     0.078 C 
ATOM      2  C1' OXE d   1      -5.938  -1.683  -3.245  0.00  0.00     0.078 C 
ATOM      3  C1  OXE d   1      -4.784  -2.355  -3.945  0.00  0.00    -0.078 A 
ATOM      4  C2  OXE d   1      -4.211  -1.690  -5.002  0.00  0.00    -0.078 A 
ATOM      5  C3  OXE d   1      -3.108  -2.241  -5.647  0.00  0.00     0.003 A 
ATOM      6  C4  OXE d   1      -2.673  -3.534  -5.330  0.00  0.00    -0.002 A 
ATOM      7  C5  OXE d   1      -3.268  -4.245  -4.282  0.00  0.00    -0.002 A 
ATOM      8  C6  OXE d   1      -4.294  -3.654  -3.553  0.00  0.00     0.003 A 
ENDROOT
TORSDOF 0
ENDMDL
