MODEL 1
REMARK minimizedAffinity -3.82938027
REMARK minimizedRMSD -1
REMARK  0 active torsions:
REMARK  status: ('A' for Active; 'I' for Inactive)
ROOT
ATOM      1  C2' OXE d   1      -2.999  -4.060  -2.477  0.00  0.00     0.078 C 
ATOM      2  C1' OXE d   1      -2.313  -5.250  -4.926  0.00  0.00     0.078 C 
ATOM      3  C1  OXE d   1      -3.607  -4.478  -4.857  0.00  0.00    -0.078 A 
ATOM      4  C2  OXE d   1      -3.958  -3.939  -3.642  0.00  0.00    -0.078 A 
ATOM      5  C3  OXE d   1      -5.114  -3.171  -3.537  0.00  0.00     0.003 A 
ATOM      6  C4  OXE d   1      -6.000  -3.072  -4.617  0.00  0.00    -0.002 A 
ATOM      7  C5  OXE d   1      -5.681  -3.647  -5.852  0.00  0.00    -0.002 A 
ATOM      8  C6  OXE d   1      -4.471  -4.316  -6.000  0.00  0.00     0.003 A 
ENDROOT
TORSDOF 0
ENDMDL
