MODEL 1
REMARK minimizedAffinity -2.9539485
REMARK minimizedRMSD -1
REMARK  0 active torsions:
REMARK  status: ('A' for Active; 'I' for Inactive)
ROOT
ATOM      1  C2' OXE d   1      -5.933  -3.072  -5.462  0.00  0.00     0.078 C 
ATOM      2  C1' OXE d   1      -6.000  -5.874  -5.302  0.00  0.00     0.078 C 
ATOM      3  C1  OXE d   1      -4.663  -5.214  -5.529  0.00  0.00    -0.078 A 
ATOM      4  C2  OXE d   1      -4.646  -3.845  -5.653  0.00  0.00    -0.078 A 
ATOM      5  C3  OXE d   1      -3.433  -3.182  -5.809  0.00  0.00     0.003 A 
ATOM      6  C4  OXE d   1      -2.248  -3.905  -5.994  0.00  0.00    -0.002 A 
ATOM      7  C5  OXE d   1      -2.248  -5.301  -5.911  0.00  0.00    -0.002 A 
ATOM      8  C6  OXE d   1      -3.438  -5.967  -5.637  0.00  0.00     0.003 A 
ENDROOT
TORSDOF 0
ENDMDL
