MODEL 1
REMARK minimizedAffinity 1.05322587
REMARK minimizedRMSD -1
REMARK  0 active torsions:
REMARK  status: ('A' for Active; 'I' for Inactive)
ROOT
ATOM      1  C2' OXE d   1      -5.487  -3.392  -5.936  0.00  0.00     0.078 C 
ATOM      2  C1' OXE d   1      -4.969  -3.022  -3.202  0.00  0.00     0.078 C 
ATOM      3  C1  OXE d   1      -4.163  -4.064  -3.936  0.00  0.00    -0.078 A 
ATOM      4  C2  OXE d   1      -4.456  -4.272  -5.263  0.00  0.00    -0.078 A 
ATOM      5  C3  OXE d   1      -3.705  -5.183  -6.000  0.00  0.00     0.003 A 
ATOM      6  C4  OXE d   1      -2.760  -5.999  -5.367  0.00  0.00    -0.002 A 
ATOM      7  C5  OXE d   1      -2.474  -5.832  -4.008  0.00  0.00    -0.002 A 
ATOM      8  C6  OXE d   1      -3.135  -4.842  -3.289  0.00  0.00     0.003 A 
ENDROOT
TORSDOF 0
ENDMDL
