MODEL 1
REMARK minimizedAffinity 1.19127929
REMARK minimizedRMSD -1
REMARK  0 active torsions:
REMARK  status: ('A' for Active; 'I' for Inactive)
ROOT
ATOM      1  C2' OXE d   1      -2.436  -5.854  -4.935  0.00  0.00     0.078 C 
ATOM      2  C1' OXE d   1      -2.938  -4.199  -2.724  0.00  0.00     0.078 C 
ATOM      3  C1  OXE d   1      -3.942  -4.193  -3.849  0.00  0.00    -0.078 A 
ATOM      4  C2  OXE d   1      -3.665  -4.970  -4.948  0.00  0.00    -0.078 A 
ATOM      5  C3  OXE d   1      -4.584  -5.044  -5.991  0.00  0.00     0.003 A 
ATOM      6  C4  OXE d   1      -5.713  -4.216  -6.000  0.00  0.00    -0.002 A 
ATOM      7  C5  OXE d   1      -5.994  -3.387  -4.908  0.00  0.00    -0.002 A 
ATOM      8  C6  OXE d   1      -5.143  -3.395  -3.809  0.00  0.00     0.003 A 
ENDROOT
TORSDOF 0
ENDMDL
