MODEL 1
REMARK minimizedAffinity -3.10130572
REMARK minimizedRMSD -1
REMARK  0 active torsions:
REMARK  status: ('A' for Active; 'I' for Inactive)
ROOT
ATOM      1  C2' OXE d   1      -5.855  -5.966  -5.988  0.00  0.00     0.078 C 
ATOM      2  C1' OXE d   1      -6.000  -3.380  -4.906  0.00  0.00     0.078 C 
ATOM      3  C1  OXE d   1      -4.655  -4.062  -4.920  0.00  0.00    -0.078 A 
ATOM      4  C2  OXE d   1      -4.602  -5.345  -5.409  0.00  0.00    -0.078 A 
ATOM      5  C3  OXE d   1      -3.377  -6.000  -5.495  0.00  0.00     0.003 A 
ATOM      6  C4  OXE d   1      -2.224  -5.423  -4.948  0.00  0.00    -0.002 A 
ATOM      7  C5  OXE d   1      -2.264  -4.132  -4.410  0.00  0.00    -0.002 A 
ATOM      8  C6  OXE d   1      -3.460  -3.423  -4.427  0.00  0.00     0.003 A 
ENDROOT
TORSDOF 0
ENDMDL
