MODEL 1
REMARK minimizedAffinity -3.63227415
REMARK minimizedRMSD -1
REMARK  0 active torsions:
REMARK  status: ('A' for Active; 'I' for Inactive)
ROOT
ATOM      1  C2' OXE d   1      -5.266  -2.652  -6.000  0.00  0.00     0.078 C 
ATOM      2  C1' OXE d   1      -5.998  -4.108  -3.714  0.00  0.00     0.078 C 
ATOM      3  C1  OXE d   1      -4.632  -4.361  -4.302  0.00  0.00    -0.078 A 
ATOM      4  C2  OXE d   1      -4.301  -3.679  -5.447  0.00  0.00    -0.078 A 
ATOM      5  C3  OXE d   1      -3.032  -3.834  -6.000  0.00  0.00     0.003 A 
ATOM      6  C4  OXE d   1      -2.149  -4.792  -5.488  0.00  0.00    -0.002 A 
ATOM      7  C5  OXE d   1      -2.483  -5.527  -4.345  0.00  0.00    -0.002 A 
ATOM      8  C6  OXE d   1      -3.700  -5.293  -3.716  0.00  0.00     0.003 A 
ENDROOT
TORSDOF 0
ENDMDL
