MODEL 1
REMARK minimizedAffinity -3.75298023
REMARK minimizedRMSD -1
REMARK  0 active torsions:
REMARK  status: ('A' for Active; 'I' for Inactive)
ROOT
ATOM      1  C2' OXE d   1      -2.079  -3.812  -5.250  0.00  0.00     0.078 C 
ATOM      2  C1' OXE d   1      -3.294  -5.971  -3.929  0.00  0.00     0.078 C 
ATOM      3  C1  OXE d   1      -4.057  -4.672  -4.003  0.00  0.00    -0.078 A 
ATOM      4  C2  OXE d   1      -3.435  -3.607  -4.610  0.00  0.00    -0.078 A 
ATOM      5  C3  OXE d   1      -4.117  -2.402  -4.753  0.00  0.00     0.003 A 
ATOM      6  C4  OXE d   1      -5.366  -2.218  -4.149  0.00  0.00    -0.002 A 
ATOM      7  C5  OXE d   1      -6.000  -3.278  -3.491  0.00  0.00    -0.002 A 
ATOM      8  C6  OXE d   1      -5.378  -4.521  -3.446  0.00  0.00     0.003 A 
ENDROOT
TORSDOF 0
ENDMDL
