MODEL 1
REMARK minimizedAffinity -1.86509013
REMARK minimizedRMSD -1
REMARK  0 active torsions:
REMARK  status: ('A' for Active; 'I' for Inactive)
ROOT
ATOM      1  C2' OXE d   1      -4.344  -2.506  -4.110  0.00  0.00     0.078 C 
ATOM      2  C1' OXE d   1      -6.000  -4.329  -5.458  0.00  0.00     0.078 C 
ATOM      3  C1  OXE d   1      -4.522  -4.626  -5.405  0.00  0.00    -0.078 A 
ATOM      4  C2  OXE d   1      -3.713  -3.705  -4.784  0.00  0.00    -0.078 A 
ATOM      5  C3  OXE d   1      -2.350  -3.957  -4.660  0.00  0.00     0.003 A 
ATOM      6  C4  OXE d   1      -1.773  -5.064  -5.294  0.00  0.00    -0.002 A 
ATOM      7  C5  OXE d   1      -2.573  -5.994  -5.966  0.00  0.00    -0.002 A 
ATOM      8  C6  OXE d   1      -3.952  -5.812  -5.994  0.00  0.00     0.003 A 
ENDROOT
TORSDOF 0
ENDMDL
