MODEL 1
REMARK minimizedAffinity -1.55169773
REMARK minimizedRMSD -1
REMARK  0 active torsions:
REMARK  status: ('A' for Active; 'I' for Inactive)
ROOT
ATOM      1  C2' OXE d   1      -1.140  -6.000  -5.197  0.00  0.00     0.078 C 
ATOM      2  C1' OXE d   1      -1.796  -3.996  -3.344  0.00  0.00     0.078 C 
ATOM      3  C1  OXE d   1      -2.892  -4.507  -4.244  0.00  0.00    -0.078 A 
ATOM      4  C2  OXE d   1      -2.552  -5.454  -5.180  0.00  0.00    -0.078 A 
ATOM      5  C3  OXE d   1      -3.536  -5.999  -5.999  0.00  0.00     0.003 A 
ATOM      6  C4  OXE d   1      -4.837  -5.482  -5.984  0.00  0.00    -0.002 A 
ATOM      7  C5  OXE d   1      -5.196  -4.489  -5.066  0.00  0.00    -0.002 A 
ATOM      8  C6  OXE d   1      -4.248  -4.022  -4.162  0.00  0.00     0.003 A 
ENDROOT
TORSDOF 0
ENDMDL
