MODEL 1
REMARK minimizedAffinity -0.551229358
REMARK minimizedRMSD -1
REMARK  0 active torsions:
REMARK  status: ('A' for Active; 'I' for Inactive)
ROOT
ATOM      1  C2' OXE d   1      -1.976  -5.998  -5.075  0.00  0.00     0.078 C 
ATOM      2  C1' OXE d   1      -2.676  -4.095  -3.134  0.00  0.00     0.078 C 
ATOM      3  C1  OXE d   1      -3.739  -4.523  -4.114  0.00  0.00    -0.078 A 
ATOM      4  C2  OXE d   1      -3.375  -5.420  -5.090  0.00  0.00    -0.078 A 
ATOM      5  C3  OXE d   1      -4.331  -5.889  -5.986  0.00  0.00     0.003 A 
ATOM      6  C4  OXE d   1      -5.619  -5.341  -5.999  0.00  0.00    -0.002 A 
ATOM      7  C5  OXE d   1      -5.999  -4.397  -5.040  0.00  0.00    -0.002 A 
ATOM      8  C6  OXE d   1      -5.086  -4.010  -4.066  0.00  0.00     0.003 A 
ENDROOT
TORSDOF 0
ENDMDL
