MODEL 1
REMARK minimizedAffinity -2.29453731
REMARK minimizedRMSD -1
REMARK  0 active torsions:
REMARK  status: ('A' for Active; 'I' for Inactive)
ROOT
ATOM      1  C2' OXE d   1      -5.442  -3.327  -3.731  0.00  0.00     0.078 C 
ATOM      2  C1' OXE d   1      -6.000  -4.885  -5.999  0.00  0.00     0.078 C 
ATOM      3  C1  OXE d   1      -4.616  -4.977  -5.405  0.00  0.00    -0.078 A 
ATOM      4  C2  OXE d   1      -4.338  -4.176  -4.324  0.00  0.00    -0.078 A 
ATOM      5  C3  OXE d   1      -3.095  -4.261  -3.704  0.00  0.00     0.003 A 
ATOM      6  C4  OXE d   1      -2.076  -5.041  -4.265  0.00  0.00    -0.002 A 
ATOM      7  C5  OXE d   1      -2.326  -5.834  -5.389  0.00  0.00    -0.002 A 
ATOM      8  C6  OXE d   1      -3.601  -5.846  -5.945  0.00  0.00     0.003 A 
ENDROOT
TORSDOF 0
ENDMDL
