MODEL 1
REMARK minimizedAffinity -3.01559043
REMARK minimizedRMSD -1
REMARK  0 active torsions:
REMARK  status: ('A' for Active; 'I' for Inactive)
ROOT
ATOM      1  C2' OXE d   1      -3.249  -5.404  -4.877  0.00  0.00     0.078 C 
ATOM      2  C1' OXE d   1      -3.291  -3.784  -2.585  0.00  0.00     0.078 C 
ATOM      3  C1  OXE d   1      -4.137  -3.362  -3.760  0.00  0.00    -0.078 A 
ATOM      4  C2  OXE d   1      -4.074  -4.135  -4.894  0.00  0.00    -0.078 A 
ATOM      5  C3  OXE d   1      -4.875  -3.821  -5.988  0.00  0.00     0.003 A 
ATOM      6  C4  OXE d   1      -5.627  -2.640  -6.000  0.00  0.00    -0.002 A 
ATOM      7  C5  OXE d   1      -5.674  -1.817  -4.870  0.00  0.00    -0.002 A 
ATOM      8  C6  OXE d   1      -4.970  -2.185  -3.729  0.00  0.00     0.003 A 
ENDROOT
TORSDOF 0
ENDMDL
