MODEL 1
REMARK minimizedAffinity -0.729640663
REMARK minimizedRMSD -1
REMARK  0 active torsions:
REMARK  status: ('A' for Active; 'I' for Inactive)
ROOT
ATOM      1  C2' OXE d   1      -5.996  -0.775  -2.530  0.00  0.00     0.078 C 
ATOM      2  C1' OXE d   1      -5.999   0.013  -5.224  0.00  0.00     0.078 C 
ATOM      3  C1  OXE d   1      -5.708  -1.434  -4.915  0.00  0.00    -0.078 A 
ATOM      4  C2  OXE d   1      -5.662  -1.801  -3.592  0.00  0.00    -0.078 A 
ATOM      5  C3  OXE d   1      -5.451  -3.135  -3.253  0.00  0.00     0.003 A 
ATOM      6  C4  OXE d   1      -5.133  -4.075  -4.241  0.00  0.00    -0.002 A 
ATOM      7  C5  OXE d   1      -5.135  -3.714  -5.592  0.00  0.00    -0.002 A 
ATOM      8  C6  OXE d   1      -5.462  -2.410  -5.948  0.00  0.00     0.003 A 
ENDROOT
TORSDOF 0
ENDMDL
