MODEL 1
REMARK minimizedAffinity 7.30994558
REMARK minimizedRMSD -1
REMARK  1 active torsions:
REMARK  status: ('A' for Active; 'I' for Inactive)
REMARK    1  A    between atoms: C1_2  and  C2_3 
ROOT
ATOM      1  C2  UNL d   1       2.804  -3.632   0.698  0.00  0.00    -0.073 A 
ATOM      2  C3  UNL d   1       2.966  -3.085  -0.580  0.00  0.00    -0.002 A 
ATOM      3  C4  UNL d   1       2.254  -1.943  -0.953  0.00  0.00     0.004 A 
ATOM      4  C5  UNL d   1       1.381  -1.335  -0.052  0.00  0.00    -0.004 A 
ATOM      5  C6  UNL d   1       1.215  -1.860   1.234  0.00  0.00    -0.075 A 
ATOM      6  C7  UNL d   1       0.277  -1.219   2.214  0.00  0.00     0.076 C 
ATOM      7  C8  UNL d   1       1.930  -3.008   1.600  0.00  0.00     0.001 A 
ENDROOT
BRANCH   1   8
ATOM      8  C1  UNL d   1       3.575  -4.860   1.107  0.00  0.00     0.053 C 
ATOM      9  C   UNL d   1       4.881  -4.995   0.341  0.00  0.00     0.018 C 
ENDBRANCH   1   8
TORSDOF 1
ENDMDL
