MODEL 1
REMARK minimizedAffinity 4.5801239
REMARK minimizedRMSD -1
REMARK  1 active torsions:
REMARK  status: ('A' for Active; 'I' for Inactive)
REMARK    1  A    between atoms: C1_2  and  C2_3 
ROOT
ATOM      1  C2  UNL d   1       1.493  -3.526   1.526  0.00  0.00    -0.073 A 
ATOM      2  C3  UNL d   1       1.730  -2.155   1.376  0.00  0.00    -0.002 A 
ATOM      3  C4  UNL d   1       0.816  -1.223   1.871  0.00  0.00     0.004 A 
ATOM      4  C5  UNL d   1      -0.339  -1.652   2.525  0.00  0.00    -0.004 A 
ATOM      5  C6  UNL d   1      -0.588  -3.017   2.694  0.00  0.00    -0.075 A 
ATOM      6  C7  UNL d   1      -1.827  -3.495   3.393  0.00  0.00     0.076 C 
ATOM      7  C8  UNL d   1       0.333  -3.947   2.192  0.00  0.00     0.001 A 
ENDROOT
BRANCH   1   8
ATOM      8  C1  UNL d   1       2.480  -4.535   0.999  0.00  0.00     0.053 C 
ATOM      9  C   UNL d   1       3.717  -4.635   1.877  0.00  0.00     0.018 C 
ENDBRANCH   1   8
TORSDOF 1
ENDMDL
