MODEL 1
REMARK minimizedAffinity 0.73261261
REMARK minimizedRMSD -1
REMARK  1 active torsions:
REMARK  status: ('A' for Active; 'I' for Inactive)
REMARK    1  A    between atoms: C1_2  and  C2_3 
ROOT
ATOM      1  C2  UNL d   1       1.533   3.819   3.400  0.00  0.00    -0.073 A 
ATOM      2  C3  UNL d   1       0.294   4.469   3.416  0.00  0.00    -0.002 A 
ATOM      3  C4  UNL d   1       0.078   5.551   4.271  0.00  0.00     0.004 A 
ATOM      4  C5  UNL d   1       1.098   5.998   5.110  0.00  0.00    -0.004 A 
ATOM      5  C6  UNL d   1       2.347   5.368   5.099  0.00  0.00    -0.075 A 
ATOM      6  C7  UNL d   1       3.454   5.835   5.998  0.00  0.00     0.076 C 
ATOM      7  C8  UNL d   1       2.556   4.281   4.241  0.00  0.00     0.001 A 
ENDROOT
BRANCH   1   8
ATOM      8  C1  UNL d   1       1.774   2.654   2.474  0.00  0.00     0.053 C 
ATOM      9  C   UNL d   1       2.926   2.914   1.517  0.00  0.00     0.018 C 
ENDBRANCH   1   8
TORSDOF 1
ENDMDL
