MODEL 1
REMARK minimizedAffinity 3.5462532
REMARK minimizedRMSD -1
REMARK  1 active torsions:
REMARK  status: ('A' for Active; 'I' for Inactive)
REMARK    1  A    between atoms: C1_2  and  C2_3 
ROOT
ATOM      1  C2  UNL d   1       2.066   4.791   4.085  0.00  0.00    -0.073 A 
ATOM      2  C3  UNL d   1       1.860   5.435   5.310  0.00  0.00    -0.002 A 
ATOM      3  C4  UNL d   1       2.935   5.999   5.999  0.00  0.00     0.004 A 
ATOM      4  C5  UNL d   1       4.223   5.932   5.467  0.00  0.00    -0.004 A 
ATOM      5  C6  UNL d   1       4.447   5.303   4.239  0.00  0.00    -0.075 A 
ATOM      6  C7  UNL d   1       5.826   5.220   3.654  0.00  0.00     0.076 C 
ATOM      7  C8  UNL d   1       3.363   4.736   3.554  0.00  0.00     0.001 A 
ENDROOT
BRANCH   1   8
ATOM      8  C1  UNL d   1       0.908   4.185   3.334  0.00  0.00     0.053 C 
ATOM      9  C   UNL d   1       1.066   2.683   3.157  0.00  0.00     0.018 C 
ENDBRANCH   1   8
TORSDOF 1
ENDMDL
