MODEL 1
REMARK minimizedAffinity 0.995918572
REMARK minimizedRMSD -1
REMARK  2 active torsions:
REMARK  status: ('A' for Active; 'I' for Inactive)
REMARK    1  A    between atoms: C1_2  and  C2_3 
REMARK    2  A    between atoms: C2_3  and  C3_4 
ROOT
ATOM      1  C3  UNL d   1      -3.669   0.699   3.745  0.00  0.00    -0.075 A 
ATOM      2  C4  UNL d   1      -2.571  -0.076   3.347  0.00  0.00     0.002 A 
ATOM      3  C5  UNL d   1      -1.795   0.304   2.252  0.00  0.00     0.002 A 
ATOM      4  C6  UNL d   1      -2.113   1.456   1.536  0.00  0.00    -0.004 A 
ATOM      5  C7  UNL d   1      -3.212   2.225   1.912  0.00  0.00     0.002 A 
ATOM      6  C8  UNL d   1      -3.987   1.849   3.011  0.00  0.00     0.002 A 
ENDROOT
BRANCH   1   7
ATOM      7  C2  UNL d   1      -4.495   0.309   4.948  0.00  0.00     0.056 C 
BRANCH   7   8
ATOM      8  C1  UNL d   1      -3.810  -0.704   5.873  0.00  0.00     0.007 C 
ATOM      9  C   UNL d   1      -4.575  -2.015   5.998  0.00  0.00     0.009 C 
ENDBRANCH   7   8
ENDBRANCH   1   7
TORSDOF 2
ENDMDL
