MODEL 1
REMARK minimizedAffinity 8.19830132
REMARK minimizedRMSD -1
REMARK  2 active torsions:
REMARK  status: ('A' for Active; 'I' for Inactive)
REMARK    1  A    between atoms: C1_2  and  C2_3 
REMARK    2  A    between atoms: C2_3  and  C3_4 
ROOT
ATOM      1  C3  UNL d   1      -5.002  -3.498  -0.107  0.00  0.00    -0.075 A 
ATOM      2  C4  UNL d   1      -5.795  -4.634   0.105  0.00  0.00     0.002 A 
ATOM      3  C5  UNL d   1      -5.205  -5.876   0.342  0.00  0.00     0.002 A 
ATOM      4  C6  UNL d   1      -3.818  -5.999   0.359  0.00  0.00    -0.004 A 
ATOM      5  C7  UNL d   1      -3.019  -4.880   0.132  0.00  0.00     0.002 A 
ATOM      6  C8  UNL d   1      -3.607  -3.635  -0.100  0.00  0.00     0.002 A 
ENDROOT
BRANCH   1   7
ATOM      7  C2  UNL d   1      -5.634  -2.145  -0.335  0.00  0.00     0.056 C 
BRANCH   7   8
ATOM      8  C1  UNL d   1      -6.000  -1.866  -1.796  0.00  0.00     0.007 C 
ATOM      9  C   UNL d   1      -4.890  -2.231  -2.773  0.00  0.00     0.009 C 
ENDBRANCH   7   8
ENDBRANCH   1   7
TORSDOF 2
ENDMDL
