MODEL 1
REMARK minimizedAffinity -1.69138122
REMARK minimizedRMSD -1
REMARK  2 active torsions:
REMARK  status: ('A' for Active; 'I' for Inactive)
REMARK    1  A    between atoms: C1_2  and  C2_3 
REMARK    2  A    between atoms: C2_3  and  C3_4 
ROOT
ATOM      1  C3  UNL d   1      -4.552  -3.558   0.821  0.00  0.00    -0.075 A 
ATOM      2  C4  UNL d   1      -4.570  -3.296  -0.556  0.00  0.00     0.002 A 
ATOM      3  C5  UNL d   1      -5.284  -2.210  -1.062  0.00  0.00     0.002 A 
ATOM      4  C6  UNL d   1      -5.997  -1.379  -0.200  0.00  0.00    -0.004 A 
ATOM      5  C7  UNL d   1      -6.000  -1.640   1.169  0.00  0.00     0.002 A 
ATOM      6  C8  UNL d   1      -5.283  -2.724   1.678  0.00  0.00     0.002 A 
ENDROOT
BRANCH   1   7
ATOM      7  C2  UNL d   1      -3.757  -4.716   1.377  0.00  0.00     0.056 C 
BRANCH   7   8
ATOM      8  C1  UNL d   1      -4.580  -5.683   2.235  0.00  0.00     0.007 C 
ATOM      9  C   UNL d   1      -5.971  -5.948   1.674  0.00  0.00     0.009 C 
ENDBRANCH   7   8
ENDBRANCH   1   7
TORSDOF 2
ENDMDL
