MODEL 1
REMARK minimizedAffinity 15.4864607
REMARK minimizedRMSD -1
REMARK  2 active torsions:
REMARK  status: ('A' for Active; 'I' for Inactive)
REMARK    1  A    between atoms: C1_2  and  C2_3 
REMARK    2  A    between atoms: C2_3  and  C3_4 
ROOT
ATOM      1  C3  UNL d   1       3.703   1.203  -5.462  0.00  0.00    -0.075 A 
ATOM      2  C4  UNL d   1       4.016  -0.057  -5.992  0.00  0.00     0.002 A 
ATOM      3  C5  UNL d   1       3.375  -1.203  -5.521  0.00  0.00     0.002 A 
ATOM      4  C6  UNL d   1       2.423  -1.106  -4.508  0.00  0.00    -0.004 A 
ATOM      5  C7  UNL d   1       2.117   0.138  -3.962  0.00  0.00     0.002 A 
ATOM      6  C8  UNL d   1       2.753   1.287  -4.435  0.00  0.00     0.002 A 
ENDROOT
BRANCH   1   7
ATOM      7  C2  UNL d   1       4.371   2.451  -5.988  0.00  0.00     0.056 C 
BRANCH   7   8
ATOM      8  C1  UNL d   1       4.544   3.555  -4.940  0.00  0.00     0.007 C 
ATOM      9  C   UNL d   1       5.999   3.809  -4.569  0.00  0.00     0.009 C 
ENDBRANCH   7   8
ENDBRANCH   1   7
TORSDOF 2
ENDMDL
