MODEL 1
REMARK minimizedAffinity 7.38754034
REMARK minimizedRMSD -1
REMARK  2 active torsions:
REMARK  status: ('A' for Active; 'I' for Inactive)
REMARK    1  A    between atoms: C1_2  and  C2_3 
REMARK    2  A    between atoms: C2_3  and  C3_4 
ROOT
ATOM      1  C3  UNL d   1       3.414   1.081   1.917  0.00  0.00    -0.075 A 
ATOM      2  C4  UNL d   1       3.296   0.024   2.832  0.00  0.00     0.002 A 
ATOM      3  C5  UNL d   1       4.389  -0.797   3.110  0.00  0.00     0.002 A 
ATOM      4  C6  UNL d   1       5.608  -0.579   2.472  0.00  0.00    -0.004 A 
ATOM      5  C7  UNL d   1       5.733   0.457   1.550  0.00  0.00     0.002 A 
ATOM      6  C8  UNL d   1       4.642   1.283   1.272  0.00  0.00     0.002 A 
ENDROOT
BRANCH   1   7
ATOM      7  C2  UNL d   1       2.244   1.991   1.633  0.00  0.00     0.056 C 
BRANCH   7   8
ATOM      8  C1  UNL d   1       1.179   2.000   2.735  0.00  0.00     0.007 C 
ATOM      9  C   UNL d   1       1.278   3.208   3.657  0.00  0.00     0.009 C 
ENDBRANCH   7   8
ENDBRANCH   1   7
TORSDOF 2
ENDMDL
