MODEL 1
REMARK minimizedAffinity 1.41181326
REMARK minimizedRMSD -1
REMARK  2 active torsions:
REMARK  status: ('A' for Active; 'I' for Inactive)
REMARK    1  A    between atoms: C1_2  and  C2_3 
REMARK    2  A    between atoms: C2_3  and  C3_4 
ROOT
ATOM      1  C3  UNL d   1      -3.239  -2.499  -5.806  0.00  0.00    -0.075 A 
ATOM      2  C4  UNL d   1      -3.669  -3.820  -6.000  0.00  0.00     0.002 A 
ATOM      3  C5  UNL d   1      -5.020  -4.149  -5.886  0.00  0.00     0.002 A 
ATOM      4  C6  UNL d   1      -5.955  -3.166  -5.567  0.00  0.00    -0.004 A 
ATOM      5  C7  UNL d   1      -5.537  -1.854  -5.356  0.00  0.00     0.002 A 
ATOM      6  C8  UNL d   1      -4.187  -1.521  -5.474  0.00  0.00     0.002 A 
ENDROOT
BRANCH   1   7
ATOM      7  C2  UNL d   1      -1.783  -2.130  -5.957  0.00  0.00     0.056 C 
BRANCH   7   8
ATOM      8  C1  UNL d   1      -1.455  -0.695  -5.533  0.00  0.00     0.007 C 
ATOM      9  C   UNL d   1      -0.006  -0.511  -5.103  0.00  0.00     0.009 C 
ENDBRANCH   7   8
ENDBRANCH   1   7
TORSDOF 2
ENDMDL
