MODEL 1
REMARK minimizedAffinity 10.0571775
REMARK minimizedRMSD -1
REMARK  2 active torsions:
REMARK  status: ('A' for Active; 'I' for Inactive)
REMARK    1  A    between atoms: C1_2  and  C2_3 
REMARK    2  A    between atoms: C2_3  and  C3_4 
ROOT
ATOM      1  C3  UNL d   1      -1.144  -1.893  -5.277  0.00  0.00    -0.075 A 
ATOM      2  C4  UNL d   1      -2.532  -1.691  -5.301  0.00  0.00     0.002 A 
ATOM      3  C5  UNL d   1      -3.393  -2.731  -5.654  0.00  0.00     0.002 A 
ATOM      4  C6  UNL d   1      -2.878  -3.979  -5.997  0.00  0.00    -0.004 A 
ATOM      5  C7  UNL d   1      -1.501  -4.186  -5.993  0.00  0.00     0.002 A 
ATOM      6  C8  UNL d   1      -0.637  -3.149  -5.636  0.00  0.00     0.002 A 
ENDROOT
BRANCH   1   7
ATOM      7  C2  UNL d   1      -0.208  -0.781  -4.867  0.00  0.00     0.056 C 
BRANCH   7   8
ATOM      8  C1  UNL d   1       0.702  -1.135  -3.687  0.00  0.00     0.007 C 
ATOM      9  C   UNL d   1       1.983  -0.312  -3.649  0.00  0.00     0.009 C 
ENDBRANCH   7   8
ENDBRANCH   1   7
TORSDOF 2
ENDMDL
