MODEL 1
REMARK minimizedAffinity 10.8219728
REMARK minimizedRMSD -1
REMARK  2 active torsions:
REMARK  status: ('A' for Active; 'I' for Inactive)
REMARK    1  A    between atoms: C1_2  and  C2_3 
REMARK    2  A    between atoms: C2_3  and  C3_4 
ROOT
ATOM      1  C3  UNL d   1      -5.307  -4.564  -1.230  0.00  0.00    -0.075 A 
ATOM      2  C4  UNL d   1      -3.980  -5.019  -1.248  0.00  0.00     0.002 A 
ATOM      3  C5  UNL d   1      -3.355  -5.426  -0.070  0.00  0.00     0.002 A 
ATOM      4  C6  UNL d   1      -4.042  -5.374   1.141  0.00  0.00    -0.004 A 
ATOM      5  C7  UNL d   1      -5.355  -4.908   1.173  0.00  0.00     0.002 A 
ATOM      6  C8  UNL d   1      -5.984  -4.504  -0.005  0.00  0.00     0.002 A 
ENDROOT
BRANCH   1   7
ATOM      7  C2  UNL d   1      -5.999  -4.150  -2.507  0.00  0.00     0.056 C 
BRANCH   7   8
ATOM      8  C1  UNL d   1      -5.190  -3.173  -3.366  0.00  0.00     0.007 C 
ATOM      9  C   UNL d   1      -5.285  -3.465  -4.858  0.00  0.00     0.009 C 
ENDBRANCH   7   8
ENDBRANCH   1   7
TORSDOF 2
ENDMDL
