MODEL 1
REMARK minimizedAffinity 13.9496593
REMARK minimizedRMSD -1
REMARK  2 active torsions:
REMARK  status: ('A' for Active; 'I' for Inactive)
REMARK    1  A    between atoms: C1_2  and  C2_3 
REMARK    2  A    between atoms: C2_3  and  C3_4 
ROOT
ATOM      1  C3  UNL d   1      -3.058   0.068   1.484  0.00  0.00    -0.075 A 
ATOM      2  C4  UNL d   1      -2.376   0.889   0.575  0.00  0.00     0.002 A 
ATOM      3  C5  UNL d   1      -1.134   1.434   0.905  0.00  0.00     0.002 A 
ATOM      4  C6  UNL d   1      -0.565   1.173   2.150  0.00  0.00    -0.004 A 
ATOM      5  C7  UNL d   1      -1.242   0.372   3.068  0.00  0.00     0.002 A 
ATOM      6  C8  UNL d   1      -2.482  -0.177   2.738  0.00  0.00     0.002 A 
ENDROOT
BRANCH   1   7
ATOM      7  C2  UNL d   1      -4.388  -0.548   1.121  0.00  0.00     0.056 C 
BRANCH   7   8
ATOM      8  C1  UNL d   1      -4.341  -2.068   0.932  0.00  0.00     0.007 C 
ATOM      9  C   UNL d   1      -5.178  -2.552  -0.245  0.00  0.00     0.009 C 
ENDBRANCH   7   8
ENDBRANCH   1   7
TORSDOF 2
ENDMDL
