MODEL 1
REMARK minimizedAffinity 10.0747242
REMARK minimizedRMSD -1
REMARK  2 active torsions:
REMARK  status: ('A' for Active; 'I' for Inactive)
REMARK    1  A    between atoms: C1_2  and  C2_3 
REMARK    2  A    between atoms: C2_3  and  C3_4 
ROOT
ATOM      1  C3  UNL d   1      -0.764  -2.047  -5.454  0.00  0.00    -0.075 A 
ATOM      2  C4  UNL d   1       0.392  -2.258  -4.688  0.00  0.00     0.002 A 
ATOM      3  C5  UNL d   1       1.120  -1.177  -4.191  0.00  0.00     0.002 A 
ATOM      4  C6  UNL d   1       0.710   0.127  -4.462  0.00  0.00    -0.004 A 
ATOM      5  C7  UNL d   1      -0.427   0.349  -5.236  0.00  0.00     0.002 A 
ATOM      6  C8  UNL d   1      -1.161  -0.732  -5.730  0.00  0.00     0.002 A 
ENDROOT
BRANCH   1   7
ATOM      7  C2  UNL d   1      -1.573  -3.213  -5.969  0.00  0.00     0.056 C 
BRANCH   7   8
ATOM      8  C1  UNL d   1      -3.085  -2.963  -5.989  0.00  0.00     0.007 C 
ATOM      9  C   UNL d   1      -3.906  -4.245  -5.971  0.00  0.00     0.009 C 
ENDBRANCH   7   8
ENDBRANCH   1   7
TORSDOF 2
ENDMDL
