MODEL 1
REMARK minimizedAffinity 6.5580821
REMARK minimizedRMSD -1
REMARK  2 active torsions:
REMARK  status: ('A' for Active; 'I' for Inactive)
REMARK    1  A    between atoms: C1_2  and  C2_3 
REMARK    2  A    between atoms: C2_3  and  C3_4 
ROOT
ATOM      1  C3  UNL d   1      -0.096  -2.055  -5.227  0.00  0.00    -0.075 A 
ATOM      2  C4  UNL d   1       1.055  -2.083  -4.427  0.00  0.00     0.002 A 
ATOM      3  C5  UNL d   1       1.665  -0.896  -4.022  0.00  0.00     0.002 A 
ATOM      4  C6  UNL d   1       1.139   0.332  -4.419  0.00  0.00    -0.004 A 
ATOM      5  C7  UNL d   1       0.005   0.371  -5.227  0.00  0.00     0.002 A 
ATOM      6  C8  UNL d   1      -0.610  -0.816  -5.630  0.00  0.00     0.002 A 
ENDROOT
BRANCH   1   7
ATOM      7  C2  UNL d   1      -0.778  -3.336  -5.644  0.00  0.00     0.056 C 
BRANCH   7   8
ATOM      8  C1  UNL d   1      -2.263  -3.170  -5.984  0.00  0.00     0.007 C 
ATOM      9  C   UNL d   1      -3.026  -4.488  -6.000  0.00  0.00     0.009 C 
ENDBRANCH   7   8
ENDBRANCH   1   7
TORSDOF 2
ENDMDL
