MODEL 1
REMARK minimizedAffinity -0.546187401
REMARK minimizedRMSD -1
REMARK  2 active torsions:
REMARK  status: ('A' for Active; 'I' for Inactive)
REMARK    1  A    between atoms: C1_2  and  C2_3 
REMARK    2  A    between atoms: C2_3  and  C3_4 
ROOT
ATOM      1  C3  UNL d   1      -2.451   1.893   4.495  0.00  0.00    -0.075 A 
ATOM      2  C4  UNL d   1      -2.734   1.108   3.367  0.00  0.00     0.002 A 
ATOM      3  C5  UNL d   1      -1.838   1.055   2.299  0.00  0.00     0.002 A 
ATOM      4  C6  UNL d   1      -0.657   1.792   2.339  0.00  0.00    -0.004 A 
ATOM      5  C7  UNL d   1      -0.374   2.588   3.447  0.00  0.00     0.002 A 
ATOM      6  C8  UNL d   1      -1.266   2.640   4.519  0.00  0.00     0.002 A 
ENDROOT
BRANCH   1   7
ATOM      7  C2  UNL d   1      -3.402   1.932   5.667  0.00  0.00     0.056 C 
BRANCH   7   8
ATOM      8  C1  UNL d   1      -4.037   0.577   6.000  0.00  0.00     0.007 C 
ATOM      9  C   UNL d   1      -5.560   0.612   5.999  0.00  0.00     0.009 C 
ENDBRANCH   7   8
ENDBRANCH   1   7
TORSDOF 2
ENDMDL
