MODEL 1
REMARK minimizedAffinity -4.41334581
REMARK minimizedRMSD -1
REMARK  0 active torsions:
REMARK  status: ('A' for Active; 'I' for Inactive)
ROOT
ATOM      1  C   UNL d   1       0.522  -0.892   2.298  0.00  0.00     0.020 A 
ATOM      2  C1  UNL d   1      -0.748  -0.322   2.220  0.00  0.00     0.020 A 
ATOM      3  C2  UNL d   1      -1.281   0.028   0.977  0.00  0.00     0.034 A 
ATOM      4  C3  UNL d   1      -0.542  -0.190  -0.192  0.00  0.00     0.017 A 
ATOM      5  C4  UNL d   1       0.733  -0.762  -0.112  0.00  0.00     0.017 A 
ATOM      6  C5  UNL d   1       1.261  -1.111   1.135  0.00  0.00     0.034 A 
ATOM      7 Cl   UNL d   1       1.703  -1.062  -1.510  0.00  0.00    -0.070 Cl
ATOM      8 Cl1  UNL d   1      -1.263   0.267  -1.694  0.00  0.00    -0.070 Cl
ENDROOT
TORSDOF 0
ENDMDL
