MODEL 1
REMARK minimizedAffinity -2.46729302
REMARK minimizedRMSD -1
REMARK  0 active torsions:
REMARK  status: ('A' for Active; 'I' for Inactive)
ROOT
ATOM      1  C   UNL d   1      -0.019   3.946  -2.278  0.00  0.00     0.020 A 
ATOM      2  C1  UNL d   1       1.080   3.171  -1.910  0.00  0.00     0.020 A 
ATOM      3  C2  UNL d   1       0.933   1.794  -1.724  0.00  0.00     0.034 A 
ATOM      4  C3  UNL d   1      -0.316   1.190  -1.906  0.00  0.00     0.017 A 
ATOM      5  C4  UNL d   1      -1.419   1.969  -2.275  0.00  0.00     0.017 A 
ATOM      6  C5  UNL d   1      -1.265   3.346  -2.460  0.00  0.00     0.034 A 
ATOM      7 Cl   UNL d   1      -2.991   1.294  -2.518  0.00  0.00    -0.070 Cl
ATOM      8 Cl1  UNL d   1      -0.426  -0.517  -1.659  0.00  0.00    -0.070 Cl
ENDROOT
TORSDOF 0
ENDMDL
