MODEL 1
REMARK minimizedAffinity -5.86134291
REMARK minimizedRMSD -1
REMARK  0 active torsions:
REMARK  status: ('A' for Active; 'I' for Inactive)
ROOT
ATOM      1  C   UNL d   1       2.294  -0.929   1.458  0.00  0.00     0.020 A 
ATOM      2  C1  UNL d   1       1.608  -0.988   2.670  0.00  0.00     0.020 A 
ATOM      3  C2  UNL d   1       0.234  -0.742   2.707  0.00  0.00     0.034 A 
ATOM      4  C3  UNL d   1      -0.458  -0.435   1.530  0.00  0.00     0.017 A 
ATOM      5  C4  UNL d   1       0.232  -0.376   0.314  0.00  0.00     0.017 A 
ATOM      6  C5  UNL d   1       1.607  -0.624   0.282  0.00  0.00     0.034 A 
ATOM      7 Cl   UNL d   1      -0.554  -0.005  -1.181  0.00  0.00    -0.070 Cl
ATOM      8 Cl1  UNL d   1      -2.157  -0.143   1.649  0.00  0.00    -0.070 Cl
ENDROOT
TORSDOF 0
ENDMDL
