MODEL 1
REMARK minimizedAffinity -5.40982819
REMARK minimizedRMSD -1
REMARK  0 active torsions:
REMARK  status: ('A' for Active; 'I' for Inactive)
ROOT
ATOM      1  C   UNL d   1       1.687  -0.941   2.886  0.00  0.00     0.020 A 
ATOM      2  C1  UNL d   1       2.540  -1.846   2.254  0.00  0.00     0.020 A 
ATOM      3  C2  UNL d   1       2.524  -1.965   0.863  0.00  0.00     0.034 A 
ATOM      4  C3  UNL d   1       1.655  -1.178   0.099  0.00  0.00     0.017 A 
ATOM      5  C4  UNL d   1       0.800  -0.270   0.733  0.00  0.00     0.017 A 
ATOM      6  C5  UNL d   1       0.819  -0.155   2.127  0.00  0.00     0.034 A 
ATOM      7 Cl   UNL d   1      -0.301   0.734  -0.143  0.00  0.00    -0.070 Cl
ATOM      8 Cl1  UNL d   1       1.689  -1.378  -1.617  0.00  0.00    -0.070 Cl
ENDROOT
TORSDOF 0
ENDMDL
