MODEL 1
REMARK minimizedAffinity -4.08103848
REMARK minimizedRMSD -1
REMARK  0 active torsions:
REMARK  status: ('A' for Active; 'I' for Inactive)
ROOT
ATOM      1  C   UNL d   1       1.591  -2.034   2.218  0.00  0.00     0.020 A 
ATOM      2  C1  UNL d   1       0.403  -1.433   2.632  0.00  0.00     0.020 A 
ATOM      3  C2  UNL d   1      -0.436  -0.826   1.695  0.00  0.00     0.034 A 
ATOM      4  C3  UNL d   1      -0.088  -0.817   0.339  0.00  0.00     0.017 A 
ATOM      5  C4  UNL d   1       1.105  -1.420  -0.075  0.00  0.00     0.017 A 
ATOM      6  C5  UNL d   1       1.941  -2.027   0.867  0.00  0.00     0.034 A 
ATOM      7 Cl   UNL d   1       1.602  -1.450  -1.731  0.00  0.00    -0.070 Cl
ATOM      8 Cl1  UNL d   1      -1.172  -0.048  -0.764  0.00  0.00    -0.070 Cl
ENDROOT
TORSDOF 0
ENDMDL
