MODEL 1
REMARK minimizedAffinity -2.49252129
REMARK minimizedRMSD -1
REMARK  0 active torsions:
REMARK  status: ('A' for Active; 'I' for Inactive)
ROOT
ATOM      1  C   UNL d   1       0.555  -0.115   2.972  0.00  0.00     0.020 A 
ATOM      2  C1  UNL d   1      -0.553   0.403   2.302  0.00  0.00     0.020 A 
ATOM      3  C2  UNL d   1      -0.689   0.211   0.926  0.00  0.00     0.034 A 
ATOM      4  C3  UNL d   1       0.284  -0.501   0.215  0.00  0.00     0.017 A 
ATOM      5  C4  UNL d   1       1.395  -1.020   0.888  0.00  0.00     0.017 A 
ATOM      6  C5  UNL d   1       1.527  -0.825   2.266  0.00  0.00     0.034 A 
ATOM      7 Cl   UNL d   1       2.637  -1.910   0.079  0.00  0.00    -0.070 Cl
ATOM      8 Cl1  UNL d   1       0.051  -0.700  -1.486  0.00  0.00    -0.070 Cl
ENDROOT
TORSDOF 0
ENDMDL
