MODEL 1
REMARK minimizedAffinity -3.89846587
REMARK minimizedRMSD -1
REMARK  0 active torsions:
REMARK  status: ('A' for Active; 'I' for Inactive)
ROOT
ATOM      1  C   UNL d   1       1.125  -0.470   2.849  0.00  0.00     0.020 A 
ATOM      2  C1  UNL d   1      -0.094   0.081   2.455  0.00  0.00     0.020 A 
ATOM      3  C2  UNL d   1      -0.511  -0.023   1.126  0.00  0.00     0.034 A 
ATOM      4  C3  UNL d   1       0.292  -0.679   0.186  0.00  0.00     0.017 A 
ATOM      5  C4  UNL d   1       1.515  -1.232   0.582  0.00  0.00     0.017 A 
ATOM      6  C5  UNL d   1       1.928  -1.125   1.914  0.00  0.00     0.034 A 
ATOM      7 Cl   UNL d   1       2.560  -2.056  -0.520  0.00  0.00    -0.070 Cl
ATOM      8 Cl1  UNL d   1      -0.286  -0.770  -1.440  0.00  0.00    -0.070 Cl
ENDROOT
TORSDOF 0
ENDMDL
