MODEL 1
REMARK minimizedAffinity -3.41630721
REMARK minimizedRMSD -1
REMARK  0 active torsions:
REMARK  status: ('A' for Active; 'I' for Inactive)
ROOT
ATOM      1  C   UNL d   1       0.905  -1.904   1.819  0.00  0.00     0.020 A 
ATOM      2  C1  UNL d   1      -0.005  -0.875   2.056  0.00  0.00     0.020 A 
ATOM      3  C2  UNL d   1      -0.441  -0.071   1.001  0.00  0.00     0.034 A 
ATOM      4  C3  UNL d   1       0.035  -0.294  -0.297  0.00  0.00     0.017 A 
ATOM      5  C4  UNL d   1       0.949  -1.327  -0.534  0.00  0.00     0.017 A 
ATOM      6  C5  UNL d   1       1.381  -2.129   0.527  0.00  0.00     0.034 A 
ATOM      7 Cl   UNL d   1       1.580  -1.663  -2.107  0.00  0.00    -0.070 Cl
ATOM      8 Cl1  UNL d   1      -0.547   0.739  -1.554  0.00  0.00    -0.070 Cl
ENDROOT
TORSDOF 0
ENDMDL
