MODEL 1
REMARK minimizedAffinity -2.48766756
REMARK minimizedRMSD -1
REMARK  0 active torsions:
REMARK  status: ('A' for Active; 'I' for Inactive)
ROOT
ATOM      1  C   UNL d   1       0.304  -0.786   3.211  0.00  0.00     0.020 A 
ATOM      2  C1  UNL d   1       1.434  -1.599   3.296  0.00  0.00     0.020 A 
ATOM      3  C2  UNL d   1       2.199  -1.852   2.156  0.00  0.00     0.034 A 
ATOM      4  C3  UNL d   1       1.836  -1.291   0.926  0.00  0.00     0.017 A 
ATOM      5  C4  UNL d   1       0.702  -0.475   0.841  0.00  0.00     0.017 A 
ATOM      6  C5  UNL d   1      -0.061  -0.225   1.986  0.00  0.00     0.034 A 
ATOM      7 Cl   UNL d   1       0.192   0.252  -0.641  0.00  0.00    -0.070 Cl
ATOM      8 Cl1  UNL d   1       2.829  -1.646  -0.443  0.00  0.00    -0.070 Cl
ENDROOT
TORSDOF 0
ENDMDL
