MODEL 1
REMARK minimizedAffinity -4.39457321
REMARK minimizedRMSD -1
REMARK  0 active torsions:
REMARK  status: ('A' for Active; 'I' for Inactive)
ROOT
ATOM      1  C   UNL d   1       1.534   1.129   1.491  0.00  0.00     0.020 A 
ATOM      2  C1  UNL d   1       2.147   0.240   2.374  0.00  0.00     0.020 A 
ATOM      3  C2  UNL d   1       2.211  -1.120   2.063  0.00  0.00     0.034 A 
ATOM      4  C3  UNL d   1       1.662  -1.595   0.867  0.00  0.00     0.017 A 
ATOM      5  C4  UNL d   1       1.047  -0.702  -0.019  0.00  0.00     0.017 A 
ATOM      6  C5  UNL d   1       0.985   0.658   0.297  0.00  0.00     0.034 A 
ATOM      7 Cl   UNL d   1       0.346  -1.214  -1.514  0.00  0.00    -0.070 Cl
ATOM      8 Cl1  UNL d   1       1.777  -3.289   0.547  0.00  0.00    -0.070 Cl
ENDROOT
TORSDOF 0
ENDMDL
