MODEL 1
REMARK minimizedAffinity -0.631686628
REMARK minimizedRMSD -1
REMARK  0 active torsions:
REMARK  status: ('A' for Active; 'I' for Inactive)
ROOT
ATOM      1  C   UNL d   1      -1.461   0.487   0.526  0.00  0.00     0.020 A 
ATOM      2  C1  UNL d   1      -0.594   0.266   1.595  0.00  0.00     0.020 A 
ATOM      3  C2  UNL d   1       0.566  -0.490   1.408  0.00  0.00     0.034 A 
ATOM      4  C3  UNL d   1       0.861  -1.026   0.150  0.00  0.00     0.017 A 
ATOM      5  C4  UNL d   1      -0.009  -0.803  -0.923  0.00  0.00     0.017 A 
ATOM      6  C5  UNL d   1      -1.169  -0.046  -0.731  0.00  0.00     0.034 A 
ATOM      7 Cl   UNL d   1       0.288  -1.432  -2.505  0.00  0.00    -0.070 Cl
ATOM      8 Cl1  UNL d   1       2.313  -1.950  -0.009  0.00  0.00    -0.070 Cl
ENDROOT
TORSDOF 0
ENDMDL
