MODEL 1
REMARK minimizedAffinity -4.06703758
REMARK minimizedRMSD -1
REMARK  0 active torsions:
REMARK  status: ('A' for Active; 'I' for Inactive)
ROOT
ATOM      1  O1  BZF d   1       1.332  -1.177   1.008  0.00  0.00    -0.204 OA
ATOM      2  C2  BZF d   1       1.056  -1.331   2.353  0.00  0.00     0.174 A 
ATOM      3  C3  BZF d   1      -0.008  -0.584   2.711  0.00  0.00    -0.012 A 
ATOM      4  C3A BZF d   1      -0.480   0.007   1.496  0.00  0.00    -0.107 A 
ATOM      5  C4  BZF d   1      -1.520   0.840   1.199  0.00  0.00     0.055 A 
ATOM      6  C5  BZF d   1      -1.662   1.291  -0.075  0.00  0.00    -0.016 A 
ATOM      7  C6  BZF d   1      -0.781   0.933  -1.074  0.00  0.00     0.022 A 
ATOM      8  C7  BZF d   1       0.263   0.104  -0.829  0.00  0.00     0.029 A 
ATOM      9  C7A BZF d   1       0.390  -0.379   0.451  0.00  0.00     0.058 A 
ENDROOT
TORSDOF 0
ENDMDL
