MODEL 1
REMARK minimizedAffinity -1.4852165
REMARK minimizedRMSD -1
REMARK  0 active torsions:
REMARK  status: ('A' for Active; 'I' for Inactive)
ROOT
ATOM      1  O1  BZF d   1       0.935   1.201  -3.292  0.00  0.00    -0.204 OA
ATOM      2  C2  BZF d   1       0.639  -0.123  -3.035  0.00  0.00     0.174 A 
ATOM      3  C3  BZF d   1      -0.550  -0.236  -2.409  0.00  0.00    -0.012 A 
ATOM      4  C3A BZF d   1      -1.071   1.096  -2.349  0.00  0.00    -0.107 A 
ATOM      5  C4  BZF d   1      -2.227   1.630  -1.857  0.00  0.00     0.055 A 
ATOM      6  C5  BZF d   1      -2.397   2.978  -1.888  0.00  0.00    -0.016 A 
ATOM      7  C6  BZF d   1      -1.431   3.820  -2.398  0.00  0.00     0.022 A 
ATOM      8  C7  BZF d   1      -0.270   3.336  -2.902  0.00  0.00     0.029 A 
ATOM      9  C7A BZF d   1      -0.109   1.972  -2.903  0.00  0.00     0.058 A 
ENDROOT
TORSDOF 0
ENDMDL
