MODEL 1
REMARK minimizedAffinity -4.38629723
REMARK minimizedRMSD -1
REMARK  0 active torsions:
REMARK  status: ('A' for Active; 'I' for Inactive)
ROOT
ATOM      1  O1  BZF d   1       0.671  -0.535  -1.511  0.00  0.00    -0.204 OA
ATOM      2  C2  BZF d   1      -0.197   0.445  -1.951  0.00  0.00     0.174 A 
ATOM      3  C3  BZF d   1      -0.800   1.053  -0.909  0.00  0.00    -0.012 A 
ATOM      4  C3A BZF d   1      -0.206   0.476   0.258  0.00  0.00    -0.107 A 
ATOM      5  C4  BZF d   1      -0.378   0.680   1.597  0.00  0.00     0.055 A 
ATOM      6  C5  BZF d   1       0.304  -0.099   2.477  0.00  0.00    -0.016 A 
ATOM      7  C6  BZF d   1       1.161  -1.094   2.053  0.00  0.00     0.022 A 
ATOM      8  C7  BZF d   1       1.367  -1.331   0.734  0.00  0.00     0.029 A 
ATOM      9  C7A BZF d   1       0.704  -0.523  -0.157  0.00  0.00     0.058 A 
ENDROOT
TORSDOF 0
ENDMDL
