MODEL 1
REMARK minimizedAffinity -1.9023788
REMARK minimizedRMSD -1
REMARK  0 active torsions:
REMARK  status: ('A' for Active; 'I' for Inactive)
ROOT
ATOM      1  O1  BZF d   1       2.310  -2.109  -0.294  0.00  0.00    -0.204 OA
ATOM      2  C2  BZF d   1       2.828  -2.977   0.648  0.00  0.00     0.174 A 
ATOM      3  C3  BZF d   1       2.193  -2.835   1.829  0.00  0.00    -0.012 A 
ATOM      4  C3A BZF d   1       1.155  -1.880   1.587  0.00  0.00    -0.107 A 
ATOM      5  C4  BZF d   1       0.177  -1.337   2.370  0.00  0.00     0.055 A 
ATOM      6  C5  BZF d   1      -0.629  -0.376   1.847  0.00  0.00    -0.016 A 
ATOM      7  C6  BZF d   1      -0.483   0.069   0.550  0.00  0.00     0.022 A 
ATOM      8  C7  BZF d   1       0.470  -0.444  -0.267  0.00  0.00     0.029 A 
ATOM      9  C7A BZF d   1       1.265  -1.439   0.248  0.00  0.00     0.058 A 
ENDROOT
TORSDOF 0
ENDMDL
