MODEL 1
REMARK minimizedAffinity -3.44448304
REMARK minimizedRMSD -1
REMARK  0 active torsions:
REMARK  status: ('A' for Active; 'I' for Inactive)
ROOT
ATOM      1  O1  BZF d   1       0.808   1.082   0.175  0.00  0.00    -0.204 OA
ATOM      2  C2  BZF d   1       0.290  -0.139   0.560  0.00  0.00     0.174 A 
ATOM      3  C3  BZF d   1      -0.789  -0.457  -0.185  0.00  0.00    -0.012 A 
ATOM      4  C3A BZF d   1      -0.900   0.590  -1.153  0.00  0.00    -0.107 A 
ATOM      5  C4  BZF d   1      -1.765   0.830  -2.182  0.00  0.00     0.055 A 
ATOM      6  C5  BZF d   1      -1.643   1.982  -2.893  0.00  0.00    -0.016 A 
ATOM      7  C6  BZF d   1      -0.672   2.917  -2.599  0.00  0.00     0.022 A 
ATOM      8  C7  BZF d   1       0.212   2.721  -1.590  0.00  0.00     0.029 A 
ATOM      9  C7A BZF d   1       0.112   1.543  -0.891  0.00  0.00     0.058 A 
ENDROOT
TORSDOF 0
ENDMDL
