MODEL 1
REMARK minimizedAffinity -4.68233252
REMARK minimizedRMSD -1
REMARK  0 active torsions:
REMARK  status: ('A' for Active; 'I' for Inactive)
ROOT
ATOM      1  O1  BZF d   1       1.519   1.109  -0.568  0.00  0.00    -0.204 OA
ATOM      2  C2  BZF d   1       0.927  -0.137  -0.501  0.00  0.00     0.174 A 
ATOM      3  C3  BZF d   1      -0.269  -0.132  -1.123  0.00  0.00    -0.012 A 
ATOM      4  C3A BZF d   1      -0.393   1.176  -1.690  0.00  0.00    -0.107 A 
ATOM      5  C4  BZF d   1      -1.357   1.786  -2.442  0.00  0.00     0.055 A 
ATOM      6  C5  BZF d   1      -1.206   3.095  -2.772  0.00  0.00    -0.016 A 
ATOM      7  C6  BZF d   1      -0.109   3.826  -2.364  0.00  0.00     0.022 A 
ATOM      8  C7  BZF d   1       0.875   3.263  -1.621  0.00  0.00     0.029 A 
ATOM      9  C7A BZF d   1       0.742   1.931  -1.314  0.00  0.00     0.058 A 
ENDROOT
TORSDOF 0
ENDMDL
