MODEL 1
REMARK minimizedAffinity -1.39852393
REMARK minimizedRMSD -1
REMARK  0 active torsions:
REMARK  status: ('A' for Active; 'I' for Inactive)
ROOT
ATOM      1  O1  BZF d   1       0.924  -0.595  -1.019  0.00  0.00    -0.204 OA
ATOM      2  C2  BZF d   1      -0.114   0.315  -0.977  0.00  0.00     0.174 A 
ATOM      3  C3  BZF d   1      -0.711   0.304   0.232  0.00  0.00    -0.012 A 
ATOM      4  C3A BZF d   1       0.057  -0.608   1.023  0.00  0.00    -0.107 A 
ATOM      5  C4  BZF d   1      -0.030  -1.031   2.318  0.00  0.00     0.055 A 
ATOM      6  C5  BZF d   1       0.831  -1.985   2.761  0.00  0.00    -0.016 A 
ATOM      7  C6  BZF d   1       1.787  -2.539   1.935  0.00  0.00     0.022 A 
ATOM      8  C7  BZF d   1       1.916  -2.148   0.644  0.00  0.00     0.029 A 
ATOM      9  C7A BZF d   1       1.068  -1.161   0.203  0.00  0.00     0.058 A 
ENDROOT
TORSDOF 0
ENDMDL
