MODEL 1
REMARK minimizedAffinity 0.559457839
REMARK minimizedRMSD -1
REMARK  0 active torsions:
REMARK  status: ('A' for Active; 'I' for Inactive)
ROOT
ATOM      1  O1  BZF d   1       0.073  -0.871  -1.163  0.00  0.00    -0.204 OA
ATOM      2  C2  BZF d   1      -0.062   0.351  -1.793  0.00  0.00     0.174 A 
ATOM      3  C3  BZF d   1      -0.488   1.291  -0.926  0.00  0.00    -0.012 A 
ATOM      4  C3A BZF d   1      -0.539   0.636   0.345  0.00  0.00    -0.107 A 
ATOM      5  C4  BZF d   1      -0.874   1.051   1.603  0.00  0.00     0.055 A 
ATOM      6  C5  BZF d   1      -0.890   0.144   2.615  0.00  0.00    -0.016 A 
ATOM      7  C6  BZF d   1      -0.583  -1.184   2.404  0.00  0.00     0.022 A 
ATOM      8  C7  BZF d   1      -0.240  -1.642   1.175  0.00  0.00     0.029 A 
ATOM      9  C7A BZF d   1      -0.191  -0.721   0.157  0.00  0.00     0.058 A 
ENDROOT
TORSDOF 0
ENDMDL
