MODEL 1
REMARK minimizedAffinity 1.96776104
REMARK minimizedRMSD -1
REMARK  0 active torsions:
REMARK  status: ('A' for Active; 'I' for Inactive)
ROOT
ATOM      1  C   UNL d   1      -5.915   1.495  -5.075  0.00  0.00     0.023 A 
ATOM      2  C1  UNL d   1      -4.908   1.337  -4.122  0.00  0.00     0.003 A 
ATOM      3  C2  UNL d   1      -3.831   2.225  -4.089  0.00  0.00     0.048 A 
ATOM      4  C3  UNL d   1      -3.767   3.269  -5.011  0.00  0.00     0.023 A 
ATOM      5  C4  UNL d   1      -4.773   3.432  -5.965  0.00  0.00     0.048 A 
ATOM      6  C5  UNL d   1      -5.847   2.541  -5.995  0.00  0.00     0.003 A 
ATOM      7  I   UNL d   1      -2.165   4.592  -4.963  0.00  0.00    -0.146 I 
ENDROOT
TORSDOF 0
ENDMDL
