MODEL 1
REMARK minimizedAffinity 0.785413444
REMARK minimizedRMSD -1
REMARK  0 active torsions:
REMARK  status: ('A' for Active; 'I' for Inactive)
ROOT
ATOM      1  C   UNL d   1       0.310   2.299   0.345  0.00  0.00     0.023 A 
ATOM      2  C1  UNL d   1      -0.057   2.621   1.652  0.00  0.00     0.003 A 
ATOM      3  C2  UNL d   1      -0.013   1.646   2.651  0.00  0.00     0.048 A 
ATOM      4  C3  UNL d   1       0.400   0.352   2.337  0.00  0.00     0.023 A 
ATOM      5  C4  UNL d   1       0.769   0.025   1.031  0.00  0.00     0.048 A 
ATOM      6  C5  UNL d   1       0.723   1.003   0.035  0.00  0.00     0.003 A 
ATOM      7  I   UNL d   1       0.466  -1.100   3.822  0.00  0.00    -0.146 I 
ENDROOT
TORSDOF 0
ENDMDL
