MODEL 1
REMARK minimizedAffinity 7.5472331
REMARK minimizedRMSD -1
REMARK  0 active torsions:
REMARK  status: ('A' for Active; 'I' for Inactive)
ROOT
ATOM      1  C   UNL d   1      -5.959   2.713  -5.946  0.00  0.00     0.023 A 
ATOM      2  C1  UNL d   1      -5.232   3.800  -5.460  0.00  0.00     0.003 A 
ATOM      3  C2  UNL d   1      -4.296   3.615  -4.440  0.00  0.00     0.048 A 
ATOM      4  C3  UNL d   1      -4.091   2.341  -3.912  0.00  0.00     0.023 A 
ATOM      5  C4  UNL d   1      -4.816   1.251  -4.396  0.00  0.00     0.048 A 
ATOM      6  C5  UNL d   1      -5.751   1.440  -5.415  0.00  0.00     0.003 A 
ATOM      7  I   UNL d   1      -2.699   2.064  -2.394  0.00  0.00    -0.146 I 
ENDROOT
TORSDOF 0
ENDMDL
