MODEL 1
REMARK minimizedAffinity 2.53780413
REMARK minimizedRMSD -1
REMARK  0 active torsions:
REMARK  status: ('A' for Active; 'I' for Inactive)
ROOT
ATOM      1  C   UNL d   1      -5.990   1.155  -3.407  0.00  0.00     0.023 A 
ATOM      2  C1  UNL d   1      -5.477   2.276  -2.755  0.00  0.00     0.003 A 
ATOM      3  C2  UNL d   1      -4.971   3.346  -3.496  0.00  0.00     0.048 A 
ATOM      4  C3  UNL d   1      -4.983   3.289  -4.890  0.00  0.00     0.023 A 
ATOM      5  C4  UNL d   1      -5.496   2.169  -5.546  0.00  0.00     0.048 A 
ATOM      6  C5  UNL d   1      -6.000   1.101  -4.801  0.00  0.00     0.003 A 
ATOM      7  I   UNL d   1      -4.232   4.880  -5.995  0.00  0.00    -0.146 I 
ENDROOT
TORSDOF 0
ENDMDL
