MODEL 1
REMARK minimizedAffinity 0.456193984
REMARK minimizedRMSD -1
REMARK  0 active torsions:
REMARK  status: ('A' for Active; 'I' for Inactive)
ROOT
ATOM      1  C   UNL d   1      -2.255   4.611  -5.213  0.00  0.00     0.023 A 
ATOM      2  C1  UNL d   1      -3.407   4.638  -5.999  0.00  0.00     0.003 A 
ATOM      3  C2  UNL d   1      -4.483   3.802  -5.694  0.00  0.00     0.048 A 
ATOM      4  C3  UNL d   1      -4.400   2.941  -4.599  0.00  0.00     0.023 A 
ATOM      5  C4  UNL d   1      -3.250   2.911  -3.809  0.00  0.00     0.048 A 
ATOM      6  C5  UNL d   1      -2.176   3.748  -4.120  0.00  0.00     0.003 A 
ATOM      7  I   UNL d   1      -6.000   1.696  -4.142  0.00  0.00    -0.146 I 
ENDROOT
TORSDOF 0
ENDMDL
