MODEL 1
REMARK minimizedAffinity 2.95476174
REMARK minimizedRMSD -1
REMARK  0 active torsions:
REMARK  status: ('A' for Active; 'I' for Inactive)
ROOT
ATOM      1  C   UNL d   1       1.781   3.744   3.977  0.00  0.00     0.023 A 
ATOM      2  C1  UNL d   1       1.417   4.350   2.775  0.00  0.00     0.003 A 
ATOM      3  C2  UNL d   1       1.054   3.566   1.678  0.00  0.00     0.048 A 
ATOM      4  C3  UNL d   1       1.056   2.176   1.790  0.00  0.00     0.023 A 
ATOM      5  C4  UNL d   1       1.419   1.565   2.992  0.00  0.00     0.048 A 
ATOM      6  C5  UNL d   1       1.782   2.353   4.086  0.00  0.00     0.003 A 
ATOM      7  I   UNL d   1       0.517   1.007   0.159  0.00  0.00    -0.146 I 
ENDROOT
TORSDOF 0
ENDMDL
