MODEL 1
REMARK minimizedAffinity 2.97813869
REMARK minimizedRMSD -1
REMARK  0 active torsions:
REMARK  status: ('A' for Active; 'I' for Inactive)
ROOT
ATOM      1  C   UNL d   1       0.006   1.870   0.312  0.00  0.00     0.023 A 
ATOM      2  C1  UNL d   1       0.016   2.203   1.666  0.00  0.00     0.003 A 
ATOM      3  C2  UNL d   1       0.374   1.248   2.619  0.00  0.00     0.048 A 
ATOM      4  C3  UNL d   1       0.722  -0.039   2.211  0.00  0.00     0.023 A 
ATOM      5  C4  UNL d   1       0.715  -0.377   0.857  0.00  0.00     0.048 A 
ATOM      6  C5  UNL d   1       0.355   0.581  -0.092  0.00  0.00     0.003 A 
ATOM      7  I   UNL d   1       1.256  -1.463   3.628  0.00  0.00    -0.146 I 
ENDROOT
TORSDOF 0
ENDMDL
