MODEL 1
REMARK minimizedAffinity 4.61581516
REMARK minimizedRMSD -1
REMARK  0 active torsions:
REMARK  status: ('A' for Active; 'I' for Inactive)
ROOT
ATOM      1  C   UNL d   1      -5.621   1.946  -5.478  0.00  0.00     0.023 A 
ATOM      2  C1  UNL d   1      -4.719   1.540  -4.495  0.00  0.00     0.003 A 
ATOM      3  C2  UNL d   1      -3.742   2.424  -4.033  0.00  0.00     0.048 A 
ATOM      4  C3  UNL d   1      -3.674   3.715  -4.558  0.00  0.00     0.023 A 
ATOM      5  C4  UNL d   1      -4.576   4.126  -5.540  0.00  0.00     0.048 A 
ATOM      6  C5  UNL d   1      -5.550   3.237  -6.000  0.00  0.00     0.003 A 
ATOM      7  I   UNL d   1      -2.222   5.034  -3.872  0.00  0.00    -0.146 I 
ENDROOT
TORSDOF 0
ENDMDL
