MODEL 1
REMARK minimizedAffinity -2.36392975
REMARK minimizedRMSD -1
REMARK  0 active torsions:
REMARK  status: ('A' for Active; 'I' for Inactive)
ROOT
ATOM      1  C   UNL d   1      -4.484   3.112  -4.398  0.00  0.00     0.023 A 
ATOM      2  C1  UNL d   1      -4.481   3.746  -5.640  0.00  0.00     0.003 A 
ATOM      3  C2  UNL d   1      -3.417   4.576  -6.000  0.00  0.00     0.048 A 
ATOM      4  C3  UNL d   1      -2.358   4.766  -5.113  0.00  0.00     0.023 A 
ATOM      5  C4  UNL d   1      -2.356   4.132  -3.869  0.00  0.00     0.048 A 
ATOM      6  C5  UNL d   1      -3.422   3.305  -3.513  0.00  0.00     0.003 A 
ATOM      7  I   UNL d   1      -0.773   6.000  -5.646  0.00  0.00    -0.146 I 
ENDROOT
TORSDOF 0
ENDMDL
