MODEL 1
REMARK minimizedAffinity 4.90968561
REMARK minimizedRMSD -1
REMARK  0 active torsions:
REMARK  status: ('A' for Active; 'I' for Inactive)
ROOT
ATOM      1  C   UNL d   1      -2.258   3.753  -2.887  0.00  0.00     0.023 A 
ATOM      2  C1  UNL d   1      -2.167   4.537  -4.037  0.00  0.00     0.003 A 
ATOM      3  C2  UNL d   1      -3.239   4.596  -4.930  0.00  0.00     0.048 A 
ATOM      4  C3  UNL d   1      -4.399   3.868  -4.667  0.00  0.00     0.023 A 
ATOM      5  C4  UNL d   1      -4.495   3.083  -3.517  0.00  0.00     0.048 A 
ATOM      6  C5  UNL d   1      -3.421   3.026  -2.627  0.00  0.00     0.003 A 
ATOM      7  I   UNL d   1      -5.995   3.954  -5.995  0.00  0.00    -0.146 I 
ENDROOT
TORSDOF 0
ENDMDL
