MODEL 1
REMARK minimizedAffinity 0.595221221
REMARK minimizedRMSD -1
REMARK  0 active torsions:
REMARK  status: ('A' for Active; 'I' for Inactive)
ROOT
ATOM      1  C   UNL d   1      -6.000   2.936  -5.169  0.00  0.00     0.023 A 
ATOM      2  C1  UNL d   1      -5.879   4.146  -5.852  0.00  0.00     0.003 A 
ATOM      3  C2  UNL d   1      -4.626   4.745  -6.000  0.00  0.00     0.048 A 
ATOM      4  C3  UNL d   1      -3.498   4.127  -5.463  0.00  0.00     0.023 A 
ATOM      5  C4  UNL d   1      -3.613   2.915  -4.779  0.00  0.00     0.048 A 
ATOM      6  C5  UNL d   1      -4.868   2.321  -4.634  0.00  0.00     0.003 A 
ATOM      7  I   UNL d   1      -1.632   5.016  -5.681  0.00  0.00    -0.146 I 
ENDROOT
TORSDOF 0
ENDMDL
