MODEL 1
REMARK minimizedAffinity -1.10362542
REMARK minimizedRMSD -1
REMARK  0 active torsions:
REMARK  status: ('A' for Active; 'I' for Inactive)
ROOT
ATOM      1  C   UNL d   1      -6.000   3.301  -4.919  0.00  0.00     0.023 A 
ATOM      2  C1  UNL d   1      -5.624   4.136  -5.971  0.00  0.00     0.003 A 
ATOM      3  C2  UNL d   1      -4.343   4.692  -6.000  0.00  0.00     0.048 A 
ATOM      4  C3  UNL d   1      -3.443   4.407  -4.974  0.00  0.00     0.023 A 
ATOM      5  C4  UNL d   1      -3.814   3.571  -3.920  0.00  0.00     0.048 A 
ATOM      6  C5  UNL d   1      -5.096   3.019  -3.895  0.00  0.00     0.003 A 
ATOM      7  I   UNL d   1      -1.536   5.232  -5.015  0.00  0.00    -0.146 I 
ENDROOT
TORSDOF 0
ENDMDL
