MODEL 1
REMARK minimizedAffinity -0.0491886735
REMARK minimizedRMSD -1
REMARK  0 active torsions:
REMARK  status: ('A' for Active; 'I' for Inactive)
ROOT
ATOM      1  C   UNL d   1      -1.468   4.107  -4.375  0.00  0.00     0.023 A 
ATOM      2  C1  UNL d   1      -1.905   4.761  -5.527  0.00  0.00     0.003 A 
ATOM      3  C2  UNL d   1      -3.205   4.560  -5.995  0.00  0.00     0.048 A 
ATOM      4  C3  UNL d   1      -4.064   3.705  -5.305  0.00  0.00     0.023 A 
ATOM      5  C4  UNL d   1      -3.632   3.050  -4.151  0.00  0.00     0.048 A 
ATOM      6  C5  UNL d   1      -2.331   3.253  -3.688  0.00  0.00     0.003 A 
ATOM      7  I   UNL d   1      -6.000   3.406  -6.000  0.00  0.00    -0.146 I 
ENDROOT
TORSDOF 0
ENDMDL
