MODEL 1
REMARK minimizedAffinity -4.10765314
REMARK minimizedRMSD -1
REMARK  0 active torsions:
REMARK  status: ('A' for Active; 'I' for Inactive)
ROOT
ATOM      1  C1  DEN d   1      -0.541   2.850  -0.294  0.00  0.00     0.130 A 
ATOM      2  C2  DEN d   1      -1.484   3.763   0.346  0.00  0.00    -0.031 A 
ATOM      3  C3  DEN d   1      -2.224   3.006   1.376  0.00  0.00     0.027 A 
ATOM      4  C4  DEN d   1      -1.998   0.524   2.041  0.00  0.00     0.027 A 
ATOM      5  C5  DEN d   1      -1.339  -0.655   1.771  0.00  0.00    -0.003 A 
ATOM      6  C6  DEN d   1      -0.399  -0.755   0.779  0.00  0.00     0.001 A 
ATOM      7  C7  DEN d   1      -0.060   0.354   0.051  0.00  0.00     0.017 A 
ATOM      8  C8  DEN d   1      -0.726   1.544   0.312  0.00  0.00    -0.094 A 
ATOM      9  C9  DEN d   1      -1.664   1.629   1.327  0.00  0.00    -0.072 A 
ENDROOT
TORSDOF 0
ENDMDL
