MODEL 1
REMARK minimizedAffinity -3.31234646
REMARK minimizedRMSD -1
REMARK  0 active torsions:
REMARK  status: ('A' for Active; 'I' for Inactive)
ROOT
ATOM      1  C1  DEN d   1      -0.319  -0.578   0.689  0.00  0.00     0.130 A 
ATOM      2  C2  DEN d   1       0.430  -0.627  -0.563  0.00  0.00    -0.031 A 
ATOM      3  C3  DEN d   1       0.624   0.759  -1.034  0.00  0.00     0.027 A 
ATOM      4  C4  DEN d   1      -0.153   2.965   0.052  0.00  0.00     0.027 A 
ATOM      5  C5  DEN d   1      -0.833   3.514   1.117  0.00  0.00    -0.003 A 
ATOM      6  C6  DEN d   1      -1.414   2.742   2.088  0.00  0.00     0.001 A 
ATOM      7  C7  DEN d   1      -1.287   1.379   2.038  0.00  0.00     0.017 A 
ATOM      8  C8  DEN d   1      -0.609   0.818   0.963  0.00  0.00    -0.094 A 
ATOM      9  C9  DEN d   1      -0.018   1.616  -0.001  0.00  0.00    -0.072 A 
ENDROOT
TORSDOF 0
ENDMDL
