MODEL 1
REMARK minimizedAffinity -4.05403233
REMARK minimizedRMSD -1
REMARK  0 active torsions:
REMARK  status: ('A' for Active; 'I' for Inactive)
ROOT
ATOM      1  C1  DEN d   1       0.345   0.429  -0.419  0.00  0.00     0.130 A 
ATOM      2  C2  DEN d   1       0.446  -0.812   0.344  0.00  0.00    -0.031 A 
ATOM      3  C3  DEN d   1      -0.441  -0.699   1.519  0.00  0.00     0.027 A 
ATOM      4  C4  DEN d   1      -1.957   1.265   2.224  0.00  0.00     0.027 A 
ATOM      5  C5  DEN d   1      -2.369   2.538   1.898  0.00  0.00    -0.003 A 
ATOM      6  C6  DEN d   1      -1.883   3.205   0.805  0.00  0.00     0.001 A 
ATOM      7  C7  DEN d   1      -0.990   2.584  -0.028  0.00  0.00     0.017 A 
ATOM      8  C8  DEN d   1      -0.565   1.303   0.298  0.00  0.00    -0.094 A 
ATOM      9  C9  DEN d   1      -1.077   0.641   1.401  0.00  0.00    -0.072 A 
ENDROOT
TORSDOF 0
ENDMDL
