MODEL 1
REMARK minimizedAffinity -5.31777668
REMARK minimizedRMSD -1
REMARK  0 active torsions:
REMARK  status: ('A' for Active; 'I' for Inactive)
ROOT
ATOM      1  C1  DEN d   1       0.568   0.344  -0.605  0.00  0.00     0.130 A 
ATOM      2  C2  DEN d   1       0.256  -0.853   0.171  0.00  0.00    -0.031 A 
ATOM      3  C3  DEN d   1      -0.570  -0.446   1.325  0.00  0.00     0.027 A 
ATOM      4  C4  DEN d   1      -1.397   1.907   1.980  0.00  0.00     0.027 A 
ATOM      5  C5  DEN d   1      -1.378   3.240   1.634  0.00  0.00    -0.003 A 
ATOM      6  C6  DEN d   1      -0.687   3.702   0.545  0.00  0.00     0.001 A 
ATOM      7  C7  DEN d   1      -0.022   2.818  -0.262  0.00  0.00     0.017 A 
ATOM      8  C8  DEN d   1      -0.031   1.473   0.084  0.00  0.00    -0.094 A 
ATOM      9  C9  DEN d   1      -0.746   1.024   1.182  0.00  0.00    -0.072 A 
ENDROOT
TORSDOF 0
ENDMDL
