MODEL 1
REMARK minimizedAffinity -4.9861412
REMARK minimizedRMSD -1
REMARK  0 active torsions:
REMARK  status: ('A' for Active; 'I' for Inactive)
ROOT
ATOM      1  C1  DEN d   1      -0.387  -0.097   0.355  0.00  0.00     0.130 A 
ATOM      2  C2  DEN d   1       0.649  -0.143  -0.673  0.00  0.00    -0.031 A 
ATOM      3  C3  DEN d   1       0.888   1.237  -1.142  0.00  0.00     0.027 A 
ATOM      4  C4  DEN d   1      -0.236   3.428  -0.377  0.00  0.00     0.027 A 
ATOM      5  C5  DEN d   1      -1.183   3.970   0.464  0.00  0.00    -0.003 A 
ATOM      6  C6  DEN d   1      -1.949   3.196   1.296  0.00  0.00     0.001 A 
ATOM      7  C7  DEN d   1      -1.749   1.842   1.339  0.00  0.00     0.017 A 
ATOM      8  C8  DEN d   1      -0.801   1.288   0.488  0.00  0.00    -0.094 A 
ATOM      9  C9  DEN d   1      -0.029   2.088  -0.337  0.00  0.00    -0.072 A 
ENDROOT
TORSDOF 0
ENDMDL
