MODEL 1
REMARK minimizedAffinity -5.85240316
REMARK minimizedRMSD -1
REMARK  0 active torsions:
REMARK  status: ('A' for Active; 'I' for Inactive)
ROOT
ATOM      1  C1  DEN d   1      -0.262  -0.566   1.514  0.00  0.00     0.130 A 
ATOM      2  C2  DEN d   1       0.587  -1.037   0.423  0.00  0.00    -0.031 A 
ATOM      3  C3  DEN d   1       0.672   0.037  -0.587  0.00  0.00     0.027 A 
ATOM      4  C4  DEN d   1      -0.420   2.374  -0.564  0.00  0.00     0.027 A 
ATOM      5  C5  DEN d   1      -1.239   3.224   0.147  0.00  0.00    -0.003 A 
ATOM      6  C6  DEN d   1      -1.812   2.860   1.336  0.00  0.00     0.001 A 
ATOM      7  C7  DEN d   1      -1.538   1.630   1.874  0.00  0.00     0.017 A 
ATOM      8  C8  DEN d   1      -0.719   0.765   1.160  0.00  0.00    -0.094 A 
ATOM      9  C9  DEN d   1      -0.140   1.156  -0.035  0.00  0.00    -0.072 A 
ENDROOT
TORSDOF 0
ENDMDL
