MODEL 1
REMARK minimizedAffinity -1.33862722
REMARK minimizedRMSD -1
REMARK  0 active torsions:
REMARK  status: ('A' for Active; 'I' for Inactive)
ROOT
ATOM      1  C1  DEN d   1      -0.724   0.490   1.237  0.00  0.00     0.130 A 
ATOM      2  C2  DEN d   1      -0.434  -0.782   1.893  0.00  0.00    -0.031 A 
ATOM      3  C3  DEN d   1       0.594  -1.482   1.096  0.00  0.00     0.027 A 
ATOM      4  C4  DEN d   1       1.760  -0.721  -1.075  0.00  0.00     0.027 A 
ATOM      5  C5  DEN d   1       1.835   0.281  -2.017  0.00  0.00    -0.003 A 
ATOM      6  C6  DEN d   1       1.044   1.398  -1.960  0.00  0.00     0.001 A 
ATOM      7  C7  DEN d   1       0.175   1.561  -0.914  0.00  0.00     0.017 A 
ATOM      8  C8  DEN d   1       0.089   0.552   0.036  0.00  0.00    -0.094 A 
ATOM      9  C9  DEN d   1       0.906  -0.564  -0.033  0.00  0.00    -0.072 A 
ENDROOT
TORSDOF 0
ENDMDL
