MODEL 1
REMARK minimizedAffinity -6.16247463
REMARK minimizedRMSD -1
REMARK  0 active torsions:
REMARK  status: ('A' for Active; 'I' for Inactive)
ROOT
ATOM      1  C1  DEN d   1       0.975   0.770  -0.718  0.00  0.00     0.130 A 
ATOM      2  C2  DEN d   1       0.692  -0.469   0.000  0.00  0.00    -0.031 A 
ATOM      3  C3  DEN d   1      -0.406  -0.204   0.952  0.00  0.00     0.027 A 
ATOM      4  C4  DEN d   1      -1.691   1.991   1.377  0.00  0.00     0.027 A 
ATOM      5  C5  DEN d   1      -1.799   3.317   1.017  0.00  0.00    -0.003 A 
ATOM      6  C6  DEN d   1      -0.974   3.890   0.086  0.00  0.00     0.001 A 
ATOM      7  C7  DEN d   1      -0.033   3.124  -0.551  0.00  0.00     0.017 A 
ATOM      8  C8  DEN d   1       0.087   1.789  -0.188  0.00  0.00    -0.094 A 
ATOM      9  C9  DEN d   1      -0.765   1.225   0.747  0.00  0.00    -0.072 A 
ENDROOT
TORSDOF 0
ENDMDL
