MODEL 1
REMARK minimizedAffinity -5.82688046
REMARK minimizedRMSD -1
REMARK  0 active torsions:
REMARK  status: ('A' for Active; 'I' for Inactive)
ROOT
ATOM      1  C1  DEN d   1      -0.031  -0.780   0.928  0.00  0.00     0.130 A 
ATOM      2  C2  DEN d   1       0.768  -1.133  -0.242  0.00  0.00    -0.031 A 
ATOM      3  C3  DEN d   1       0.875   0.064  -1.100  0.00  0.00     0.027 A 
ATOM      4  C4  DEN d   1      -0.110   2.419  -0.729  0.00  0.00     0.027 A 
ATOM      5  C5  DEN d   1      -0.871   3.198   0.114  0.00  0.00    -0.003 A 
ATOM      6  C6  DEN d   1      -1.429   2.700   1.262  0.00  0.00     0.001 A 
ATOM      7  C7  DEN d   1      -1.197   1.398   1.620  0.00  0.00     0.017 A 
ATOM      8  C8  DEN d   1      -0.436   0.605   0.771  0.00  0.00    -0.094 A 
ATOM      9  C9  DEN d   1       0.129   1.130  -0.378  0.00  0.00    -0.072 A 
ENDROOT
TORSDOF 0
ENDMDL
