MODEL 1
REMARK minimizedAffinity -6.72288322
REMARK minimizedRMSD -1
REMARK  0 active torsions:
REMARK  status: ('A' for Active; 'I' for Inactive)
ROOT
ATOM      1  C1  DEN d   1      -0.443  -0.817   1.311  0.00  0.00     0.130 A 
ATOM      2  C2  DEN d   1       0.363  -1.242   0.169  0.00  0.00    -0.031 A 
ATOM      3  C3  DEN d   1       0.449  -0.110  -0.775  0.00  0.00     0.027 A 
ATOM      4  C4  DEN d   1      -0.577   2.249  -0.580  0.00  0.00     0.027 A 
ATOM      5  C5  DEN d   1      -1.352   3.074   0.204  0.00  0.00    -0.003 A 
ATOM      6  C6  DEN d   1      -1.902   2.653   1.386  0.00  0.00     0.001 A 
ATOM      7  C7  DEN d   1      -1.648   1.386   1.840  0.00  0.00     0.017 A 
ATOM      8  C8  DEN d   1      -0.873   0.546   1.051  0.00  0.00    -0.094 A 
ATOM      9  C9  DEN d   1      -0.316   0.994  -0.134  0.00  0.00    -0.072 A 
ENDROOT
TORSDOF 0
ENDMDL
