MODEL 1
REMARK minimizedAffinity -6.83827448
REMARK minimizedRMSD -1
REMARK  0 active torsions:
REMARK  status: ('A' for Active; 'I' for Inactive)
ROOT
ATOM      1  C1  DEN d   1       0.618   0.038  -0.366  0.00  0.00     0.130 A 
ATOM      2  C2  DEN d   1       0.370  -1.089   0.529  0.00  0.00    -0.031 A 
ATOM      3  C3  DEN d   1      -0.592  -0.650   1.560  0.00  0.00     0.027 A 
ATOM      4  C4  DEN d   1      -1.720   1.651   1.852  0.00  0.00     0.027 A 
ATOM      5  C5  DEN d   1      -1.814   2.928   1.345  0.00  0.00    -0.003 A 
ATOM      6  C6  DEN d   1      -1.083   3.338   0.261  0.00  0.00     0.001 A 
ATOM      7  C7  DEN d   1      -0.260   2.449  -0.379  0.00  0.00     0.017 A 
ATOM      8  C8  DEN d   1      -0.155   1.162   0.132  0.00  0.00    -0.094 A 
ATOM      9  C9  DEN d   1      -0.911   0.763   1.221  0.00  0.00    -0.072 A 
ENDROOT
TORSDOF 0
ENDMDL
