MODEL 1
REMARK minimizedAffinity -1.7640506
REMARK minimizedRMSD -1
REMARK  0 active torsions:
REMARK  status: ('A' for Active; 'I' for Inactive)
ROOT
ATOM      1  C4' PXY d   1      -2.303   2.459   1.217  0.00  0.00     0.077 C 
ATOM      2  C1' PXY d   1       1.659  -1.352  -0.570  0.00  0.00     0.077 C 
ATOM      3  C1  PXY d   1       0.624  -0.344  -0.111  0.00  0.00    -0.082 A 
ATOM      4  C2  PXY d   1       0.220  -0.349   1.149  0.00  0.00     0.003 A 
ATOM      5  C3  PXY d   1      -0.739   0.534   1.573  0.00  0.00     0.003 A 
ATOM      6  C4  PXY d   1      -1.252   1.466   0.712  0.00  0.00    -0.082 A 
ATOM      7  C5  PXY d   1      -0.838   1.484  -0.573  0.00  0.00     0.003 A 
ATOM      8  C6  PXY d   1       0.106   0.552  -0.994  0.00  0.00     0.003 A 
ENDROOT
TORSDOF 0
ENDMDL
