MODEL 1
REMARK minimizedAffinity -3.38843274
REMARK minimizedRMSD -1
REMARK  0 active torsions:
REMARK  status: ('A' for Active; 'I' for Inactive)
ROOT
ATOM      1  C4' PXY d   1       1.323  -1.288  -0.555  0.00  0.00     0.077 C 
ATOM      2  C1' PXY d   1      -2.636   2.353   1.563  0.00  0.00     0.077 C 
ATOM      3  C1  PXY d   1      -1.596   1.393   1.019  0.00  0.00    -0.082 A 
ATOM      4  C2  PXY d   1      -0.891   1.728  -0.049  0.00  0.00     0.003 A 
ATOM      5  C3  PXY d   1       0.030   0.858  -0.573  0.00  0.00     0.003 A 
ATOM      6  C4  PXY d   1       0.270  -0.346   0.034  0.00  0.00    -0.082 A 
ATOM      7  C5  PXY d   1      -0.438  -0.691   1.131  0.00  0.00     0.003 A 
ATOM      8  C6  PXY d   1      -1.398   0.189   1.623  0.00  0.00     0.003 A 
ENDROOT
TORSDOF 0
ENDMDL
