MODEL 1
REMARK minimizedAffinity -5.07509327
REMARK minimizedRMSD -1
REMARK  0 active torsions:
REMARK  status: ('A' for Active; 'I' for Inactive)
ROOT
ATOM      1  C4' PXY d   1       1.903  -1.921  -0.561  0.00  0.00     0.077 C 
ATOM      2  C1' PXY d   1      -1.907   1.929   1.456  0.00  0.00     0.077 C 
ATOM      3  C1  PXY d   1      -0.905   0.916   0.939  0.00  0.00    -0.082 A 
ATOM      4  C2  PXY d   1      -0.395   1.061  -0.273  0.00  0.00     0.003 A 
ATOM      5  C3  PXY d   1       0.489   0.137  -0.768  0.00  0.00     0.003 A 
ATOM      6  C4  PXY d   1       0.895  -0.918   0.005  0.00  0.00    -0.082 A 
ATOM      7  C5  PXY d   1       0.387  -1.066   1.247  0.00  0.00     0.003 A 
ATOM      8  C6  PXY d   1      -0.540  -0.140   1.716  0.00  0.00     0.003 A 
ENDROOT
TORSDOF 0
ENDMDL
