MODEL 1
REMARK minimizedAffinity -5.72796154
REMARK minimizedRMSD -1
REMARK  0 active torsions:
REMARK  status: ('A' for Active; 'I' for Inactive)
ROOT
ATOM      1  C4' PXY d   1      -1.726   2.543   1.399  0.00  0.00     0.077 C 
ATOM      2  C1' PXY d   1       1.246  -1.929  -0.742  0.00  0.00     0.077 C 
ATOM      3  C1  PXY d   1       0.459  -0.764  -0.174  0.00  0.00    -0.082 A 
ATOM      4  C2  PXY d   1       0.461   0.398  -0.807  0.00  0.00     0.003 A 
ATOM      5  C3  PXY d   1      -0.219   1.470  -0.291  0.00  0.00     0.003 A 
ATOM      6  C4  PXY d   1      -0.953   1.338   0.857  0.00  0.00    -0.082 A 
ATOM      7  C5  PXY d   1      -0.969   0.152   1.503  0.00  0.00     0.003 A 
ATOM      8  C6  PXY d   1      -0.239  -0.913   0.985  0.00  0.00     0.003 A 
ENDROOT
TORSDOF 0
ENDMDL
