MODEL 1
REMARK minimizedAffinity -3.12264109
REMARK minimizedRMSD -1
REMARK  0 active torsions:
REMARK  status: ('A' for Active; 'I' for Inactive)
ROOT
ATOM      1  C4' PXY d   1       1.644  -1.334  -0.625  0.00  0.00     0.077 C 
ATOM      2  C1' PXY d   1      -2.302   2.408   1.333  0.00  0.00     0.077 C 
ATOM      3  C1  PXY d   1      -1.269   1.431   0.807  0.00  0.00    -0.082 A 
ATOM      4  C2  PXY d   1      -1.029   0.313   1.472  0.00  0.00     0.003 A 
ATOM      5  C3  PXY d   1      -0.075  -0.566   1.028  0.00  0.00     0.003 A 
ATOM      6  C4  PXY d   1       0.603  -0.324  -0.137  0.00  0.00    -0.082 A 
ATOM      7  C5  PXY d   1       0.355   0.810  -0.826  0.00  0.00     0.003 A 
ATOM      8  C6  PXY d   1      -0.587   1.710  -0.337  0.00  0.00     0.003 A 
ENDROOT
TORSDOF 0
ENDMDL
