MODEL 1
REMARK minimizedAffinity -3.41287374
REMARK minimizedRMSD -1
REMARK  0 active torsions:
REMARK  status: ('A' for Active; 'I' for Inactive)
ROOT
ATOM      1  C4' PXY d   1       0.449  -1.372   2.838  0.00  0.00     0.077 C 
ATOM      2  C1' PXY d   1      -1.059   2.412  -1.264  0.00  0.00     0.077 C 
ATOM      3  C1  PXY d   1      -0.662   1.411  -0.197  0.00  0.00    -0.082 A 
ATOM      4  C2  PXY d   1      -1.091   1.572   1.044  0.00  0.00     0.003 A 
ATOM      5  C3  PXY d   1      -0.715   0.693   2.027  0.00  0.00     0.003 A 
ATOM      6  C4  PXY d   1       0.065  -0.391   1.727  0.00  0.00    -0.082 A 
ATOM      7  C5  PXY d   1       0.498  -0.568   0.460  0.00  0.00     0.003 A 
ATOM      8  C6  PXY d   1       0.139   0.358  -0.515  0.00  0.00     0.003 A 
ENDROOT
TORSDOF 0
ENDMDL
