MODEL 1
REMARK minimizedAffinity -5.39836073
REMARK minimizedRMSD -1
REMARK  0 active torsions:
REMARK  status: ('A' for Active; 'I' for Inactive)
ROOT
ATOM      1  C4' PXY d   1      -2.497   2.223   1.369  0.00  0.00     0.077 C 
ATOM      2  C1' PXY d   1       1.562  -1.342  -0.687  0.00  0.00     0.077 C 
ATOM      3  C1  PXY d   1       0.496  -0.415  -0.137  0.00  0.00    -0.082 A 
ATOM      4  C2  PXY d   1      -0.179   0.368  -0.963  0.00  0.00     0.003 A 
ATOM      5  C3  PXY d   1      -1.124   1.235  -0.480  0.00  0.00     0.003 A 
ATOM      6  C4  PXY d   1      -1.418   1.265   0.857  0.00  0.00    -0.082 A 
ATOM      7  C5  PXY d   1      -0.741   0.462   1.705  0.00  0.00     0.003 A 
ATOM      8  C6  PXY d   1       0.243  -0.382   1.199  0.00  0.00     0.003 A 
ENDROOT
TORSDOF 0
ENDMDL
