MODEL 1
REMARK minimizedAffinity -4.94337273
REMARK minimizedRMSD -1
REMARK  0 active torsions:
REMARK  status: ('A' for Active; 'I' for Inactive)
ROOT
ATOM      1  C4' PXY d   1       1.331  -1.778  -0.628  0.00  0.00     0.077 C 
ATOM      2  C1' PXY d   1      -1.808   2.487   1.690  0.00  0.00     0.077 C 
ATOM      3  C1  PXY d   1      -0.981   1.365   1.094  0.00  0.00    -0.082 A 
ATOM      4  C2  PXY d   1      -0.598   1.436  -0.171  0.00  0.00     0.003 A 
ATOM      5  C3  PXY d   1       0.124   0.415  -0.735  0.00  0.00     0.003 A 
ATOM      6  C4  PXY d   1       0.503  -0.664   0.018  0.00  0.00    -0.082 A 
ATOM      7  C5  PXY d   1       0.125  -0.738   1.312  0.00  0.00     0.003 A 
ATOM      8  C6  PXY d   1      -0.642   0.289   1.854  0.00  0.00     0.003 A 
ENDROOT
TORSDOF 0
ENDMDL
