MODEL 1
REMARK minimizedAffinity -3.72239113
REMARK minimizedRMSD -1
REMARK  0 active torsions:
REMARK  status: ('A' for Active; 'I' for Inactive)
ROOT
ATOM      1  C4' PXY d   1       2.100  -5.897   0.135  0.00  0.00     0.077 C 
ATOM      2  C1' PXY d   1       0.561  -1.909  -3.757  0.00  0.00     0.077 C 
ATOM      3  C1  PXY d   1       0.969  -2.946  -2.729  0.00  0.00    -0.082 A 
ATOM      4  C2  PXY d   1       1.214  -4.188  -3.113  0.00  0.00     0.003 A 
ATOM      5  C3  PXY d   1       1.553  -5.145  -2.192  0.00  0.00     0.003 A 
ATOM      6  C4  PXY d   1       1.694  -4.815  -0.870  0.00  0.00    -0.082 A 
ATOM      7  C5  PXY d   1       1.456  -3.548  -0.472  0.00  0.00     0.003 A 
ATOM      8  C6  PXY d   1       1.073  -2.600  -1.417  0.00  0.00     0.003 A 
ENDROOT
TORSDOF 0
ENDMDL
