MODEL 1
REMARK minimizedAffinity -4.58679676
REMARK minimizedRMSD -1
REMARK  0 active torsions:
REMARK  status: ('A' for Active; 'I' for Inactive)
ROOT
ATOM      1  C4' PXY d   1      -2.329   2.433   1.658  0.00  0.00     0.077 C 
ATOM      2  C1' PXY d   1       1.511  -1.123  -0.797  0.00  0.00     0.077 C 
ATOM      3  C1  PXY d   1       0.500  -0.200  -0.145  0.00  0.00    -0.082 A 
ATOM      4  C2  PXY d   1       0.065   0.863  -0.803  0.00  0.00     0.003 A 
ATOM      5  C3  PXY d   1      -0.825   1.725  -0.216  0.00  0.00     0.003 A 
ATOM      6  C4  PXY d   1      -1.315   1.469   1.036  0.00  0.00    -0.082 A 
ATOM      7  C5  PXY d   1      -0.885   0.381   1.709  0.00  0.00     0.003 A 
ATOM      8  C6  PXY d   1       0.050  -0.460   1.112  0.00  0.00     0.003 A 
ENDROOT
TORSDOF 0
ENDMDL
