MODEL 1
REMARK minimizedAffinity -3.68747854
REMARK minimizedRMSD -1
REMARK  0 active torsions:
REMARK  status: ('A' for Active; 'I' for Inactive)
ROOT
ATOM      1  C4' PXY d   1       2.641  -5.999   0.143  0.00  0.00     0.077 C 
ATOM      2  C1' PXY d   1       0.074  -1.841  -2.945  0.00  0.00     0.077 C 
ATOM      3  C1  PXY d   1       0.736  -2.938  -2.136  0.00  0.00    -0.082 A 
ATOM      4  C2  PXY d   1       1.742  -2.640  -1.330  0.00  0.00     0.003 A 
ATOM      5  C3  PXY d   1       2.374  -3.626  -0.616  0.00  0.00     0.003 A 
ATOM      6  C4  PXY d   1       1.936  -4.921  -0.686  0.00  0.00    -0.082 A 
ATOM      7  C5  PXY d   1       0.903  -5.231  -1.498  0.00  0.00     0.003 A 
ATOM      8  C6  PXY d   1       0.302  -4.223  -2.246  0.00  0.00     0.003 A 
ENDROOT
TORSDOF 0
ENDMDL
