MODEL 1
REMARK minimizedAffinity -5.07197332
REMARK minimizedRMSD -1
REMARK  0 active torsions:
REMARK  status: ('A' for Active; 'I' for Inactive)
ROOT
ATOM      1  C4' PXY d   1       1.240  -1.394  -0.753  0.00  0.00     0.077 C 
ATOM      2  C1' PXY d   1      -2.298   2.567   1.531  0.00  0.00     0.077 C 
ATOM      3  C1  PXY d   1      -1.366   1.525   0.944  0.00  0.00    -0.082 A 
ATOM      4  C2  PXY d   1      -0.968   1.638  -0.313  0.00  0.00     0.003 A 
ATOM      5  C3  PXY d   1      -0.150   0.688  -0.869  0.00  0.00     0.003 A 
ATOM      6  C4  PXY d   1       0.306  -0.360  -0.116  0.00  0.00    -0.082 A 
ATOM      7  C5  PXY d   1      -0.087  -0.477   1.170  0.00  0.00     0.003 A 
ATOM      8  C6  PXY d   1      -0.950   0.476   1.704  0.00  0.00     0.003 A 
ENDROOT
TORSDOF 0
ENDMDL
