MODEL 1
REMARK minimizedAffinity -2.18970084
REMARK minimizedRMSD -1
REMARK  0 active torsions:
REMARK  status: ('A' for Active; 'I' for Inactive)
ROOT
ATOM      1  C4' PXY d   1       2.116  -5.852   0.234  0.00  0.00     0.077 C 
ATOM      2  C1' PXY d   1      -0.123  -1.821  -3.253  0.00  0.00     0.077 C 
ATOM      3  C1  PXY d   1       0.471  -2.869  -2.332  0.00  0.00    -0.082 A 
ATOM      4  C2  PXY d   1       0.546  -4.127  -2.735  0.00  0.00     0.003 A 
ATOM      5  C3  PXY d   1       1.051  -5.093  -1.903  0.00  0.00     0.003 A 
ATOM      6  C4  PXY d   1       1.533  -4.759  -0.666  0.00  0.00    -0.082 A 
ATOM      7  C5  PXY d   1       1.469  -3.475  -0.251  0.00  0.00     0.003 A 
ATOM      8  C6  PXY d   1       0.915  -2.517  -1.095  0.00  0.00     0.003 A 
ENDROOT
TORSDOF 0
ENDMDL
