MODEL 1
REMARK minimizedAffinity -4.38932753
REMARK minimizedRMSD -1
REMARK  0 active torsions:
REMARK  status: ('A' for Active; 'I' for Inactive)
ROOT
ATOM      1  C4' PXY d   1      -1.086  -1.049   1.851  0.00  0.00     0.077 C 
ATOM      2  C1' PXY d   1      -0.677   4.547   0.461  0.00  0.00     0.077 C 
ATOM      3  C1  PXY d   1      -0.788   3.077   0.813  0.00  0.00    -0.082 A 
ATOM      4  C2  PXY d   1      -0.928   2.717   2.079  0.00  0.00     0.003 A 
ATOM      5  C3  PXY d   1      -0.999   1.390   2.418  0.00  0.00     0.003 A 
ATOM      6  C4  PXY d   1      -0.979   0.425   1.448  0.00  0.00    -0.082 A 
ATOM      7  C5  PXY d   1      -0.847   0.785   0.154  0.00  0.00     0.003 A 
ATOM      8  C6  PXY d   1      -0.736   2.135  -0.167  0.00  0.00     0.003 A 
ENDROOT
TORSDOF 0
ENDMDL
