MODEL 1
REMARK minimizedAffinity -0.777438819
REMARK minimizedRMSD -1
REMARK  0 active torsions:
REMARK  status: ('A' for Active; 'I' for Inactive)
ROOT
ATOM      1  C4' PXY d   1      -0.676   3.807   0.039  0.00  0.00     0.077 C 
ATOM      2  C1' PXY d   1      -1.157  -1.395   2.513  0.00  0.00     0.077 C 
ATOM      3  C1  PXY d   1      -1.043  -0.028   1.869  0.00  0.00    -0.082 A 
ATOM      4  C2  PXY d   1      -0.244   0.140   0.827  0.00  0.00     0.003 A 
ATOM      5  C3  PXY d   1      -0.104   1.377   0.252  0.00  0.00     0.003 A 
ATOM      6  C4  PXY d   1      -0.830   2.442   0.715  0.00  0.00    -0.082 A 
ATOM      7  C5  PXY d   1      -1.655   2.277   1.771  0.00  0.00     0.003 A 
ATOM      8  C6  PXY d   1      -1.752   1.022   2.366  0.00  0.00     0.003 A 
ENDROOT
TORSDOF 0
ENDMDL
