MODEL 1
REMARK minimizedAffinity -3.20516634
REMARK minimizedRMSD -1
REMARK  0 active torsions:
REMARK  status: ('A' for Active; 'I' for Inactive)
ROOT
ATOM      1  C4' PXY d   1       1.236  -3.621  -1.765  0.00  0.00     0.077 C 
ATOM      2  C1' PXY d   1       0.065   1.951  -0.763  0.00  0.00     0.077 C 
ATOM      3  C1  PXY d   1       0.382   0.490  -1.017  0.00  0.00    -0.082 A 
ATOM      4  C2  PXY d   1       0.066  -0.055  -2.181  0.00  0.00     0.003 A 
ATOM      5  C3  PXY d   1       0.316  -1.383  -2.415  0.00  0.00     0.003 A 
ATOM      6  C4  PXY d   1       0.944  -2.147  -1.468  0.00  0.00    -0.082 A 
ATOM      7  C5  PXY d   1       1.279  -1.595  -0.283  0.00  0.00     0.003 A 
ATOM      8  C6  PXY d   1       0.979  -0.256  -0.049  0.00  0.00     0.003 A 
ENDROOT
TORSDOF 0
ENDMDL
