MODEL 1
REMARK minimizedAffinity -5.23272705
REMARK minimizedRMSD -1
REMARK  0 active torsions:
REMARK  status: ('A' for Active; 'I' for Inactive)
ROOT
ATOM      1  C4' PXY d   1       3.029  -0.558  -0.382  0.00  0.00     0.077 C 
ATOM      2  C1' PXY d   1      -2.048   1.531   1.427  0.00  0.00     0.077 C 
ATOM      3  C1  PXY d   1      -0.720   0.987   0.940  0.00  0.00    -0.082 A 
ATOM      4  C2  PXY d   1      -0.119   0.024   1.620  0.00  0.00     0.003 A 
ATOM      5  C3  PXY d   1       1.099  -0.457   1.212  0.00  0.00     0.003 A 
ATOM      6  C4  PXY d   1       1.682   0.015   0.067  0.00  0.00    -0.082 A 
ATOM      7  C5  PXY d   1       1.070   0.990  -0.638  0.00  0.00     0.003 A 
ATOM      8  C6  PXY d   1      -0.146   1.494  -0.185  0.00  0.00     0.003 A 
ENDROOT
TORSDOF 0
ENDMDL
