MODEL 1
REMARK minimizedAffinity -2.814152
REMARK minimizedRMSD -1
REMARK  0 active torsions:
REMARK  status: ('A' for Active; 'I' for Inactive)
ROOT
ATOM      1  C4' PXY d   1       2.250  -6.000   0.000  0.00  0.00     0.077 C 
ATOM      2  C1' PXY d   1       0.002  -2.248  -3.779  0.00  0.00     0.077 C 
ATOM      3  C1  PXY d   1       0.600  -3.223  -2.784  0.00  0.00    -0.082 A 
ATOM      4  C2  PXY d   1       0.493  -4.524  -2.998  0.00  0.00     0.003 A 
ATOM      5  C3  PXY d   1       1.000  -5.420  -2.092  0.00  0.00     0.003 A 
ATOM      6  C4  PXY d   1       1.670  -4.979  -0.983  0.00  0.00    -0.082 A 
ATOM      7  C5  PXY d   1       1.792  -3.653  -0.762  0.00  0.00     0.003 A 
ATOM      8  C6  PXY d   1       1.235  -2.760  -1.673  0.00  0.00     0.003 A 
ENDROOT
TORSDOF 0
ENDMDL
