MODEL 1
REMARK minimizedAffinity -2.93216801
REMARK minimizedRMSD -1
REMARK  0 active torsions:
REMARK  status: ('A' for Active; 'I' for Inactive)
ROOT
ATOM      1  C4' PXY d   1       2.205  -5.899   0.147  0.00  0.00     0.077 C 
ATOM      2  C1' PXY d   1      -0.231  -1.683  -2.968  0.00  0.00     0.077 C 
ATOM      3  C1  PXY d   1       0.396  -2.795  -2.151  0.00  0.00    -0.082 A 
ATOM      4  C2  PXY d   1       1.427  -2.528  -1.366  0.00  0.00     0.003 A 
ATOM      5  C3  PXY d   1       2.027  -3.529  -0.645  0.00  0.00     0.003 A 
ATOM      6  C4  PXY d   1       1.534  -4.805  -0.688  0.00  0.00    -0.082 A 
ATOM      7  C5  PXY d   1       0.476  -5.084  -1.480  0.00  0.00     0.003 A 
ATOM      8  C6  PXY d   1      -0.093  -4.062  -2.235  0.00  0.00     0.003 A 
ENDROOT
TORSDOF 0
ENDMDL
