MODEL 1
REMARK minimizedAffinity -3.28587127
REMARK minimizedRMSD -1
REMARK  0 active torsions:
REMARK  status: ('A' for Active; 'I' for Inactive)
ROOT
ATOM      1  C4' PXY d   1       0.759  -2.164  -1.684  0.00  0.00     0.077 C 
ATOM      2  C1' PXY d   1      -1.138   1.869   1.997  0.00  0.00     0.077 C 
ATOM      3  C1  PXY d   1      -0.653   0.810   1.027  0.00  0.00    -0.082 A 
ATOM      4  C2  PXY d   1       0.428   0.103   1.317  0.00  0.00     0.003 A 
ATOM      5  C3  PXY d   1       0.899  -0.836   0.436  0.00  0.00     0.003 A 
ATOM      6  C4  PXY d   1       0.227  -1.091  -0.730  0.00  0.00    -0.082 A 
ATOM      7  C5  PXY d   1      -0.882  -0.382  -1.027  0.00  0.00     0.003 A 
ATOM      8  C6  PXY d   1      -1.321   0.595  -0.139  0.00  0.00     0.003 A 
ENDROOT
TORSDOF 0
ENDMDL
