MODEL 1
REMARK minimizedAffinity -3.07752323
REMARK minimizedRMSD -1
REMARK  0 active torsions:
REMARK  status: ('A' for Active; 'I' for Inactive)
ROOT
ATOM      1  C   UNL d   1       0.740  -2.066   0.654  0.00  0.00     0.077 C 
ATOM      2  C1  UNL d   1      -0.136  -2.567  -0.455  0.00  0.00    -0.074 A 
ATOM      3  C2  UNL d   1       0.313  -2.574  -1.779  0.00  0.00    -0.005 A 
ATOM      4  C3  UNL d   1      -0.510  -3.052  -2.799  0.00  0.00     0.006 A 
ATOM      5  C4  UNL d   1      -1.789  -3.527  -2.505  0.00  0.00    -0.005 A 
ATOM      6  C5  UNL d   1      -2.255  -3.528  -1.187  0.00  0.00    -0.074 A 
ATOM      7  C6  UNL d   1      -3.624  -4.044  -0.852  0.00  0.00     0.077 C 
ATOM      8  C7  UNL d   1      -1.420  -3.053  -0.167  0.00  0.00    -0.001 A 
ENDROOT
TORSDOF 0
ENDMDL
