MODEL 1
REMARK minimizedAffinity -3.74791598
REMARK minimizedRMSD -1
REMARK  0 active torsions:
REMARK  status: ('A' for Active; 'I' for Inactive)
ROOT
ATOM      1  C   UNL d   1      -1.090  -2.270  -0.338  0.00  0.00     0.077 C 
ATOM      2  C1  UNL d   1      -0.895  -0.841   0.071  0.00  0.00    -0.074 A 
ATOM      3  C2  UNL d   1      -1.984   0.029   0.187  0.00  0.00    -0.005 A 
ATOM      4  C3  UNL d   1      -1.788   1.354   0.577  0.00  0.00     0.006 A 
ATOM      5  C4  UNL d   1      -0.503   1.821   0.855  0.00  0.00    -0.005 A 
ATOM      6  C5  UNL d   1       0.598   0.966   0.746  0.00  0.00    -0.074 A 
ATOM      7  C6  UNL d   1       1.984   1.450   1.051  0.00  0.00     0.077 C 
ATOM      8  C7  UNL d   1       0.392  -0.365   0.360  0.00  0.00    -0.001 A 
ENDROOT
TORSDOF 0
ENDMDL
