MODEL 1
REMARK minimizedAffinity -0.697161913
REMARK minimizedRMSD -1
REMARK  0 active torsions:
REMARK  status: ('A' for Active; 'I' for Inactive)
ROOT
ATOM      1  C   UNL d   1      -1.110  -0.075   1.206  0.00  0.00     0.077 C 
ATOM      2  C1  UNL d   1      -0.528  -0.845   0.058  0.00  0.00    -0.074 A 
ATOM      3  C2  UNL d   1       0.787  -0.624  -0.364  0.00  0.00    -0.005 A 
ATOM      4  C3  UNL d   1       1.317  -1.356  -1.426  0.00  0.00     0.006 A 
ATOM      5  C4  UNL d   1       0.539  -2.314  -2.077  0.00  0.00    -0.005 A 
ATOM      6  C5  UNL d   1      -0.778  -2.549  -1.669  0.00  0.00    -0.074 A 
ATOM      7  C6  UNL d   1      -1.624  -3.582  -2.352  0.00  0.00     0.077 C 
ATOM      8  C7  UNL d   1      -1.301  -1.815  -0.596  0.00  0.00    -0.001 A 
ENDROOT
TORSDOF 0
ENDMDL
