MODEL 1
REMARK minimizedAffinity -1.7801528
REMARK minimizedRMSD -1
REMARK  0 active torsions:
REMARK  status: ('A' for Active; 'I' for Inactive)
ROOT
ATOM      1  C   UNL d   1      -3.158  -3.639  -1.458  0.00  0.00     0.077 C 
ATOM      2  C1  UNL d   1      -1.762  -3.107  -1.595  0.00  0.00    -0.074 A 
ATOM      3  C2  UNL d   1      -0.912  -3.571  -2.604  0.00  0.00    -0.005 A 
ATOM      4  C3  UNL d   1       0.380  -3.060  -2.724  0.00  0.00     0.006 A 
ATOM      5  C4  UNL d   1       0.835  -2.082  -1.838  0.00  0.00    -0.005 A 
ATOM      6  C5  UNL d   1      -0.001  -1.606  -0.824  0.00  0.00    -0.074 A 
ATOM      7  C6  UNL d   1       0.468  -0.549   0.131  0.00  0.00     0.077 C 
ATOM      8  C7  UNL d   1      -1.301  -2.120  -0.713  0.00  0.00    -0.001 A 
ENDROOT
TORSDOF 0
ENDMDL
