MODEL 1
REMARK minimizedAffinity -4.48551655
REMARK minimizedRMSD -1
REMARK  0 active torsions:
REMARK  status: ('A' for Active; 'I' for Inactive)
ROOT
ATOM      1  C   UNL d   1      -2.016   0.132   0.501  0.00  0.00     0.077 C 
ATOM      2  C1  UNL d   1      -0.698   0.844   0.446  0.00  0.00    -0.074 A 
ATOM      3  C2  UNL d   1      -0.632   2.241   0.493  0.00  0.00    -0.005 A 
ATOM      4  C3  UNL d   1       0.602   2.889   0.450  0.00  0.00     0.006 A 
ATOM      5  C4  UNL d   1       1.781   2.149   0.360  0.00  0.00    -0.005 A 
ATOM      6  C5  UNL d   1       1.736   0.752   0.313  0.00  0.00    -0.074 A 
ATOM      7  C6  UNL d   1       2.995  -0.059   0.225  0.00  0.00     0.077 C 
ATOM      8  C7  UNL d   1       0.492   0.108   0.363  0.00  0.00    -0.001 A 
ENDROOT
TORSDOF 0
ENDMDL
