MODEL 1
REMARK minimizedAffinity -1.68327534
REMARK minimizedRMSD -1
REMARK  0 active torsions:
REMARK  status: ('A' for Active; 'I' for Inactive)
ROOT
ATOM      1  C   UNL d   1      -0.773  -2.504  -0.311  0.00  0.00     0.077 C 
ATOM      2  C1  UNL d   1      -0.066  -1.222   0.015  0.00  0.00    -0.074 A 
ATOM      3  C2  UNL d   1       1.308  -1.205   0.276  0.00  0.00    -0.005 A 
ATOM      4  C3  UNL d   1       1.954  -0.004   0.569  0.00  0.00     0.006 A 
ATOM      5  C4  UNL d   1       1.234   1.191   0.602  0.00  0.00    -0.005 A 
ATOM      6  C5  UNL d   1      -0.140   1.194   0.343  0.00  0.00    -0.074 A 
ATOM      7  C6  UNL d   1      -0.927   2.470   0.365  0.00  0.00     0.077 C 
ATOM      8  C7  UNL d   1      -0.781  -0.016   0.043  0.00  0.00    -0.001 A 
ENDROOT
TORSDOF 0
ENDMDL
