MODEL 1
REMARK minimizedAffinity -4.33248329
REMARK minimizedRMSD -1
REMARK  0 active torsions:
REMARK  status: ('A' for Active; 'I' for Inactive)
ROOT
ATOM      1  C   UNL d   1       2.158  -1.139   0.708  0.00  0.00     0.077 C 
ATOM      2  C1  UNL d   1       0.924  -0.288   0.757  0.00  0.00    -0.074 A 
ATOM      3  C2  UNL d   1      -0.323  -0.846   1.056  0.00  0.00    -0.005 A 
ATOM      4  C3  UNL d   1      -1.460  -0.040   1.107  0.00  0.00     0.006 A 
ATOM      5  C4  UNL d   1      -1.362   1.330   0.860  0.00  0.00    -0.005 A 
ATOM      6  C5  UNL d   1      -0.123   1.906   0.560  0.00  0.00    -0.074 A 
ATOM      7  C6  UNL d   1       0.001   3.378   0.302  0.00  0.00     0.077 C 
ATOM      8  C7  UNL d   1       1.016   1.091   0.518  0.00  0.00    -0.001 A 
ENDROOT
TORSDOF 0
ENDMDL
