MODEL 1
REMARK minimizedAffinity -4.68785954
REMARK minimizedRMSD -1
REMARK  0 active torsions:
REMARK  status: ('A' for Active; 'I' for Inactive)
ROOT
ATOM      1  C   UNL d   1      -0.561  -4.048  -1.520  0.00  0.00     0.077 C 
ATOM      2  C1  UNL d   1      -0.006  -2.714  -1.118  0.00  0.00    -0.074 A 
ATOM      3  C2  UNL d   1       1.240  -2.284  -1.587  0.00  0.00    -0.005 A 
ATOM      4  C3  UNL d   1       1.739  -1.036  -1.212  0.00  0.00     0.006 A 
ATOM      5  C4  UNL d   1       0.999  -0.208  -0.368  0.00  0.00    -0.005 A 
ATOM      6  C5  UNL d   1      -0.249  -0.621   0.110  0.00  0.00    -0.074 A 
ATOM      7  C6  UNL d   1      -1.061   0.261   1.011  0.00  0.00     0.077 C 
ATOM      8  C7  UNL d   1      -0.747  -1.873  -0.276  0.00  0.00    -0.001 A 
ENDROOT
TORSDOF 0
ENDMDL
