MODEL 1
REMARK minimizedAffinity -1.04452431
REMARK minimizedRMSD -1
REMARK  0 active torsions:
REMARK  status: ('A' for Active; 'I' for Inactive)
ROOT
ATOM      1  C   UNL d   1       2.824   1.500   0.823  0.00  0.00     0.077 C 
ATOM      2  C1  UNL d   1       1.408   1.068   0.581  0.00  0.00    -0.074 A 
ATOM      3  C2  UNL d   1       0.337   1.917   0.879  0.00  0.00    -0.005 A 
ATOM      4  C3  UNL d   1      -0.974   1.506   0.639  0.00  0.00     0.006 A 
ATOM      5  C4  UNL d   1      -1.227   0.244   0.100  0.00  0.00    -0.005 A 
ATOM      6  C5  UNL d   1      -0.169  -0.618  -0.205  0.00  0.00    -0.074 A 
ATOM      7  C6  UNL d   1      -0.423  -1.973  -0.795  0.00  0.00     0.077 C 
ATOM      8  C7  UNL d   1       1.146  -0.195   0.032  0.00  0.00    -0.001 A 
ENDROOT
TORSDOF 0
ENDMDL
