MODEL 1
REMARK minimizedAffinity -0.285103887
REMARK minimizedRMSD -1
REMARK  0 active torsions:
REMARK  status: ('A' for Active; 'I' for Inactive)
ROOT
ATOM      1  C   UNL d   1       2.715   1.999   1.366  0.00  0.00     0.077 C 
ATOM      2  C1  UNL d   1       1.372   1.482   0.944  0.00  0.00    -0.074 A 
ATOM      3  C2  UNL d   1       0.246   2.312   0.955  0.00  0.00    -0.005 A 
ATOM      4  C3  UNL d   1      -0.995   1.820   0.550  0.00  0.00     0.006 A 
ATOM      5  C4  UNL d   1      -1.123   0.495   0.131  0.00  0.00    -0.005 A 
ATOM      6  C5  UNL d   1      -0.008  -0.349   0.113  0.00  0.00    -0.074 A 
ATOM      7  C6  UNL d   1      -0.126  -1.773  -0.343  0.00  0.00     0.077 C 
ATOM      8  C7  UNL d   1       1.237   0.154   0.514  0.00  0.00    -0.001 A 
ENDROOT
TORSDOF 0
ENDMDL
