MODEL 1
REMARK minimizedAffinity -0.869883299
REMARK minimizedRMSD -1
REMARK  0 active torsions:
REMARK  status: ('A' for Active; 'I' for Inactive)
ROOT
ATOM      1  C   UNL d   1      -0.042  -1.571  -0.432  0.00  0.00     0.077 C 
ATOM      2  C1  UNL d   1       0.156  -0.192   0.124  0.00  0.00    -0.074 A 
ATOM      3  C2  UNL d   1      -0.931   0.666   0.323  0.00  0.00    -0.005 A 
ATOM      4  C3  UNL d   1      -0.732   1.942   0.850  0.00  0.00     0.006 A 
ATOM      5  C4  UNL d   1       0.553   2.373   1.181  0.00  0.00    -0.005 A 
ATOM      6  C5  UNL d   1       1.651   1.530   0.989  0.00  0.00    -0.074 A 
ATOM      7  C6  UNL d   1       3.038   1.974   1.350  0.00  0.00     0.077 C 
ATOM      8  C7  UNL d   1       1.443   0.246   0.466  0.00  0.00    -0.001 A 
ENDROOT
TORSDOF 0
ENDMDL
