MODEL 1
REMARK minimizedAffinity -2.84965563
REMARK minimizedRMSD -1
REMARK  0 active torsions:
REMARK  status: ('A' for Active; 'I' for Inactive)
ROOT
ATOM      1  C   UNL d   1       3.188   1.759   1.151  0.00  0.00     0.077 C 
ATOM      2  C1  UNL d   1       1.720   1.526   0.956  0.00  0.00    -0.074 A 
ATOM      3  C2  UNL d   1       0.794   2.552   1.172  0.00  0.00    -0.005 A 
ATOM      4  C3  UNL d   1      -0.568   2.323   0.977  0.00  0.00     0.006 A 
ATOM      5  C4  UNL d   1      -1.018   1.068   0.564  0.00  0.00    -0.005 A 
ATOM      6  C5  UNL d   1      -0.107   0.031   0.342  0.00  0.00    -0.074 A 
ATOM      7  C6  UNL d   1      -0.572  -1.321  -0.112  0.00  0.00     0.077 C 
ATOM      8  C7  UNL d   1       1.261   0.270   0.533  0.00  0.00    -0.001 A 
ENDROOT
TORSDOF 0
ENDMDL
