MODEL 1
REMARK minimizedAffinity -4.2258296
REMARK minimizedRMSD -1
REMARK  0 active torsions:
REMARK  status: ('A' for Active; 'I' for Inactive)
ROOT
ATOM      1  C   UNL d   1      -0.014  -1.769  -0.400  0.00  0.00     0.077 C 
ATOM      2  C1  UNL d   1      -0.101  -0.315  -0.039  0.00  0.00    -0.074 A 
ATOM      3  C2  UNL d   1      -1.310   0.380  -0.142  0.00  0.00    -0.005 A 
ATOM      4  C3  UNL d   1      -1.378   1.729   0.206  0.00  0.00     0.006 A 
ATOM      5  C4  UNL d   1      -0.239   2.395   0.659  0.00  0.00    -0.005 A 
ATOM      6  C5  UNL d   1       0.979   1.717   0.769  0.00  0.00    -0.074 A 
ATOM      7  C6  UNL d   1       2.210   2.415   1.264  0.00  0.00     0.077 C 
ATOM      8  C7  UNL d   1       1.037   0.359   0.424  0.00  0.00    -0.001 A 
ENDROOT
TORSDOF 0
ENDMDL
