MODEL 1
REMARK minimizedAffinity -2.01296449
REMARK minimizedRMSD -1
REMARK  0 active torsions:
REMARK  status: ('A' for Active; 'I' for Inactive)
ROOT
ATOM      1  C   UNL d   1      -1.278   0.382   0.380  0.00  0.00     0.077 C 
ATOM      2  C1  UNL d   1      -0.519  -0.816  -0.109  0.00  0.00    -0.074 A 
ATOM      3  C2  UNL d   1       0.765  -1.096   0.368  0.00  0.00    -0.005 A 
ATOM      4  C3  UNL d   1       1.455  -2.219  -0.089  0.00  0.00     0.006 A 
ATOM      5  C4  UNL d   1       0.868  -3.071  -1.026  0.00  0.00    -0.005 A 
ATOM      6  C5  UNL d   1      -0.415  -2.807  -1.513  0.00  0.00    -0.074 A 
ATOM      7  C6  UNL d   1      -1.064  -3.718  -2.513  0.00  0.00     0.077 C 
ATOM      8  C7  UNL d   1      -1.105  -1.680  -1.044  0.00  0.00    -0.001 A 
ENDROOT
TORSDOF 0
ENDMDL
