MODEL 1
REMARK minimizedAffinity -3.57798719
REMARK minimizedRMSD -1
REMARK  0 active torsions:
REMARK  status: ('A' for Active; 'I' for Inactive)
ROOT
ATOM      1  C   UNL d   1       0.004  -1.510  -4.428  0.00  0.00     0.077 C 
ATOM      2  C1  UNL d   1      -0.285  -1.779  -2.981  0.00  0.00    -0.074 A 
ATOM      3  C2  UNL d   1      -0.651  -3.057  -2.547  0.00  0.00    -0.005 A 
ATOM      4  C3  UNL d   1      -0.907  -3.294  -1.196  0.00  0.00     0.006 A 
ATOM      5  C4  UNL d   1      -0.800  -2.258  -0.268  0.00  0.00    -0.005 A 
ATOM      6  C5  UNL d   1      -0.434  -0.974  -0.684  0.00  0.00    -0.074 A 
ATOM      7  C6  UNL d   1      -0.304   0.149   0.302  0.00  0.00     0.077 C 
ATOM      8  C7  UNL d   1      -0.171  -0.745  -2.041  0.00  0.00    -0.001 A 
ENDROOT
TORSDOF 0
ENDMDL
