MODEL 1
REMARK minimizedAffinity -1.10407126
REMARK minimizedRMSD -1
REMARK  0 active torsions:
REMARK  status: ('A' for Active; 'I' for Inactive)
ROOT
ATOM      1  C   UNL d   1      -1.822  -1.281   2.935  0.00  0.00     0.077 C 
ATOM      2  C1  UNL d   1      -1.172  -0.687   1.721  0.00  0.00    -0.074 A 
ATOM      3  C2  UNL d   1      -0.301  -1.442   0.930  0.00  0.00    -0.005 A 
ATOM      4  C3  UNL d   1       0.288  -0.879  -0.202  0.00  0.00     0.006 A 
ATOM      5  C4  UNL d   1       0.013   0.443  -0.554  0.00  0.00    -0.005 A 
ATOM      6  C5  UNL d   1      -0.857   1.214   0.225  0.00  0.00    -0.074 A 
ATOM      7  C6  UNL d   1      -1.172   2.633  -0.144  0.00  0.00     0.077 C 
ATOM      8  C7  UNL d   1      -1.450   0.638   1.357  0.00  0.00    -0.001 A 
ENDROOT
TORSDOF 0
ENDMDL
