MODEL 1
REMARK minimizedAffinity -2.2558136
REMARK minimizedRMSD -1
REMARK  0 active torsions:
REMARK  status: ('A' for Active; 'I' for Inactive)
ROOT
ATOM      1  C   UNL d   1      -0.675   2.783   0.723  0.00  0.00     0.077 C 
ATOM      2  C1  UNL d   1       0.020   1.467   0.541  0.00  0.00    -0.074 A 
ATOM      3  C2  UNL d   1       1.391   1.338   0.786  0.00  0.00    -0.005 A 
ATOM      4  C3  UNL d   1       2.022   0.105   0.621  0.00  0.00     0.006 A 
ATOM      5  C4  UNL d   1       1.290  -1.010   0.211  0.00  0.00    -0.005 A 
ATOM      6  C5  UNL d   1      -0.082  -0.901  -0.037  0.00  0.00    -0.074 A 
ATOM      7  C6  UNL d   1      -0.886  -2.091  -0.468  0.00  0.00     0.077 C 
ATOM      8  C7  UNL d   1      -0.710   0.340   0.137  0.00  0.00    -0.001 A 
ENDROOT
TORSDOF 0
ENDMDL
