MODEL 1
REMARK minimizedAffinity 1.60720658
REMARK minimizedRMSD -1
REMARK  0 active torsions:
REMARK  status: ('A' for Active; 'I' for Inactive)
ROOT
ATOM      1  C4' PXY d   1      -3.057  -0.954   4.049  0.00  0.00     0.077 C 
ATOM      2  C1' PXY d   1       0.032   1.561  -0.140  0.00  0.00     0.077 C 
ATOM      3  C1  PXY d   1      -0.771   0.907   0.967  0.00  0.00    -0.082 A 
ATOM      4  C2  PXY d   1      -1.459  -0.194   0.713  0.00  0.00     0.003 A 
ATOM      5  C3  PXY d   1      -2.216  -0.780   1.695  0.00  0.00     0.003 A 
ATOM      6  C4  PXY d   1      -2.225  -0.265   2.964  0.00  0.00    -0.082 A 
ATOM      7  C5  PXY d   1      -1.517   0.852   3.233  0.00  0.00     0.003 A 
ATOM      8  C6  PXY d   1      -0.788   1.456   2.212  0.00  0.00     0.003 A 
ENDROOT
TORSDOF 0
ENDMDL
