MODEL 1
REMARK minimizedAffinity -2.37815285
REMARK minimizedRMSD -1
REMARK  0 active torsions:
REMARK  status: ('A' for Active; 'I' for Inactive)
ROOT
ATOM      1  C4' PXY d   1      -1.497  -2.247  -0.755  0.00  0.00     0.077 C 
ATOM      2  C1' PXY d   1       0.258   2.663   1.740  0.00  0.00     0.077 C 
ATOM      3  C1  PXY d   1      -0.206   1.371   1.097  0.00  0.00    -0.082 A 
ATOM      4  C2  PXY d   1       0.322   0.986  -0.054  0.00  0.00     0.003 A 
ATOM      5  C3  PXY d   1      -0.109  -0.163  -0.664  0.00  0.00     0.003 A 
ATOM      6  C4  PXY d   1      -1.052  -0.955  -0.065  0.00  0.00    -0.082 A 
ATOM      7  C5  PXY d   1      -1.588  -0.574   1.114  0.00  0.00     0.003 A 
ATOM      8  C6  PXY d   1      -1.166   0.617   1.698  0.00  0.00     0.003 A 
ENDROOT
TORSDOF 0
ENDMDL
