MODEL 1
REMARK minimizedAffinity -0.645294309
REMARK minimizedRMSD -1
REMARK  0 active torsions:
REMARK  status: ('A' for Active; 'I' for Inactive)
ROOT
ATOM      1  C4' PXY d   1      -1.682  -0.752  -6.000  0.00  0.00     0.077 C 
ATOM      2  C1' PXY d   1       2.731   1.098  -2.756  0.00  0.00     0.077 C 
ATOM      3  C1  PXY d   1       1.572   0.602  -3.600  0.00  0.00    -0.082 A 
ATOM      4  C2  PXY d   1       1.437   1.033  -4.843  0.00  0.00     0.003 A 
ATOM      5  C3  PXY d   1       0.378   0.620  -5.609  0.00  0.00     0.003 A 
ATOM      6  C4  PXY d   1      -0.523  -0.285  -5.115  0.00  0.00    -0.082 A 
ATOM      7  C5  PXY d   1      -0.386  -0.738  -3.851  0.00  0.00     0.003 A 
ATOM      8  C6  PXY d   1       0.674  -0.275  -3.076  0.00  0.00     0.003 A 
ENDROOT
TORSDOF 0
ENDMDL
