MODEL 1
REMARK minimizedAffinity 1.0793159
REMARK minimizedRMSD -1
REMARK  0 active torsions:
REMARK  status: ('A' for Active; 'I' for Inactive)
ROOT
ATOM      1  C4' PXY d   1      -2.062  -0.852  -5.587  0.00  0.00     0.077 C 
ATOM      2  C1' PXY d   1       2.644   1.519  -3.209  0.00  0.00     0.077 C 
ATOM      3  C1  PXY d   1       1.407   0.892  -3.821  0.00  0.00    -0.082 A 
ATOM      4  C2  PXY d   1       1.357   0.682  -5.127  0.00  0.00     0.003 A 
ATOM      5  C3  PXY d   1       0.234   0.145  -5.701  0.00  0.00     0.003 A 
ATOM      6  C4  PXY d   1      -0.830  -0.230  -4.924  0.00  0.00    -0.082 A 
ATOM      7  C5  PXY d   1      -0.783  -0.028  -3.590  0.00  0.00     0.003 A 
ATOM      8  C6  PXY d   1       0.350   0.556  -3.032  0.00  0.00     0.003 A 
ENDROOT
TORSDOF 0
ENDMDL
