MODEL 1
REMARK minimizedAffinity -2.44628
REMARK minimizedRMSD -1
REMARK  0 active torsions:
REMARK  status: ('A' for Active; 'I' for Inactive)
ROOT
ATOM      1  C4' PXY d   1       1.581  -0.063  -1.434  0.00  0.00     0.077 C 
ATOM      2  C1' PXY d   1      -1.480   1.001   3.353  0.00  0.00     0.077 C 
ATOM      3  C1  PXY d   1      -0.669   0.732   2.101  0.00  0.00    -0.082 A 
ATOM      4  C2  PXY d   1      -1.249   0.167   1.055  0.00  0.00     0.003 A 
ATOM      5  C3  PXY d   1      -0.523  -0.113  -0.074  0.00  0.00     0.003 A 
ATOM      6  C4  PXY d   1       0.798   0.237  -0.152  0.00  0.00    -0.082 A 
ATOM      7  C5  PXY d   1       1.395   0.823   0.907  0.00  0.00     0.003 A 
ATOM      8  C6  PXY d   1       0.651   1.061   2.059  0.00  0.00     0.003 A 
ENDROOT
TORSDOF 0
ENDMDL
