MODEL 1
REMARK minimizedAffinity -3.76711631
REMARK minimizedRMSD -1
REMARK  0 active torsions:
REMARK  status: ('A' for Active; 'I' for Inactive)
ROOT
ATOM      1  C4' PXY d   1      -2.045  -0.304  -5.502  0.00  0.00     0.077 C 
ATOM      2  C1' PXY d   1       3.300   0.018  -3.325  0.00  0.00     0.077 C 
ATOM      3  C1  PXY d   1       1.895  -0.072  -3.885  0.00  0.00    -0.082 A 
ATOM      4  C2  PXY d   1       1.711  -0.072  -5.195  0.00  0.00     0.003 A 
ATOM      5  C3  PXY d   1       0.445  -0.121  -5.718  0.00  0.00     0.003 A 
ATOM      6  C4  PXY d   1      -0.643  -0.224  -4.892  0.00  0.00    -0.082 A 
ATOM      7  C5  PXY d   1      -0.463  -0.235  -3.554  0.00  0.00     0.003 A 
ATOM      8  C6  PXY d   1       0.828  -0.143  -3.043  0.00  0.00     0.003 A 
ENDROOT
TORSDOF 0
ENDMDL
