MODEL 1
REMARK minimizedAffinity -3.36220551
REMARK minimizedRMSD -1
REMARK  0 active torsions:
REMARK  status: ('A' for Active; 'I' for Inactive)
ROOT
ATOM      1  C4' PXY d   1       1.110  -0.664  -2.019  0.00  0.00     0.077 C 
ATOM      2  C1' PXY d   1      -1.138   0.830   3.093  0.00  0.00     0.077 C 
ATOM      3  C1  PXY d   1      -0.537   0.443   1.756  0.00  0.00    -0.082 A 
ATOM      4  C2  PXY d   1      -1.313   0.364   0.688  0.00  0.00     0.003 A 
ATOM      5  C3  PXY d   1      -0.792  -0.017  -0.522  0.00  0.00     0.003 A 
ATOM      6  C4  PXY d   1       0.548  -0.267  -0.651  0.00  0.00    -0.082 A 
ATOM      7  C5  PXY d   1       1.349  -0.179   0.432  0.00  0.00     0.003 A 
ATOM      8  C6  PXY d   1       0.793   0.169   1.660  0.00  0.00     0.003 A 
ENDROOT
TORSDOF 0
ENDMDL
