MODEL 1
REMARK minimizedAffinity -2.8644321
REMARK minimizedRMSD -1
REMARK  0 active torsions:
REMARK  status: ('A' for Active; 'I' for Inactive)
ROOT
ATOM      1  C4' PXY d   1       0.404  -0.386  -1.875  0.00  0.00     0.077 C 
ATOM      2  C1' PXY d   1      -0.573   1.575   3.475  0.00  0.00     0.077 C 
ATOM      3  C1  PXY d   1      -0.305   1.058   2.075  0.00  0.00    -0.082 A 
ATOM      4  C2  PXY d   1      -1.089   1.434   1.077  0.00  0.00     0.003 A 
ATOM      5  C3  PXY d   1      -0.879   0.952  -0.189  0.00  0.00     0.003 A 
ATOM      6  C4  PXY d   1       0.176   0.118  -0.447  0.00  0.00    -0.082 A 
ATOM      7  C5  PXY d   1       0.986  -0.262   0.563  0.00  0.00     0.003 A 
ATOM      8  C6  PXY d   1       0.732   0.207   1.849  0.00  0.00     0.003 A 
ENDROOT
TORSDOF 0
ENDMDL
