MODEL 1
REMARK minimizedAffinity -4.50026703
REMARK minimizedRMSD -1
REMARK  2 active torsions:
REMARK  status: ('A' for Active; 'I' for Inactive)
REMARK    1  A    between atoms: C1_2  and  C2_3 
REMARK    2  A    between atoms: C2_3  and  C3_4 
ROOT
ATOM      1  C3  UNL d   1      -0.018   0.251  -0.069  0.00  0.00    -0.075 A 
ATOM      2  C4  UNL d   1       0.904  -0.760  -0.378  0.00  0.00     0.002 A 
ATOM      3  C5  UNL d   1       2.222  -0.678   0.072  0.00  0.00     0.002 A 
ATOM      4  C6  UNL d   1       2.637   0.417   0.827  0.00  0.00    -0.004 A 
ATOM      5  C7  UNL d   1       1.735   1.435   1.126  0.00  0.00     0.002 A 
ATOM      6  C8  UNL d   1       0.414   1.354   0.681  0.00  0.00     0.002 A 
ENDROOT
BRANCH   1   7
ATOM      7  C2  UNL d   1      -1.453   0.155  -0.528  0.00  0.00     0.056 C 
BRANCH   7   8
ATOM      8  C1  UNL d   1      -1.637  -0.606  -1.845  0.00  0.00     0.007 C 
ATOM      9  C   UNL d   1      -2.670   0.029  -2.766  0.00  0.00     0.009 C 
ENDBRANCH   7   8
ENDBRANCH   1   7
TORSDOF 2
ENDMDL
