MODEL 1
REMARK minimizedAffinity -5.9940424
REMARK minimizedRMSD -1
REMARK  2 active torsions:
REMARK  status: ('A' for Active; 'I' for Inactive)
REMARK    1  A    between atoms: C1_2  and  C2_3 
REMARK    2  A    between atoms: C2_3  and  C3_4 
ROOT
ATOM      1  C3  UNL d   1       0.686  -0.894   0.998  0.00  0.00    -0.075 A 
ATOM      2  C4  UNL d   1       1.836  -0.129   0.754  0.00  0.00     0.002 A 
ATOM      3  C5  UNL d   1       3.070  -0.518   1.276  0.00  0.00     0.002 A 
ATOM      4  C6  UNL d   1       3.168  -1.668   2.056  0.00  0.00    -0.004 A 
ATOM      5  C7  UNL d   1       2.030  -2.427   2.319  0.00  0.00     0.002 A 
ATOM      6  C8  UNL d   1       0.795  -2.043   1.794  0.00  0.00     0.002 A 
ENDROOT
BRANCH   1   7
ATOM      7  C2  UNL d   1      -0.647  -0.495   0.411  0.00  0.00     0.056 C 
BRANCH   7   8
ATOM      8  C1  UNL d   1      -0.544   0.490  -0.758  0.00  0.00     0.007 C 
ATOM      9  C   UNL d   1      -1.536   0.200  -1.876  0.00  0.00     0.009 C 
ENDBRANCH   7   8
ENDBRANCH   1   7
TORSDOF 2
ENDMDL
