MODEL 1
REMARK minimizedAffinity -5.15122318
REMARK minimizedRMSD -1
REMARK  2 active torsions:
REMARK  status: ('A' for Active; 'I' for Inactive)
REMARK    1  A    between atoms: C1_2  and  C2_3 
REMARK    2  A    between atoms: C2_3  and  C3_4 
ROOT
ATOM      1  C3  UNL d   1      -0.260   0.172   0.002  0.00  0.00    -0.075 A 
ATOM      2  C4  UNL d   1       0.613  -0.878   0.320  0.00  0.00     0.002 A 
ATOM      3  C5  UNL d   1       1.913  -0.613   0.751  0.00  0.00     0.002 A 
ATOM      4  C6  UNL d   1       2.359   0.703   0.860  0.00  0.00    -0.004 A 
ATOM      5  C7  UNL d   1       1.506   1.753   0.531  0.00  0.00     0.002 A 
ATOM      6  C8  UNL d   1       0.203   1.491   0.103  0.00  0.00     0.002 A 
ENDROOT
BRANCH   1   7
ATOM      7  C2  UNL d   1      -1.677  -0.108  -0.437  0.00  0.00     0.056 C 
BRANCH   7   8
ATOM      8  C1  UNL d   1      -1.968   0.280  -1.891  0.00  0.00     0.007 C 
ATOM      9  C   UNL d   1      -2.428  -0.894  -2.745  0.00  0.00     0.009 C 
ENDBRANCH   7   8
ENDBRANCH   1   7
TORSDOF 2
ENDMDL
