MODEL 1
REMARK minimizedAffinity -5.71124029
REMARK minimizedRMSD -1
REMARK  2 active torsions:
REMARK  status: ('A' for Active; 'I' for Inactive)
REMARK    1  A    between atoms: C1_2  and  C2_3 
REMARK    2  A    between atoms: C2_3  and  C3_4 
ROOT
ATOM      1  C3  UNL d   1       0.816  -0.013   0.386  0.00  0.00    -0.075 A 
ATOM      2  C4  UNL d   1       2.072   0.565   0.620  0.00  0.00     0.002 A 
ATOM      3  C5  UNL d   1       3.051  -0.132   1.328  0.00  0.00     0.002 A 
ATOM      4  C6  UNL d   1       2.785  -1.408   1.820  0.00  0.00    -0.004 A 
ATOM      5  C7  UNL d   1       1.535  -1.985   1.608  0.00  0.00     0.002 A 
ATOM      6  C8  UNL d   1       0.554  -1.292   0.895  0.00  0.00     0.002 A 
ENDROOT
BRANCH   1   7
ATOM      7  C2  UNL d   1      -0.239   0.724  -0.405  0.00  0.00     0.056 C 
BRANCH   7   8
ATOM      8  C1  UNL d   1      -1.516  -0.087  -0.649  0.00  0.00     0.007 C 
ATOM      9  C   UNL d   1      -1.946  -0.105  -2.110  0.00  0.00     0.009 C 
ENDBRANCH   7   8
ENDBRANCH   1   7
TORSDOF 2
ENDMDL
