MODEL 1
REMARK minimizedAffinity -5.55510807
REMARK minimizedRMSD -1
REMARK  2 active torsions:
REMARK  status: ('A' for Active; 'I' for Inactive)
REMARK    1  A    between atoms: C1_2  and  C2_3 
REMARK    2  A    between atoms: C2_3  and  C3_4 
ROOT
ATOM      1  C3  UNL d   1       0.867  -1.079   0.672  0.00  0.00    -0.075 A 
ATOM      2  C4  UNL d   1       0.579  -2.088   1.602  0.00  0.00     0.002 A 
ATOM      3  C5  UNL d   1       1.565  -2.549   2.475  0.00  0.00     0.002 A 
ATOM      4  C6  UNL d   1       2.851  -2.016   2.422  0.00  0.00    -0.004 A 
ATOM      5  C7  UNL d   1       3.152  -1.024   1.491  0.00  0.00     0.002 A 
ATOM      6  C8  UNL d   1       2.166  -0.558   0.620  0.00  0.00     0.002 A 
ENDROOT
BRANCH   1   7
ATOM      7  C2  UNL d   1      -0.204  -0.555  -0.255  0.00  0.00     0.056 C 
BRANCH   7   8
ATOM      8  C1  UNL d   1      -1.084   0.537   0.362  0.00  0.00     0.007 C 
ATOM      9  C   UNL d   1      -0.297   1.764   0.802  0.00  0.00     0.009 C 
ENDBRANCH   7   8
ENDBRANCH   1   7
TORSDOF 2
ENDMDL
