MODEL 1
REMARK minimizedAffinity -4.10230732
REMARK minimizedRMSD -1
REMARK  1 active torsions:
REMARK  status: ('A' for Active; 'I' for Inactive)
REMARK    1  A    between atoms: C3_4  and  O_7 
ROOT
ATOM      1  C   UNL d   1       0.384  -0.106   2.601  0.00  0.00    -0.033 A 
ATOM      2  C1  UNL d   1      -0.816  -0.322   1.921  0.00  0.00     0.039 A 
ATOM      3  C2  UNL d   1      -0.898  -0.071   0.549  0.00  0.00    -0.080 A 
ATOM      4  C3  UNL d   1       0.226   0.393  -0.129  0.00  0.00     0.150 A 
ATOM      5  C4  UNL d   1       1.426   0.606   0.542  0.00  0.00    -0.007 A 
ATOM      6  C5  UNL d   1       1.505   0.356   1.912  0.00  0.00     0.039 A 
ENDROOT
BRANCH   4   7
ATOM      7  O   UNL d   1       0.193   0.656  -1.466  0.00  0.00    -0.526 OA
ATOM      8  H5  UNL d   1      -0.708   0.491  -1.790  0.00  0.00     0.418 HD
ENDBRANCH   4   7
TORSDOF 1
ENDMDL
