MODEL 1
REMARK minimizedAffinity -4.27747869
REMARK minimizedRMSD -1
REMARK  1 active torsions:
REMARK  status: ('A' for Active; 'I' for Inactive)
REMARK    1  A    between atoms: C3_4  and  O_7 
ROOT
ATOM      1  C   UNL d   1       1.156   0.208   1.500  0.00  0.00    -0.033 A 
ATOM      2  C1  UNL d   1       0.545   0.486   0.276  0.00  0.00     0.039 A 
ATOM      3  C2  UNL d   1      -0.836   0.687   0.213  0.00  0.00    -0.080 A 
ATOM      4  C3  UNL d   1      -1.592   0.610   1.379  0.00  0.00     0.150 A 
ATOM      5  C4  UNL d   1      -0.989   0.337   2.603  0.00  0.00    -0.007 A 
ATOM      6  C5  UNL d   1       0.390   0.135   2.664  0.00  0.00     0.039 A 
ENDROOT
BRANCH   4   7
ATOM      7  O   UNL d   1      -2.942   0.795   1.367  0.00  0.00    -0.526 OA
ATOM      8  H5  UNL d   1      -3.223   0.946   0.449  0.00  0.00     0.418 HD
ENDBRANCH   4   7
TORSDOF 1
ENDMDL
