MODEL 1
REMARK minimizedAffinity -5.19284201
REMARK minimizedRMSD -1
REMARK  1 active torsions:
REMARK  status: ('A' for Active; 'I' for Inactive)
REMARK    1  A    between atoms: C3_4  and  O_7 
ROOT
ATOM      1  C   UNL d   1      -1.438  -0.625   3.352  0.00  0.00    -0.033 A 
ATOM      2  C1  UNL d   1      -2.349  -0.278   2.352  0.00  0.00     0.039 A 
ATOM      3  C2  UNL d   1      -1.913  -0.112   1.036  0.00  0.00    -0.080 A 
ATOM      4  C3  UNL d   1      -0.567  -0.298   0.733  0.00  0.00     0.150 A 
ATOM      5  C4  UNL d   1       0.345  -0.648   1.724  0.00  0.00    -0.007 A 
ATOM      6  C5  UNL d   1      -0.092  -0.811   3.038  0.00  0.00     0.039 A 
ENDROOT
BRANCH   4   7
ATOM      7  O   UNL d   1      -0.093  -0.143  -0.536  0.00  0.00    -0.526 OA
ATOM      8  H5  UNL d   1      -0.831   0.127  -1.108  0.00  0.00     0.418 HD
ENDBRANCH   4   7
TORSDOF 1
ENDMDL
