MODEL 1
REMARK minimizedAffinity -4.29304504
REMARK minimizedRMSD -1
REMARK  1 active torsions:
REMARK  status: ('A' for Active; 'I' for Inactive)
REMARK    1  A    between atoms: C3_4  and  O_7 
ROOT
ATOM      1  C   UNL d   1       0.072  -0.839  -2.645  0.00  0.00    -0.033 A 
ATOM      2  C1  UNL d   1       0.695  -1.859  -3.367  0.00  0.00     0.039 A 
ATOM      3  C2  UNL d   1       2.087  -1.893  -3.472  0.00  0.00    -0.080 A 
ATOM      4  C3  UNL d   1       2.843  -0.903  -2.852  0.00  0.00     0.150 A 
ATOM      5  C4  UNL d   1       2.229   0.115  -2.128  0.00  0.00    -0.007 A 
ATOM      6  C5  UNL d   1       0.839   0.147  -2.024  0.00  0.00     0.039 A 
ENDROOT
BRANCH   4   7
ATOM      7  O   UNL d   1       4.204  -0.891  -2.931  0.00  0.00    -0.526 OA
ATOM      8  H5  UNL d   1       4.486  -1.637  -3.486  0.00  0.00     0.418 HD
ENDBRANCH   4   7
TORSDOF 1
ENDMDL
