MODEL 1
REMARK minimizedAffinity -5.01304388
REMARK minimizedRMSD -1
REMARK  1 active torsions:
REMARK  status: ('A' for Active; 'I' for Inactive)
REMARK    1  A    between atoms: C3_4  and  O_7 
ROOT
ATOM      1  C   UNL d   1      -0.239  -0.288   2.760  0.00  0.00    -0.033 A 
ATOM      2  C1  UNL d   1       1.055   0.120   2.433  0.00  0.00     0.039 A 
ATOM      3  C2  UNL d   1       1.375   0.443   1.112  0.00  0.00    -0.080 A 
ATOM      4  C3  UNL d   1       0.392   0.355   0.130  0.00  0.00     0.150 A 
ATOM      5  C4  UNL d   1      -0.901  -0.047   0.450  0.00  0.00    -0.007 A 
ATOM      6  C5  UNL d   1      -1.218  -0.370   1.768  0.00  0.00     0.039 A 
ENDROOT
BRANCH   4   7
ATOM      7  O   UNL d   1       0.658   0.656  -1.173  0.00  0.00    -0.526 OA
ATOM      8  H5  UNL d   1       1.598   0.890  -1.249  0.00  0.00     0.418 HD
ENDBRANCH   4   7
TORSDOF 1
ENDMDL
