MODEL 1
REMARK minimizedAffinity -3.73591232
REMARK minimizedRMSD -1
REMARK  1 active torsions:
REMARK  status: ('A' for Active; 'I' for Inactive)
REMARK    1  A    between atoms: C3_4  and  O_7 
ROOT
ATOM      1  C   UNL d   1      -0.978  -0.393   0.115  0.00  0.00    -0.033 A 
ATOM      2  C1  UNL d   1      -0.095  -0.155  -0.940  0.00  0.00     0.039 A 
ATOM      3  C2  UNL d   1       1.219   0.238  -0.677  0.00  0.00    -0.080 A 
ATOM      4  C3  UNL d   1       1.637   0.388   0.642  0.00  0.00     0.150 A 
ATOM      5  C4  UNL d   1       0.764   0.148   1.698  0.00  0.00    -0.007 A 
ATOM      6  C5  UNL d   1      -0.548  -0.243   1.434  0.00  0.00     0.039 A 
ENDROOT
BRANCH   4   7
ATOM      7  O   UNL d   1       2.908   0.775   0.947  0.00  0.00    -0.526 OA
ATOM      8  H5  UNL d   1       3.389   0.932   0.118  0.00  0.00     0.418 HD
ENDBRANCH   4   7
TORSDOF 1
ENDMDL
