MODEL 1
REMARK minimizedAffinity -5.17475033
REMARK minimizedRMSD -1
REMARK  1 active torsions:
REMARK  status: ('A' for Active; 'I' for Inactive)
REMARK    1  A    between atoms: C3_4  and  O_7 
ROOT
ATOM      1  C   UNL d   1       0.592   0.678   0.212  0.00  0.00    -0.033 A 
ATOM      2  C1  UNL d   1       1.478   0.708   1.290  0.00  0.00     0.039 A 
ATOM      3  C2  UNL d   1       1.126   0.113   2.503  0.00  0.00    -0.080 A 
ATOM      4  C3  UNL d   1      -0.113  -0.511   2.624  0.00  0.00     0.150 A 
ATOM      5  C4  UNL d   1      -0.999  -0.549   1.552  0.00  0.00    -0.007 A 
ATOM      6  C5  UNL d   1      -0.646   0.048   0.342  0.00  0.00     0.039 A 
ENDROOT
BRANCH   4   7
ATOM      7  O   UNL d   1      -0.503  -1.102   3.789  0.00  0.00    -0.526 OA
ATOM      8  H5  UNL d   1       0.198  -0.972   4.449  0.00  0.00     0.418 HD
ENDBRANCH   4   7
TORSDOF 1
ENDMDL
