MODEL 1
REMARK minimizedAffinity -4.55576658
REMARK minimizedRMSD -1
REMARK  1 active torsions:
REMARK  status: ('A' for Active; 'I' for Inactive)
REMARK    1  A    between atoms: C3_4  and  O_7 
ROOT
ATOM      1  C   UNL d   1      -0.711  -1.650   0.880  0.00  0.00    -0.033 A 
ATOM      2  C1  UNL d   1       0.151  -0.641   0.444  0.00  0.00     0.039 A 
ATOM      3  C2  UNL d   1       0.550   0.367   1.324  0.00  0.00    -0.080 A 
ATOM      4  C3  UNL d   1       0.082   0.354   2.635  0.00  0.00     0.150 A 
ATOM      5  C4  UNL d   1      -0.773  -0.650   3.077  0.00  0.00    -0.007 A 
ATOM      6  C5  UNL d   1      -1.172  -1.655   2.197  0.00  0.00     0.039 A 
ENDROOT
BRANCH   4   7
ATOM      7  O   UNL d   1       0.440   1.319   3.529  0.00  0.00    -0.526 OA
ATOM      8  H5  UNL d   1       1.011   1.962   3.075  0.00  0.00     0.418 HD
ENDBRANCH   4   7
TORSDOF 1
ENDMDL
