MODEL 1
REMARK minimizedAffinity -2.60417509
REMARK minimizedRMSD -1
REMARK  1 active torsions:
REMARK  status: ('A' for Active; 'I' for Inactive)
REMARK    1  A    between atoms: C3_4  and  O_7 
ROOT
ATOM      1  C   UNL d   1       1.183  -1.389  -4.253  0.00  0.00    -0.033 A 
ATOM      2  C1  UNL d   1       2.109  -0.642  -3.522  0.00  0.00     0.039 A 
ATOM      3  C2  UNL d   1       1.731  -0.046  -2.317  0.00  0.00    -0.080 A 
ATOM      4  C3  UNL d   1       0.428  -0.205  -1.855  0.00  0.00     0.150 A 
ATOM      5  C4  UNL d   1      -0.498  -0.951  -2.577  0.00  0.00    -0.007 A 
ATOM      6  C5  UNL d   1      -0.120  -1.545  -3.780  0.00  0.00     0.039 A 
ENDROOT
BRANCH   4   7
ATOM      7  O   UNL d   1       0.012   0.362  -0.687  0.00  0.00    -0.526 OA
ATOM      8  H5  UNL d   1       0.749   0.871  -0.312  0.00  0.00     0.418 HD
ENDBRANCH   4   7
TORSDOF 1
ENDMDL
