MODEL 1
REMARK minimizedAffinity -5.42265987
REMARK minimizedRMSD -1
REMARK  1 active torsions:
REMARK  status: ('A' for Active; 'I' for Inactive)
REMARK    1  A    between atoms: C3_4  and  O_7 
ROOT
ATOM      1  C   UNL d   1      -2.009  -0.072   0.677  0.00  0.00    -0.033 A 
ATOM      2  C1  UNL d   1      -0.786   0.197   0.060  0.00  0.00     0.039 A 
ATOM      3  C2  UNL d   1       0.373   0.325   0.829  0.00  0.00    -0.080 A 
ATOM      4  C3  UNL d   1       0.295   0.181   2.211  0.00  0.00     0.150 A 
ATOM      5  C4  UNL d   1      -0.920  -0.091   2.832  0.00  0.00    -0.007 A 
ATOM      6  C5  UNL d   1      -2.076  -0.218   2.063  0.00  0.00     0.039 A 
ENDROOT
BRANCH   4   7
ATOM      7  O   UNL d   1       1.397   0.302   3.004  0.00  0.00    -0.526 OA
ATOM      8  H5  UNL d   1       2.159   0.518   2.440  0.00  0.00     0.418 HD
ENDBRANCH   4   7
TORSDOF 1
ENDMDL
