MODEL 1
REMARK minimizedAffinity -4.78108215
REMARK minimizedRMSD -1
REMARK  1 active torsions:
REMARK  status: ('A' for Active; 'I' for Inactive)
REMARK    1  A    between atoms: C3_4  and  O_7 
ROOT
ATOM      1  C   UNL d   1      -1.413  -0.641   3.653  0.00  0.00    -0.033 A 
ATOM      2  C1  UNL d   1      -0.075  -0.866   3.321  0.00  0.00     0.039 A 
ATOM      3  C2  UNL d   1       0.364  -0.665   2.011  0.00  0.00    -0.080 A 
ATOM      4  C3  UNL d   1      -0.542  -0.238   1.044  0.00  0.00     0.150 A 
ATOM      5  C4  UNL d   1      -1.875  -0.008   1.369  0.00  0.00    -0.007 A 
ATOM      6  C5  UNL d   1      -2.312  -0.210   2.677  0.00  0.00     0.039 A 
ENDROOT
BRANCH   4   7
ATOM      7  O   UNL d   1      -0.161  -0.033  -0.248  0.00  0.00    -0.526 OA
ATOM      8  H5  UNL d   1       0.780  -0.259  -0.332  0.00  0.00     0.418 HD
ENDBRANCH   4   7
TORSDOF 1
ENDMDL
