MODEL 1
REMARK minimizedAffinity -4.75968647
REMARK minimizedRMSD -1
REMARK  1 active torsions:
REMARK  status: ('A' for Active; 'I' for Inactive)
REMARK    1  A    between atoms: C3_4  and  O_7 
ROOT
ATOM      1  C   UNL d   1       0.519   0.379  -0.005  0.00  0.00    -0.033 A 
ATOM      2  C1  UNL d   1      -0.677  -0.321   0.163  0.00  0.00     0.039 A 
ATOM      3  C2  UNL d   1      -1.035  -0.803   1.423  0.00  0.00    -0.080 A 
ATOM      4  C3  UNL d   1      -0.190  -0.578   2.506  0.00  0.00     0.150 A 
ATOM      5  C4  UNL d   1       1.001   0.122   2.348  0.00  0.00    -0.007 A 
ATOM      6  C5  UNL d   1       1.357   0.602   1.088  0.00  0.00     0.039 A 
ENDROOT
BRANCH   4   7
ATOM      7  O   UNL d   1      -0.495  -1.034   3.754  0.00  0.00    -0.526 OA
ATOM      8  H5  UNL d   1      -1.333  -1.524   3.707  0.00  0.00     0.418 HD
ENDBRANCH   4   7
TORSDOF 1
ENDMDL
