MODEL 1
REMARK minimizedAffinity -4.38455963
REMARK minimizedRMSD -1
REMARK  1 active torsions:
REMARK  status: ('A' for Active; 'I' for Inactive)
REMARK    1  A    between atoms: C3_4  and  O_7 
ROOT
ATOM      1  C   UNL d   1      -0.482   0.129   0.613  0.00  0.00    -0.033 A 
ATOM      2  C1  UNL d   1      -0.974  -0.099   1.900  0.00  0.00     0.039 A 
ATOM      3  C2  UNL d   1      -0.252   0.336   3.013  0.00  0.00    -0.080 A 
ATOM      4  C3  UNL d   1       0.958   0.998   2.826  0.00  0.00     0.150 A 
ATOM      5  C4  UNL d   1       1.452   1.232   1.547  0.00  0.00    -0.007 A 
ATOM      6  C5  UNL d   1       0.730   0.796   0.437  0.00  0.00     0.039 A 
ENDROOT
BRANCH   4   7
ATOM      7  O   UNL d   1       1.700   1.437   3.882  0.00  0.00    -0.526 OA
ATOM      8  H5  UNL d   1       1.249   1.179   4.703  0.00  0.00     0.418 HD
ENDBRANCH   4   7
TORSDOF 1
ENDMDL
