MODEL 1
REMARK minimizedAffinity -4.76796722
REMARK minimizedRMSD -1
REMARK  1 active torsions:
REMARK  status: ('A' for Active; 'I' for Inactive)
REMARK    1  A    between atoms: C3_4  and  O_7 
ROOT
ATOM      1  C   UNL d   1      -2.101   0.311  -0.075  0.00  0.00    -0.033 A 
ATOM      2  C1  UNL d   1      -0.767  -0.043   0.130  0.00  0.00     0.039 A 
ATOM      3  C2  UNL d   1      -0.293  -0.266   1.425  0.00  0.00    -0.080 A 
ATOM      4  C3  UNL d   1      -1.163  -0.133   2.503  0.00  0.00     0.150 A 
ATOM      5  C4  UNL d   1      -2.495   0.216   2.305  0.00  0.00    -0.007 A 
ATOM      6  C5  UNL d   1      -2.966   0.439   1.012  0.00  0.00     0.039 A 
ENDROOT
BRANCH   4   7
ATOM      7  O   UNL d   1      -0.746  -0.337   3.785  0.00  0.00    -0.526 OA
ATOM      8  H5  UNL d   1       0.204  -0.543   3.770  0.00  0.00     0.418 HD
ENDBRANCH   4   7
TORSDOF 1
ENDMDL
