MODEL 1
REMARK minimizedAffinity -4.13485861
REMARK minimizedRMSD -1
REMARK  1 active torsions:
REMARK  status: ('A' for Active; 'I' for Inactive)
REMARK    1  A    between atoms: C3_4  and  O_7 
ROOT
ATOM      1  C   UNL d   1      -1.089   0.158   3.063  0.00  0.00    -0.033 A 
ATOM      2  C1  UNL d   1      -2.018  -0.208   2.088  0.00  0.00     0.039 A 
ATOM      3  C2  UNL d   1      -1.629  -0.303   0.750  0.00  0.00    -0.080 A 
ATOM      4  C3  UNL d   1      -0.309  -0.031   0.402  0.00  0.00     0.150 A 
ATOM      5  C4  UNL d   1       0.624   0.330   1.369  0.00  0.00    -0.007 A 
ATOM      6  C5  UNL d   1       0.233   0.425   2.704  0.00  0.00     0.039 A 
ENDROOT
BRANCH   4   7
ATOM      7  O   UNL d   1       0.117  -0.106  -0.891  0.00  0.00    -0.526 OA
ATOM      8  H5  UNL d   1      -0.642  -0.338  -1.452  0.00  0.00     0.418 HD
ENDBRANCH   4   7
TORSDOF 1
ENDMDL
