MODEL 1
REMARK minimizedAffinity -4.77465963
REMARK minimizedRMSD -1
REMARK  1 active torsions:
REMARK  status: ('A' for Active; 'I' for Inactive)
REMARK    1  A    between atoms: C3_4  and  O_7 
ROOT
ATOM      1  C   UNL d   1       1.121   0.864   0.352  0.00  0.00    -0.033 A 
ATOM      2  C1  UNL d   1       1.698   1.121   1.597  0.00  0.00     0.039 A 
ATOM      3  C2  UNL d   1       1.210   0.484   2.740  0.00  0.00    -0.080 A 
ATOM      4  C3  UNL d   1       0.147  -0.407   2.623  0.00  0.00     0.150 A 
ATOM      5  C4  UNL d   1      -0.431  -0.670   1.386  0.00  0.00    -0.007 A 
ATOM      6  C5  UNL d   1       0.058  -0.032   0.246  0.00  0.00     0.039 A 
ENDROOT
BRANCH   4   7
ATOM      7  O   UNL d   1      -0.367  -1.049   3.711  0.00  0.00    -0.526 OA
ATOM      8  H5  UNL d   1       0.111  -0.747   4.501  0.00  0.00     0.418 HD
ENDBRANCH   4   7
TORSDOF 1
ENDMDL
