MODEL 1
REMARK minimizedAffinity -4.8550601
REMARK minimizedRMSD -1
REMARK  1 active torsions:
REMARK  status: ('A' for Active; 'I' for Inactive)
REMARK    1  A    between atoms: C3_4  and  O_7 
ROOT
ATOM      1  C   UNL d   1       0.076  -0.996   3.094  0.00  0.00    -0.033 A 
ATOM      2  C1  UNL d   1       1.083  -0.196   2.550  0.00  0.00     0.039 A 
ATOM      3  C2  UNL d   1       0.975   0.270   1.239  0.00  0.00    -0.080 A 
ATOM      4  C3  UNL d   1      -0.145  -0.069   0.483  0.00  0.00     0.150 A 
ATOM      5  C4  UNL d   1      -1.153  -0.862   1.020  0.00  0.00    -0.007 A 
ATOM      6  C5  UNL d   1      -1.042  -1.328   2.329  0.00  0.00     0.039 A 
ENDROOT
BRANCH   4   7
ATOM      7  O   UNL d   1      -0.293   0.359  -0.803  0.00  0.00    -0.526 OA
ATOM      8  H5  UNL d   1       0.494   0.873  -1.049  0.00  0.00     0.418 HD
ENDBRANCH   4   7
TORSDOF 1
ENDMDL
