MODEL 1
REMARK minimizedAffinity -1.06789029
REMARK minimizedRMSD -1
REMARK  1 active torsions:
REMARK  status: ('A' for Active; 'I' for Inactive)
REMARK    1  A    between atoms: C3_4  and  O_7 
ROOT
ATOM      1  C   UNL d   1       1.614   1.081   1.174  0.00  0.00    -0.033 A 
ATOM      2  C1  UNL d   1       1.601   1.633   2.456  0.00  0.00     0.039 A 
ATOM      3  C2  UNL d   1       0.530   1.379   3.316  0.00  0.00    -0.080 A 
ATOM      4  C3  UNL d   1      -0.519   0.574   2.881  0.00  0.00     0.150 A 
ATOM      5  C4  UNL d   1      -0.510   0.018   1.606  0.00  0.00    -0.007 A 
ATOM      6  C5  UNL d   1       0.559   0.273   0.749  0.00  0.00     0.039 A 
ENDROOT
BRANCH   4   7
ATOM      7  O   UNL d   1      -1.588   0.302   3.683  0.00  0.00    -0.526 OA
ATOM      8  H5  UNL d   1      -1.471   0.776   4.523  0.00  0.00     0.418 HD
ENDBRANCH   4   7
TORSDOF 1
ENDMDL
