MODEL 1
REMARK minimizedAffinity 1.38842356
REMARK minimizedRMSD -1
REMARK  0 active torsions:
REMARK  status: ('A' for Active; 'I' for Inactive)
ROOT
ATOM      1  C4' PXY d   1       3.455   5.477   3.814  0.00  0.00     0.077 C 
ATOM      2  C1' PXY d   1       5.547   2.996  -0.969  0.00  0.00     0.077 C 
ATOM      3  C1  PXY d   1       4.997   3.635   0.291  0.00  0.00    -0.082 A 
ATOM      4  C2  PXY d   1       4.453   4.839   0.229  0.00  0.00     0.003 A 
ATOM      5  C3  PXY d   1       3.979   5.445   1.365  0.00  0.00     0.003 A 
ATOM      6  C4  PXY d   1       4.015   4.789   2.566  0.00  0.00    -0.082 A 
ATOM      7  C5  PXY d   1       4.558   3.556   2.635  0.00  0.00     0.003 A 
ATOM      8  C6  PXY d   1       5.071   2.975   1.479  0.00  0.00     0.003 A 
ENDROOT
TORSDOF 0
ENDMDL
