MODEL 1
REMARK minimizedAffinity -0.778814793
REMARK minimizedRMSD -1
REMARK  0 active torsions:
REMARK  status: ('A' for Active; 'I' for Inactive)
ROOT
ATOM      1  C4' PXY d   1      -2.332  -0.415   1.371  0.00  0.00     0.077 C 
ATOM      2  C1' PXY d   1      -0.769  -4.867  -1.969  0.00  0.00     0.077 C 
ATOM      3  C1  PXY d   1      -1.187  -3.695  -1.102  0.00  0.00    -0.082 A 
ATOM      4  C2  PXY d   1      -0.387  -3.280  -0.134  0.00  0.00     0.003 A 
ATOM      5  C3  PXY d   1      -0.763  -2.242   0.679  0.00  0.00     0.003 A 
ATOM      6  C4  PXY d   1      -1.947  -1.588   0.466  0.00  0.00    -0.082 A 
ATOM      7  C5  PXY d   1      -2.764  -1.999  -0.527  0.00  0.00     0.003 A 
ATOM      8  C6  PXY d   1      -2.382  -3.081  -1.316  0.00  0.00     0.003 A 
ENDROOT
TORSDOF 0
ENDMDL
