MODEL 1
REMARK minimizedAffinity -3.84791207
REMARK minimizedRMSD -1
REMARK  0 active torsions:
REMARK  status: ('A' for Active; 'I' for Inactive)
ROOT
ATOM      1  C4' PXY d   1       0.751  -1.693   0.371  0.00  0.00     0.077 C 
ATOM      2  C1' PXY d   1      -3.664  -5.344  -0.400  0.00  0.00     0.077 C 
ATOM      3  C1  PXY d   1      -2.515  -4.376  -0.196  0.00  0.00    -0.082 A 
ATOM      4  C2  PXY d   1      -1.331  -4.646  -0.724  0.00  0.00     0.003 A 
ATOM      5  C3  PXY d   1      -0.273  -3.798  -0.522  0.00  0.00     0.003 A 
ATOM      6  C4  PXY d   1      -0.440  -2.636   0.182  0.00  0.00    -0.082 A 
ATOM      7  C5  PXY d   1      -1.647  -2.349   0.715  0.00  0.00     0.003 A 
ATOM      8  C6  PXY d   1      -2.698  -3.243   0.533  0.00  0.00     0.003 A 
ENDROOT
TORSDOF 0
ENDMDL
