MODEL 1
REMARK minimizedAffinity -0.447893441
REMARK minimizedRMSD -1
REMARK  0 active torsions:
REMARK  status: ('A' for Active; 'I' for Inactive)
ROOT
ATOM      1  C4' PXY d   1       0.401  -1.663   0.363  0.00  0.00     0.077 C 
ATOM      2  C1' PXY d   1      -2.703  -6.000  -1.867  0.00  0.00     0.077 C 
ATOM      3  C1  PXY d   1      -1.896  -4.854  -1.290  0.00  0.00    -0.082 A 
ATOM      4  C2  PXY d   1      -0.715  -5.096  -0.744  0.00  0.00     0.003 A 
ATOM      5  C3  PXY d   1       0.014  -4.077  -0.188  0.00  0.00     0.003 A 
ATOM      6  C4  PXY d   1      -0.445  -2.788  -0.241  0.00  0.00    -0.082 A 
ATOM      7  C5  PXY d   1      -1.644  -2.531  -0.806  0.00  0.00     0.003 A 
ATOM      8  C6  PXY d   1      -2.387  -3.586  -1.327  0.00  0.00     0.003 A 
ENDROOT
TORSDOF 0
ENDMDL
