MODEL 1
REMARK minimizedAffinity 1.20678246
REMARK minimizedRMSD -1
REMARK  0 active torsions:
REMARK  status: ('A' for Active; 'I' for Inactive)
ROOT
ATOM      1  C4' PXY d   1       1.856   5.356   5.063  0.00  0.00     0.077 C 
ATOM      2  C1' PXY d   1       3.378   1.325   1.209  0.00  0.00     0.077 C 
ATOM      3  C1  PXY d   1       2.990   2.388   2.218  0.00  0.00    -0.082 A 
ATOM      4  C2  PXY d   1       2.046   2.131   3.109  0.00  0.00     0.003 A 
ATOM      5  C3  PXY d   1       1.661   3.092   4.008  0.00  0.00     0.003 A 
ATOM      6  C4  PXY d   1       2.286   4.310   4.031  0.00  0.00    -0.082 A 
ATOM      7  C5  PXY d   1       3.258   4.576   3.132  0.00  0.00     0.003 A 
ATOM      8  C6  PXY d   1       3.605   3.602   2.201  0.00  0.00     0.003 A 
ENDROOT
TORSDOF 0
ENDMDL
