MODEL 1
REMARK minimizedAffinity 6.48497152
REMARK minimizedRMSD -1
REMARK  0 active torsions:
REMARK  status: ('A' for Active; 'I' for Inactive)
ROOT
ATOM      1  C4' PXY d   1       0.337   4.527   3.243  0.00  0.00     0.077 C 
ATOM      2  C1' PXY d   1       5.284   2.205   1.358  0.00  0.00     0.077 C 
ATOM      3  C1  PXY d   1       3.980   2.806   1.845  0.00  0.00    -0.082 A 
ATOM      4  C2  PXY d   1       3.958   4.053   2.287  0.00  0.00     0.003 A 
ATOM      5  C3  PXY d   1       2.794   4.601   2.761  0.00  0.00     0.003 A 
ATOM      6  C4  PXY d   1       1.629   3.883   2.733  0.00  0.00    -0.082 A 
ATOM      7  C5  PXY d   1       1.640   2.613   2.274  0.00  0.00     0.003 A 
ATOM      8  C6  PXY d   1       2.840   2.062   1.836  0.00  0.00     0.003 A 
ENDROOT
TORSDOF 0
ENDMDL
