MODEL 1
REMARK minimizedAffinity 7.0383873
REMARK minimizedRMSD -1
REMARK  0 active torsions:
REMARK  status: ('A' for Active; 'I' for Inactive)
ROOT
ATOM      1  C4' PXY d   1       1.639   0.626   0.662  0.00  0.00     0.077 C 
ATOM      2  C1' PXY d   1       4.140   4.671   3.949  0.00  0.00     0.077 C 
ATOM      3  C1  PXY d   1       3.473   3.611   3.095  0.00  0.00    -0.082 A 
ATOM      4  C2  PXY d   1       4.219   2.771   2.395  0.00  0.00     0.003 A 
ATOM      5  C3  PXY d   1       3.632   1.827   1.592  0.00  0.00     0.003 A 
ATOM      6  C4  PXY d   1       2.269   1.706   1.546  0.00  0.00    -0.082 A 
ATOM      7  C5  PXY d   1       1.502   2.552   2.265  0.00  0.00     0.003 A 
ATOM      8  C6  PXY d   1       2.116   3.531   3.042  0.00  0.00     0.003 A 
ENDROOT
TORSDOF 0
ENDMDL
