MODEL 1
REMARK minimizedAffinity 5.73223066
REMARK minimizedRMSD -1
REMARK  0 active torsions:
REMARK  status: ('A' for Active; 'I' for Inactive)
ROOT
ATOM      1  C4' PXY d   1       2.231   0.854   1.128  0.00  0.00     0.077 C 
ATOM      2  C1' PXY d   1       0.771  -4.522  -0.414  0.00  0.00     0.077 C 
ATOM      3  C1  PXY d   1       1.166  -3.116  -0.009  0.00  0.00    -0.082 A 
ATOM      4  C2  PXY d   1       0.290  -2.343   0.612  0.00  0.00     0.003 A 
ATOM      5  C3  PXY d   1       0.621  -1.057   0.956  0.00  0.00     0.003 A 
ATOM      6  C4  PXY d   1       1.879  -0.576   0.709  0.00  0.00    -0.082 A 
ATOM      7  C5  PXY d   1       2.782  -1.362   0.086  0.00  0.00     0.003 A 
ATOM      8  C6  PXY d   1       2.413  -2.650  -0.292  0.00  0.00     0.003 A 
ENDROOT
TORSDOF 0
ENDMDL
