MODEL 1
REMARK minimizedAffinity 8.74689865
REMARK minimizedRMSD -1
REMARK  0 active torsions:
REMARK  status: ('A' for Active; 'I' for Inactive)
ROOT
ATOM      1  C4' PXY d   1       2.079   1.073   0.486  0.00  0.00     0.077 C 
ATOM      2  C1' PXY d   1       4.089   5.061   4.156  0.00  0.00     0.077 C 
ATOM      3  C1  PXY d   1       3.574   4.012   3.190  0.00  0.00    -0.082 A 
ATOM      4  C2  PXY d   1       2.349   4.118   2.701  0.00  0.00     0.003 A 
ATOM      5  C3  PXY d   1       1.856   3.162   1.851  0.00  0.00     0.003 A 
ATOM      6  C4  PXY d   1       2.644   2.114   1.456  0.00  0.00    -0.082 A 
ATOM      7  C5  PXY d   1       3.898   2.004   1.943  0.00  0.00     0.003 A 
ATOM      8  C6  PXY d   1       4.365   2.963   2.837  0.00  0.00     0.003 A 
ENDROOT
TORSDOF 0
ENDMDL
