MODEL 1
REMARK minimizedAffinity -1.63930202
REMARK minimizedRMSD -1
REMARK  0 active torsions:
REMARK  status: ('A' for Active; 'I' for Inactive)
ROOT
ATOM      1  C4' PXY d   1       1.838   0.654   0.192  0.00  0.00     0.077 C 
ATOM      2  C1' PXY d   1       0.997  -5.063   0.006  0.00  0.00     0.077 C 
ATOM      3  C1  PXY d   1       1.205  -3.562   0.052  0.00  0.00    -0.082 A 
ATOM      4  C2  PXY d   1       2.420  -3.064  -0.112  0.00  0.00     0.003 A 
ATOM      5  C3  PXY d   1       2.631  -1.711  -0.042  0.00  0.00     0.003 A 
ATOM      6  C4  PXY d   1       1.579  -0.855   0.145  0.00  0.00    -0.082 A 
ATOM      7  C5  PXY d   1       0.335  -1.354   0.302  0.00  0.00     0.003 A 
ATOM      8  C6  PXY d   1       0.148  -2.733   0.268  0.00  0.00     0.003 A 
ENDROOT
TORSDOF 0
ENDMDL
