MODEL 1
REMARK minimizedAffinity 6.91482306
REMARK minimizedRMSD -1
REMARK  0 active torsions:
REMARK  status: ('A' for Active; 'I' for Inactive)
ROOT
ATOM      1  C4' PXY d   1       4.510   5.233   3.086  0.00  0.00     0.077 C 
ATOM      2  C1' PXY d   1       1.808   0.492   1.180  0.00  0.00     0.077 C 
ATOM      3  C1  PXY d   1       2.526   1.728   1.684  0.00  0.00    -0.082 A 
ATOM      4  C2  PXY d   1       1.834   2.824   1.948  0.00  0.00     0.003 A 
ATOM      5  C3  PXY d   1       2.472   3.961   2.375  0.00  0.00     0.003 A 
ATOM      6  C4  PXY d   1       3.825   3.959   2.584  0.00  0.00    -0.082 A 
ATOM      7  C5  PXY d   1       4.536   2.841   2.327  0.00  0.00     0.003 A 
ATOM      8  C6  PXY d   1       3.876   1.710   1.855  0.00  0.00     0.003 A 
ENDROOT
TORSDOF 0
ENDMDL
