MODEL 1
REMARK minimizedAffinity 9.30958462
REMARK minimizedRMSD -1
REMARK  0 active torsions:
REMARK  status: ('A' for Active; 'I' for Inactive)
ROOT
ATOM      1  C4' PXY d   1      -6.000   3.364  -0.651  0.00  0.00     0.077 C 
ATOM      2  C1' PXY d   1      -2.210  -0.721   0.887  0.00  0.00     0.077 C 
ATOM      3  C1  PXY d   1      -3.205   0.344   0.472  0.00  0.00    -0.082 A 
ATOM      4  C2  PXY d   1      -3.199   1.518   1.083  0.00  0.00     0.003 A 
ATOM      5  C3  PXY d   1      -4.113   2.482   0.742  0.00  0.00     0.003 A 
ATOM      6  C4  PXY d   1      -5.007   2.261  -0.271  0.00  0.00    -0.082 A 
ATOM      7  C5  PXY d   1      -5.012   1.070  -0.907  0.00  0.00     0.003 A 
ATOM      8  C6  PXY d   1      -4.104   0.090  -0.518  0.00  0.00     0.003 A 
ENDROOT
TORSDOF 0
ENDMDL
