MODEL 1
REMARK minimizedAffinity 11.8336878
REMARK minimizedRMSD -1
REMARK  0 active torsions:
REMARK  status: ('A' for Active; 'I' for Inactive)
ROOT
ATOM      1  C4' PXY d   1       4.111   6.000   3.048  0.00  0.00     0.077 C 
ATOM      2  C1' PXY d   1       2.989   0.565   1.431  0.00  0.00     0.077 C 
ATOM      3  C1  PXY d   1       3.296   1.987   1.858  0.00  0.00    -0.082 A 
ATOM      4  C2  PXY d   1       2.309   2.782   2.238  0.00  0.00     0.003 A 
ATOM      5  C3  PXY d   1       2.565   4.081   2.596  0.00  0.00     0.003 A 
ATOM      6  C4  PXY d   1       3.850   4.554   2.617  0.00  0.00    -0.082 A 
ATOM      7  C5  PXY d   1       4.863   3.745   2.241  0.00  0.00     0.003 A 
ATOM      8  C6  PXY d   1       4.578   2.443   1.841  0.00  0.00     0.003 A 
ENDROOT
TORSDOF 0
ENDMDL
