MODEL 1
REMARK minimizedAffinity 2.18160582
REMARK minimizedRMSD -1
REMARK  0 active torsions:
REMARK  status: ('A' for Active; 'I' for Inactive)
ROOT
ATOM      1  C4' PXY d   1      -1.769  -5.897  -1.956  0.00  0.00     0.077 C 
ATOM      2  C1' PXY d   1       2.328  -2.939   0.852  0.00  0.00     0.077 C 
ATOM      3  C1  PXY d   1       1.244  -3.708   0.121  0.00  0.00    -0.082 A 
ATOM      4  C2  PXY d   1       1.499  -4.924  -0.334  0.00  0.00     0.003 A 
ATOM      5  C3  PXY d   1       0.540  -5.620  -1.025  0.00  0.00     0.003 A 
ATOM      6  C4  PXY d   1      -0.708  -5.088  -1.205  0.00  0.00    -0.082 A 
ATOM      7  C5  PXY d   1      -0.979  -3.852  -0.734  0.00  0.00     0.003 A 
ATOM      8  C6  PXY d   1       0.020  -3.145  -0.071  0.00  0.00     0.003 A 
ENDROOT
TORSDOF 0
ENDMDL
