MODEL 1
REMARK minimizedAffinity 3.80066228
REMARK minimizedRMSD -1
REMARK  0 active torsions:
REMARK  status: ('A' for Active; 'I' for Inactive)
ROOT
ATOM      1  C4' PXY d   1       1.541   6.000   4.073  0.00  0.00     0.077 C 
ATOM      2  C1' PXY d   1       4.071   1.453   1.556  0.00  0.00     0.077 C 
ATOM      3  C1  PXY d   1       3.419   2.650   2.219  0.00  0.00    -0.082 A 
ATOM      4  C2  PXY d   1       2.174   2.558   2.657  0.00  0.00     0.003 A 
ATOM      5  C3  PXY d   1       1.558   3.641   3.231  0.00  0.00     0.003 A 
ATOM      6  C4  PXY d   1       2.242   4.814   3.406  0.00  0.00    -0.082 A 
ATOM      7  C5  PXY d   1       3.516   4.913   2.971  0.00  0.00     0.003 A 
ATOM      8  C6  PXY d   1       4.110   3.815   2.355  0.00  0.00     0.003 A 
ENDROOT
TORSDOF 0
ENDMDL
