MODEL 1
REMARK minimizedAffinity 8.4807682
REMARK minimizedRMSD -1
REMARK  0 active torsions:
REMARK  status: ('A' for Active; 'I' for Inactive)
ROOT
ATOM      1  C4' PXY d   1       2.257   0.719   0.923  0.00  0.00     0.077 C 
ATOM      2  C1' PXY d   1       4.074   5.561   3.506  0.00  0.00     0.077 C 
ATOM      3  C1  PXY d   1       3.609   4.289   2.825  0.00  0.00    -0.082 A 
ATOM      4  C2  PXY d   1       2.355   4.186   2.415  0.00  0.00     0.003 A 
ATOM      5  C3  PXY d   1       1.911   3.030   1.827  0.00  0.00     0.003 A 
ATOM      6  C4  PXY d   1       2.772   1.989   1.607  0.00  0.00    -0.082 A 
ATOM      7  C5  PXY d   1       4.056   2.090   2.012  0.00  0.00     0.003 A 
ATOM      8  C6  PXY d   1       4.477   3.256   2.645  0.00  0.00     0.003 A 
ENDROOT
TORSDOF 0
ENDMDL
