MODEL 1
REMARK minimizedAffinity 10.1846447
REMARK minimizedRMSD -1
REMARK  0 active torsions:
REMARK  status: ('A' for Active; 'I' for Inactive)
ROOT
ATOM      1  C4' PXY d   1      -0.905   0.372  -6.000  0.00  0.00     0.077 C 
ATOM      2  C1' PXY d   1       3.888   1.828  -3.116  0.00  0.00     0.077 C 
ATOM      3  C1  PXY d   1       2.635   1.453  -3.883  0.00  0.00    -0.082 A 
ATOM      4  C2  PXY d   1       1.541   1.113  -3.221  0.00  0.00     0.003 A 
ATOM      5  C3  PXY d   1       0.409   0.741  -3.899  0.00  0.00     0.003 A 
ATOM      6  C4  PXY d   1       0.380   0.767  -5.268  0.00  0.00    -0.082 A 
ATOM      7  C5  PXY d   1       1.489   1.123  -5.950  0.00  0.00     0.003 A 
ATOM      8  C6  PXY d   1       2.641   1.458  -5.244  0.00  0.00     0.003 A 
ENDROOT
TORSDOF 0
ENDMDL
