MODEL 1
REMARK minimizedAffinity 7.03404188
REMARK minimizedRMSD -1
REMARK  0 active torsions:
REMARK  status: ('A' for Active; 'I' for Inactive)
ROOT
ATOM      1  C4' PXY d   1       1.662   5.399   5.248  0.00  0.00     0.077 C 
ATOM      2  C1' PXY d   1       2.621   1.631   0.970  0.00  0.00     0.077 C 
ATOM      3  C1  PXY d   1       2.377   2.628   2.086  0.00  0.00    -0.082 A 
ATOM      4  C2  PXY d   1       2.045   2.193   3.291  0.00  0.00     0.003 A 
ATOM      5  C3  PXY d   1       1.789   3.082   4.303  0.00  0.00     0.003 A 
ATOM      6  C4  PXY d   1       1.927   4.428   4.094  0.00  0.00    -0.082 A 
ATOM      7  C5  PXY d   1       2.277   4.879   2.871  0.00  0.00     0.003 A 
ATOM      8  C6  PXY d   1       2.491   3.963   1.846  0.00  0.00     0.003 A 
ENDROOT
TORSDOF 0
ENDMDL
