MODEL 1
REMARK minimizedAffinity 11.6446829
REMARK minimizedRMSD -1
REMARK  0 active torsions:
REMARK  status: ('A' for Active; 'I' for Inactive)
ROOT
ATOM      1  C4' PXY d   1       1.682   3.846   0.479  0.00  0.00     0.077 C 
ATOM      2  C1' PXY d   1       5.629   3.504   4.688  0.00  0.00     0.077 C 
ATOM      3  C1  PXY d   1       4.589   3.583   3.588  0.00  0.00    -0.082 A 
ATOM      4  C2  PXY d   1       4.866   4.235   2.471  0.00  0.00     0.003 A 
ATOM      5  C3  PXY d   1       3.925   4.343   1.480  0.00  0.00     0.003 A 
ATOM      6  C4  PXY d   1       2.706   3.733   1.611  0.00  0.00    -0.082 A 
ATOM      7  C5  PXY d   1       2.420   3.057   2.744  0.00  0.00     0.003 A 
ATOM      8  C6  PXY d   1       3.374   2.993   3.755  0.00  0.00     0.003 A 
ENDROOT
TORSDOF 0
ENDMDL
