MODEL 1
REMARK minimizedAffinity 1.02520406
REMARK minimizedRMSD -1
REMARK  0 active torsions:
REMARK  status: ('A' for Active; 'I' for Inactive)
ROOT
ATOM      1  C4' PXY d   1       2.219   2.315  -0.373  0.00  0.00     0.077 C 
ATOM      2  C1' PXY d   1       3.965   5.399   4.194  0.00  0.00     0.077 C 
ATOM      3  C1  PXY d   1       3.508   4.601   2.989  0.00  0.00    -0.082 A 
ATOM      4  C2  PXY d   1       2.817   3.486   3.166  0.00  0.00     0.003 A 
ATOM      5  C3  PXY d   1       2.424   2.735   2.088  0.00  0.00     0.003 A 
ATOM      6  C4  PXY d   1       2.693   3.158   0.814  0.00  0.00    -0.082 A 
ATOM      7  C5  PXY d   1       3.388   4.299   0.625  0.00  0.00     0.003 A 
ATOM      8  C6  PXY d   1       3.814   5.026   1.733  0.00  0.00     0.003 A 
ENDROOT
TORSDOF 0
ENDMDL
