MODEL 1
REMARK minimizedAffinity 1.15086615
REMARK minimizedRMSD -1
REMARK  1 active torsions:
REMARK  status: ('A' for Active; 'I' for Inactive)
REMARK    1  A    between atoms: C3_4  and  O_7 
ROOT
ATOM      1  C   UNL d   1       5.998  -3.002   4.417  0.00  0.00    -0.033 A 
ATOM      2  C1  UNL d   1       5.907  -2.489   3.122  0.00  0.00     0.039 A 
ATOM      3  C2  UNL d   1       4.672  -2.078   2.617  0.00  0.00    -0.080 A 
ATOM      4  C3  UNL d   1       3.538  -2.182   3.417  0.00  0.00     0.150 A 
ATOM      5  C4  UNL d   1       3.622  -2.688   4.710  0.00  0.00    -0.007 A 
ATOM      6  C5  UNL d   1       4.856  -3.100   5.212  0.00  0.00     0.039 A 
ENDROOT
BRANCH   4   7
ATOM      7  O   UNL d   1       2.310  -1.798   2.967  0.00  0.00    -0.526 OA
ATOM      8  H5  UNL d   1       2.400  -1.496   2.047  0.00  0.00     0.418 HD
ENDBRANCH   4   7
TORSDOF 1
ENDMDL
