MODEL 1
REMARK minimizedAffinity -0.0595304556
REMARK minimizedRMSD -1
REMARK  1 active torsions:
REMARK  status: ('A' for Active; 'I' for Inactive)
REMARK    1  A    between atoms: C3_4  and  O_7 
ROOT
ATOM      1  C   UNL d   1       2.280   1.091   0.628  0.00  0.00    -0.033 A 
ATOM      2  C1  UNL d   1       3.017   1.670   1.663  0.00  0.00     0.039 A 
ATOM      3  C2  UNL d   1       3.000   1.101   2.938  0.00  0.00    -0.080 A 
ATOM      4  C3  UNL d   1       2.245  -0.047   3.164  0.00  0.00     0.150 A 
ATOM      5  C4  UNL d   1       1.512  -0.631   2.137  0.00  0.00    -0.007 A 
ATOM      6  C5  UNL d   1       1.529  -0.061   0.865  0.00  0.00     0.039 A 
ENDROOT
BRANCH   4   7
ATOM      7  O   UNL d   1       2.195  -0.636   4.392  0.00  0.00    -0.526 OA
ATOM      8  H5  UNL d   1       2.727  -0.106   5.010  0.00  0.00     0.418 HD
ENDBRANCH   4   7
TORSDOF 1
ENDMDL
