MODEL 1
REMARK minimizedAffinity -1.44997883
REMARK minimizedRMSD -1
REMARK  1 active torsions:
REMARK  status: ('A' for Active; 'I' for Inactive)
REMARK    1  A    between atoms: C3_4  and  O_7 
ROOT
ATOM      1  C   UNL d   1      -0.761  -3.202  -1.699  0.00  0.00    -0.033 A 
ATOM      2  C1  UNL d   1      -1.549  -2.325  -0.951  0.00  0.00     0.039 A 
ATOM      3  C2  UNL d   1      -1.077  -1.820   0.262  0.00  0.00    -0.080 A 
ATOM      4  C3  UNL d   1       0.184  -2.199   0.715  0.00  0.00     0.150 A 
ATOM      5  C4  UNL d   1       0.976  -3.069  -0.026  0.00  0.00    -0.007 A 
ATOM      6  C5  UNL d   1       0.502  -3.573  -1.237  0.00  0.00     0.039 A 
ENDROOT
BRANCH   4   7
ATOM      7  O   UNL d   1       0.686  -1.736   1.895  0.00  0.00    -0.526 OA
ATOM      8  H5  UNL d   1       0.017  -1.167   2.312  0.00  0.00     0.418 HD
ENDBRANCH   4   7
TORSDOF 1
ENDMDL
