MODEL 1
REMARK minimizedAffinity -2.38757634
REMARK minimizedRMSD -1
REMARK  1 active torsions:
REMARK  status: ('A' for Active; 'I' for Inactive)
REMARK    1  A    between atoms: C3_4  and  O_7 
ROOT
ATOM      1  C   UNL d   1       4.931  -1.883  -5.984  0.00  0.00    -0.033 A 
ATOM      2  C1  UNL d   1       6.000  -0.984  -5.970  0.00  0.00     0.039 A 
ATOM      3  C2  UNL d   1       5.758   0.391  -5.973  0.00  0.00    -0.080 A 
ATOM      4  C3  UNL d   1       4.445   0.854  -5.988  0.00  0.00     0.150 A 
ATOM      5  C4  UNL d   1       3.376  -0.036  -5.997  0.00  0.00    -0.007 A 
ATOM      6  C5  UNL d   1       3.619  -1.409  -5.996  0.00  0.00     0.039 A 
ENDROOT
BRANCH   4   7
ATOM      7  O   UNL d   1       4.160   2.187  -5.996  0.00  0.00    -0.526 OA
ATOM      8  H5  UNL d   1       4.996   2.681  -6.017  0.00  0.00     0.418 HD
ENDBRANCH   4   7
TORSDOF 1
ENDMDL
