MODEL 1
REMARK minimizedAffinity 0.657660544
REMARK minimizedRMSD -1
REMARK  1 active torsions:
REMARK  status: ('A' for Active; 'I' for Inactive)
REMARK    1  A    between atoms: C3_4  and  O_7 
ROOT
ATOM      1  C   UNL d   1      -0.102   1.960   0.033  0.00  0.00    -0.033 A 
ATOM      2  C1  UNL d   1       1.080   1.344   0.449  0.00  0.00     0.039 A 
ATOM      3  C2  UNL d   1       1.096  -0.024   0.728  0.00  0.00    -0.080 A 
ATOM      4  C3  UNL d   1      -0.075  -0.764   0.585  0.00  0.00     0.150 A 
ATOM      5  C4  UNL d   1      -1.255  -0.158   0.167  0.00  0.00    -0.007 A 
ATOM      6  C5  UNL d   1      -1.269   1.209  -0.109  0.00  0.00     0.039 A 
ENDROOT
BRANCH   4   7
ATOM      7  O   UNL d   1      -0.110  -2.101   0.850  0.00  0.00    -0.526 OA
ATOM      8  H5  UNL d   1       0.770  -2.377   1.156  0.00  0.00     0.418 HD
ENDBRANCH   4   7
TORSDOF 1
ENDMDL
