MODEL 1
REMARK minimizedAffinity 1.37823355
REMARK minimizedRMSD -1
REMARK  2 active torsions:
REMARK  status: ('A' for Active; 'I' for Inactive)
REMARK    1  A    between atoms: C1_2  and  C2_3 
REMARK    2  A    between atoms: C2_3  and  C3_4 
ROOT
ATOM      1  C3  UNL d   1       3.799   4.466  -0.435  0.00  0.00    -0.075 A 
ATOM      2  C4  UNL d   1       4.778   3.709  -1.094  0.00  0.00     0.002 A 
ATOM      3  C5  UNL d   1       4.413   2.732  -2.021  0.00  0.00     0.002 A 
ATOM      4  C6  UNL d   1       3.068   2.495  -2.295  0.00  0.00    -0.004 A 
ATOM      5  C7  UNL d   1       2.086   3.230  -1.634  0.00  0.00     0.002 A 
ATOM      6  C8  UNL d   1       2.448   4.210  -0.709  0.00  0.00     0.002 A 
ENDROOT
BRANCH   1   7
ATOM      7  C2  UNL d   1       4.188   5.545   0.548  0.00  0.00     0.056 C 
BRANCH   7   8
ATOM      8  C1  UNL d   1       5.180   5.083   1.620  0.00  0.00     0.007 C 
ATOM      9  C   UNL d   1       4.504   4.491   2.850  0.00  0.00     0.009 C 
ENDBRANCH   7   8
ENDBRANCH   1   7
TORSDOF 2
ENDMDL
