MODEL 1
REMARK minimizedAffinity 3.13171101
REMARK minimizedRMSD -1
REMARK  2 active torsions:
REMARK  status: ('A' for Active; 'I' for Inactive)
REMARK    1  A    between atoms: C1_2  and  C2_3 
REMARK    2  A    between atoms: C2_3  and  C3_4 
ROOT
ATOM      1  C3  UNL d   1      -0.652  -1.295  -2.012  0.00  0.00    -0.075 A 
ATOM      2  C4  UNL d   1       0.486  -1.303  -2.831  0.00  0.00     0.002 A 
ATOM      3  C5  UNL d   1       0.820  -2.440  -3.567  0.00  0.00     0.002 A 
ATOM      4  C6  UNL d   1       0.029  -3.584  -3.486  0.00  0.00    -0.004 A 
ATOM      5  C7  UNL d   1      -1.094  -3.592  -2.662  0.00  0.00     0.002 A 
ATOM      6  C8  UNL d   1      -1.434  -2.455  -1.928  0.00  0.00     0.002 A 
ENDROOT
BRANCH   1   7
ATOM      7  C2  UNL d   1      -1.036  -0.058  -1.235  0.00  0.00     0.056 C 
BRANCH   7   8
ATOM      8  C1  UNL d   1      -0.019   0.346  -0.163  0.00  0.00     0.007 C 
ATOM      9  C   UNL d   1      -0.571   1.350   0.841  0.00  0.00     0.009 C 
ENDBRANCH   7   8
ENDBRANCH   1   7
TORSDOF 2
ENDMDL
