MODEL 1
REMARK minimizedAffinity 2.09119749
REMARK minimizedRMSD -1
REMARK  2 active torsions:
REMARK  status: ('A' for Active; 'I' for Inactive)
REMARK    1  A    between atoms: C1_2  and  C2_3 
REMARK    2  A    between atoms: C2_3  and  C3_4 
ROOT
ATOM      1  C3  UNL d   1       0.843   4.735  -5.996  0.00  0.00    -0.075 A 
ATOM      2  C4  UNL d   1      -0.359   5.457  -5.998  0.00  0.00     0.002 A 
ATOM      3  C5  UNL d   1      -1.586   4.792  -5.976  0.00  0.00     0.002 A 
ATOM      4  C6  UNL d   1      -1.626   3.400  -5.963  0.00  0.00    -0.004 A 
ATOM      5  C7  UNL d   1      -0.438   2.672  -5.978  0.00  0.00     0.002 A 
ATOM      6  C8  UNL d   1       0.790   3.335  -5.995  0.00  0.00     0.002 A 
ENDROOT
BRANCH   1   7
ATOM      7  C2  UNL d   1       2.173   5.449  -5.990  0.00  0.00     0.056 C 
BRANCH   7   8
ATOM      8  C1  UNL d   1       3.385   4.511  -5.995  0.00  0.00     0.007 C 
ATOM      9  C   UNL d   1       4.715   5.248  -5.920  0.00  0.00     0.009 C 
ENDBRANCH   7   8
ENDBRANCH   1   7
TORSDOF 2
ENDMDL
