MODEL 1
REMARK minimizedAffinity -2.71141195
REMARK minimizedRMSD -1
REMARK  2 active torsions:
REMARK  status: ('A' for Active; 'I' for Inactive)
REMARK    1  A    between atoms: C1_2  and  C2_3 
REMARK    2  A    between atoms: C2_3  and  C3_4 
ROOT
ATOM      1  C3  UNL d   1      -0.790   3.372  -5.971  0.00  0.00    -0.075 A 
ATOM      2  C4  UNL d   1      -1.891   2.504  -5.999  0.00  0.00     0.002 A 
ATOM      3  C5  UNL d   1      -3.191   3.009  -6.000  0.00  0.00     0.002 A 
ATOM      4  C6  UNL d   1      -3.407   4.384  -5.962  0.00  0.00    -0.004 A 
ATOM      5  C7  UNL d   1      -2.321   5.256  -5.917  0.00  0.00     0.002 A 
ATOM      6  C8  UNL d   1      -1.019   4.753  -5.921  0.00  0.00     0.002 A 
ENDROOT
BRANCH   1   7
ATOM      7  C2  UNL d   1       0.621   2.832  -6.000  0.00  0.00     0.056 C 
BRANCH   7   8
ATOM      8  C1  UNL d   1       1.703   3.916  -5.986  0.00  0.00     0.007 C 
ATOM      9  C   UNL d   1       3.071   3.394  -5.567  0.00  0.00     0.009 C 
ENDBRANCH   7   8
ENDBRANCH   1   7
TORSDOF 2
ENDMDL
