MODEL 1
REMARK minimizedAffinity -2.33609319
REMARK minimizedRMSD -1
REMARK  2 active torsions:
REMARK  status: ('A' for Active; 'I' for Inactive)
REMARK    1  A    between atoms: C1_2  and  C2_3 
REMARK    2  A    between atoms: C2_3  and  C3_4 
ROOT
ATOM      1  C3  UNL d   1       1.877   4.592  -5.988  0.00  0.00    -0.075 A 
ATOM      2  C4  UNL d   1       2.706   3.461  -5.962  0.00  0.00     0.002 A 
ATOM      3  C5  UNL d   1       4.094   3.600  -5.925  0.00  0.00     0.002 A 
ATOM      4  C6  UNL d   1       4.670   4.869  -5.924  0.00  0.00    -0.004 A 
ATOM      5  C7  UNL d   1       3.856   5.999  -5.966  0.00  0.00     0.002 A 
ATOM      6  C8  UNL d   1       2.468   5.863  -5.999  0.00  0.00     0.002 A 
ENDROOT
BRANCH   1   7
ATOM      7  C2  UNL d   1       0.374   4.448  -5.999  0.00  0.00     0.056 C 
BRANCH   7   8
ATOM      8  C1  UNL d   1      -0.363   5.548  -5.228  0.00  0.00     0.007 C 
ATOM      9  C   UNL d   1      -1.725   5.885  -5.819  0.00  0.00     0.009 C 
ENDBRANCH   7   8
ENDBRANCH   1   7
TORSDOF 2
ENDMDL
