MODEL 1
REMARK minimizedAffinity -1.71863389
REMARK minimizedRMSD -1
REMARK  2 active torsions:
REMARK  status: ('A' for Active; 'I' for Inactive)
REMARK    1  A    between atoms: C1_2  and  C2_3 
REMARK    2  A    between atoms: C2_3  and  C3_4 
ROOT
ATOM      1  C3  UNL d   1       1.731   4.680  -5.995  0.00  0.00    -0.075 A 
ATOM      2  C4  UNL d   1       2.510   3.514  -6.000  0.00  0.00     0.002 A 
ATOM      3  C5  UNL d   1       3.903   3.593  -5.986  0.00  0.00     0.002 A 
ATOM      4  C6  UNL d   1       4.533   4.835  -5.978  0.00  0.00    -0.004 A 
ATOM      5  C7  UNL d   1       3.769   6.000  -5.990  0.00  0.00     0.002 A 
ATOM      6  C8  UNL d   1       2.375   5.924  -5.999  0.00  0.00     0.002 A 
ENDROOT
BRANCH   1   7
ATOM      7  C2  UNL d   1       0.223   4.601  -5.981  0.00  0.00     0.056 C 
BRANCH   7   8
ATOM      8  C1  UNL d   1      -0.473   5.966  -5.937  0.00  0.00     0.007 C 
ATOM      9  C   UNL d   1      -1.969   5.869  -5.672  0.00  0.00     0.009 C 
ENDBRANCH   7   8
ENDBRANCH   1   7
TORSDOF 2
ENDMDL
