MODEL 1
REMARK minimizedAffinity 8.68842983
REMARK minimizedRMSD -1
REMARK  2 active torsions:
REMARK  status: ('A' for Active; 'I' for Inactive)
REMARK    1  A    between atoms: C1_2  and  C2_3 
REMARK    2  A    between atoms: C2_3  and  C3_4 
ROOT
ATOM      1  C3  UNL d   1       2.992   4.001  -5.604  0.00  0.00    -0.075 A 
ATOM      2  C4  UNL d   1       3.622   5.192  -5.994  0.00  0.00     0.002 A 
ATOM      3  C5  UNL d   1       4.954   5.432  -5.656  0.00  0.00     0.002 A 
ATOM      4  C6  UNL d   1       5.669   4.492  -4.916  0.00  0.00    -0.004 A 
ATOM      5  C7  UNL d   1       5.048   3.314  -4.509  0.00  0.00     0.002 A 
ATOM      6  C8  UNL d   1       3.716   3.069  -4.849  0.00  0.00     0.002 A 
ENDROOT
BRANCH   1   7
ATOM      7  C2  UNL d   1       1.560   3.722  -5.992  0.00  0.00     0.056 C 
BRANCH   7   8
ATOM      8  C1  UNL d   1       0.532   4.167  -4.946  0.00  0.00     0.007 C 
ATOM      9  C   UNL d   1      -0.353   5.311  -5.423  0.00  0.00     0.009 C 
ENDBRANCH   7   8
ENDBRANCH   1   7
TORSDOF 2
ENDMDL
