MODEL 1
REMARK minimizedAffinity -2.71876454
REMARK minimizedRMSD -1
REMARK  2 active torsions:
REMARK  status: ('A' for Active; 'I' for Inactive)
REMARK    1  A    between atoms: C1_2  and  C2_3 
REMARK    2  A    between atoms: C2_3  and  C3_4 
ROOT
ATOM      1  C3  UNL d   1       2.246   4.148  -5.981  0.00  0.00    -0.075 A 
ATOM      2  C4  UNL d   1       2.401   2.754  -5.968  0.00  0.00     0.002 A 
ATOM      3  C5  UNL d   1       1.286   1.917  -5.980  0.00  0.00     0.002 A 
ATOM      4  C6  UNL d   1       0.003   2.460  -5.996  0.00  0.00    -0.004 A 
ATOM      5  C7  UNL d   1      -0.164   3.843  -5.992  0.00  0.00     0.002 A 
ATOM      6  C8  UNL d   1       0.951   4.684  -5.985  0.00  0.00     0.002 A 
ENDROOT
BRANCH   1   7
ATOM      7  C2  UNL d   1       3.449   5.060  -5.998  0.00  0.00     0.056 C 
BRANCH   7   8
ATOM      8  C1  UNL d   1       4.758   4.372  -5.596  0.00  0.00     0.007 C 
ATOM      9  C   UNL d   1       5.982   5.262  -5.771  0.00  0.00     0.009 C 
ENDBRANCH   7   8
ENDBRANCH   1   7
TORSDOF 2
ENDMDL
