MODEL 1
REMARK minimizedAffinity 6.95919847
REMARK minimizedRMSD -1
REMARK  2 active torsions:
REMARK  status: ('A' for Active; 'I' for Inactive)
REMARK    1  A    between atoms: C1_2  and  C2_3 
REMARK    2  A    between atoms: C2_3  and  C3_4 
ROOT
ATOM      1  C3  UNL d   1      -0.549  -3.365  -2.764  0.00  0.00    -0.075 A 
ATOM      2  C4  UNL d   1       0.364  -3.013  -1.760  0.00  0.00     0.002 A 
ATOM      3  C5  UNL d   1       1.721  -2.871  -2.054  0.00  0.00     0.002 A 
ATOM      4  C6  UNL d   1       2.182  -3.089  -3.351  0.00  0.00    -0.004 A 
ATOM      5  C7  UNL d   1       1.285  -3.455  -4.353  0.00  0.00     0.002 A 
ATOM      6  C8  UNL d   1      -0.073  -3.593  -4.062  0.00  0.00     0.002 A 
ENDROOT
BRANCH   1   7
ATOM      7  C2  UNL d   1      -2.023  -3.491  -2.458  0.00  0.00     0.056 C 
BRANCH   7   8
ATOM      8  C1  UNL d   1      -2.437  -2.870  -1.120  0.00  0.00     0.007 C 
ATOM      9  C   UNL d   1      -3.455  -3.710  -0.358  0.00  0.00     0.009 C 
ENDBRANCH   7   8
ENDBRANCH   1   7
TORSDOF 2
ENDMDL
