MODEL 1
REMARK minimizedAffinity 1.78818607
REMARK minimizedRMSD -1
REMARK  2 active torsions:
REMARK  status: ('A' for Active; 'I' for Inactive)
REMARK    1  A    between atoms: C1_2  and  C2_3 
REMARK    2  A    between atoms: C2_3  and  C3_4 
ROOT
ATOM      1  C3  UNL d   1      -2.146   3.836  -5.994  0.00  0.00    -0.075 A 
ATOM      2  C4  UNL d   1      -2.083   5.237  -6.000  0.00  0.00     0.002 A 
ATOM      3  C5  UNL d   1      -3.252   5.999  -5.967  0.00  0.00     0.002 A 
ATOM      4  C6  UNL d   1      -4.495   5.372  -5.939  0.00  0.00    -0.004 A 
ATOM      5  C7  UNL d   1      -4.570   3.981  -5.950  0.00  0.00     0.002 A 
ATOM      6  C8  UNL d   1      -3.403   3.216  -5.978  0.00  0.00     0.002 A 
ENDROOT
BRANCH   1   7
ATOM      7  C2  UNL d   1      -0.885   3.006  -5.999  0.00  0.00     0.056 C 
BRANCH   7   8
ATOM      8  C1  UNL d   1       0.277   3.633  -5.221  0.00  0.00     0.007 C 
ATOM      9  C   UNL d   1       0.205   3.372  -3.722  0.00  0.00     0.009 C 
ENDBRANCH   7   8
ENDBRANCH   1   7
TORSDOF 2
ENDMDL
