MODEL 1
REMARK minimizedAffinity -5.14266968
REMARK minimizedRMSD -1
REMARK  1 active torsions:
REMARK  status: ('A' for Active; 'I' for Inactive)
REMARK    1  A    between atoms: C1_2  and  C2_3 
ROOT
ATOM      1  C2  UNL d   1       0.083  -0.139  -0.024  0.00  0.00    -0.081 A 
ATOM      2  C3  UNL d   1      -0.171  -1.297   0.721  0.00  0.00     0.006 A 
ATOM      3  C4  UNL d   1       0.856  -1.919   1.436  0.00  0.00     0.002 A 
ATOM      4  C5  UNL d   1       2.150  -1.388   1.425  0.00  0.00    -0.080 A 
ATOM      5  C6  UNL d   1       3.255  -2.028   2.213  0.00  0.00     0.076 C 
ATOM      6  C7  UNL d   1       2.408  -0.241   0.667  0.00  0.00     0.002 A 
ATOM      7  C8  UNL d   1       1.382   0.380  -0.049  0.00  0.00     0.006 A 
ENDROOT
BRANCH   1   8
ATOM      8  C1  UNL d   1      -1.035   0.570  -0.744  0.00  0.00     0.054 C 
ATOM      9  C   UNL d   1      -2.010  -0.421  -1.364  0.00  0.00     0.018 C 
ENDBRANCH   1   8
TORSDOF 1
ENDMDL
