MODEL 1
REMARK minimizedAffinity -3.4330163
REMARK minimizedRMSD -1
REMARK  1 active torsions:
REMARK  status: ('A' for Active; 'I' for Inactive)
REMARK    1  A    between atoms: C1_2  and  C2_3 
ROOT
ATOM      1  C2  UNL d   1      -0.965   0.088  -0.261  0.00  0.00    -0.081 A 
ATOM      2  C3  UNL d   1       0.181   0.892  -0.255  0.00  0.00     0.006 A 
ATOM      3  C4  UNL d   1       1.269   0.569   0.561  0.00  0.00     0.002 A 
ATOM      4  C5  UNL d   1       1.231  -0.567   1.377  0.00  0.00    -0.080 A 
ATOM      5  C6  UNL d   1       2.403  -0.941   2.235  0.00  0.00     0.076 C 
ATOM      6  C7  UNL d   1       0.079  -1.360   1.384  0.00  0.00     0.002 A 
ATOM      7  C8  UNL d   1      -1.009  -1.038   0.569  0.00  0.00     0.006 A 
ENDROOT
BRANCH   1   8
ATOM      8  C1  UNL d   1      -2.113   0.397  -1.188  0.00  0.00     0.054 C 
ATOM      9  C   UNL d   1      -2.140  -0.558  -2.373  0.00  0.00     0.018 C 
ENDBRANCH   1   8
TORSDOF 1
ENDMDL
