MODEL 1
REMARK minimizedAffinity -5.73290777
REMARK minimizedRMSD -1
REMARK  1 active torsions:
REMARK  status: ('A' for Active; 'I' for Inactive)
REMARK    1  A    between atoms: C1_2  and  C2_3 
ROOT
ATOM      1  C2  UNL d   1       0.296  -0.217   0.821  0.00  0.00    -0.081 A 
ATOM      2  C3  UNL d   1       0.318  -1.446   1.493  0.00  0.00     0.006 A 
ATOM      3  C4  UNL d   1       1.532  -2.021   1.876  0.00  0.00     0.002 A 
ATOM      4  C5  UNL d   1       2.742  -1.375   1.602  0.00  0.00    -0.080 A 
ATOM      5  C6  UNL d   1       4.050  -1.967   2.036  0.00  0.00     0.076 C 
ATOM      6  C7  UNL d   1       2.721  -0.156   0.916  0.00  0.00     0.002 A 
ATOM      7  C8  UNL d   1       1.507   0.420   0.532  0.00  0.00     0.006 A 
ENDROOT
BRANCH   1   8
ATOM      8  C1  UNL d   1      -1.014   0.437   0.463  0.00  0.00     0.054 C 
ATOM      9  C   UNL d   1      -1.399   0.151  -0.981  0.00  0.00     0.018 C 
ENDBRANCH   1   8
TORSDOF 1
ENDMDL
