MODEL 1
REMARK minimizedAffinity -6.37528181
REMARK minimizedRMSD -1
REMARK  1 active torsions:
REMARK  status: ('A' for Active; 'I' for Inactive)
REMARK    1  A    between atoms: C1_2  and  C2_3 
ROOT
ATOM      1  C2  UNL d   1      -0.880   0.058  -0.067  0.00  0.00    -0.081 A 
ATOM      2  C3  UNL d   1       0.187   0.963  -0.086  0.00  0.00     0.006 A 
ATOM      3  C4  UNL d   1       1.424   0.611   0.459  0.00  0.00     0.002 A 
ATOM      4  C5  UNL d   1       1.617  -0.654   1.025  0.00  0.00    -0.080 A 
ATOM      5  C6  UNL d   1       2.948  -1.055   1.586  0.00  0.00     0.076 C 
ATOM      6  C7  UNL d   1       0.545  -1.552   1.060  0.00  0.00     0.002 A 
ATOM      7  C8  UNL d   1      -0.692  -1.200   0.516  0.00  0.00     0.006 A 
ENDROOT
BRANCH   1   8
ATOM      8  C1  UNL d   1      -2.196   0.411  -0.712  0.00  0.00     0.054 C 
ATOM      9  C   UNL d   1      -2.373  -0.310  -2.040  0.00  0.00     0.018 C 
ENDBRANCH   1   8
TORSDOF 1
ENDMDL
