MODEL 1
REMARK minimizedAffinity -3.12666702
REMARK minimizedRMSD -1
REMARK  0 active torsions:
REMARK  status: ('A' for Active; 'I' for Inactive)
ROOT
ATOM      1  C   UNL d   1       2.729   0.021   1.182  0.00  0.00     0.078 C 
ATOM      2  C1  UNL d   1       1.309   0.065   0.702  0.00  0.00    -0.077 A 
ATOM      3  C2  UNL d   1       0.752   1.250   0.204  0.00  0.00    -0.001 A 
ATOM      4  C3  UNL d   1      -0.574   1.278  -0.230  0.00  0.00     0.003 A 
ATOM      5  C4  UNL d   1      -1.356   0.126  -0.169  0.00  0.00    -0.005 A 
ATOM      6  C5  UNL d   1      -0.811  -1.056   0.328  0.00  0.00     0.003 A 
ATOM      7  C6  UNL d   1       0.515  -1.087   0.762  0.00  0.00    -0.001 A 
ENDROOT
TORSDOF 0
ENDMDL
