MODEL 1
REMARK minimizedAffinity 2.56500673
REMARK minimizedRMSD -1
REMARK  0 active torsions:
REMARK  status: ('A' for Active; 'I' for Inactive)
ROOT
ATOM      1  C   UNL d   1      -0.755   1.040   0.061  0.00  0.00     0.078 C 
ATOM      2  C1  UNL d   1       0.728   1.071   0.283  0.00  0.00    -0.077 A 
ATOM      3  C2  UNL d   1       1.281   0.698   1.514  0.00  0.00    -0.001 A 
ATOM      4  C3  UNL d   1       2.663   0.742   1.709  0.00  0.00     0.003 A 
ATOM      5  C4  UNL d   1       3.502   1.159   0.678  0.00  0.00    -0.005 A 
ATOM      6  C5  UNL d   1       2.961   1.534  -0.550  0.00  0.00     0.003 A 
ATOM      7  C6  UNL d   1       1.579   1.491  -0.747  0.00  0.00    -0.001 A 
ENDROOT
TORSDOF 0
ENDMDL
