MODEL 1
REMARK minimizedAffinity 0.254402846
REMARK minimizedRMSD -1
REMARK  0 active torsions:
REMARK  status: ('A' for Active; 'I' for Inactive)
ROOT
ATOM      1  C   UNL d   1      -0.231   4.548   0.797  0.00  0.00     0.078 C 
ATOM      2  C1  UNL d   1       0.326   3.211   0.408  0.00  0.00    -0.077 A 
ATOM      3  C2  UNL d   1      -0.274   2.025   0.849  0.00  0.00    -0.001 A 
ATOM      4  C3  UNL d   1       0.261   0.787   0.487  0.00  0.00     0.003 A 
ATOM      5  C4  UNL d   1       1.398   0.724  -0.316  0.00  0.00    -0.005 A 
ATOM      6  C5  UNL d   1       2.002   1.900  -0.758  0.00  0.00     0.003 A 
ATOM      7  C6  UNL d   1       1.469   3.138  -0.397  0.00  0.00    -0.001 A 
ENDROOT
TORSDOF 0
ENDMDL
