MODEL 1
REMARK minimizedAffinity -5.24340343
REMARK minimizedRMSD -1
REMARK  0 active torsions:
REMARK  status: ('A' for Active; 'I' for Inactive)
ROOT
ATOM      1  C   UNL d   1      -0.796  -0.273  -0.033  0.00  0.00     0.078 C 
ATOM      2  C1  UNL d   1       0.585  -0.369   0.542  0.00  0.00    -0.077 A 
ATOM      3  C2  UNL d   1       0.961  -1.459   1.337  0.00  0.00    -0.001 A 
ATOM      4  C3  UNL d   1       2.248  -1.531   1.874  0.00  0.00     0.003 A 
ATOM      5  C4  UNL d   1       3.168  -0.515   1.623  0.00  0.00    -0.005 A 
ATOM      6  C5  UNL d   1       2.803   0.574   0.835  0.00  0.00     0.003 A 
ATOM      7  C6  UNL d   1       1.517   0.648   0.298  0.00  0.00    -0.001 A 
ENDROOT
TORSDOF 0
ENDMDL
