MODEL 1
REMARK minimizedAffinity -5.2516427
REMARK minimizedRMSD -1
REMARK  0 active torsions:
REMARK  status: ('A' for Active; 'I' for Inactive)
ROOT
ATOM      1  C   UNL d   1       3.144  -0.018   0.751  0.00  0.00     0.078 C 
ATOM      2  C1  UNL d   1       1.668   0.054   0.497  0.00  0.00    -0.077 A 
ATOM      3  C2  UNL d   1       1.050   1.267   0.171  0.00  0.00    -0.001 A 
ATOM      4  C3  UNL d   1      -0.326   1.321  -0.053  0.00  0.00     0.003 A 
ATOM      5  C4  UNL d   1      -1.097   0.165   0.048  0.00  0.00    -0.005 A 
ATOM      6  C5  UNL d   1      -0.492  -1.047   0.374  0.00  0.00     0.003 A 
ATOM      7  C6  UNL d   1       0.885  -1.103   0.599  0.00  0.00    -0.001 A 
ENDROOT
TORSDOF 0
ENDMDL
