MODEL 1
REMARK minimizedAffinity -0.76319474
REMARK minimizedRMSD -1
REMARK  0 active torsions:
REMARK  status: ('A' for Active; 'I' for Inactive)
ROOT
ATOM      1  C   UNL d   1      -2.167  -0.014  -1.814  0.00  0.00     0.078 C 
ATOM      2  C1  UNL d   1      -1.136   0.002  -0.725  0.00  0.00    -0.077 A 
ATOM      3  C2  UNL d   1      -1.226  -0.870   0.366  0.00  0.00    -0.001 A 
ATOM      4  C3  UNL d   1      -0.264  -0.838   1.377  0.00  0.00     0.003 A 
ATOM      5  C4  UNL d   1       0.795   0.065   1.307  0.00  0.00    -0.005 A 
ATOM      6  C5  UNL d   1       0.892   0.938   0.225  0.00  0.00     0.003 A 
ATOM      7  C6  UNL d   1      -0.069   0.907  -0.786  0.00  0.00    -0.001 A 
ENDROOT
TORSDOF 0
ENDMDL
