MODEL 1
REMARK minimizedAffinity -5.53241587
REMARK minimizedRMSD -1
REMARK  0 active torsions:
REMARK  status: ('A' for Active; 'I' for Inactive)
ROOT
ATOM      1  C   UNL d   1      -0.676  -0.041   0.506  0.00  0.00     0.078 C 
ATOM      2  C1  UNL d   1       0.735  -0.471   0.771  0.00  0.00    -0.077 A 
ATOM      3  C2  UNL d   1       1.818   0.326   0.380  0.00  0.00    -0.001 A 
ATOM      4  C3  UNL d   1       3.127  -0.093   0.624  0.00  0.00     0.003 A 
ATOM      5  C4  UNL d   1       3.366  -1.310   1.259  0.00  0.00    -0.005 A 
ATOM      6  C5  UNL d   1       2.295  -2.111   1.650  0.00  0.00     0.003 A 
ATOM      7  C6  UNL d   1       0.985  -1.694   1.407  0.00  0.00    -0.001 A 
ENDROOT
TORSDOF 0
ENDMDL
