MODEL 1
REMARK minimizedAffinity -5.35617352
REMARK minimizedRMSD -1
REMARK  0 active torsions:
REMARK  status: ('A' for Active; 'I' for Inactive)
ROOT
ATOM      1  C   UNL d   1      -0.583   0.664  -0.795  0.00  0.00     0.078 C 
ATOM      2  C1  UNL d   1       0.544   0.194   0.075  0.00  0.00    -0.077 A 
ATOM      3  C2  UNL d   1       1.330   1.104   0.792  0.00  0.00    -0.001 A 
ATOM      4  C3  UNL d   1       2.382   0.653   1.590  0.00  0.00     0.003 A 
ATOM      5  C4  UNL d   1       2.659  -0.709   1.679  0.00  0.00    -0.005 A 
ATOM      6  C5  UNL d   1       1.884  -1.623   0.967  0.00  0.00     0.003 A 
ATOM      7  C6  UNL d   1       0.832  -1.174   0.168  0.00  0.00    -0.001 A 
ENDROOT
TORSDOF 0
ENDMDL
