MODEL 1
REMARK minimizedAffinity -5.70749378
REMARK minimizedRMSD -1
REMARK  0 active torsions:
REMARK  status: ('A' for Active; 'I' for Inactive)
ROOT
ATOM      1  C   UNL d   1      -0.969   0.115  -1.115  0.00  0.00     0.078 C 
ATOM      2  C1  UNL d   1       0.414   0.081  -0.537  0.00  0.00    -0.077 A 
ATOM      3  C2  UNL d   1       1.247  -1.029  -0.727  0.00  0.00    -0.001 A 
ATOM      4  C3  UNL d   1       2.529  -1.051  -0.175  0.00  0.00     0.003 A 
ATOM      5  C4  UNL d   1       2.989   0.032   0.571  0.00  0.00    -0.005 A 
ATOM      6  C5  UNL d   1       2.166   1.140   0.767  0.00  0.00     0.003 A 
ATOM      7  C6  UNL d   1       0.884   1.164   0.216  0.00  0.00    -0.001 A 
ENDROOT
TORSDOF 0
ENDMDL
