MODEL 1
REMARK minimizedAffinity -2.55130982
REMARK minimizedRMSD -1
REMARK  0 active torsions:
REMARK  status: ('A' for Active; 'I' for Inactive)
ROOT
ATOM      1  C   UNL d   1       0.729  -1.519  -1.297  0.00  0.00     0.172 C 
ATOM      2  N   UNL d   1       0.085  -0.764  -0.247  0.00  0.00    -0.070 N 
ATOM      3  C1  UNL d   1      -0.609   0.404  -0.414  0.00  0.00    -0.004 A 
ATOM      4  C2  UNL d   1      -1.066   0.804   0.823  0.00  0.00    -0.047 A 
ATOM      5  C3  UNL d   1      -0.630  -0.157   1.766  0.00  0.00    -0.047 A 
ATOM      6  C4  UNL d   1       0.080  -1.117   1.077  0.00  0.00    -0.004 A 
ENDROOT
TORSDOF 0
ENDMDL
