MODEL 1
REMARK minimizedAffinity -2.82462096
REMARK minimizedRMSD -1
REMARK  0 active torsions:
REMARK  status: ('A' for Active; 'I' for Inactive)
ROOT
ATOM      1  C   UNL d   1      -1.436   0.818   1.953  0.00  0.00     0.172 C 
ATOM      2  N   UNL d   1      -0.518   0.252   0.992  0.00  0.00    -0.070 N 
ATOM      3  C1  UNL d   1      -0.412   0.621  -0.322  0.00  0.00    -0.004 A 
ATOM      4  C2  UNL d   1       0.575  -0.151  -0.898  0.00  0.00    -0.047 A 
ATOM      5  C3  UNL d   1       1.078  -1.013   0.105  0.00  0.00    -0.047 A 
ATOM      6  C4  UNL d   1       0.383  -0.742   1.265  0.00  0.00    -0.004 A 
ENDROOT
TORSDOF 0
ENDMDL
