MODEL 1
REMARK minimizedAffinity -1.69648862
REMARK minimizedRMSD -1
REMARK  0 active torsions:
REMARK  status: ('A' for Active; 'I' for Inactive)
ROOT
ATOM      1  C   UNL d   1       1.959  -0.638  -1.509  0.00  0.00     0.172 C 
ATOM      2  N   UNL d   1       1.289  -1.915  -1.588  0.00  0.00    -0.070 N 
ATOM      3  C1  UNL d   1       1.454  -2.957  -0.715  0.00  0.00    -0.004 A 
ATOM      4  C2  UNL d   1       0.643  -3.990  -1.134  0.00  0.00    -0.047 A 
ATOM      5  C3  UNL d   1      -0.031  -3.554  -2.299  0.00  0.00    -0.047 A 
ATOM      6  C4  UNL d   1       0.388  -2.266  -2.558  0.00  0.00    -0.004 A 
ENDROOT
TORSDOF 0
ENDMDL
