MODEL 1
REMARK minimizedAffinity -2.26118684
REMARK minimizedRMSD -1
REMARK  0 active torsions:
REMARK  status: ('A' for Active; 'I' for Inactive)
ROOT
ATOM      1  C   UNL d   1      -1.663   1.633   1.627  0.00  0.00     0.172 C 
ATOM      2  N   UNL d   1      -0.733   0.919   0.784  0.00  0.00    -0.070 N 
ATOM      3  C1  UNL d   1      -0.159   1.404  -0.361  0.00  0.00    -0.004 A 
ATOM      4  C2  UNL d   1       0.663   0.422  -0.869  0.00  0.00    -0.047 A 
ATOM      5  C3  UNL d   1       0.580  -0.692  -0.000  0.00  0.00    -0.047 A 
ATOM      6  C4  UNL d   1      -0.291  -0.357   1.015  0.00  0.00    -0.004 A 
ENDROOT
TORSDOF 0
ENDMDL
