MODEL 1
REMARK minimizedAffinity -4.17087126
REMARK minimizedRMSD -1
REMARK  0 active torsions:
REMARK  status: ('A' for Active; 'I' for Inactive)
ROOT
ATOM      1  C   UNL d   1       0.312  -0.511  -0.407  0.00  0.00     0.172 C 
ATOM      2  N   UNL d   1      -0.557   0.337   0.375  0.00  0.00    -0.070 N 
ATOM      3  C1  UNL d   1      -1.155  -0.006   1.558  0.00  0.00    -0.004 A 
ATOM      4  C2  UNL d   1      -1.898   1.074   1.984  0.00  0.00    -0.047 A 
ATOM      5  C3  UNL d   1      -1.743   2.101   1.023  0.00  0.00    -0.047 A 
ATOM      6  C4  UNL d   1      -0.907   1.618   0.037  0.00  0.00    -0.004 A 
ENDROOT
TORSDOF 0
ENDMDL
