MODEL 1
REMARK minimizedAffinity -0.375509292
REMARK minimizedRMSD -1
REMARK  0 active torsions:
REMARK  status: ('A' for Active; 'I' for Inactive)
ROOT
ATOM      1  C   UNL d   1       1.407  -1.397  -1.046  0.00  0.00     0.172 C 
ATOM      2  N   UNL d   1       0.617  -2.269  -1.883  0.00  0.00    -0.070 N 
ATOM      3  C1  UNL d   1       0.181  -1.982  -3.148  0.00  0.00    -0.004 A 
ATOM      4  C2  UNL d   1      -0.536  -3.067  -3.604  0.00  0.00    -0.047 A 
ATOM      5  C3  UNL d   1      -0.531  -4.040  -2.577  0.00  0.00    -0.047 A 
ATOM      6  C4  UNL d   1       0.190  -3.520  -1.523  0.00  0.00    -0.004 A 
ENDROOT
TORSDOF 0
ENDMDL
