MODEL 1
REMARK minimizedAffinity -3.60993052
REMARK minimizedRMSD -1
REMARK  0 active torsions:
REMARK  status: ('A' for Active; 'I' for Inactive)
ROOT
ATOM      1  C   UNL d   1       0.021  -1.475   2.489  0.00  0.00     0.172 C 
ATOM      2  N   UNL d   1      -0.111  -0.602   1.347  0.00  0.00    -0.070 N 
ATOM      3  C1  UNL d   1       0.512  -0.768   0.139  0.00  0.00    -0.004 A 
ATOM      4  C2  UNL d   1       0.128   0.272  -0.680  0.00  0.00    -0.047 A 
ATOM      5  C3  UNL d   1      -0.755   1.091   0.061  0.00  0.00    -0.047 A 
ATOM      6  C4  UNL d   1      -0.885   0.528   1.313  0.00  0.00    -0.004 A 
ENDROOT
TORSDOF 0
ENDMDL
