MODEL 1
REMARK minimizedAffinity -3.65984178
REMARK minimizedRMSD -1
REMARK  0 active torsions:
REMARK  status: ('A' for Active; 'I' for Inactive)
ROOT
ATOM      1  C   UNL d   1       0.135  -0.104  -0.593  0.00  0.00     0.172 C 
ATOM      2  N   UNL d   1      -0.609   0.826   0.224  0.00  0.00    -0.070 N 
ATOM      3  C1  UNL d   1      -0.840   2.143  -0.074  0.00  0.00    -0.004 A 
ATOM      4  C2  UNL d   1      -1.584   2.683   0.952  0.00  0.00    -0.047 A 
ATOM      5  C3  UNL d   1      -1.808   1.656   1.900  0.00  0.00    -0.047 A 
ATOM      6  C4  UNL d   1      -1.193   0.517   1.424  0.00  0.00    -0.004 A 
ENDROOT
TORSDOF 0
ENDMDL
