MODEL 1
REMARK minimizedAffinity -3.9058435
REMARK minimizedRMSD -1
REMARK  0 active torsions:
REMARK  status: ('A' for Active; 'I' for Inactive)
ROOT
ATOM      1  C   UNL d   1      -1.972   1.144   1.559  0.00  0.00     0.172 C 
ATOM      2  N   UNL d   1      -1.306   1.975   0.584  0.00  0.00    -0.070 N 
ATOM      3  C1  UNL d   1      -0.461   1.532  -0.399  0.00  0.00    -0.004 A 
ATOM      4  C2  UNL d   1      -0.037   2.629  -1.117  0.00  0.00    -0.047 A 
ATOM      5  C3  UNL d   1      -0.646   3.771  -0.545  0.00  0.00    -0.047 A 
ATOM      6  C4  UNL d   1      -1.427   3.337   0.506  0.00  0.00    -0.004 A 
ENDROOT
TORSDOF 0
ENDMDL
