MODEL 1
REMARK minimizedAffinity -3.32174659
REMARK minimizedRMSD -1
REMARK  0 active torsions:
REMARK  status: ('A' for Active; 'I' for Inactive)
ROOT
ATOM      1  C   UNL d   1       0.901  -0.605  -0.802  0.00  0.00     0.172 C 
ATOM      2  N   UNL d   1      -0.074   0.092   0.003  0.00  0.00    -0.070 N 
ATOM      3  C1  UNL d   1      -0.835   1.154  -0.407  0.00  0.00    -0.004 A 
ATOM      4  C2  UNL d   1      -1.638   1.531   0.648  0.00  0.00    -0.047 A 
ATOM      5  C3  UNL d   1      -1.349   0.665   1.730  0.00  0.00    -0.047 A 
ATOM      6  C4  UNL d   1      -0.378  -0.216   1.303  0.00  0.00    -0.004 A 
ENDROOT
TORSDOF 0
ENDMDL
