MODEL 1
REMARK minimizedAffinity -2.79851103
REMARK minimizedRMSD -1
REMARK  0 active torsions:
REMARK  status: ('A' for Active; 'I' for Inactive)
ROOT
ATOM      1  C   UNL d   1      -0.266  -0.828   1.816  0.00  0.00     0.172 C 
ATOM      2  N   UNL d   1      -0.870   0.387   1.321  0.00  0.00    -0.070 N 
ATOM      3  C1  UNL d   1      -0.782   0.857   0.038  0.00  0.00    -0.004 A 
ATOM      4  C2  UNL d   1      -1.492   2.037  -0.029  0.00  0.00    -0.047 A 
ATOM      5  C3  UNL d   1      -2.024   2.284   1.259  0.00  0.00    -0.047 A 
ATOM      6  C4  UNL d   1      -1.624   1.247   2.075  0.00  0.00    -0.004 A 
ENDROOT
TORSDOF 0
ENDMDL
