MODEL 1
REMARK minimizedAffinity -0.118099645
REMARK minimizedRMSD -1
REMARK  0 active torsions:
REMARK  status: ('A' for Active; 'I' for Inactive)
ROOT
ATOM      1  C   UNL d   1      -2.992  -0.403   1.048  0.00  0.00    -0.002 A 
ATOM      2  C1  UNL d   1      -2.727   0.002   2.349  0.00  0.00     0.010 A 
ATOM      3  C2  UNL d   1      -2.644   1.359   2.667  0.00  0.00     0.041 A 
ATOM      4  C3  UNL d   1      -2.834   2.311   1.646  0.00  0.00    -0.075 A 
ATOM      5  S   UNL d   1      -2.778   4.027   1.801  0.00  0.00     0.015 SA
ATOM      6  C4  UNL d   1      -3.105   4.263   0.145  0.00  0.00     0.022 A 
ATOM      7  C5  UNL d   1      -3.255   3.072  -0.525  0.00  0.00     0.026 A 
ATOM      8  C6  UNL d   1      -3.102   1.927   0.329  0.00  0.00    -0.082 A 
ATOM      9  C7  UNL d   1      -3.180   0.544   0.038  0.00  0.00     0.045 A 
ENDROOT
TORSDOF 0
ENDMDL
