MODEL 1
REMARK minimizedAffinity 3.70502305
REMARK minimizedRMSD -1
REMARK  0 active torsions:
REMARK  status: ('A' for Active; 'I' for Inactive)
ROOT
ATOM      1  C   UNL d   1      -2.387   2.765  -0.924  0.00  0.00    -0.002 A 
ATOM      2  C1  UNL d   1      -2.574   1.867   0.116  0.00  0.00     0.010 A 
ATOM      3  C2  UNL d   1      -3.011   2.309   1.367  0.00  0.00     0.041 A 
ATOM      4  C3  UNL d   1      -3.262   3.682   1.554  0.00  0.00    -0.075 A 
ATOM      5  S   UNL d   1      -3.806   4.452   2.998  0.00  0.00     0.015 SA
ATOM      6  C4  UNL d   1      -3.804   5.991   2.267  0.00  0.00     0.022 A 
ATOM      7  C5  UNL d   1      -3.401   5.938   0.954  0.00  0.00     0.026 A 
ATOM      8  C6  UNL d   1      -3.083   4.606   0.521  0.00  0.00    -0.082 A 
ATOM      9  C7  UNL d   1      -2.637   4.127  -0.735  0.00  0.00     0.045 A 
ENDROOT
TORSDOF 0
ENDMDL
