MODEL 1
REMARK minimizedAffinity 6.60414886
REMARK minimizedRMSD -1
REMARK  0 active torsions:
REMARK  status: ('A' for Active; 'I' for Inactive)
ROOT
ATOM      1  C   UNL d   1      -2.440  -1.170   3.015  0.00  0.00    -0.002 A 
ATOM      2  C1  UNL d   1      -2.247   0.059   3.629  0.00  0.00     0.010 A 
ATOM      3  C2  UNL d   1      -2.417   1.246   2.913  0.00  0.00     0.041 A 
ATOM      4  C3  UNL d   1      -2.788   1.176   1.556  0.00  0.00    -0.075 A 
ATOM      5  S   UNL d   1      -3.053   2.497   0.482  0.00  0.00     0.015 SA
ATOM      6  C4  UNL d   1      -3.430   1.462  -0.819  0.00  0.00     0.022 A 
ATOM      7  C5  UNL d   1      -3.360   0.137  -0.459  0.00  0.00     0.026 A 
ATOM      8  C6  UNL d   1      -2.989  -0.050   0.915  0.00  0.00    -0.082 A 
ATOM      9  C7  UNL d   1      -2.809  -1.235   1.668  0.00  0.00     0.045 A 
ENDROOT
TORSDOF 0
ENDMDL
