MODEL 1
REMARK minimizedAffinity -0.15127854
REMARK minimizedRMSD -1
REMARK  0 active torsions:
REMARK  status: ('A' for Active; 'I' for Inactive)
ROOT
ATOM      1  C   UNL d   1      -2.744  -1.164   1.881  0.00  0.00    -0.002 A 
ATOM      2  C1  UNL d   1      -2.525  -0.413   3.027  0.00  0.00     0.010 A 
ATOM      3  C2  UNL d   1      -2.483   0.981   2.965  0.00  0.00     0.041 A 
ATOM      4  C3  UNL d   1      -2.669   1.614   1.720  0.00  0.00    -0.075 A 
ATOM      5  S   UNL d   1      -2.659   3.309   1.404  0.00  0.00     0.015 SA
ATOM      6  C4  UNL d   1      -2.946   3.075  -0.260  0.00  0.00     0.022 A 
ATOM      7  C5  UNL d   1      -3.049   1.743  -0.583  0.00  0.00     0.026 A 
ATOM      8  C6  UNL d   1      -2.892   0.879   0.553  0.00  0.00    -0.082 A 
ATOM      9  C7  UNL d   1      -2.928  -0.533   0.648  0.00  0.00     0.045 A 
ENDROOT
TORSDOF 0
ENDMDL
