MODEL 1
REMARK minimizedAffinity -2.33165622
REMARK minimizedRMSD -1
REMARK  0 active torsions:
REMARK  status: ('A' for Active; 'I' for Inactive)
ROOT
ATOM      1  C   UNL d   1       1.284   0.735  -2.643  0.00  0.00    -0.002 A 
ATOM      2  C1  UNL d   1       0.714   1.718  -3.440  0.00  0.00     0.010 A 
ATOM      3  C2  UNL d   1       1.429   2.274  -4.502  0.00  0.00     0.041 A 
ATOM      4  C3  UNL d   1       2.740   1.821  -4.753  0.00  0.00    -0.075 A 
ATOM      5  S   UNL d   1       3.804   2.357  -5.998  0.00  0.00     0.015 SA
ATOM      6  C4  UNL d   1       5.041   1.294  -5.501  0.00  0.00     0.022 A 
ATOM      7  C5  UNL d   1       4.667   0.541  -4.413  0.00  0.00     0.026 A 
ATOM      8  C6  UNL d   1       3.335   0.832  -3.964  0.00  0.00    -0.082 A 
ATOM      9  C7  UNL d   1       2.583   0.288  -2.894  0.00  0.00     0.045 A 
ENDROOT
TORSDOF 0
ENDMDL
