MODEL 1
REMARK minimizedAffinity 18.4007301
REMARK minimizedRMSD -1
REMARK  0 active torsions:
REMARK  status: ('A' for Active; 'I' for Inactive)
ROOT
ATOM      1  C   UNL d   1      -2.165  -0.285   4.354  0.00  0.00    -0.002 A 
ATOM      2  C1  UNL d   1      -3.533  -0.515   4.411  0.00  0.00     0.010 A 
ATOM      3  C2  UNL d   1      -4.332  -0.331   3.281  0.00  0.00     0.041 A 
ATOM      4  C3  UNL d   1      -3.727   0.091   2.080  0.00  0.00    -0.075 A 
ATOM      5  S   UNL d   1      -4.507   0.380   0.570  0.00  0.00     0.015 SA
ATOM      6  C4  UNL d   1      -3.043   0.816  -0.187  0.00  0.00     0.022 A 
ATOM      7  C5  UNL d   1      -1.975   0.747   0.677  0.00  0.00     0.026 A 
ATOM      8  C6  UNL d   1      -2.352   0.328   1.998  0.00  0.00    -0.082 A 
ATOM      9  C7  UNL d   1      -1.569   0.133   3.161  0.00  0.00     0.045 A 
ENDROOT
TORSDOF 0
ENDMDL
