MODEL 1
REMARK minimizedAffinity 3.67090702
REMARK minimizedRMSD -1
REMARK  0 active torsions:
REMARK  status: ('A' for Active; 'I' for Inactive)
ROOT
ATOM      1  C   UNL d   1      -3.239  -0.438   2.157  0.00  0.00    -0.002 A 
ATOM      2  C1  UNL d   1      -2.994   0.310   3.300  0.00  0.00     0.010 A 
ATOM      3  C2  UNL d   1      -2.810   1.691   3.219  0.00  0.00     0.041 A 
ATOM      4  C3  UNL d   1      -2.880   2.315   1.958  0.00  0.00    -0.075 A 
ATOM      5  S   UNL d   1      -2.688   3.995   1.618  0.00  0.00     0.015 SA
ATOM      6  C4  UNL d   1      -2.928   3.759  -0.053  0.00  0.00     0.022 A 
ATOM      7  C5  UNL d   1      -3.150   2.438  -0.361  0.00  0.00     0.026 A 
ATOM      8  C6  UNL d   1      -3.127   1.584   0.793  0.00  0.00    -0.082 A 
ATOM      9  C7  UNL d   1      -3.307   0.185   0.908  0.00  0.00     0.045 A 
ENDROOT
TORSDOF 0
ENDMDL
