MODEL 1
REMARK minimizedAffinity 0.418281734
REMARK minimizedRMSD -1
REMARK  0 active torsions:
REMARK  status: ('A' for Active; 'I' for Inactive)
ROOT
ATOM      1  C   UNL d   1      -2.601  -0.902   0.915  0.00  0.00    -0.002 A 
ATOM      2  C1  UNL d   1      -2.178  -0.448   2.156  0.00  0.00     0.010 A 
ATOM      3  C2  UNL d   1      -2.150   0.919   2.440  0.00  0.00     0.041 A 
ATOM      4  C3  UNL d   1      -2.559   1.830   1.446  0.00  0.00    -0.075 A 
ATOM      5  S   UNL d   1      -2.609   3.549   1.569  0.00  0.00     0.015 SA
ATOM      6  C4  UNL d   1      -3.193   3.720  -0.023  0.00  0.00     0.022 A 
ATOM      7  C5  UNL d   1      -3.352   2.506  -0.647  0.00  0.00     0.026 A 
ATOM      8  C6  UNL d   1      -2.990   1.396   0.189  0.00  0.00    -0.082 A 
ATOM      9  C7  UNL d   1      -3.006   0.004  -0.068  0.00  0.00     0.045 A 
ENDROOT
TORSDOF 0
ENDMDL
