MODEL 1
REMARK minimizedAffinity 8.79223633
REMARK minimizedRMSD -1
REMARK  0 active torsions:
REMARK  status: ('A' for Active; 'I' for Inactive)
ROOT
ATOM      1  C   UNL d   1      -3.530  -0.527   3.449  0.00  0.00    -0.002 A 
ATOM      2  C1  UNL d   1      -3.025   0.350   2.500  0.00  0.00     0.010 A 
ATOM      3  C2  UNL d   1      -3.070   1.730   2.712  0.00  0.00     0.041 A 
ATOM      4  C3  UNL d   1      -3.636   2.217   3.906  0.00  0.00    -0.075 A 
ATOM      5  S   UNL d   1      -3.798   3.867   4.382  0.00  0.00     0.015 SA
ATOM      6  C4  UNL d   1      -4.541   3.446   5.857  0.00  0.00     0.022 A 
ATOM      7  C5  UNL d   1      -4.670   2.084   5.999  0.00  0.00     0.026 A 
ATOM      8  C6  UNL d   1      -4.150   1.354   4.878  0.00  0.00    -0.082 A 
ATOM      9  C7  UNL d   1      -4.090  -0.039   4.633  0.00  0.00     0.045 A 
ENDROOT
TORSDOF 0
ENDMDL
