MODEL 1
REMARK minimizedAffinity 2.64524269
REMARK minimizedRMSD -1
REMARK  0 active torsions:
REMARK  status: ('A' for Active; 'I' for Inactive)
ROOT
ATOM      1  C   UNL d   1      -3.133   0.747  -0.273  0.00  0.00    -0.002 A 
ATOM      2  C1  UNL d   1      -2.719   1.919   0.345  0.00  0.00     0.010 A 
ATOM      3  C2  UNL d   1      -2.593   1.983   1.734  0.00  0.00     0.041 A 
ATOM      4  C3  UNL d   1      -2.892   0.838   2.499  0.00  0.00    -0.075 A 
ATOM      5  S   UNL d   1      -2.810   0.683   4.214  0.00  0.00     0.015 SA
ATOM      6  C4  UNL d   1      -3.321  -0.942   4.167  0.00  0.00     0.022 A 
ATOM      7  C5  UNL d   1      -3.554  -1.372   2.882  0.00  0.00     0.026 A 
ATOM      8  C6  UNL d   1      -3.310  -0.353   1.900  0.00  0.00    -0.082 A 
ATOM      9  C7  UNL d   1      -3.428  -0.386   0.489  0.00  0.00     0.045 A 
ENDROOT
TORSDOF 0
ENDMDL
