MODEL 1
REMARK minimizedAffinity -0.852609038
REMARK minimizedRMSD -1
REMARK  0 active torsions:
REMARK  status: ('A' for Active; 'I' for Inactive)
ROOT
ATOM      1  C   UNL d   1      -2.644  -0.721   2.322  0.00  0.00    -0.002 A 
ATOM      2  C1  UNL d   1      -3.546  -1.153   3.284  0.00  0.00     0.010 A 
ATOM      3  C2  UNL d   1      -4.226  -0.233   4.084  0.00  0.00     0.041 A 
ATOM      4  C3  UNL d   1      -3.985   1.142   3.897  0.00  0.00    -0.075 A 
ATOM      5  S   UNL d   1      -4.704   2.451   4.760  0.00  0.00     0.015 SA
ATOM      6  C4  UNL d   1      -3.831   3.614   3.871  0.00  0.00     0.022 A 
ATOM      7  C5  UNL d   1      -3.007   3.036   2.935  0.00  0.00     0.026 A 
ATOM      8  C6  UNL d   1      -3.082   1.602   2.934  0.00  0.00    -0.082 A 
ATOM      9  C7  UNL d   1      -2.407   0.644   2.140  0.00  0.00     0.045 A 
ENDROOT
TORSDOF 0
ENDMDL
