MODEL 1
REMARK minimizedAffinity 6.53890324
REMARK minimizedRMSD -1
REMARK  0 active torsions:
REMARK  status: ('A' for Active; 'I' for Inactive)
ROOT
ATOM      1  C   UNL d   1       4.837  -0.503   4.604  0.00  0.00    -0.002 A 
ATOM      2  C1  UNL d   1       5.729   0.315   5.283  0.00  0.00     0.010 A 
ATOM      3  C2  UNL d   1       5.911   1.644   4.896  0.00  0.00     0.041 A 
ATOM      4  C3  UNL d   1       5.172   2.143   3.805  0.00  0.00    -0.075 A 
ATOM      5  S   UNL d   1       5.229   3.738   3.153  0.00  0.00     0.015 SA
ATOM      6  C4  UNL d   1       4.070   3.372   1.959  0.00  0.00     0.022 A 
ATOM      7  C5  UNL d   1       3.639   2.069   2.041  0.00  0.00     0.026 A 
ATOM      8  C6  UNL d   1       4.266   1.339   3.106  0.00  0.00    -0.082 A 
ATOM      9  C7  UNL d   1       4.106  -0.004   3.523  0.00  0.00     0.045 A 
ENDROOT
TORSDOF 0
ENDMDL
