MODEL 1
REMARK minimizedAffinity -2.23054457
REMARK minimizedRMSD -1
REMARK  0 active torsions:
REMARK  status: ('A' for Active; 'I' for Inactive)
ROOT
ATOM      1  C1  DEN d   1      -0.330  -5.640  -3.589  0.00  0.00     0.130 A 
ATOM      2  C2  DEN d   1      -0.799  -5.824  -4.960  0.00  0.00    -0.031 A 
ATOM      3  C3  DEN d   1      -2.265  -5.999  -4.921  0.00  0.00     0.027 A 
ATOM      4  C4  DEN d   1      -3.846  -5.999  -2.884  0.00  0.00     0.027 A 
ATOM      5  C5  DEN d   1      -3.910  -5.891  -1.512  0.00  0.00    -0.003 A 
ATOM      6  C6  DEN d   1      -2.790  -5.728  -0.740  0.00  0.00     0.001 A 
ATOM      7  C7  DEN d   1      -1.562  -5.622  -1.338  0.00  0.00     0.017 A 
ATOM      8  C8  DEN d   1      -1.490  -5.737  -2.720  0.00  0.00    -0.094 A 
ATOM      9  C9  DEN d   1      -2.634  -5.890  -3.484  0.00  0.00    -0.072 A 
ENDROOT
TORSDOF 0
ENDMDL
