MODEL 1
REMARK minimizedAffinity -4.16103983
REMARK minimizedRMSD -1
REMARK  0 active torsions:
REMARK  status: ('A' for Active; 'I' for Inactive)
ROOT
ATOM      1  C1  DEN d   1       0.938  -5.175   4.977  0.00  0.00     0.130 A 
ATOM      2  C2  DEN d   1       2.083  -5.280   5.878  0.00  0.00    -0.031 A 
ATOM      3  C3  DEN d   1       2.931  -4.087   5.679  0.00  0.00     0.027 A 
ATOM      4  C4  DEN d   1       2.580  -2.096   4.077  0.00  0.00     0.027 A 
ATOM      5  C5  DEN d   1       1.757  -1.567   3.107  0.00  0.00    -0.003 A 
ATOM      6  C6  DEN d   1       0.632  -2.215   2.671  0.00  0.00     0.001 A 
ATOM      7  C7  DEN d   1       0.273  -3.409   3.239  0.00  0.00     0.017 A 
ATOM      8  C8  DEN d   1       1.101  -3.952   4.213  0.00  0.00    -0.094 A 
ATOM      9  C9  DEN d   1       2.228  -3.275   4.649  0.00  0.00    -0.072 A 
ENDROOT
TORSDOF 0
ENDMDL
