MODEL 1
REMARK minimizedAffinity -3.87276697
REMARK minimizedRMSD -1
REMARK  0 active torsions:
REMARK  status: ('A' for Active; 'I' for Inactive)
ROOT
ATOM      1  C1  DEN d   1      -0.507  -6.000  -2.647  0.00  0.00     0.130 A 
ATOM      2  C2  DEN d   1      -1.778  -5.996  -3.366  0.00  0.00    -0.031 A 
ATOM      3  C3  DEN d   1      -1.499  -5.706  -4.786  0.00  0.00     0.027 A 
ATOM      4  C4  DEN d   1       0.767  -5.268  -5.938  0.00  0.00     0.027 A 
ATOM      5  C5  DEN d   1       2.125  -5.157  -5.738  0.00  0.00    -0.003 A 
ATOM      6  C6  DEN d   1       2.693  -5.283  -4.498  0.00  0.00     0.001 A 
ATOM      7  C7  DEN d   1       1.904  -5.574  -3.416  0.00  0.00     0.017 A 
ATOM      8  C8  DEN d   1       0.533  -5.681  -3.609  0.00  0.00    -0.094 A 
ATOM      9  C9  DEN d   1      -0.021  -5.562  -4.873  0.00  0.00    -0.072 A 
ENDROOT
TORSDOF 0
ENDMDL
