MODEL 1
REMARK minimizedAffinity -3.76779556
REMARK minimizedRMSD -1
REMARK  0 active torsions:
REMARK  status: ('A' for Active; 'I' for Inactive)
ROOT
ATOM      1  C1  DEN d   1      -4.138  -6.000  -2.552  0.00  0.00     0.130 A 
ATOM      2  C2  DEN d   1      -4.118  -5.992  -1.092  0.00  0.00    -0.031 A 
ATOM      3  C3  DEN d   1      -2.708  -5.951  -0.655  0.00  0.00     0.027 A 
ATOM      4  C4  DEN d   1      -0.566  -5.896  -2.090  0.00  0.00     0.027 A 
ATOM      5  C5  DEN d   1      -0.077  -5.900  -3.377  0.00  0.00    -0.003 A 
ATOM      6  C6  DEN d   1      -0.899  -5.972  -4.470  0.00  0.00     0.001 A 
ATOM      7  C7  DEN d   1      -2.258  -5.996  -4.297  0.00  0.00     0.017 A 
ATOM      8  C8  DEN d   1      -2.758  -6.000  -3.002  0.00  0.00    -0.094 A 
ATOM      9  C9  DEN d   1      -1.911  -5.914  -1.910  0.00  0.00    -0.072 A 
ENDROOT
TORSDOF 0
ENDMDL
