MODEL 1
REMARK minimizedAffinity -4.52007008
REMARK minimizedRMSD -1
REMARK  0 active torsions:
REMARK  status: ('A' for Active; 'I' for Inactive)
ROOT
ATOM      1  C1  DEN d   1       2.579  -2.091   3.739  0.00  0.00     0.130 A 
ATOM      2  C2  DEN d   1       1.667  -1.931   2.609  0.00  0.00    -0.031 A 
ATOM      3  C3  DEN d   1       0.748  -3.087   2.597  0.00  0.00     0.027 A 
ATOM      4  C4  DEN d   1       0.647  -5.096   4.210  0.00  0.00     0.027 A 
ATOM      5  C5  DEN d   1       1.225  -5.677   5.317  0.00  0.00    -0.003 A 
ATOM      6  C6  DEN d   1       2.307  -5.126   5.950  0.00  0.00     0.001 A 
ATOM      7  C7  DEN d   1       2.818  -3.934   5.507  0.00  0.00     0.017 A 
ATOM      8  C8  DEN d   1       2.245  -3.346   4.387  0.00  0.00    -0.094 A 
ATOM      9  C9  DEN d   1       1.143  -3.913   3.769  0.00  0.00    -0.072 A 
ENDROOT
TORSDOF 0
ENDMDL
