MODEL 1
REMARK minimizedAffinity -6.54894638
REMARK minimizedRMSD -1
REMARK  0 active torsions:
REMARK  status: ('A' for Active; 'I' for Inactive)
ROOT
ATOM      1  C1  DEN d   1       0.767  -5.500   3.586  0.00  0.00     0.130 A 
ATOM      2  C2  DEN d   1       1.387  -5.395   4.905  0.00  0.00    -0.031 A 
ATOM      3  C3  DEN d   1       1.873  -4.011   5.072  0.00  0.00     0.027 A 
ATOM      4  C4  DEN d   1       1.722  -2.028   3.429  0.00  0.00     0.027 A 
ATOM      5  C5  DEN d   1       1.293  -1.635   2.181  0.00  0.00    -0.003 A 
ATOM      6  C6  DEN d   1       0.695  -2.504   1.307  0.00  0.00     0.001 A 
ATOM      7  C7  DEN d   1       0.467  -3.800   1.688  0.00  0.00     0.017 A 
ATOM      8  C8  DEN d   1       0.903  -4.206   2.942  0.00  0.00    -0.094 A 
ATOM      9  C9  DEN d   1       1.495  -3.309   3.816  0.00  0.00    -0.072 A 
ENDROOT
TORSDOF 0
ENDMDL
