MODEL 1
REMARK minimizedAffinity 6.77361679
REMARK minimizedRMSD -1
REMARK  0 active torsions:
REMARK  status: ('A' for Active; 'I' for Inactive)
ROOT
ATOM      1  C1  DEN d   1       2.339  -0.110   0.592  0.00  0.00     0.130 A 
ATOM      2  C2  DEN d   1       1.012  -0.645   0.883  0.00  0.00    -0.031 A 
ATOM      3  C3  DEN d   1       1.074  -1.339   2.185  0.00  0.00     0.027 A 
ATOM      4  C4  DEN d   1       3.086  -1.630   3.773  0.00  0.00     0.027 A 
ATOM      5  C5  DEN d   1       4.425  -1.361   3.950  0.00  0.00    -0.003 A 
ATOM      6  C6  DEN d   1       5.164  -0.690   3.013  0.00  0.00     0.001 A 
ATOM      7  C7  DEN d   1       4.559  -0.227   1.875  0.00  0.00     0.017 A 
ATOM      8  C8  DEN d   1       3.211  -0.502   1.686  0.00  0.00    -0.094 A 
ATOM      9  C9  DEN d   1       2.477  -1.170   2.651  0.00  0.00    -0.072 A 
ENDROOT
TORSDOF 0
ENDMDL
