MODEL 1
REMARK minimizedAffinity -4.71201849
REMARK minimizedRMSD -1
REMARK  0 active torsions:
REMARK  status: ('A' for Active; 'I' for Inactive)
ROOT
ATOM      1  C1  DEN d   1       0.090  -5.889  -4.089  0.00  0.00     0.130 A 
ATOM      2  C2  DEN d   1      -0.400  -5.926  -5.464  0.00  0.00    -0.031 A 
ATOM      3  C3  DEN d   1      -1.875  -5.978  -5.423  0.00  0.00     0.027 A 
ATOM      4  C4  DEN d   1      -3.441  -6.000  -3.374  0.00  0.00     0.027 A 
ATOM      5  C5  DEN d   1      -3.488  -5.993  -1.997  0.00  0.00    -0.003 A 
ATOM      6  C6  DEN d   1      -2.355  -5.986  -1.228  0.00  0.00     0.001 A 
ATOM      7  C7  DEN d   1      -1.126  -5.939  -1.830  0.00  0.00     0.017 A 
ATOM      8  C8  DEN d   1      -1.070  -5.953  -3.217  0.00  0.00    -0.094 A 
ATOM      9  C9  DEN d   1      -2.227  -5.948  -3.978  0.00  0.00    -0.072 A 
ENDROOT
TORSDOF 0
ENDMDL
