MODEL 1
REMARK minimizedAffinity -1.74507308
REMARK minimizedRMSD -1
REMARK  0 active torsions:
REMARK  status: ('A' for Active; 'I' for Inactive)
ROOT
ATOM      1  C1  DEN d   1       3.045  -2.483   3.706  0.00  0.00     0.130 A 
ATOM      2  C2  DEN d   1       1.852  -1.866   3.130  0.00  0.00    -0.031 A 
ATOM      3  C3  DEN d   1       0.674  -2.619   3.607  0.00  0.00     0.027 A 
ATOM      4  C4  DEN d   1       0.581  -4.664   5.176  0.00  0.00     0.027 A 
ATOM      5  C5  DEN d   1       1.337  -5.551   5.909  0.00  0.00    -0.003 A 
ATOM      6  C6  DEN d   1       2.705  -5.500   5.932  0.00  0.00     0.001 A 
ATOM      7  C7  DEN d   1       3.359  -4.512   5.244  0.00  0.00     0.017 A 
ATOM      8  C8  DEN d   1       2.604  -3.618   4.496  0.00  0.00    -0.094 A 
ATOM      9  C9  DEN d   1       1.221  -3.679   4.496  0.00  0.00    -0.072 A 
ENDROOT
TORSDOF 0
ENDMDL
