MODEL 1
REMARK minimizedAffinity -4.77033663
REMARK minimizedRMSD -1
REMARK  0 active torsions:
REMARK  status: ('A' for Active; 'I' for Inactive)
ROOT
ATOM      1  C1  DEN d   1      -0.098  -5.242  -3.781  0.00  0.00     0.130 A 
ATOM      2  C2  DEN d   1      -0.444  -5.558  -5.164  0.00  0.00    -0.031 A 
ATOM      3  C3  DEN d   1      -1.878  -5.911  -5.207  0.00  0.00     0.027 A 
ATOM      4  C4  DEN d   1      -3.587  -5.994  -3.277  0.00  0.00     0.027 A 
ATOM      5  C5  DEN d   1      -3.759  -5.819  -1.922  0.00  0.00    -0.003 A 
ATOM      6  C6  DEN d   1      -2.724  -5.476  -1.093  0.00  0.00     0.001 A 
ATOM      7  C7  DEN d   1      -1.479  -5.252  -1.618  0.00  0.00     0.017 A 
ATOM      8  C8  DEN d   1      -1.296  -5.433  -2.982  0.00  0.00    -0.094 A 
ATOM      9  C9  DEN d   1      -2.357  -5.769  -3.806  0.00  0.00    -0.072 A 
ENDROOT
TORSDOF 0
ENDMDL
