MODEL 1
REMARK minimizedAffinity -2.23227406
REMARK minimizedRMSD -1
REMARK  0 active torsions:
REMARK  status: ('A' for Active; 'I' for Inactive)
ROOT
ATOM      1  C1  DEN d   1       2.450  -3.590   2.193  0.00  0.00     0.130 A 
ATOM      2  C2  DEN d   1       1.840  -2.273   2.359  0.00  0.00    -0.031 A 
ATOM      3  C3  DEN d   1       1.362  -2.164   3.752  0.00  0.00     0.027 A 
ATOM      4  C4  DEN d   1       1.512  -3.894   5.659  0.00  0.00     0.027 A 
ATOM      5  C5  DEN d   1       1.935  -5.161   5.995  0.00  0.00    -0.003 A 
ATOM      6  C6  DEN d   1       2.523  -5.999   5.085  0.00  0.00     0.001 A 
ATOM      7  C7  DEN d   1       2.746  -5.563   3.806  0.00  0.00     0.017 A 
ATOM      8  C8  DEN d   1       2.316  -4.289   3.458  0.00  0.00    -0.094 A 
ATOM      9  C9  DEN d   1       1.735  -3.453   4.395  0.00  0.00    -0.072 A 
ENDROOT
TORSDOF 0
ENDMDL
