MODEL 1
REMARK minimizedAffinity 10.2040167
REMARK minimizedRMSD -1
REMARK  0 active torsions:
REMARK  status: ('A' for Active; 'I' for Inactive)
ROOT
ATOM      1  C1  DEN d   1       1.291  -1.181   2.498  0.00  0.00     0.130 A 
ATOM      2  C2  DEN d   1       1.030  -0.696   1.146  0.00  0.00    -0.031 A 
ATOM      3  C3  DEN d   1       2.321  -0.315   0.540  0.00  0.00     0.027 A 
ATOM      4  C4  DEN d   1       4.689  -0.432   1.558  0.00  0.00     0.027 A 
ATOM      5  C5  DEN d   1       5.412  -0.764   2.682  0.00  0.00    -0.003 A 
ATOM      6  C6  DEN d   1       4.814  -1.223   3.826  0.00  0.00     0.001 A 
ATOM      7  C7  DEN d   1       3.457  -1.405   3.856  0.00  0.00     0.017 A 
ATOM      8  C8  DEN d   1       2.720  -1.065   2.729  0.00  0.00    -0.094 A 
ATOM      9  C9  DEN d   1       3.344  -0.614   1.578  0.00  0.00    -0.072 A 
ENDROOT
TORSDOF 0
ENDMDL
