MODEL 1
REMARK minimizedAffinity 1.1222899
REMARK minimizedRMSD -1
REMARK  0 active torsions:
REMARK  status: ('A' for Active; 'I' for Inactive)
ROOT
ATOM      1  C1  DEN d   1      -1.118  -5.201  -3.776  0.00  0.00     0.130 A 
ATOM      2  C2  DEN d   1      -1.846  -5.736  -4.923  0.00  0.00    -0.031 A 
ATOM      3  C3  DEN d   1      -0.871  -6.000  -6.000  0.00  0.00     0.027 A 
ATOM      4  C4  DEN d   1       1.683  -5.639  -6.000  0.00  0.00     0.027 A 
ATOM      5  C5  DEN d   1       2.754  -5.194  -5.256  0.00  0.00    -0.003 A 
ATOM      6  C6  DEN d   1       2.606  -4.693  -3.990  0.00  0.00     0.001 A 
ATOM      7  C7  DEN d   1       1.365  -4.666  -3.412  0.00  0.00     0.017 A 
ATOM      8  C8  DEN d   1       0.279  -5.106  -4.158  0.00  0.00    -0.094 A 
ATOM      9  C9  DEN d   1       0.451  -5.620  -5.432  0.00  0.00    -0.072 A 
ENDROOT
TORSDOF 0
ENDMDL
