MODEL 1
REMARK minimizedAffinity 13.3224983
REMARK minimizedRMSD -1
REMARK  0 active torsions:
REMARK  status: ('A' for Active; 'I' for Inactive)
ROOT
ATOM      1  O1  BZF d   1      -2.259  -5.999  -0.553  0.00  0.00    -0.204 OA
ATOM      2  C2  BZF d   1      -1.527  -5.796   0.602  0.00  0.00     0.174 A 
ATOM      3  C3  BZF d   1      -2.336  -5.465   1.629  0.00  0.00    -0.012 A 
ATOM      4  C3A BZF d   1      -3.665  -5.551   1.105  0.00  0.00    -0.107 A 
ATOM      5  C4  BZF d   1      -4.902  -5.354   1.646  0.00  0.00     0.055 A 
ATOM      6  C5  BZF d   1      -5.997  -5.447   0.846  0.00  0.00    -0.016 A 
ATOM      7  C6  BZF d   1      -5.889  -5.731  -0.500  0.00  0.00     0.022 A 
ATOM      8  C7  BZF d   1      -4.683  -5.940  -1.082  0.00  0.00     0.029 A 
ATOM      9  C7A BZF d   1      -3.578  -5.878  -0.268  0.00  0.00     0.058 A 
ENDROOT
TORSDOF 0
ENDMDL
