MODEL 1
REMARK minimizedAffinity 6.56680489
REMARK minimizedRMSD -1
REMARK  0 active torsions:
REMARK  status: ('A' for Active; 'I' for Inactive)
ROOT
ATOM      1  O1  BZF d   1      -2.345  -0.274   4.445  0.00  0.00    -0.204 OA
ATOM      2  C2  BZF d   1      -2.536  -0.536   3.102  0.00  0.00     0.174 A 
ATOM      3  C3  BZF d   1      -3.376   0.365   2.554  0.00  0.00    -0.012 A 
ATOM      4  C3A BZF d   1      -3.661   1.300   3.599  0.00  0.00    -0.107 A 
ATOM      5  C4  BZF d   1      -4.423   2.431   3.665  0.00  0.00     0.055 A 
ATOM      6  C5  BZF d   1      -4.549   3.074   4.856  0.00  0.00    -0.016 A 
ATOM      7  C6  BZF d   1      -3.932   2.611   6.000  0.00  0.00     0.022 A 
ATOM      8  C7  BZF d   1      -3.162   1.496   5.982  0.00  0.00     0.029 A 
ATOM      9  C7A BZF d   1      -3.006   0.862   4.774  0.00  0.00     0.058 A 
ENDROOT
TORSDOF 0
ENDMDL
