MODEL 1
REMARK minimizedAffinity 17.1610374
REMARK minimizedRMSD -1
REMARK  0 active torsions:
REMARK  status: ('A' for Active; 'I' for Inactive)
ROOT
ATOM      1  O1  BZF d   1       1.859   0.756   4.864  0.00  0.00    -0.204 OA
ATOM      2  C2  BZF d   1       1.291   1.305   5.998  0.00  0.00     0.174 A 
ATOM      3  C3  BZF d   1       0.035   1.727   5.748  0.00  0.00    -0.012 A 
ATOM      4  C3A BZF d   1      -0.230   1.339   4.397  0.00  0.00    -0.107 A 
ATOM      5  C4  BZF d   1      -1.317   1.467   3.579  0.00  0.00     0.055 A 
ATOM      6  C5  BZF d   1      -1.226   1.047   2.290  0.00  0.00    -0.016 A 
ATOM      7  C6  BZF d   1      -0.065   0.501   1.784  0.00  0.00     0.022 A 
ATOM      8  C7  BZF d   1       1.037   0.349   2.558  0.00  0.00     0.029 A 
ATOM      9  C7A BZF d   1       0.939   0.742   3.870  0.00  0.00     0.058 A 
ENDROOT
TORSDOF 0
ENDMDL
