MODEL 1
REMARK minimizedAffinity 22.7458611
REMARK minimizedRMSD -1
REMARK  0 active torsions:
REMARK  status: ('A' for Active; 'I' for Inactive)
ROOT
ATOM      1  O1  BZF d   1      -2.976   0.436   4.398  0.00  0.00    -0.204 OA
ATOM      2  C2  BZF d   1      -3.326   0.092   3.107  0.00  0.00     0.174 A 
ATOM      3  C3  BZF d   1      -4.269   0.929   2.629  0.00  0.00    -0.012 A 
ATOM      4  C3A BZF d   1      -4.457   1.910   3.654  0.00  0.00    -0.107 A 
ATOM      5  C4  BZF d   1      -5.253   3.014   3.762  0.00  0.00     0.055 A 
ATOM      6  C5  BZF d   1      -5.252   3.718   4.925  0.00  0.00    -0.016 A 
ATOM      7  C6  BZF d   1      -4.473   3.342   5.999  0.00  0.00     0.022 A 
ATOM      8  C7  BZF d   1      -3.663   2.257   5.938  0.00  0.00     0.029 A 
ATOM      9  C7A BZF d   1      -3.637   1.563   4.752  0.00  0.00     0.058 A 
ENDROOT
TORSDOF 0
ENDMDL
