MODEL 1
REMARK minimizedAffinity 26.9201717
REMARK minimizedRMSD -1
REMARK  0 active torsions:
REMARK  status: ('A' for Active; 'I' for Inactive)
ROOT
ATOM      1  O1  BZF d   1      -2.693   0.598   4.266  0.00  0.00    -0.204 OA
ATOM      2  C2  BZF d   1      -2.997   0.357   2.941  0.00  0.00     0.174 A 
ATOM      3  C3  BZF d   1      -3.887   1.260   2.482  0.00  0.00    -0.012 A 
ATOM      4  C3A BZF d   1      -4.086   2.176   3.563  0.00  0.00    -0.107 A 
ATOM      5  C4  BZF d   1      -4.845   3.300   3.713  0.00  0.00     0.055 A 
ATOM      6  C5  BZF d   1      -4.872   3.923   4.921  0.00  0.00    -0.016 A 
ATOM      7  C6  BZF d   1      -4.156   3.446   6.000  0.00  0.00     0.022 A 
ATOM      8  C7  BZF d   1      -3.384   2.337   5.898  0.00  0.00     0.029 A 
ATOM      9  C7A BZF d   1      -3.329   1.724   4.669  0.00  0.00     0.058 A 
ENDROOT
TORSDOF 0
ENDMDL
