MODEL 1
REMARK minimizedAffinity 14.9071283
REMARK minimizedRMSD -1
REMARK  0 active torsions:
REMARK  status: ('A' for Active; 'I' for Inactive)
ROOT
ATOM      1  O1  BZF d   1       4.348  -2.211  -0.187  0.00  0.00    -0.204 OA
ATOM      2  C2  BZF d   1       3.747  -3.279  -0.825  0.00  0.00     0.174 A 
ATOM      3  C3  BZF d   1       2.773  -2.853  -1.655  0.00  0.00    -0.012 A 
ATOM      4  C3A BZF d   1       2.827  -1.425  -1.597  0.00  0.00    -0.107 A 
ATOM      5  C4  BZF d   1       2.119  -0.433  -2.214  0.00  0.00     0.055 A 
ATOM      6  C5  BZF d   1       2.371   0.861  -1.883  0.00  0.00    -0.016 A 
ATOM      7  C6  BZF d   1       3.317   1.198  -0.938  0.00  0.00     0.022 A 
ATOM      8  C7  BZF d   1       4.047   0.250  -0.303  0.00  0.00     0.029 A 
ATOM      9  C7A BZF d   1       3.819  -1.057  -0.659  0.00  0.00     0.058 A 
ENDROOT
TORSDOF 0
ENDMDL
