MODEL 1
REMARK minimizedAffinity 11.5458632
REMARK minimizedRMSD -1
REMARK  0 active torsions:
REMARK  status: ('A' for Active; 'I' for Inactive)
ROOT
ATOM      1  O1  BZF d   1       2.306   0.807  -2.580  0.00  0.00    -0.204 OA
ATOM      2  C2  BZF d   1       2.177  -0.505  -2.165  0.00  0.00     0.174 A 
ATOM      3  C3  BZF d   1       1.963  -0.567  -0.835  0.00  0.00    -0.012 A 
ATOM      4  C3A BZF d   1       1.865   0.794  -0.405  0.00  0.00    -0.107 A 
ATOM      5  C4  BZF d   1       1.641   1.382   0.807  0.00  0.00     0.055 A 
ATOM      6  C5  BZF d   1       1.679   2.737   0.900  0.00  0.00    -0.016 A 
ATOM      7  C6  BZF d   1       1.942   3.533  -0.195  0.00  0.00     0.022 A 
ATOM      8  C7  BZF d   1       2.165   2.996  -1.419  0.00  0.00     0.029 A 
ATOM      9  C7A BZF d   1       2.095   1.628  -1.523  0.00  0.00     0.058 A 
ENDROOT
TORSDOF 0
ENDMDL
