MODEL 1
REMARK minimizedAffinity 7.48492527
REMARK minimizedRMSD -1
REMARK  0 active torsions:
REMARK  status: ('A' for Active; 'I' for Inactive)
ROOT
ATOM      1  O1  BZF d   1       3.676   1.737  -2.047  0.00  0.00    -0.204 OA
ATOM      2  C2  BZF d   1       4.851   2.317  -1.610  0.00  0.00     0.174 A 
ATOM      3  C3  BZF d   1       5.522   1.481  -0.792  0.00  0.00    -0.012 A 
ATOM      4  C3A BZF d   1       4.760   0.270  -0.786  0.00  0.00    -0.107 A 
ATOM      5  C4  BZF d   1       4.924  -0.938  -0.170  0.00  0.00     0.055 A 
ATOM      6  C5  BZF d   1       3.961  -1.887  -0.312  0.00  0.00    -0.016 A 
ATOM      7  C6  BZF d   1       2.822  -1.660  -1.057  0.00  0.00     0.022 A 
ATOM      8  C7  BZF d   1       2.618  -0.479  -1.690  0.00  0.00     0.029 A 
ATOM      9  C7A BZF d   1       3.604   0.470  -1.575  0.00  0.00     0.058 A 
ENDROOT
TORSDOF 0
ENDMDL
