MODEL 1
REMARK minimizedAffinity 18.0406094
REMARK minimizedRMSD -1
REMARK  0 active torsions:
REMARK  status: ('A' for Active; 'I' for Inactive)
ROOT
ATOM      1  O1  BZF d   1      -4.067   1.430   2.287  0.00  0.00    -0.204 OA
ATOM      2  C2  BZF d   1      -2.887   0.747   2.512  0.00  0.00     0.174 A 
ATOM      3  C3  BZF d   1      -2.500   0.870   3.798  0.00  0.00    -0.012 A 
ATOM      4  C3A BZF d   1      -3.548   1.605   4.438  0.00  0.00    -0.107 A 
ATOM      5  C4  BZF d   1      -3.750   2.030   5.720  0.00  0.00     0.055 A 
ATOM      6  C5  BZF d   1      -4.842   2.788   6.000  0.00  0.00    -0.016 A 
ATOM      7  C6  BZF d   1      -5.749   3.144   5.023  0.00  0.00     0.022 A 
ATOM      8  C7  BZF d   1      -5.594   2.742   3.738  0.00  0.00     0.029 A 
ATOM      9  C7A BZF d   1      -4.509   1.948   3.458  0.00  0.00     0.058 A 
ENDROOT
TORSDOF 0
ENDMDL
