MODEL 1
REMARK minimizedAffinity 18.7703629
REMARK minimizedRMSD -1
REMARK  0 active torsions:
REMARK  status: ('A' for Active; 'I' for Inactive)
ROOT
ATOM      1  O1  BZF d   1       0.053   5.036   0.861  0.00  0.00    -0.204 OA
ATOM      2  C2  BZF d   1       1.117   5.662   0.241  0.00  0.00     0.174 A 
ATOM      3  C3  BZF d   1       2.263   4.983   0.456  0.00  0.00    -0.012 A 
ATOM      4  C3A BZF d   1       1.877   3.814   1.184  0.00  0.00    -0.107 A 
ATOM      5  C4  BZF d   1       2.567   2.743   1.676  0.00  0.00     0.055 A 
ATOM      6  C5  BZF d   1       1.904   1.807   2.404  0.00  0.00    -0.016 A 
ATOM      7  C6  BZF d   1       0.553   1.913   2.665  0.00  0.00     0.022 A 
ATOM      8  C7  BZF d   1      -0.175   2.954   2.194  0.00  0.00     0.029 A 
ATOM      9  C7A BZF d   1       0.486   3.885   1.430  0.00  0.00     0.058 A 
ENDROOT
TORSDOF 0
ENDMDL
