MODEL 1
REMARK minimizedAffinity 11.6387892
REMARK minimizedRMSD -1
REMARK  0 active torsions:
REMARK  status: ('A' for Active; 'I' for Inactive)
ROOT
ATOM      1  O1  BZF d   1       5.198   3.147   1.109  0.00  0.00    -0.204 OA
ATOM      2  C2  BZF d   1       6.000   3.002  -0.006  0.00  0.00     0.174 A 
ATOM      3  C3  BZF d   1       5.446   2.143  -0.885  0.00  0.00    -0.012 A 
ATOM      4  C3A BZF d   1       4.177   1.795  -0.323  0.00  0.00    -0.107 A 
ATOM      5  C4  BZF d   1       3.155   0.989  -0.737  0.00  0.00     0.055 A 
ATOM      6  C5  BZF d   1       2.084   0.808   0.080  0.00  0.00    -0.016 A 
ATOM      7  C6  BZF d   1       2.005   1.412   1.318  0.00  0.00     0.022 A 
ATOM      8  C7  BZF d   1       2.991   2.224   1.770  0.00  0.00     0.029 A 
ATOM      9  C7A BZF d   1       4.059   2.435   0.933  0.00  0.00     0.058 A 
ENDROOT
TORSDOF 0
ENDMDL
