MODEL 1
REMARK minimizedAffinity 7.41664934
REMARK minimizedRMSD -1
REMARK  0 active torsions:
REMARK  status: ('A' for Active; 'I' for Inactive)
ROOT
ATOM      1  O1  BZF d   1      -1.885   2.316  -5.854  0.00  0.00    -0.204 OA
ATOM      2  C2  BZF d   1      -0.678   2.201  -5.191  0.00  0.00     0.174 A 
ATOM      3  C3  BZF d   1      -0.392   3.334  -4.518  0.00  0.00    -0.012 A 
ATOM      4  C3A BZF d   1      -1.533   4.178  -4.701  0.00  0.00    -0.107 A 
ATOM      5  C4  BZF d   1      -1.855   5.431  -4.261  0.00  0.00     0.055 A 
ATOM      6  C5  BZF d   1      -3.016   6.000  -4.679  0.00  0.00    -0.016 A 
ATOM      7  C6  BZF d   1      -3.875   5.348  -5.540  0.00  0.00     0.022 A 
ATOM      8  C7  BZF d   1      -3.601   4.103  -5.999  0.00  0.00     0.029 A 
ATOM      9  C7A BZF d   1      -2.445   3.512  -5.552  0.00  0.00     0.058 A 
ENDROOT
TORSDOF 0
ENDMDL
