MODEL 1
REMARK minimizedAffinity 7.23511553
REMARK minimizedRMSD -1
REMARK  0 active torsions:
REMARK  status: ('A' for Active; 'I' for Inactive)
ROOT
ATOM      1  O1  BZF d   1       3.732  -3.325   0.496  0.00  0.00    -0.204 OA
ATOM      2  C2  BZF d   1       4.037  -4.554  -0.058  0.00  0.00     0.174 A 
ATOM      3  C3  BZF d   1       3.391  -4.723  -1.230  0.00  0.00    -0.012 A 
ATOM      4  C3A BZF d   1       2.708  -3.487  -1.465  0.00  0.00    -0.107 A 
ATOM      5  C4  BZF d   1       1.909  -3.034  -2.476  0.00  0.00     0.055 A 
ATOM      6  C5  BZF d   1       1.340  -1.805  -2.367  0.00  0.00    -0.016 A 
ATOM      7  C6  BZF d   1       1.544  -1.006  -1.261  0.00  0.00     0.022 A 
ATOM      8  C7  BZF d   1       2.333  -1.410  -0.236  0.00  0.00     0.029 A 
ATOM      9  C7A BZF d   1       2.936  -2.638  -0.358  0.00  0.00     0.058 A 
ENDROOT
TORSDOF 0
ENDMDL
