MODEL 1
REMARK minimizedAffinity 12.9904108
REMARK minimizedRMSD -1
REMARK  0 active torsions:
REMARK  status: ('A' for Active; 'I' for Inactive)
ROOT
ATOM      1  O1  BZF d   1       2.999  -2.642   0.648  0.00  0.00    -0.204 OA
ATOM      2  C2  BZF d   1       3.197  -3.862   0.031  0.00  0.00     0.174 A 
ATOM      3  C3  BZF d   1       2.618  -3.881  -1.187  0.00  0.00    -0.012 A 
ATOM      4  C3A BZF d   1       2.101  -2.561  -1.379  0.00  0.00    -0.107 A 
ATOM      5  C4  BZF d   1       1.432  -1.955  -2.403  0.00  0.00     0.055 A 
ATOM      6  C5  BZF d   1       1.003  -0.675  -2.245  0.00  0.00    -0.016 A 
ATOM      7  C6  BZF d   1       1.222   0.026  -1.077  0.00  0.00     0.022 A 
ATOM      8  C7  BZF d   1       1.886  -0.532  -0.036  0.00  0.00     0.029 A 
ATOM      9  C7A BZF d   1       2.349  -1.814  -0.204  0.00  0.00     0.058 A 
ENDROOT
TORSDOF 0
ENDMDL
