MODEL 1
REMARK minimizedAffinity 2.73277521
REMARK minimizedRMSD -1
REMARK  0 active torsions:
REMARK  status: ('A' for Active; 'I' for Inactive)
ROOT
ATOM      1  O1  BZF d   1      -3.872  -2.560  -4.823  0.00  0.00    -0.204 OA
ATOM      2  C2  BZF d   1      -4.945  -2.961  -5.595  0.00  0.00     0.174 A 
ATOM      3  C3  BZF d   1      -4.804  -4.245  -5.981  0.00  0.00    -0.012 A 
ATOM      4  C3A BZF d   1      -3.610  -4.702  -5.339  0.00  0.00    -0.107 A 
ATOM      5  C4  BZF d   1      -2.952  -5.899  -5.323  0.00  0.00     0.055 A 
ATOM      6  C5  BZF d   1      -1.772  -5.995  -4.655  0.00  0.00    -0.016 A 
ATOM      7  C6  BZF d   1      -1.219  -4.914  -4.000  0.00  0.00     0.022 A 
ATOM      8  C7  BZF d   1      -1.837  -3.708  -3.984  0.00  0.00     0.029 A 
ATOM      9  C7A BZF d   1      -3.046  -3.617  -4.630  0.00  0.00     0.058 A 
ENDROOT
TORSDOF 0
ENDMDL
