MODEL 1
REMARK minimizedAffinity 12.0262489
REMARK minimizedRMSD -1
REMARK  0 active torsions:
REMARK  status: ('A' for Active; 'I' for Inactive)
ROOT
ATOM      1  O1  BZF d   1      -3.737  -4.097  -5.992  0.00  0.00    -0.204 OA
ATOM      2  C2  BZF d   1      -3.816  -5.476  -5.998  0.00  0.00     0.174 A 
ATOM      3  C3  BZF d   1      -3.123  -6.000  -4.967  0.00  0.00    -0.012 A 
ATOM      4  C3A BZF d   1      -2.652  -4.874  -4.220  0.00  0.00    -0.107 A 
ATOM      5  C4  BZF d   1      -1.916  -4.748  -3.076  0.00  0.00     0.055 A 
ATOM      6  C5  BZF d   1      -1.565  -3.506  -2.651  0.00  0.00    -0.016 A 
ATOM      7  C6  BZF d   1      -1.928  -2.371  -3.345  0.00  0.00     0.022 A 
ATOM      8  C7  BZF d   1      -2.663  -2.446  -4.482  0.00  0.00     0.029 A 
ATOM      9  C7A BZF d   1      -3.047  -3.697  -4.897  0.00  0.00     0.058 A 
ENDROOT
TORSDOF 0
ENDMDL
