MODEL 1
REMARK minimizedAffinity 20.7397404
REMARK minimizedRMSD -1
REMARK  0 active torsions:
REMARK  status: ('A' for Active; 'I' for Inactive)
ROOT
ATOM      1  O1  BZF d   1       2.811   1.497  -1.614  0.00  0.00    -0.204 OA
ATOM      2  C2  BZF d   1       3.604   1.577  -0.485  0.00  0.00     0.174 A 
ATOM      3  C3  BZF d   1       3.495   0.456   0.256  0.00  0.00    -0.012 A 
ATOM      4  C3A BZF d   1       2.647  -0.414  -0.499  0.00  0.00    -0.107 A 
ATOM      5  C4  BZF d   1       2.180  -1.681  -0.294  0.00  0.00     0.055 A 
ATOM      6  C5  BZF d   1       1.311  -2.218  -1.190  0.00  0.00    -0.016 A 
ATOM      7  C6  BZF d   1       0.885  -1.516  -2.298  0.00  0.00     0.022 A 
ATOM      8  C7  BZF d   1       1.325  -0.258  -2.547  0.00  0.00     0.029 A 
ATOM      9  C7A BZF d   1       2.229   0.275  -1.661  0.00  0.00     0.058 A 
ENDROOT
TORSDOF 0
ENDMDL
