MODEL 1
REMARK minimizedAffinity 1.29683006
REMARK minimizedRMSD -1
REMARK  0 active torsions:
REMARK  status: ('A' for Active; 'I' for Inactive)
ROOT
ATOM      1  O1  BZF d   1      -4.677   5.999  -5.857  0.00  0.00    -0.204 OA
ATOM      2  C2  BZF d   1      -5.829   5.250  -6.000  0.00  0.00     0.174 A 
ATOM      3  C3  BZF d   1      -5.546   3.932  -5.995  0.00  0.00    -0.012 A 
ATOM      4  C3A BZF d   1      -4.139   3.849  -5.747  0.00  0.00    -0.107 A 
ATOM      5  C4  BZF d   1      -3.269   2.806  -5.613  0.00  0.00     0.055 A 
ATOM      6  C5  BZF d   1      -1.946   3.066  -5.448  0.00  0.00    -0.016 A 
ATOM      7  C6  BZF d   1      -1.458   4.356  -5.418  0.00  0.00     0.022 A 
ATOM      8  C7  BZF d   1      -2.283   5.424  -5.542  0.00  0.00     0.029 A 
ATOM      9  C7A BZF d   1      -3.625   5.165  -5.675  0.00  0.00     0.058 A 
ENDROOT
TORSDOF 0
ENDMDL
