MODEL 1
REMARK minimizedAffinity 7.24757004
REMARK minimizedRMSD -1
REMARK  1 active torsions:
REMARK  status: ('A' for Active; 'I' for Inactive)
REMARK    1  A    between atoms: C1_2  and  C2_3 
ROOT
ATOM      1  C2  UNL d   1      -4.789   4.554   4.986  0.00  0.00    -0.081 A 
ATOM      2  C3  UNL d   1      -4.685   3.934   3.735  0.00  0.00     0.006 A 
ATOM      3  C4  UNL d   1      -3.691   4.321   2.833  0.00  0.00     0.002 A 
ATOM      4  C5  UNL d   1      -2.780   5.328   3.170  0.00  0.00    -0.080 A 
ATOM      5  C6  UNL d   1      -1.690   5.732   2.223  0.00  0.00     0.076 C 
ATOM      6  C7  UNL d   1      -2.895   5.959   4.413  0.00  0.00     0.002 A 
ATOM      7  C8  UNL d   1      -3.889   5.573   5.315  0.00  0.00     0.006 A 
ENDROOT
BRANCH   1   8
ATOM      8  C1  UNL d   1      -5.819   4.094   5.986  0.00  0.00     0.054 C 
ATOM      9  C   UNL d   1      -5.941   2.577   5.998  0.00  0.00     0.018 C 
ENDBRANCH   1   8
TORSDOF 1
ENDMDL
