MODEL 1
REMARK minimizedAffinity 7.42425776
REMARK minimizedRMSD -1
REMARK  1 active torsions:
REMARK  status: ('A' for Active; 'I' for Inactive)
REMARK    1  A    between atoms: C1_2  and  C2_3 
ROOT
ATOM      1  C2  UNL d   1       2.918  -0.484   0.140  0.00  0.00    -0.081 A 
ATOM      2  C3  UNL d   1       4.211  -0.209  -0.324  0.00  0.00     0.006 A 
ATOM      3  C4  UNL d   1       4.739   1.080  -0.226  0.00  0.00     0.002 A 
ATOM      4  C5  UNL d   1       3.988   2.114   0.343  0.00  0.00    -0.080 A 
ATOM      5  C6  UNL d   1       4.555   3.496   0.482  0.00  0.00     0.076 C 
ATOM      6  C7  UNL d   1       2.690   1.844   0.790  0.00  0.00     0.002 A 
ATOM      7  C8  UNL d   1       2.161   0.555   0.692  0.00  0.00     0.006 A 
ENDROOT
BRANCH   1   8
ATOM      8  C1  UNL d   1       2.370  -1.887   0.095  0.00  0.00     0.054 C 
ATOM      9  C   UNL d   1       2.490  -2.484  -1.300  0.00  0.00     0.018 C 
ENDBRANCH   1   8
TORSDOF 1
ENDMDL
