MODEL 1
REMARK minimizedAffinity 4.35078287
REMARK minimizedRMSD -1
REMARK  1 active torsions:
REMARK  status: ('A' for Active; 'I' for Inactive)
REMARK    1  A    between atoms: C1_2  and  C2_3 
ROOT
ATOM      1  C2  UNL d   1       3.288   3.497   5.158  0.00  0.00    -0.081 A 
ATOM      2  C3  UNL d   1       4.219   4.351   5.761  0.00  0.00     0.006 A 
ATOM      3  C4  UNL d   1       5.053   5.154   4.979  0.00  0.00     0.002 A 
ATOM      4  C5  UNL d   1       4.965   5.121   3.583  0.00  0.00    -0.080 A 
ATOM      5  C6  UNL d   1       5.834   6.000   2.733  0.00  0.00     0.076 C 
ATOM      6  C7  UNL d   1       4.047   4.255   2.980  0.00  0.00     0.002 A 
ATOM      7  C8  UNL d   1       3.213   3.452   3.762  0.00  0.00     0.006 A 
ENDROOT
BRANCH   1   8
ATOM      8  C1  UNL d   1       2.342   2.678   5.999  0.00  0.00     0.054 C 
ATOM      9  C   UNL d   1       1.015   2.461   5.287  0.00  0.00     0.018 C 
ENDBRANCH   1   8
TORSDOF 1
ENDMDL
