MODEL 1
REMARK minimizedAffinity 1.42282355
REMARK minimizedRMSD -1
REMARK  1 active torsions:
REMARK  status: ('A' for Active; 'I' for Inactive)
REMARK    1  A    between atoms: C1_2  and  C2_3 
ROOT
ATOM      1  C2  UNL d   1       2.211  -1.180  -0.434  0.00  0.00    -0.081 A 
ATOM      2  C3  UNL d   1       1.174  -0.753  -1.273  0.00  0.00     0.006 A 
ATOM      3  C4  UNL d   1       0.115  -1.610  -1.581  0.00  0.00     0.002 A 
ATOM      4  C5  UNL d   1       0.070  -2.904  -1.051  0.00  0.00    -0.080 A 
ATOM      5  C6  UNL d   1      -1.077  -3.823  -1.350  0.00  0.00     0.076 C 
ATOM      6  C7  UNL d   1       1.115  -3.336  -0.227  0.00  0.00     0.002 A 
ATOM      7  C8  UNL d   1       2.175  -2.480   0.081  0.00  0.00     0.006 A 
ENDROOT
BRANCH   1   8
ATOM      8  C1  UNL d   1       3.322  -0.237  -0.048  0.00  0.00     0.054 C 
ATOM      9  C   UNL d   1       3.629   0.745  -1.169  0.00  0.00     0.018 C 
ENDBRANCH   1   8
TORSDOF 1
ENDMDL
