MODEL 1
REMARK minimizedAffinity -3.62171483
REMARK minimizedRMSD -1
REMARK  1 active torsions:
REMARK  status: ('A' for Active; 'I' for Inactive)
REMARK    1  A    between atoms: C1_2  and  C2_3 
ROOT
ATOM      1  C2  UNL d   1       5.751  -4.371   3.280  0.00  0.00    -0.077 A 
ATOM      2  C3  UNL d   1       5.318  -3.067   3.558  0.00  0.00     0.002 A 
ATOM      3  C4  UNL d   1       5.131  -2.651   4.877  0.00  0.00     0.002 A 
ATOM      4  C5  UNL d   1       5.380  -3.531   5.929  0.00  0.00    -0.004 A 
ATOM      5  C6  UNL d   1       5.810  -4.830   5.662  0.00  0.00     0.002 A 
ATOM      6  C7  UNL d   1       5.995  -5.248   4.344  0.00  0.00     0.002 A 
ENDROOT
BRANCH   1   7
ATOM      7  C1  UNL d   1       6.000  -4.806   1.859  0.00  0.00     0.055 C 
ATOM      8  C   UNL d   1       5.998  -3.619   0.908  0.00  0.00     0.019 C 
ENDBRANCH   1   7
TORSDOF 1
ENDMDL
