MODEL 1
REMARK minimizedAffinity -1.41114604
REMARK minimizedRMSD -1
REMARK  1 active torsions:
REMARK  status: ('A' for Active; 'I' for Inactive)
REMARK    1  A    between atoms: C1_2  and  C2_3 
ROOT
ATOM      1  C2  UNL d   1       5.869  -4.798   3.662  0.00  0.00    -0.077 A 
ATOM      2  C3  UNL d   1       5.761  -4.965   5.050  0.00  0.00     0.002 A 
ATOM      3  C4  UNL d   1       5.594  -3.858   5.884  0.00  0.00     0.002 A 
ATOM      4  C5  UNL d   1       5.529  -2.577   5.339  0.00  0.00    -0.004 A 
ATOM      5  C6  UNL d   1       5.637  -2.400   3.961  0.00  0.00     0.002 A 
ATOM      6  C7  UNL d   1       5.805  -3.506   3.125  0.00  0.00     0.002 A 
ENDROOT
BRANCH   1   7
ATOM      7  C1  UNL d   1       5.999  -5.995   2.756  0.00  0.00     0.055 C 
ATOM      8  C   UNL d   1       6.000  -5.583   1.291  0.00  0.00     0.019 C 
ENDBRANCH   1   7
TORSDOF 1
ENDMDL
