MODEL 1
REMARK minimizedAffinity -2.98382664
REMARK minimizedRMSD -1
REMARK  1 active torsions:
REMARK  status: ('A' for Active; 'I' for Inactive)
REMARK    1  A    between atoms: C1_2  and  C2_3 
ROOT
ATOM      1  C2  UNL d   1       5.431  -3.385   2.651  0.00  0.00    -0.077 A 
ATOM      2  C3  UNL d   1       4.300  -4.119   3.037  0.00  0.00     0.002 A 
ATOM      3  C4  UNL d   1       3.747  -3.948   4.307  0.00  0.00     0.002 A 
ATOM      4  C5  UNL d   1       4.313  -3.040   5.199  0.00  0.00    -0.004 A 
ATOM      5  C6  UNL d   1       5.439  -2.307   4.825  0.00  0.00     0.002 A 
ATOM      6  C7  UNL d   1       5.994  -2.478   3.557  0.00  0.00     0.002 A 
ENDROOT
BRANCH   1   7
ATOM      7  C1  UNL d   1       6.000  -3.533   1.264  0.00  0.00     0.055 C 
ATOM      8  C   UNL d   1       6.000  -4.987   0.817  0.00  0.00     0.019 C 
ENDBRANCH   1   7
TORSDOF 1
ENDMDL
