MODEL 1
REMARK minimizedAffinity -2.8469615
REMARK minimizedRMSD -1
REMARK  1 active torsions:
REMARK  status: ('A' for Active; 'I' for Inactive)
REMARK    1  A    between atoms: C1_2  and  C2_3 
ROOT
ATOM      1  C2  UNL d   1       5.827  -4.245   3.945  0.00  0.00    -0.077 A 
ATOM      2  C3  UNL d   1       5.910  -3.889   2.592  0.00  0.00     0.002 A 
ATOM      3  C4  UNL d   1       5.992  -2.547   2.218  0.00  0.00     0.002 A 
ATOM      4  C5  UNL d   1       5.998  -1.550   3.192  0.00  0.00    -0.004 A 
ATOM      5  C6  UNL d   1       5.915  -1.893   4.540  0.00  0.00     0.002 A 
ATOM      6  C7  UNL d   1       5.830  -3.235   4.916  0.00  0.00     0.002 A 
ENDROOT
BRANCH   1   7
ATOM      7  C1  UNL d   1       5.788  -5.695   4.353  0.00  0.00     0.055 C 
ATOM      8  C   UNL d   1       5.955  -5.852   5.857  0.00  0.00     0.019 C 
ENDBRANCH   1   7
TORSDOF 1
ENDMDL
