MODEL 1
REMARK minimizedAffinity -2.30986738
REMARK minimizedRMSD -1
REMARK  1 active torsions:
REMARK  status: ('A' for Active; 'I' for Inactive)
REMARK    1  A    between atoms: C1_2  and  C2_3 
ROOT
ATOM      1  C2  UNL d   1       5.968  -3.217   3.174  0.00  0.00    -0.077 A 
ATOM      2  C3  UNL d   1       5.970  -4.508   3.720  0.00  0.00     0.002 A 
ATOM      3  C4  UNL d   1       5.988  -4.689   5.105  0.00  0.00     0.002 A 
ATOM      4  C5  UNL d   1       6.000  -3.583   5.953  0.00  0.00    -0.004 A 
ATOM      5  C6  UNL d   1       6.000  -2.296   5.419  0.00  0.00     0.002 A 
ATOM      6  C7  UNL d   1       5.983  -2.113   4.035  0.00  0.00     0.002 A 
ENDROOT
BRANCH   1   7
ATOM      7  C1  UNL d   1       5.899  -3.020   1.682  0.00  0.00     0.055 C 
ATOM      8  C   UNL d   1       5.993  -4.348   0.943  0.00  0.00     0.019 C 
ENDBRANCH   1   7
TORSDOF 1
ENDMDL
