MODEL 1
REMARK minimizedAffinity -1.25842404
REMARK minimizedRMSD -1
REMARK  1 active torsions:
REMARK  status: ('A' for Active; 'I' for Inactive)
REMARK    1  A    between atoms: C1_2  and  C2_3 
ROOT
ATOM      1  C2  UNL d   1       5.620  -4.314   3.517  0.00  0.00    -0.077 A 
ATOM      2  C3  UNL d   1       5.997  -4.246   2.168  0.00  0.00     0.002 A 
ATOM      3  C4  UNL d   1       6.000  -3.022   1.497  0.00  0.00     0.002 A 
ATOM      4  C5  UNL d   1       5.630  -1.857   2.166  0.00  0.00    -0.004 A 
ATOM      5  C6  UNL d   1       5.251  -1.915   3.507  0.00  0.00     0.002 A 
ATOM      6  C7  UNL d   1       5.247  -3.137   4.179  0.00  0.00     0.002 A 
ENDROOT
BRANCH   1   7
ATOM      7  C1  UNL d   1       5.664  -5.626   4.256  0.00  0.00     0.055 C 
ATOM      8  C   UNL d   1       4.515  -5.741   5.248  0.00  0.00     0.019 C 
ENDBRANCH   1   7
TORSDOF 1
ENDMDL
