MODEL 1
REMARK minimizedAffinity -3.01069164
REMARK minimizedRMSD -1
REMARK  1 active torsions:
REMARK  status: ('A' for Active; 'I' for Inactive)
REMARK    1  A    between atoms: C1_2  and  C2_3 
ROOT
ATOM      1  C2  UNL d   1       5.625  -3.185   3.961  0.00  0.00    -0.077 A 
ATOM      2  C3  UNL d   1       4.948  -3.025   5.178  0.00  0.00     0.002 A 
ATOM      3  C4  UNL d   1       4.644  -4.135   5.969  0.00  0.00     0.002 A 
ATOM      4  C5  UNL d   1       5.016  -5.412   5.553  0.00  0.00    -0.004 A 
ATOM      5  C6  UNL d   1       5.688  -5.582   4.343  0.00  0.00     0.002 A 
ATOM      6  C7  UNL d   1       5.992  -4.473   3.551  0.00  0.00     0.002 A 
ENDROOT
BRANCH   1   7
ATOM      7  C1  UNL d   1       5.997  -1.985   3.131  0.00  0.00     0.055 C 
ATOM      8  C   UNL d   1       5.993  -2.316   1.645  0.00  0.00     0.019 C 
ENDBRANCH   1   7
TORSDOF 1
ENDMDL
