MODEL 1
REMARK minimizedAffinity -3.64085698
REMARK minimizedRMSD -1
REMARK  1 active torsions:
REMARK  status: ('A' for Active; 'I' for Inactive)
REMARK    1  A    between atoms: C1_2  and  C2_3 
ROOT
ATOM      1  C2  UNL d   1       4.649  -3.319   4.260  0.00  0.00    -0.077 A 
ATOM      2  C3  UNL d   1       4.507  -3.807   5.566  0.00  0.00     0.002 A 
ATOM      3  C4  UNL d   1       3.284  -4.324   5.997  0.00  0.00     0.002 A 
ATOM      4  C5  UNL d   1       2.196  -4.363   5.128  0.00  0.00    -0.004 A 
ATOM      5  C6  UNL d   1       2.327  -3.879   3.827  0.00  0.00     0.002 A 
ATOM      6  C7  UNL d   1       3.548  -3.360   3.394  0.00  0.00     0.002 A 
ENDROOT
BRANCH   1   7
ATOM      7  C1  UNL d   1       5.981  -2.806   3.777  0.00  0.00     0.055 C 
ATOM      8  C   UNL d   1       6.000  -2.653   2.263  0.00  0.00     0.019 C 
ENDBRANCH   1   7
TORSDOF 1
ENDMDL
