MODEL 1
REMARK minimizedAffinity -3.3108089
REMARK minimizedRMSD -1
REMARK  1 active torsions:
REMARK  status: ('A' for Active; 'I' for Inactive)
REMARK    1  A    between atoms: C1_2  and  C2_3 
ROOT
ATOM      1  C2  UNL d   1       5.812  -4.015   3.379  0.00  0.00    -0.077 A 
ATOM      2  C3  UNL d   1       5.487  -4.878   4.435  0.00  0.00     0.002 A 
ATOM      3  C4  UNL d   1       5.344  -4.384   5.733  0.00  0.00     0.002 A 
ATOM      4  C5  UNL d   1       5.520  -3.025   5.986  0.00  0.00    -0.004 A 
ATOM      5  C6  UNL d   1       5.845  -2.159   4.943  0.00  0.00     0.002 A 
ATOM      6  C7  UNL d   1       5.990  -2.651   3.645  0.00  0.00     0.002 A 
ENDROOT
BRANCH   1   7
ATOM      7  C1  UNL d   1       5.918  -4.538   1.970  0.00  0.00     0.055 C 
ATOM      8  C   UNL d   1       6.000  -3.400   0.962  0.00  0.00     0.019 C 
ENDBRANCH   1   7
TORSDOF 1
ENDMDL
