MODEL 1
REMARK minimizedAffinity -3.67964458
REMARK minimizedRMSD -1
REMARK  1 active torsions:
REMARK  status: ('A' for Active; 'I' for Inactive)
REMARK    1  A    between atoms: C1_2  and  C2_3 
ROOT
ATOM      1  C2  UNL d   1       5.962  -4.605   4.389  0.00  0.00    -0.077 A 
ATOM      2  C3  UNL d   1       5.850  -3.232   4.647  0.00  0.00     0.002 A 
ATOM      3  C4  UNL d   1       5.771  -2.319   3.594  0.00  0.00     0.002 A 
ATOM      4  C5  UNL d   1       5.800  -2.770   2.276  0.00  0.00    -0.004 A 
ATOM      5  C6  UNL d   1       5.913  -4.134   2.009  0.00  0.00     0.002 A 
ATOM      6  C7  UNL d   1       5.993  -5.048   3.061  0.00  0.00     0.002 A 
ENDROOT
BRANCH   1   7
ATOM      7  C1  UNL d   1       5.998  -5.595   5.524  0.00  0.00     0.055 C 
ATOM      8  C   UNL d   1       4.594  -5.999   5.951  0.00  0.00     0.019 C 
ENDBRANCH   1   7
TORSDOF 1
ENDMDL
