MODEL 1
REMARK minimizedAffinity -3.03458071
REMARK minimizedRMSD -1
REMARK  1 active torsions:
REMARK  status: ('A' for Active; 'I' for Inactive)
REMARK    1  A    between atoms: C1_2  and  C2_3 
ROOT
ATOM      1  C2  UNL d   1       5.993  -4.163   3.271  0.00  0.00    -0.077 A 
ATOM      2  C3  UNL d   1       5.993  -4.909   4.458  0.00  0.00     0.002 A 
ATOM      3  C4  UNL d   1       5.996  -4.266   5.697  0.00  0.00     0.002 A 
ATOM      4  C5  UNL d   1       5.996  -2.874   5.761  0.00  0.00    -0.004 A 
ATOM      5  C6  UNL d   1       5.998  -2.123   4.586  0.00  0.00     0.002 A 
ATOM      6  C7  UNL d   1       5.996  -2.765   3.347  0.00  0.00     0.002 A 
ENDROOT
BRANCH   1   7
ATOM      7  C1  UNL d   1       5.940  -4.855   1.934  0.00  0.00     0.055 C 
ATOM      8  C   UNL d   1       5.564  -3.885   0.823  0.00  0.00     0.019 C 
ENDBRANCH   1   7
TORSDOF 1
ENDMDL
