MODEL 1
REMARK minimizedAffinity -3.66503024
REMARK minimizedRMSD -1
REMARK  1 active torsions:
REMARK  status: ('A' for Active; 'I' for Inactive)
REMARK    1  A    between atoms: C1_2  and  C2_3 
ROOT
ATOM      1  C2  UNL d   1       5.900  -3.013   3.585  0.00  0.00    -0.077 A 
ATOM      2  C3  UNL d   1       5.766  -4.349   3.180  0.00  0.00     0.002 A 
ATOM      3  C4  UNL d   1       5.628  -5.364   4.129  0.00  0.00     0.002 A 
ATOM      4  C5  UNL d   1       5.620  -5.054   5.487  0.00  0.00    -0.004 A 
ATOM      5  C6  UNL d   1       5.755  -3.729   5.900  0.00  0.00     0.002 A 
ATOM      6  C7  UNL d   1       5.894  -2.713   4.953  0.00  0.00     0.002 A 
ENDROOT
BRANCH   1   7
ATOM      7  C1  UNL d   1       5.999  -1.912   2.562  0.00  0.00     0.055 C 
ATOM      8  C   UNL d   1       5.995  -2.470   1.146  0.00  0.00     0.019 C 
ENDBRANCH   1   7
TORSDOF 1
ENDMDL
