MODEL 1
REMARK minimizedAffinity -3.01759005
REMARK minimizedRMSD -1
REMARK  1 active torsions:
REMARK  status: ('A' for Active; 'I' for Inactive)
REMARK    1  A    between atoms: C1_2  and  C2_3 
ROOT
ATOM      1  C2  UNL d   1       5.012  -3.413   4.825  0.00  0.00    -0.077 A 
ATOM      2  C3  UNL d   1       3.634  -3.671   4.835  0.00  0.00     0.002 A 
ATOM      3  C4  UNL d   1       2.836  -3.287   3.755  0.00  0.00     0.002 A 
ATOM      4  C5  UNL d   1       3.407  -2.647   2.657  0.00  0.00    -0.004 A 
ATOM      5  C6  UNL d   1       4.776  -2.385   2.639  0.00  0.00     0.002 A 
ATOM      6  C7  UNL d   1       5.575  -2.766   3.718  0.00  0.00     0.002 A 
ENDROOT
BRANCH   1   7
ATOM      7  C1  UNL d   1       5.882  -3.870   5.967  0.00  0.00     0.055 C 
ATOM      8  C   UNL d   1       6.000  -5.387   6.000  0.00  0.00     0.019 C 
ENDBRANCH   1   7
TORSDOF 1
ENDMDL
