MODEL 1
REMARK minimizedAffinity -3.63615704
REMARK minimizedRMSD -1
REMARK  1 active torsions:
REMARK  status: ('A' for Active; 'I' for Inactive)
REMARK    1  A    between atoms: C1_2  and  C2_3 
ROOT
ATOM      1  C2  UNL d   1       5.959  -2.986   3.698  0.00  0.00    -0.077 A 
ATOM      2  C3  UNL d   1       5.974  -1.963   2.740  0.00  0.00     0.002 A 
ATOM      3  C4  UNL d   1       5.996  -2.270   1.379  0.00  0.00     0.002 A 
ATOM      4  C5  UNL d   1       5.997  -3.600   0.963  0.00  0.00    -0.004 A 
ATOM      5  C6  UNL d   1       5.984  -4.625   1.908  0.00  0.00     0.002 A 
ATOM      6  C7  UNL d   1       5.964  -4.320   3.269  0.00  0.00     0.002 A 
ENDROOT
BRANCH   1   7
ATOM      7  C1  UNL d   1       5.886  -2.657   5.166  0.00  0.00     0.055 C 
ATOM      8  C   UNL d   1       4.444  -2.603   5.651  0.00  0.00     0.019 C 
ENDBRANCH   1   7
TORSDOF 1
ENDMDL
