MODEL 1
REMARK minimizedAffinity 10.6354818
REMARK minimizedRMSD -1
REMARK  1 active torsions:
REMARK  status: ('A' for Active; 'I' for Inactive)
REMARK    1  A    between atoms: C1_2  and  C2_3 
ROOT
ATOM      1  C2  UNL d   1       0.684   2.349   0.660  0.00  0.00    -0.076 A 
ATOM      2  C3  UNL d   1       1.026   1.100   0.113  0.00  0.00     0.004 A 
ATOM      3  C4  UNL d   1       0.868   0.845  -1.248  0.00  0.00    -0.003 A 
ATOM      4  C5  UNL d   1       0.367   1.836  -2.085  0.00  0.00     0.000 A 
ATOM      5  C6  UNL d   1       0.039   3.087  -1.563  0.00  0.00     0.000 A 
ATOM      6  C7  UNL d   1       0.207   3.366  -0.196  0.00  0.00    -0.073 A 
ATOM      7  C8  UNL d   1      -0.168   4.730   0.314  0.00  0.00     0.078 C 
ENDROOT
BRANCH   1   8
ATOM      8  C1  UNL d   1       0.851   2.559   2.148  0.00  0.00     0.053 C 
ATOM      9  C   UNL d   1       0.561   1.299   2.950  0.00  0.00     0.018 C 
ENDBRANCH   1   8
TORSDOF 1
ENDMDL
