MODEL 1
REMARK minimizedAffinity 7.75615215
REMARK minimizedRMSD -1
REMARK  1 active torsions:
REMARK  status: ('A' for Active; 'I' for Inactive)
REMARK    1  A    between atoms: C1_2  and  C2_3 
ROOT
ATOM      1  C2  UNL d   1      -0.112   2.095   0.224  0.00  0.00    -0.076 A 
ATOM      2  C3  UNL d   1       0.265   0.783  -0.113  0.00  0.00     0.004 A 
ATOM      3  C4  UNL d   1       0.275   0.358  -1.440  0.00  0.00    -0.003 A 
ATOM      4  C5  UNL d   1      -0.091   1.238  -2.452  0.00  0.00     0.000 A 
ATOM      5  C6  UNL d   1      -0.450   2.548  -2.138  0.00  0.00     0.000 A 
ATOM      6  C7  UNL d   1      -0.450   2.997  -0.807  0.00  0.00    -0.073 A 
ATOM      7  C8  UNL d   1      -0.853   4.419  -0.525  0.00  0.00     0.078 C 
ENDROOT
BRANCH   1   8
ATOM      8  C1  UNL d   1      -0.130   2.491   1.683  0.00  0.00     0.053 C 
ATOM      9  C   UNL d   1      -0.518   1.338   2.596  0.00  0.00     0.018 C 
ENDBRANCH   1   8
TORSDOF 1
ENDMDL
