MODEL 1
REMARK minimizedAffinity 3.6854465
REMARK minimizedRMSD -1
REMARK  1 active torsions:
REMARK  status: ('A' for Active; 'I' for Inactive)
REMARK    1  A    between atoms: C1_2  and  C2_3 
ROOT
ATOM      1  C2  UNL d   1       0.409   1.614   2.347  0.00  0.00    -0.076 A 
ATOM      2  C3  UNL d   1      -0.979   1.398   2.407  0.00  0.00     0.004 A 
ATOM      3  C4  UNL d   1      -1.877   2.446   2.210  0.00  0.00    -0.003 A 
ATOM      4  C5  UNL d   1      -1.401   3.726   1.947  0.00  0.00     0.000 A 
ATOM      5  C6  UNL d   1      -0.028   3.954   1.866  0.00  0.00     0.000 A 
ATOM      6  C7  UNL d   1       0.891   2.906   2.047  0.00  0.00    -0.073 A 
ATOM      7  C8  UNL d   1       2.361   3.210   1.954  0.00  0.00     0.078 C 
ENDROOT
BRANCH   1   8
ATOM      8  C1  UNL d   1       1.335   0.444   2.596  0.00  0.00     0.053 C 
ATOM      9  C   UNL d   1       0.706  -0.617   3.486  0.00  0.00     0.018 C 
ENDBRANCH   1   8
TORSDOF 1
ENDMDL
