MODEL 1
REMARK minimizedAffinity 6.54080343
REMARK minimizedRMSD -1
REMARK  1 active torsions:
REMARK  status: ('A' for Active; 'I' for Inactive)
REMARK    1  A    between atoms: C1_2  and  C2_3 
ROOT
ATOM      1  C2  UNL d   1       0.197   1.075   0.976  0.00  0.00    -0.076 A 
ATOM      2  C3  UNL d   1       1.072  -0.025   0.944  0.00  0.00     0.004 A 
ATOM      3  C4  UNL d   1       1.278  -0.810   2.077  0.00  0.00    -0.003 A 
ATOM      4  C5  UNL d   1       0.612  -0.509   3.260  0.00  0.00     0.000 A 
ATOM      5  C6  UNL d   1      -0.273   0.568   3.305  0.00  0.00     0.000 A 
ATOM      6  C7  UNL d   1      -0.505   1.360   2.167  0.00  0.00    -0.073 A 
ATOM      7  C8  UNL d   1      -1.465   2.512   2.274  0.00  0.00     0.078 C 
ENDROOT
BRANCH   1   8
ATOM      8  C1  UNL d   1       0.033   1.907  -0.276  0.00  0.00     0.053 C 
ATOM      9  C   UNL d   1      -1.089   1.401  -1.170  0.00  0.00     0.018 C 
ENDBRANCH   1   8
TORSDOF 1
ENDMDL
