MODEL 1
REMARK minimizedAffinity 5.70030832
REMARK minimizedRMSD -1
REMARK  1 active torsions:
REMARK  status: ('A' for Active; 'I' for Inactive)
REMARK    1  A    between atoms: C1_2  and  C2_3 
ROOT
ATOM      1  C2  UNL d   1       0.172   0.198   0.199  0.00  0.00    -0.076 A 
ATOM      2  C3  UNL d   1      -0.346   1.107   1.138  0.00  0.00     0.004 A 
ATOM      3  C4  UNL d   1      -0.041   0.991   2.493  0.00  0.00    -0.003 A 
ATOM      4  C5  UNL d   1       0.789  -0.035   2.932  0.00  0.00     0.000 A 
ATOM      5  C6  UNL d   1       1.327  -0.935   2.012  0.00  0.00     0.000 A 
ATOM      6  C7  UNL d   1       1.042  -0.822   0.640  0.00  0.00    -0.073 A 
ATOM      7  C8  UNL d   1       1.644  -1.824  -0.307  0.00  0.00     0.078 C 
ENDROOT
BRANCH   1   8
ATOM      8  C1  UNL d   1      -0.215   0.358  -1.253  0.00  0.00     0.053 C 
ATOM      9  C   UNL d   1      -1.643  -0.088  -1.527  0.00  0.00     0.018 C 
ENDBRANCH   1   8
TORSDOF 1
ENDMDL
