MODEL 1
REMARK minimizedAffinity 3.65806103
REMARK minimizedRMSD -1
REMARK  1 active torsions:
REMARK  status: ('A' for Active; 'I' for Inactive)
REMARK    1  A    between atoms: C1_2  and  C2_3 
ROOT
ATOM      1  C2  UNL d   1       1.023   2.924   0.842  0.00  0.00    -0.076 A 
ATOM      2  C3  UNL d   1       0.410   2.018  -0.041  0.00  0.00     0.004 A 
ATOM      3  C4  UNL d   1       0.161   0.701   0.340  0.00  0.00    -0.003 A 
ATOM      4  C5  UNL d   1       0.519   0.268   1.612  0.00  0.00     0.000 A 
ATOM      5  C6  UNL d   1       1.111   1.158   2.508  0.00  0.00     0.000 A 
ATOM      6  C7  UNL d   1       1.355   2.493   2.145  0.00  0.00    -0.073 A 
ATOM      7  C8  UNL d   1       2.002   3.408   3.148  0.00  0.00     0.078 C 
ENDROOT
BRANCH   1   8
ATOM      8  C1  UNL d   1       1.293   4.332   0.363  0.00  0.00     0.053 C 
ATOM      9  C   UNL d   1       0.922   4.532  -1.098  0.00  0.00     0.018 C 
ENDBRANCH   1   8
TORSDOF 1
ENDMDL
