MODEL 1
REMARK minimizedAffinity 5.8175292
REMARK minimizedRMSD -1
REMARK  1 active torsions:
REMARK  status: ('A' for Active; 'I' for Inactive)
REMARK    1  A    between atoms: C1_2  and  C2_3 
ROOT
ATOM      1  C2  UNL d   1       0.412   1.541   1.850  0.00  0.00    -0.076 A 
ATOM      2  C3  UNL d   1       0.086   1.835   0.514  0.00  0.00     0.004 A 
ATOM      3  C4  UNL d   1       0.149   0.852  -0.473  0.00  0.00    -0.003 A 
ATOM      4  C5  UNL d   1       0.539  -0.440  -0.140  0.00  0.00     0.000 A 
ATOM      5  C6  UNL d   1       0.849  -0.754   1.183  0.00  0.00     0.000 A 
ATOM      6  C7  UNL d   1       0.774   0.221   2.193  0.00  0.00    -0.073 A 
ATOM      7  C8  UNL d   1       1.126  -0.171   3.602  0.00  0.00     0.078 C 
ENDROOT
BRANCH   1   8
ATOM      8  C1  UNL d   1       0.351   2.654   2.872  0.00  0.00     0.053 C 
ATOM      9  C   UNL d   1       1.650   3.440   2.955  0.00  0.00     0.018 C 
ENDBRANCH   1   8
TORSDOF 1
ENDMDL
