MODEL 1
REMARK minimizedAffinity 0.988092959
REMARK minimizedRMSD -1
REMARK  1 active torsions:
REMARK  status: ('A' for Active; 'I' for Inactive)
REMARK    1  A    between atoms: C1_2  and  C2_3 
ROOT
ATOM      1  C2  UNL d   1       0.713   1.282   1.229  0.00  0.00    -0.076 A 
ATOM      2  C3  UNL d   1       0.673   1.423  -0.170  0.00  0.00     0.004 A 
ATOM      3  C4  UNL d   1       1.200   0.439  -1.005  0.00  0.00    -0.003 A 
ATOM      4  C5  UNL d   1       1.774  -0.702  -0.455  0.00  0.00     0.000 A 
ATOM      5  C6  UNL d   1       1.806  -0.866   0.929  0.00  0.00     0.000 A 
ATOM      6  C7  UNL d   1       1.265   0.109   1.785  0.00  0.00    -0.073 A 
ATOM      7  C8  UNL d   1       1.333  -0.117   3.270  0.00  0.00     0.078 C 
ENDROOT
BRANCH   1   8
ATOM      8  C1  UNL d   1       0.151   2.395   2.085  0.00  0.00     0.053 C 
ATOM      9  C   UNL d   1      -0.237   3.618   1.269  0.00  0.00     0.018 C 
ENDBRANCH   1   8
TORSDOF 1
ENDMDL
