MODEL 1
REMARK minimizedAffinity -0.0285947695
REMARK minimizedRMSD -1
REMARK  1 active torsions:
REMARK  status: ('A' for Active; 'I' for Inactive)
REMARK    1  A    between atoms: C1_2  and  C2_3 
ROOT
ATOM      1  C2  UNL d   1       0.543   2.346   1.080  0.00  0.00    -0.076 A 
ATOM      2  C3  UNL d   1       0.021   1.505   0.081  0.00  0.00     0.004 A 
ATOM      3  C4  UNL d   1       0.195   0.124   0.142  0.00  0.00    -0.003 A 
ATOM      4  C5  UNL d   1       0.893  -0.440   1.204  0.00  0.00     0.000 A 
ATOM      5  C6  UNL d   1       1.403   0.377   2.213  0.00  0.00     0.000 A 
ATOM      6  C7  UNL d   1       1.223   1.770   2.175  0.00  0.00    -0.073 A 
ATOM      7  C8  UNL d   1       1.799   2.603   3.287  0.00  0.00     0.078 C 
ENDROOT
BRANCH   1   8
ATOM      8  C1  UNL d   1       0.347   3.839   0.946  0.00  0.00     0.053 C 
ATOM      9  C   UNL d   1       0.708   4.352  -0.440  0.00  0.00     0.018 C 
ENDBRANCH   1   8
TORSDOF 1
ENDMDL
