MODEL 1
REMARK minimizedAffinity -2.03220725
REMARK minimizedRMSD -1
REMARK  1 active torsions:
REMARK  status: ('A' for Active; 'I' for Inactive)
REMARK    1  A    between atoms: C1_2  and  C2_3 
ROOT
ATOM      1  C2  UNL d   1       0.976   3.314   1.475  0.00  0.00    -0.076 A 
ATOM      2  C3  UNL d   1       0.291   3.664   0.298  0.00  0.00     0.004 A 
ATOM      3  C4  UNL d   1       0.589   4.844  -0.382  0.00  0.00    -0.003 A 
ATOM      4  C5  UNL d   1       1.577   5.693   0.104  0.00  0.00     0.000 A 
ATOM      5  C6  UNL d   1       2.278   5.354   1.261  0.00  0.00     0.000 A 
ATOM      6  C7  UNL d   1       2.002   4.160   1.949  0.00  0.00    -0.073 A 
ATOM      7  C8  UNL d   1       2.784   3.846   3.194  0.00  0.00     0.078 C 
ENDROOT
BRANCH   1   8
ATOM      8  C1  UNL d   1       0.591   2.036   2.184  0.00  0.00     0.053 C 
ATOM      9  C   UNL d   1       0.584   0.833   1.253  0.00  0.00     0.018 C 
ENDBRANCH   1   8
TORSDOF 1
ENDMDL
