MODEL 1
REMARK minimizedAffinity -2.00309515
REMARK minimizedRMSD -1
REMARK  1 active torsions:
REMARK  status: ('A' for Active; 'I' for Inactive)
REMARK    1  A    between atoms: C1_2  and  C2_3 
ROOT
ATOM      1  C2  UNL d   1       0.197   0.087   0.366  0.00  0.00    -0.076 A 
ATOM      2  C3  UNL d   1       1.302   0.213  -0.494  0.00  0.00     0.004 A 
ATOM      3  C4  UNL d   1       2.494  -0.460  -0.234  0.00  0.00    -0.003 A 
ATOM      4  C5  UNL d   1       2.601  -1.271   0.891  0.00  0.00     0.000 A 
ATOM      5  C6  UNL d   1       1.509  -1.422   1.745  0.00  0.00     0.000 A 
ATOM      6  C7  UNL d   1       0.294  -0.763   1.488  0.00  0.00    -0.073 A 
ATOM      7  C8  UNL d   1      -0.849  -0.956   2.446  0.00  0.00     0.078 C 
ENDROOT
BRANCH   1   8
ATOM      8  C1  UNL d   1      -1.061   0.863   0.047  0.00  0.00     0.053 C 
ATOM      9  C   UNL d   1      -1.006   1.525  -1.321  0.00  0.00     0.018 C 
ENDBRANCH   1   8
TORSDOF 1
ENDMDL
