MODEL 1
REMARK minimizedAffinity -4.55617189
REMARK minimizedRMSD -1
REMARK  1 active torsions:
REMARK  status: ('A' for Active; 'I' for Inactive)
REMARK    1  A    between atoms: C1_2  and  C2_3 
ROOT
ATOM      1  C2  UNL d   1       0.896   0.250  -0.172  0.00  0.00    -0.076 A 
ATOM      2  C3  UNL d   1       1.906   0.602  -1.083  0.00  0.00     0.004 A 
ATOM      3  C4  UNL d   1       3.047  -0.186  -1.229  0.00  0.00    -0.003 A 
ATOM      4  C5  UNL d   1       3.196  -1.338  -0.465  0.00  0.00     0.000 A 
ATOM      5  C6  UNL d   1       2.195  -1.712   0.431  0.00  0.00     0.000 A 
ATOM      6  C7  UNL d   1       1.031  -0.938   0.578  0.00  0.00    -0.073 A 
ATOM      7  C8  UNL d   1      -0.013  -1.385   1.564  0.00  0.00     0.078 C 
ENDROOT
BRANCH   1   8
ATOM      8  C1  UNL d   1      -0.307   1.157  -0.038  0.00  0.00     0.053 C 
ATOM      9  C   UNL d   1      -1.048   1.340  -1.353  0.00  0.00     0.018 C 
ENDBRANCH   1   8
TORSDOF 1
ENDMDL
