MODEL 1
REMARK minimizedAffinity -2.24307728
REMARK minimizedRMSD -1
REMARK  1 active torsions:
REMARK  status: ('A' for Active; 'I' for Inactive)
REMARK    1  A    between atoms: C1_2  and  C2_3 
ROOT
ATOM      1  C2  UNL d   1      -0.860   1.177  -0.641  0.00  0.00    -0.076 A 
ATOM      2  C3  UNL d   1      -1.620   1.063   0.536  0.00  0.00     0.004 A 
ATOM      3  C4  UNL d   1      -1.367   0.049   1.459  0.00  0.00    -0.003 A 
ATOM      4  C5  UNL d   1      -0.349  -0.867   1.219  0.00  0.00     0.000 A 
ATOM      5  C6  UNL d   1       0.427  -0.759   0.065  0.00  0.00     0.000 A 
ATOM      6  C7  UNL d   1       0.195   0.268  -0.867  0.00  0.00    -0.073 A 
ATOM      7  C8  UNL d   1       1.058   0.334  -2.097  0.00  0.00     0.078 C 
ENDROOT
BRANCH   1   8
ATOM      8  C1  UNL d   1      -1.198   2.281  -1.617  0.00  0.00     0.053 C 
ATOM      9  C   UNL d   1      -2.115   1.810  -2.735  0.00  0.00     0.018 C 
ENDBRANCH   1   8
TORSDOF 1
ENDMDL
