MODEL 1
REMARK minimizedAffinity -4.51993513
REMARK minimizedRMSD -1
REMARK  1 active torsions:
REMARK  status: ('A' for Active; 'I' for Inactive)
REMARK    1  A    between atoms: C1_2  and  C2_3 
ROOT
ATOM      1  C2  UNL d   1       0.391   0.308   0.372  0.00  0.00    -0.076 A 
ATOM      2  C3  UNL d   1       1.627   0.497  -0.271  0.00  0.00     0.004 A 
ATOM      3  C4  UNL d   1       2.636  -0.460  -0.179  0.00  0.00    -0.003 A 
ATOM      4  C5  UNL d   1       2.426  -1.621   0.556  0.00  0.00     0.000 A 
ATOM      5  C6  UNL d   1       1.200  -1.833   1.185  0.00  0.00     0.000 A 
ATOM      6  C7  UNL d   1       0.166  -0.886   1.090  0.00  0.00    -0.073 A 
ATOM      7  C8  UNL d   1      -1.134  -1.163   1.794  0.00  0.00     0.078 C 
ENDROOT
BRANCH   1   8
ATOM      8  C1  UNL d   1      -0.657   1.393   0.261  0.00  0.00     0.053 C 
ATOM      9  C   UNL d   1      -0.954   1.769  -1.183  0.00  0.00     0.018 C 
ENDBRANCH   1   8
TORSDOF 1
ENDMDL
