MODEL 1
REMARK minimizedAffinity -5.03399324
REMARK minimizedRMSD -1
REMARK  1 active torsions:
REMARK  status: ('A' for Active; 'I' for Inactive)
REMARK    1  A    between atoms: C1_2  and  C2_3 
ROOT
ATOM      1  C2  UNL d   1      -0.727   2.197  -1.606  0.00  0.00    -0.076 A 
ATOM      2  C3  UNL d   1       0.084   3.336  -1.748  0.00  0.00     0.004 A 
ATOM      3  C4  UNL d   1      -0.032   4.165  -2.863  0.00  0.00    -0.003 A 
ATOM      4  C5  UNL d   1      -0.962   3.868  -3.853  0.00  0.00     0.000 A 
ATOM      5  C6  UNL d   1      -1.787   2.751  -3.720  0.00  0.00     0.000 A 
ATOM      6  C7  UNL d   1      -1.694   1.915  -2.594  0.00  0.00    -0.073 A 
ATOM      7  C8  UNL d   1      -2.604   0.721  -2.505  0.00  0.00     0.078 C 
ENDROOT
BRANCH   1   8
ATOM      8  C1  UNL d   1      -0.537   1.320  -0.388  0.00  0.00     0.053 C 
ATOM      9  C   UNL d   1       0.929   1.124  -0.035  0.00  0.00     0.018 C 
ENDBRANCH   1   8
TORSDOF 1
ENDMDL
