MODEL 1
REMARK minimizedAffinity -5.54325438
REMARK minimizedRMSD -1
REMARK  1 active torsions:
REMARK  status: ('A' for Active; 'I' for Inactive)
REMARK    1  A    between atoms: C1_2  and  C2_3 
ROOT
ATOM      1  C2  UNL d   1       0.554  -1.747   1.201  0.00  0.00    -0.076 A 
ATOM      2  C3  UNL d   1      -0.539  -2.247   1.929  0.00  0.00     0.004 A 
ATOM      3  C4  UNL d   1      -1.772  -1.597   1.911  0.00  0.00    -0.003 A 
ATOM      4  C5  UNL d   1      -1.931  -0.435   1.163  0.00  0.00     0.000 A 
ATOM      5  C6  UNL d   1      -0.862   0.066   0.421  0.00  0.00     0.000 A 
ATOM      6  C7  UNL d   1       0.383  -0.587   0.416  0.00  0.00    -0.073 A 
ATOM      7  C8  UNL d   1       1.503   0.001  -0.398  0.00  0.00     0.078 C 
ENDROOT
BRANCH   1   8
ATOM      8  C1  UNL d   1       1.874  -2.480   1.282  0.00  0.00     0.053 C 
ATOM      9  C   UNL d   1       1.756  -3.818   1.995  0.00  0.00     0.018 C 
ENDBRANCH   1   8
TORSDOF 1
ENDMDL
