MODEL 1
REMARK minimizedAffinity -5.04165363
REMARK minimizedRMSD -1
REMARK  1 active torsions:
REMARK  status: ('A' for Active; 'I' for Inactive)
REMARK    1  A    between atoms: C1_2  and  C2_3 
ROOT
ATOM      1  C2  UNL d   1      -0.968   0.732  -1.281  0.00  0.00    -0.076 A 
ATOM      2  C3  UNL d   1      -0.560   2.056  -1.516  0.00  0.00     0.004 A 
ATOM      3  C4  UNL d   1      -0.953   2.735  -2.668  0.00  0.00    -0.003 A 
ATOM      4  C5  UNL d   1      -1.763   2.100  -3.603  0.00  0.00     0.000 A 
ATOM      5  C6  UNL d   1      -2.193   0.793  -3.378  0.00  0.00     0.000 A 
ATOM      6  C7  UNL d   1      -1.818   0.100  -2.214  0.00  0.00    -0.073 A 
ATOM      7  C8  UNL d   1      -2.305  -1.310  -2.025  0.00  0.00     0.078 C 
ENDROOT
BRANCH   1   8
ATOM      8  C1  UNL d   1      -0.488   0.037  -0.027  0.00  0.00     0.053 C 
ATOM      9  C   UNL d   1       1.025  -0.116   0.011  0.00  0.00     0.018 C 
ENDBRANCH   1   8
TORSDOF 1
ENDMDL
