MODEL 1
REMARK minimizedAffinity -4.0645299
REMARK minimizedRMSD -1
REMARK  1 active torsions:
REMARK  status: ('A' for Active; 'I' for Inactive)
REMARK    1  A    between atoms: C1_2  and  C2_3 
ROOT
ATOM      1  C2  UNL d   1       0.038   0.236   0.138  0.00  0.00    -0.076 A 
ATOM      2  C3  UNL d   1      -0.798  -0.551   0.949  0.00  0.00     0.004 A 
ATOM      3  C4  UNL d   1      -0.295  -1.648   1.647  0.00  0.00    -0.003 A 
ATOM      4  C5  UNL d   1       1.052  -1.975   1.545  0.00  0.00     0.000 A 
ATOM      5  C6  UNL d   1       1.900  -1.195   0.759  0.00  0.00     0.000 A 
ATOM      6  C7  UNL d   1       1.412  -0.077   0.062  0.00  0.00    -0.073 A 
ATOM      7  C8  UNL d   1       2.369   0.725  -0.777  0.00  0.00     0.078 C 
ENDROOT
BRANCH   1   8
ATOM      8  C1  UNL d   1      -0.569   1.397  -0.617  0.00  0.00     0.053 C 
ATOM      9  C   UNL d   1      -1.492   0.944  -1.738  0.00  0.00     0.018 C 
ENDBRANCH   1   8
TORSDOF 1
ENDMDL
