MODEL 1
REMARK minimizedAffinity -3.82712746
REMARK minimizedRMSD -1
REMARK  1 active torsions:
REMARK  status: ('A' for Active; 'I' for Inactive)
REMARK    1  A    between atoms: C1_2  and  C2_3 
ROOT
ATOM      1  C2  UNL d   1       2.263  -1.174   1.143  0.00  0.00    -0.076 A 
ATOM      2  C3  UNL d   1       1.810  -2.442   1.549  0.00  0.00     0.004 A 
ATOM      3  C4  UNL d   1       0.531  -2.886   1.219  0.00  0.00    -0.003 A 
ATOM      4  C5  UNL d   1      -0.316  -2.071   0.476  0.00  0.00     0.000 A 
ATOM      5  C6  UNL d   1       0.123  -0.818   0.050  0.00  0.00     0.000 A 
ATOM      6  C7  UNL d   1       1.416  -0.361   0.361  0.00  0.00    -0.073 A 
ATOM      7  C8  UNL d   1       1.835   1.001  -0.120  0.00  0.00     0.078 C 
ENDROOT
BRANCH   1   8
ATOM      8  C1  UNL d   1       3.650  -0.735   1.554  0.00  0.00     0.053 C 
ATOM      9  C   UNL d   1       3.890  -0.885   3.049  0.00  0.00     0.018 C 
ENDBRANCH   1   8
TORSDOF 1
ENDMDL
