MODEL 1
REMARK minimizedAffinity -3.32340145
REMARK minimizedRMSD -1
REMARK  1 active torsions:
REMARK  status: ('A' for Active; 'I' for Inactive)
REMARK    1  A    between atoms: C1_2  and  C2_3 
ROOT
ATOM      1  C2  UNL d   1      -0.398   0.449   0.157  0.00  0.00    -0.076 A 
ATOM      2  C3  UNL d   1      -1.105  -0.504   0.910  0.00  0.00     0.004 A 
ATOM      3  C4  UNL d   1      -0.502  -1.696   1.308  0.00  0.00    -0.003 A 
ATOM      4  C5  UNL d   1       0.820  -1.953   0.961  0.00  0.00     0.000 A 
ATOM      5  C6  UNL d   1       1.542  -1.011   0.229  0.00  0.00     0.000 A 
ATOM      6  C7  UNL d   1       0.954   0.202  -0.166  0.00  0.00    -0.073 A 
ATOM      7  C8  UNL d   1       1.778   1.179  -0.959  0.00  0.00     0.078 C 
ENDROOT
BRANCH   1   8
ATOM      8  C1  UNL d   1      -1.113   1.711  -0.269  0.00  0.00     0.053 C 
ATOM      9  C   UNL d   1      -1.977   1.503  -1.503  0.00  0.00     0.018 C 
ENDBRANCH   1   8
TORSDOF 1
ENDMDL
