MODEL 1
REMARK minimizedAffinity 0.70382899
REMARK minimizedRMSD -1
REMARK  2 active torsions:
REMARK  status: ('A' for Active; 'I' for Inactive)
REMARK    1  A    between atoms: C1_2  and  C2_3 
REMARK    2  A    between atoms: C2_3  and  C3_4 
ROOT
ATOM      1  C3  UNL d   1      -2.031  -0.973   1.160  0.00  0.00    -0.075 A 
ATOM      2  C4  UNL d   1      -1.067  -1.527   0.304  0.00  0.00     0.002 A 
ATOM      3  C5  UNL d   1      -1.056  -1.204  -1.053  0.00  0.00     0.002 A 
ATOM      4  C6  UNL d   1      -2.011  -0.333  -1.573  0.00  0.00    -0.004 A 
ATOM      5  C7  UNL d   1      -2.983   0.210  -0.736  0.00  0.00     0.002 A 
ATOM      6  C8  UNL d   1      -2.994  -0.108   0.624  0.00  0.00     0.002 A 
ENDROOT
BRANCH   1   7
ATOM      7  C2  UNL d   1      -2.031  -1.296   2.635  0.00  0.00     0.056 C 
BRANCH   7   8
ATOM      8  C1  UNL d   1      -1.880  -0.069   3.542  0.00  0.00     0.007 C 
ATOM      9  C   UNL d   1      -2.109  -0.380   5.015  0.00  0.00     0.009 C 
ENDBRANCH   7   8
ENDBRANCH   1   7
TORSDOF 2
ENDMDL
