MODEL 1
REMARK minimizedAffinity 12.0287962
REMARK minimizedRMSD -1
REMARK  2 active torsions:
REMARK  status: ('A' for Active; 'I' for Inactive)
REMARK    1  A    between atoms: C1_2  and  C2_3 
REMARK    2  A    between atoms: C2_3  and  C3_4 
ROOT
ATOM      1  C3  UNL d   1      -1.041  -2.404   1.029  0.00  0.00    -0.075 A 
ATOM      2  C4  UNL d   1      -1.242  -2.799  -0.302  0.00  0.00     0.002 A 
ATOM      3  C5  UNL d   1      -1.291  -1.850  -1.323  0.00  0.00     0.002 A 
ATOM      4  C6  UNL d   1      -1.151  -0.496  -1.027  0.00  0.00    -0.004 A 
ATOM      5  C7  UNL d   1      -0.969  -0.090   0.293  0.00  0.00     0.002 A 
ATOM      6  C8  UNL d   1      -0.914  -1.038   1.317  0.00  0.00     0.002 A 
ENDROOT
BRANCH   1   7
ATOM      7  C2  UNL d   1      -0.957  -3.428   2.135  0.00  0.00     0.056 C 
BRANCH   7   8
ATOM      8  C1  UNL d   1      -1.869  -4.642   1.931  0.00  0.00     0.007 C 
ATOM      9  C   UNL d   1      -1.831  -5.624   3.094  0.00  0.00     0.009 C 
ENDBRANCH   7   8
ENDBRANCH   1   7
TORSDOF 2
ENDMDL
