MODEL 1
REMARK minimizedAffinity -4.23327684
REMARK minimizedRMSD -1
REMARK  2 active torsions:
REMARK  status: ('A' for Active; 'I' for Inactive)
REMARK    1  A    between atoms: C1_2  and  C2_3 
REMARK    2  A    between atoms: C2_3  and  C3_4 
ROOT
ATOM      1  C3  UNL d   1       0.479   0.579   1.720  0.00  0.00    -0.075 A 
ATOM      2  C4  UNL d   1       1.866   0.385   1.785  0.00  0.00     0.002 A 
ATOM      3  C5  UNL d   1       2.542   0.503   3.000  0.00  0.00     0.002 A 
ATOM      4  C6  UNL d   1       1.843   0.827   4.161  0.00  0.00    -0.004 A 
ATOM      5  C7  UNL d   1       0.467   1.039   4.104  0.00  0.00     0.002 A 
ATOM      6  C8  UNL d   1      -0.212   0.917   2.891  0.00  0.00     0.002 A 
ENDROOT
BRANCH   1   7
ATOM      7  C2  UNL d   1      -0.262   0.423   0.414  0.00  0.00     0.056 C 
BRANCH   7   8
ATOM      8  C1  UNL d   1      -1.159  -0.818   0.350  0.00  0.00     0.007 C 
ATOM      9  C   UNL d   1      -2.582  -0.555   0.824  0.00  0.00     0.009 C 
ENDBRANCH   7   8
ENDBRANCH   1   7
TORSDOF 2
ENDMDL
