MODEL 1
REMARK minimizedAffinity 2.56754923
REMARK minimizedRMSD -1
REMARK  2 active torsions:
REMARK  status: ('A' for Active; 'I' for Inactive)
REMARK    1  A    between atoms: C1_2  and  C2_3 
REMARK    2  A    between atoms: C2_3  and  C3_4 
ROOT
ATOM      1  C3  UNL d   1       4.515   3.533   3.602  0.00  0.00    -0.075 A 
ATOM      2  C4  UNL d   1       4.641   2.447   4.480  0.00  0.00     0.002 A 
ATOM      3  C5  UNL d   1       5.365   2.576   5.666  0.00  0.00     0.002 A 
ATOM      4  C6  UNL d   1       5.979   3.786   5.983  0.00  0.00    -0.004 A 
ATOM      5  C7  UNL d   1       5.874   4.866   5.110  0.00  0.00     0.002 A 
ATOM      6  C8  UNL d   1       5.147   4.742   3.925  0.00  0.00     0.002 A 
ENDROOT
BRANCH   1   7
ATOM      7  C2  UNL d   1       3.708   3.410   2.331  0.00  0.00     0.056 C 
BRANCH   7   8
ATOM      8  C1  UNL d   1       4.040   4.470   1.276  0.00  0.00     0.007 C 
ATOM      9  C   UNL d   1       3.660   4.050  -0.138  0.00  0.00     0.009 C 
ENDBRANCH   7   8
ENDBRANCH   1   7
TORSDOF 2
ENDMDL
