MODEL 1
REMARK minimizedAffinity 8.11279106
REMARK minimizedRMSD -1
REMARK  2 active torsions:
REMARK  status: ('A' for Active; 'I' for Inactive)
REMARK    1  A    between atoms: C1_2  and  C2_3 
REMARK    2  A    between atoms: C2_3  and  C3_4 
ROOT
ATOM      1  C3  UNL d   1      -1.255  -1.109  -0.470  0.00  0.00    -0.075 A 
ATOM      2  C4  UNL d   1      -2.360  -0.353  -0.055  0.00  0.00     0.002 A 
ATOM      3  C5  UNL d   1      -2.931  -0.564   1.201  0.00  0.00     0.002 A 
ATOM      4  C6  UNL d   1      -2.412  -1.538   2.051  0.00  0.00    -0.004 A 
ATOM      5  C7  UNL d   1      -1.324  -2.306   1.642  0.00  0.00     0.002 A 
ATOM      6  C8  UNL d   1      -0.748  -2.094   0.388  0.00  0.00     0.002 A 
ENDROOT
BRANCH   1   7
ATOM      7  C2  UNL d   1      -0.614  -0.866  -1.816  0.00  0.00     0.056 C 
BRANCH   7   8
ATOM      8  C1  UNL d   1       0.179   0.442  -1.902  0.00  0.00     0.007 C 
ATOM      9  C   UNL d   1       1.677   0.227  -2.075  0.00  0.00     0.009 C 
ENDBRANCH   7   8
ENDBRANCH   1   7
TORSDOF 2
ENDMDL
