MODEL 1
REMARK minimizedAffinity 3.85740781
REMARK minimizedRMSD -1
REMARK  2 active torsions:
REMARK  status: ('A' for Active; 'I' for Inactive)
REMARK    1  A    between atoms: C1_2  and  C2_3 
REMARK    2  A    between atoms: C2_3  and  C3_4 
ROOT
ATOM      1  C3  UNL d   1      -1.262  -2.685   2.198  0.00  0.00    -0.075 A 
ATOM      2  C4  UNL d   1      -1.209  -4.085   2.142  0.00  0.00     0.002 A 
ATOM      3  C5  UNL d   1      -1.818  -4.858   3.131  0.00  0.00     0.002 A 
ATOM      4  C6  UNL d   1      -2.479  -4.242   4.192  0.00  0.00    -0.004 A 
ATOM      5  C7  UNL d   1      -2.523  -2.851   4.267  0.00  0.00     0.002 A 
ATOM      6  C8  UNL d   1      -1.918  -2.076   3.276  0.00  0.00     0.002 A 
ENDROOT
BRANCH   1   7
ATOM      7  C2  UNL d   1      -0.629  -1.844   1.116  0.00  0.00     0.056 C 
BRANCH   7   8
ATOM      8  C1  UNL d   1      -1.584  -0.831   0.475  0.00  0.00     0.007 C 
ATOM      9  C   UNL d   1      -1.396  -0.697  -1.030  0.00  0.00     0.009 C 
ENDBRANCH   7   8
ENDBRANCH   1   7
TORSDOF 2
ENDMDL
