MODEL 1
REMARK minimizedAffinity -0.904334962
REMARK minimizedRMSD -1
REMARK  2 active torsions:
REMARK  status: ('A' for Active; 'I' for Inactive)
REMARK    1  A    between atoms: C1_2  and  C2_3 
REMARK    2  A    between atoms: C2_3  and  C3_4 
ROOT
ATOM      1  C3  UNL d   1      -3.759   4.762  -5.147  0.00  0.00    -0.075 A 
ATOM      2  C4  UNL d   1      -4.731   5.402  -5.930  0.00  0.00     0.002 A 
ATOM      3  C5  UNL d   1      -5.841   6.000  -5.332  0.00  0.00     0.002 A 
ATOM      4  C6  UNL d   1      -5.998   5.958  -3.949  0.00  0.00    -0.004 A 
ATOM      5  C7  UNL d   1      -5.047   5.311  -3.162  0.00  0.00     0.002 A 
ATOM      6  C8  UNL d   1      -3.933   4.715  -3.757  0.00  0.00     0.002 A 
ENDROOT
BRANCH   1   7
ATOM      7  C2  UNL d   1      -2.540   4.139  -5.784  0.00  0.00     0.056 C 
BRANCH   7   8
ATOM      8  C1  UNL d   1      -2.237   2.720  -5.293  0.00  0.00     0.007 C 
ATOM      9  C   UNL d   1      -0.929   2.619  -4.519  0.00  0.00     0.009 C 
ENDBRANCH   7   8
ENDBRANCH   1   7
TORSDOF 2
ENDMDL
