MODEL 1
REMARK minimizedAffinity 9.35798836
REMARK minimizedRMSD -1
REMARK  2 active torsions:
REMARK  status: ('A' for Active; 'I' for Inactive)
REMARK    1  A    between atoms: C1_2  and  C2_3 
REMARK    2  A    between atoms: C2_3  and  C3_4 
ROOT
ATOM      1  C3  UNL d   1       4.171   3.437  -0.786  0.00  0.00    -0.075 A 
ATOM      2  C4  UNL d   1       5.070   2.375  -0.615  0.00  0.00     0.002 A 
ATOM      3  C5  UNL d   1       5.979   2.047  -1.621  0.00  0.00     0.002 A 
ATOM      4  C6  UNL d   1       5.993   2.769  -2.813  0.00  0.00    -0.004 A 
ATOM      5  C7  UNL d   1       5.093   3.815  -3.000  0.00  0.00     0.002 A 
ATOM      6  C8  UNL d   1       4.185   4.148  -1.993  0.00  0.00     0.002 A 
ENDROOT
BRANCH   1   7
ATOM      7  C2  UNL d   1       3.205   3.816   0.312  0.00  0.00     0.056 C 
BRANCH   7   8
ATOM      8  C1  UNL d   1       3.835   3.868   1.707  0.00  0.00     0.007 C 
ATOM      9  C   UNL d   1       4.946   4.903   1.827  0.00  0.00     0.009 C 
ENDBRANCH   7   8
ENDBRANCH   1   7
TORSDOF 2
ENDMDL
