MODEL 1
REMARK minimizedAffinity 5.51879454
REMARK minimizedRMSD -1
REMARK  2 active torsions:
REMARK  status: ('A' for Active; 'I' for Inactive)
REMARK    1  A    between atoms: C1_2  and  C2_3 
REMARK    2  A    between atoms: C2_3  and  C3_4 
ROOT
ATOM      1  C3  UNL d   1       5.208   4.586   3.271  0.00  0.00    -0.075 A 
ATOM      2  C4  UNL d   1       5.979   5.665   3.728  0.00  0.00     0.002 A 
ATOM      3  C5  UNL d   1       5.999   5.997   5.083  0.00  0.00     0.002 A 
ATOM      4  C6  UNL d   1       5.244   5.263   5.995  0.00  0.00    -0.004 A 
ATOM      5  C7  UNL d   1       4.462   4.199   5.550  0.00  0.00     0.002 A 
ATOM      6  C8  UNL d   1       4.443   3.862   4.195  0.00  0.00     0.002 A 
ENDROOT
BRANCH   1   7
ATOM      7  C2  UNL d   1       5.205   4.203   1.810  0.00  0.00     0.056 C 
BRANCH   7   8
ATOM      8  C1  UNL d   1       4.106   4.887   0.989  0.00  0.00     0.007 C 
ATOM      9  C   UNL d   1       4.651   5.802  -0.099  0.00  0.00     0.009 C 
ENDBRANCH   7   8
ENDBRANCH   1   7
TORSDOF 2
ENDMDL
