MODEL 1
REMARK minimizedAffinity 11.5628624
REMARK minimizedRMSD -1
REMARK  2 active torsions:
REMARK  status: ('A' for Active; 'I' for Inactive)
REMARK    1  A    between atoms: C1_2  and  C2_3 
REMARK    2  A    between atoms: C2_3  and  C3_4 
ROOT
ATOM      1  C3  UNL d   1      -1.205  -2.721   0.625  0.00  0.00    -0.075 A 
ATOM      2  C4  UNL d   1      -0.760  -1.391   0.621  0.00  0.00     0.002 A 
ATOM      3  C5  UNL d   1      -0.654  -0.683  -0.577  0.00  0.00     0.002 A 
ATOM      4  C6  UNL d   1      -0.980  -1.298  -1.784  0.00  0.00    -0.004 A 
ATOM      5  C7  UNL d   1      -1.407  -2.624  -1.794  0.00  0.00     0.002 A 
ATOM      6  C8  UNL d   1      -1.519  -3.333  -0.596  0.00  0.00     0.002 A 
ENDROOT
BRANCH   1   7
ATOM      7  C2  UNL d   1      -1.351  -3.484   1.920  0.00  0.00     0.056 C 
BRANCH   7   8
ATOM      8  C1  UNL d   1      -1.785  -4.942   1.740  0.00  0.00     0.007 C 
ATOM      9  C   UNL d   1      -2.634  -5.462   2.893  0.00  0.00     0.009 C 
ENDBRANCH   7   8
ENDBRANCH   1   7
TORSDOF 2
ENDMDL
