MODEL 1
REMARK minimizedAffinity 19.2062511
REMARK minimizedRMSD -1
REMARK  2 active torsions:
REMARK  status: ('A' for Active; 'I' for Inactive)
REMARK    1  A    between atoms: C1_2  and  C2_3 
REMARK    2  A    between atoms: C2_3  and  C3_4 
ROOT
ATOM      1  C3  UNL d   1      -2.617   1.847   1.431  0.00  0.00    -0.075 A 
ATOM      2  C4  UNL d   1      -1.947   2.675   0.519  0.00  0.00     0.002 A 
ATOM      3  C5  UNL d   1      -1.152   3.729   0.971  0.00  0.00     0.002 A 
ATOM      4  C6  UNL d   1      -1.025   3.974   2.336  0.00  0.00    -0.004 A 
ATOM      5  C7  UNL d   1      -1.700   3.167   3.251  0.00  0.00     0.002 A 
ATOM      6  C8  UNL d   1      -2.492   2.110   2.801  0.00  0.00     0.002 A 
ENDROOT
BRANCH   1   7
ATOM      7  C2  UNL d   1      -3.455   0.687   0.949  0.00  0.00     0.056 C 
BRANCH   7   8
ATOM      8  C1  UNL d   1      -2.667  -0.611   0.746  0.00  0.00     0.007 C 
ATOM      9  C   UNL d   1      -2.274  -1.285   2.054  0.00  0.00     0.009 C 
ENDBRANCH   7   8
ENDBRANCH   1   7
TORSDOF 2
ENDMDL
