MODEL 1
REMARK minimizedAffinity -2.23913646
REMARK minimizedRMSD -1
REMARK  2 active torsions:
REMARK  status: ('A' for Active; 'I' for Inactive)
REMARK    1  A    between atoms: C1_2  and  C2_3 
REMARK    2  A    between atoms: C2_3  and  C3_4 
ROOT
ATOM      1  C3  UNL d   1       0.362   3.964  -3.758  0.00  0.00    -0.075 A 
ATOM      2  C4  UNL d   1      -0.818   4.673  -4.026  0.00  0.00     0.002 A 
ATOM      3  C5  UNL d   1      -0.897   5.527  -5.127  0.00  0.00     0.002 A 
ATOM      4  C6  UNL d   1       0.204   5.691  -5.965  0.00  0.00    -0.004 A 
ATOM      5  C7  UNL d   1       1.387   5.005  -5.698  0.00  0.00     0.002 A 
ATOM      6  C8  UNL d   1       1.467   4.146  -4.600  0.00  0.00     0.002 A 
ENDROOT
BRANCH   1   7
ATOM      7  C2  UNL d   1       0.443   3.015  -2.586  0.00  0.00     0.056 C 
BRANCH   7   8
ATOM      8  C1  UNL d   1       1.349   1.803  -2.826  0.00  0.00     0.007 C 
ATOM      9  C   UNL d   1       1.537   0.938  -1.587  0.00  0.00     0.009 C 
ENDBRANCH   7   8
ENDBRANCH   1   7
TORSDOF 2
ENDMDL
