MODEL 1
REMARK minimizedAffinity 2.9086709
REMARK minimizedRMSD -1
REMARK  2 active torsions:
REMARK  status: ('A' for Active; 'I' for Inactive)
REMARK    1  A    between atoms: C1_2  and  C2_3 
REMARK    2  A    between atoms: C2_3  and  C3_4 
ROOT
ATOM      1  C3  UNL d   1       1.943   2.082  -1.534  0.00  0.00    -0.075 A 
ATOM      2  C4  UNL d   1       1.943   2.772  -0.312  0.00  0.00     0.002 A 
ATOM      3  C5  UNL d   1       2.393   2.149   0.852  0.00  0.00     0.002 A 
ATOM      4  C6  UNL d   1       2.836   0.829   0.814  0.00  0.00    -0.004 A 
ATOM      5  C7  UNL d   1       2.825   0.129  -0.391  0.00  0.00     0.002 A 
ATOM      6  C8  UNL d   1       2.380   0.751  -1.559  0.00  0.00     0.002 A 
ENDROOT
BRANCH   1   7
ATOM      7  C2  UNL d   1       1.486   2.760  -2.803  0.00  0.00     0.056 C 
BRANCH   7   8
ATOM      8  C1  UNL d   1       2.085   4.154  -3.017  0.00  0.00     0.007 C 
ATOM      9  C   UNL d   1       1.398   4.939  -4.127  0.00  0.00     0.009 C 
ENDBRANCH   7   8
ENDBRANCH   1   7
TORSDOF 2
ENDMDL
