MODEL 1
REMARK minimizedAffinity -0.98220247
REMARK minimizedRMSD -1
REMARK  2 active torsions:
REMARK  status: ('A' for Active; 'I' for Inactive)
REMARK    1  A    between atoms: C1_2  and  C2_3 
REMARK    2  A    between atoms: C2_3  and  C3_4 
ROOT
ATOM      1  C3  UNL d   1       1.213   4.336  -3.791  0.00  0.00    -0.075 A 
ATOM      2  C4  UNL d   1      -0.051   4.905  -3.577  0.00  0.00     0.002 A 
ATOM      3  C5  UNL d   1      -0.658   5.675  -4.570  0.00  0.00     0.002 A 
ATOM      4  C6  UNL d   1      -0.007   5.894  -5.782  0.00  0.00    -0.004 A 
ATOM      5  C7  UNL d   1       1.256   5.347  -5.998  0.00  0.00     0.002 A 
ATOM      6  C8  UNL d   1       1.864   4.573  -5.008  0.00  0.00     0.002 A 
ENDROOT
BRANCH   1   7
ATOM      7  C2  UNL d   1       1.863   3.478  -2.732  0.00  0.00     0.056 C 
BRANCH   7   8
ATOM      8  C1  UNL d   1       1.545   1.985  -2.857  0.00  0.00     0.007 C 
ATOM      9  C   UNL d   1       1.889   1.190  -1.605  0.00  0.00     0.009 C 
ENDBRANCH   7   8
ENDBRANCH   1   7
TORSDOF 2
ENDMDL
