MODEL 1
REMARK minimizedAffinity 15.0336761
REMARK minimizedRMSD -1
REMARK  2 active torsions:
REMARK  status: ('A' for Active; 'I' for Inactive)
REMARK    1  A    between atoms: C1_2  and  C2_3 
REMARK    2  A    between atoms: C2_3  and  C3_4 
ROOT
ATOM      1  C3  UNL d   1       1.156   4.051  -3.775  0.00  0.00    -0.075 A 
ATOM      2  C4  UNL d   1       1.946   4.845  -4.618  0.00  0.00     0.002 A 
ATOM      3  C5  UNL d   1       1.380   5.493  -5.717  0.00  0.00     0.002 A 
ATOM      4  C6  UNL d   1       0.022   5.347  -5.991  0.00  0.00    -0.004 A 
ATOM      5  C7  UNL d   1      -0.769   4.546  -5.169  0.00  0.00     0.002 A 
ATOM      6  C8  UNL d   1      -0.206   3.901  -4.067  0.00  0.00     0.002 A 
ENDROOT
BRANCH   1   7
ATOM      7  C2  UNL d   1       1.757   3.371  -2.568  0.00  0.00     0.056 C 
BRANCH   7   8
ATOM      8  C1  UNL d   1       1.074   2.053  -2.189  0.00  0.00     0.007 C 
ATOM      9  C   UNL d   1       1.453   1.557  -0.800  0.00  0.00     0.009 C 
ENDBRANCH   7   8
ENDBRANCH   1   7
TORSDOF 2
ENDMDL
