MODEL 1
REMARK minimizedAffinity 3.82770634
REMARK minimizedRMSD -1
REMARK  2 active torsions:
REMARK  status: ('A' for Active; 'I' for Inactive)
REMARK    1  A    between atoms: C1_2  and  C2_3 
REMARK    2  A    between atoms: C2_3  and  C3_4 
ROOT
ATOM      1  C3  UNL d   1      -3.197  -5.848  -4.668  0.00  0.00    -0.075 A 
ATOM      2  C4  UNL d   1      -3.836  -5.703  -5.908  0.00  0.00     0.002 A 
ATOM      3  C5  UNL d   1      -5.229  -5.685  -5.989  0.00  0.00     0.002 A 
ATOM      4  C6  UNL d   1      -5.999  -5.821  -4.836  0.00  0.00    -0.004 A 
ATOM      5  C7  UNL d   1      -5.374  -5.983  -3.601  0.00  0.00     0.002 A 
ATOM      6  C8  UNL d   1      -3.981  -5.997  -3.516  0.00  0.00     0.002 A 
ENDROOT
BRANCH   1   7
ATOM      7  C2  UNL d   1      -1.690  -5.839  -4.570  0.00  0.00     0.056 C 
BRANCH   7   8
ATOM      8  C1  UNL d   1      -1.155  -5.276  -3.249  0.00  0.00     0.007 C 
ATOM      9  C   UNL d   1      -1.813  -3.963  -2.845  0.00  0.00     0.009 C 
ENDBRANCH   7   8
ENDBRANCH   1   7
TORSDOF 2
ENDMDL
