MODEL 1
REMARK minimizedAffinity 5.50370741
REMARK minimizedRMSD -1
REMARK  2 active torsions:
REMARK  status: ('A' for Active; 'I' for Inactive)
REMARK    1  A    between atoms: C1_2  and  C2_3 
REMARK    2  A    between atoms: C2_3  and  C3_4 
ROOT
ATOM      1  C3  UNL d   1      -3.697  -0.043   2.549  0.00  0.00    -0.075 A 
ATOM      2  C4  UNL d   1      -2.655  -0.820   2.024  0.00  0.00     0.002 A 
ATOM      3  C5  UNL d   1      -1.553  -1.152   2.812  0.00  0.00     0.002 A 
ATOM      4  C6  UNL d   1      -1.474  -0.704   4.129  0.00  0.00    -0.004 A 
ATOM      5  C7  UNL d   1      -2.496   0.082   4.656  0.00  0.00     0.002 A 
ATOM      6  C8  UNL d   1      -3.602   0.413   3.871  0.00  0.00     0.002 A 
ENDROOT
BRANCH   1   7
ATOM      7  C2  UNL d   1      -4.907   0.296   1.710  0.00  0.00     0.056 C 
BRANCH   7   8
ATOM      8  C1  UNL d   1      -5.851   1.313   2.360  0.00  0.00     0.007 C 
ATOM      9  C   UNL d   1      -5.979   2.606   1.565  0.00  0.00     0.009 C 
ENDBRANCH   7   8
ENDBRANCH   1   7
TORSDOF 2
ENDMDL
