MODEL 1
REMARK minimizedAffinity 10.4338026
REMARK minimizedRMSD -1
REMARK  2 active torsions:
REMARK  status: ('A' for Active; 'I' for Inactive)
REMARK    1  A    between atoms: C1_2  and  C2_3 
REMARK    2  A    between atoms: C2_3  and  C3_4 
ROOT
ATOM      1  C3  UNL d   1       0.615   3.772  -3.639  0.00  0.00    -0.075 A 
ATOM      2  C4  UNL d   1      -0.612   4.450  -3.601  0.00  0.00     0.002 A 
ATOM      3  C5  UNL d   1      -1.130   5.042  -4.753  0.00  0.00     0.002 A 
ATOM      4  C6  UNL d   1      -0.425   4.975  -5.952  0.00  0.00    -0.004 A 
ATOM      5  C7  UNL d   1       0.804   4.319  -5.998  0.00  0.00     0.002 A 
ATOM      6  C8  UNL d   1       1.322   3.721  -4.847  0.00  0.00     0.002 A 
ENDROOT
BRANCH   1   7
ATOM      7  C2  UNL d   1       1.167   3.103  -2.402  0.00  0.00     0.056 C 
BRANCH   7   8
ATOM      8  C1  UNL d   1       1.509   1.622  -2.595  0.00  0.00     0.007 C 
ATOM      9  C   UNL d   1       2.765   1.194  -1.848  0.00  0.00     0.009 C 
ENDBRANCH   7   8
ENDBRANCH   1   7
TORSDOF 2
ENDMDL
