MODEL 1
REMARK minimizedAffinity -1.1684587
REMARK minimizedRMSD -1
REMARK  2 active torsions:
REMARK  status: ('A' for Active; 'I' for Inactive)
REMARK    1  A    between atoms: C1_2  and  C2_3 
REMARK    2  A    between atoms: C2_3  and  C3_4 
ROOT
ATOM      1  C3  UNL d   1      -2.257  -0.682   2.945  0.00  0.00    -0.075 A 
ATOM      2  C4  UNL d   1      -1.746  -0.121   4.124  0.00  0.00     0.002 A 
ATOM      3  C5  UNL d   1      -2.588   0.149   5.204  0.00  0.00     0.002 A 
ATOM      4  C6  UNL d   1      -3.950  -0.127   5.114  0.00  0.00    -0.004 A 
ATOM      5  C7  UNL d   1      -4.472  -0.669   3.942  0.00  0.00     0.002 A 
ATOM      6  C8  UNL d   1      -3.631  -0.945   2.862  0.00  0.00     0.002 A 
ENDROOT
BRANCH   1   7
ATOM      7  C2  UNL d   1      -1.347  -1.004   1.785  0.00  0.00     0.056 C 
BRANCH   7   8
ATOM      8  C1  UNL d   1      -0.933  -2.478   1.707  0.00  0.00     0.007 C 
ATOM      9  C   UNL d   1       0.355  -2.780   2.462  0.00  0.00     0.009 C 
ENDBRANCH   7   8
ENDBRANCH   1   7
TORSDOF 2
ENDMDL
