MODEL 1
REMARK minimizedAffinity 1.77074289
REMARK minimizedRMSD -1
REMARK  2 active torsions:
REMARK  status: ('A' for Active; 'I' for Inactive)
REMARK    1  A    between atoms: C1_2  and  C2_3 
REMARK    2  A    between atoms: C2_3  and  C3_4 
ROOT
ATOM      1  C3  UNL d   1       1.000   4.095  -4.110  0.00  0.00    -0.075 A 
ATOM      2  C4  UNL d   1       0.648   5.449  -4.020  0.00  0.00     0.002 A 
ATOM      3  C5  UNL d   1      -0.281   6.000  -4.903  0.00  0.00     0.002 A 
ATOM      4  C6  UNL d   1      -0.862   5.208  -5.891  0.00  0.00    -0.004 A 
ATOM      5  C7  UNL d   1      -0.508   3.865  -6.000  0.00  0.00     0.002 A 
ATOM      6  C8  UNL d   1       0.418   3.310  -5.115  0.00  0.00     0.002 A 
ENDROOT
BRANCH   1   7
ATOM      7  C2  UNL d   1       1.982   3.485  -3.138  0.00  0.00     0.056 C 
BRANCH   7   8
ATOM      8  C1  UNL d   1       1.574   2.101  -2.624  0.00  0.00     0.007 C 
ATOM      9  C   UNL d   1       2.626   1.459  -1.729  0.00  0.00     0.009 C 
ENDBRANCH   7   8
ENDBRANCH   1   7
TORSDOF 2
ENDMDL
