MODEL 1
REMARK minimizedAffinity 2.03850365
REMARK minimizedRMSD -1
REMARK  2 active torsions:
REMARK  status: ('A' for Active; 'I' for Inactive)
REMARK    1  A    between atoms: C1_2  and  C2_3 
REMARK    2  A    between atoms: C2_3  and  C3_4 
ROOT
ATOM      1  C3  UNL d   1      -5.983   1.223  -1.895  0.00  0.00    -0.075 A 
ATOM      2  C4  UNL d   1      -5.955   2.496  -2.481  0.00  0.00     0.002 A 
ATOM      3  C5  UNL d   1      -5.915   3.642  -1.685  0.00  0.00     0.002 A 
ATOM      4  C6  UNL d   1      -5.914   3.529  -0.296  0.00  0.00    -0.004 A 
ATOM      5  C7  UNL d   1      -5.959   2.269   0.297  0.00  0.00     0.002 A 
ATOM      6  C8  UNL d   1      -5.994   1.121  -0.497  0.00  0.00     0.002 A 
ENDROOT
BRANCH   1   7
ATOM      7  C2  UNL d   1      -5.996  -0.021  -2.751  0.00  0.00     0.056 C 
BRANCH   7   8
ATOM      8  C1  UNL d   1      -5.273   0.137  -4.092  0.00  0.00     0.007 C 
ATOM      9  C   UNL d   1      -5.971  -0.582  -5.239  0.00  0.00     0.009 C 
ENDBRANCH   7   8
ENDBRANCH   1   7
TORSDOF 2
ENDMDL
