MODEL 1
REMARK minimizedAffinity 8.92617989
REMARK minimizedRMSD -1
REMARK  2 active torsions:
REMARK  status: ('A' for Active; 'I' for Inactive)
REMARK    1  A    between atoms: C1_2  and  C2_3 
REMARK    2  A    between atoms: C2_3  and  C3_4 
ROOT
ATOM      1  C3  UNL d   1      -5.741   1.270  -0.973  0.00  0.00    -0.075 A 
ATOM      2  C4  UNL d   1      -5.842   2.012  -2.159  0.00  0.00     0.002 A 
ATOM      3  C5  UNL d   1      -5.957   1.367  -3.390  0.00  0.00     0.002 A 
ATOM      4  C6  UNL d   1      -5.962  -0.025  -3.453  0.00  0.00    -0.004 A 
ATOM      5  C7  UNL d   1      -5.846  -0.772  -2.283  0.00  0.00     0.002 A 
ATOM      6  C8  UNL d   1      -5.735  -0.129  -1.049  0.00  0.00     0.002 A 
ENDROOT
BRANCH   1   7
ATOM      7  C2  UNL d   1      -5.646   1.962   0.366  0.00  0.00     0.056 C 
BRANCH   7   8
ATOM      8  C1  UNL d   1      -5.886   3.474   0.305  0.00  0.00     0.007 C 
ATOM      9  C   UNL d   1      -5.961   4.126   1.679  0.00  0.00     0.009 C 
ENDBRANCH   7   8
ENDBRANCH   1   7
TORSDOF 2
ENDMDL
