MODEL 1
REMARK minimizedAffinity -2.2064476
REMARK minimizedRMSD -1
REMARK  1 active torsions:
REMARK  status: ('A' for Active; 'I' for Inactive)
REMARK    1  A    between atoms: N_2  and  C1_3 
ROOT
ATOM      1  C1  UNL d   1       1.912   5.064   5.460  0.00  0.00     0.143 A 
ATOM      2  C2  UNL d   1       2.901   5.382   4.522  0.00  0.00    -0.057 A 
ATOM      3  C3  UNL d   1       3.829   4.425   4.093  0.00  0.00     0.033 A 
ATOM      4  C4  UNL d   1       3.801   3.137   4.618  0.00  0.00    -0.042 A 
ATOM      5  C5  UNL d   1       2.843   2.806   5.569  0.00  0.00     0.033 A 
ATOM      6  C6  UNL d   1       1.915   3.764   5.988  0.00  0.00    -0.057 A 
ENDROOT
BRANCH   1   7
ATOM      7  N   UNL d   1       1.023   5.997   5.999  0.00  0.00    -0.732 N 
ATOM      8  C   UNL d   1      -0.372   5.994   5.616  0.00  0.00     0.284 C 
ATOM      9  H3  UNL d   1       1.181   6.155   6.992  0.00  0.00     0.395 HD
ENDBRANCH   1   7
TORSDOF 1
ENDMDL
