MODEL 1
REMARK minimizedAffinity 9.01163006
REMARK minimizedRMSD -1
REMARK  1 active torsions:
REMARK  status: ('A' for Active; 'I' for Inactive)
REMARK    1  A    between atoms: N_2  and  C1_3 
ROOT
ATOM      1  C1  UNL d   1      -2.067   1.176  -0.265  0.00  0.00     0.143 A 
ATOM      2  C2  UNL d   1      -2.498   1.663   0.974  0.00  0.00    -0.057 A 
ATOM      3  C3  UNL d   1      -3.790   1.402   1.447  0.00  0.00     0.033 A 
ATOM      4  C4  UNL d   1      -4.686   0.672   0.673  0.00  0.00    -0.042 A 
ATOM      5  C5  UNL d   1      -4.288   0.200  -0.573  0.00  0.00     0.033 A 
ATOM      6  C6  UNL d   1      -2.994   0.458  -1.036  0.00  0.00    -0.057 A 
ENDROOT
BRANCH   1   7
ATOM      7  N   UNL d   1      -0.828   1.484  -0.833  0.00  0.00    -0.732 N 
ATOM      8  C   UNL d   1       0.318   1.765   0.005  0.00  0.00     0.284 C 
ATOM      9  H3  UNL d   1      -0.619   0.907  -1.644  0.00  0.00     0.395 HD
ENDBRANCH   1   7
TORSDOF 1
ENDMDL
