MODEL 1
REMARK minimizedAffinity 4.17396116
REMARK minimizedRMSD -1
REMARK  1 active torsions:
REMARK  status: ('A' for Active; 'I' for Inactive)
REMARK    1  A    between atoms: N_2  and  C1_3 
ROOT
ATOM      1  C1  UNL d   1       2.583  -1.661  -0.927  0.00  0.00     0.143 A 
ATOM      2  C2  UNL d   1       2.453  -0.667   0.048  0.00  0.00    -0.057 A 
ATOM      3  C3  UNL d   1       3.038   0.594  -0.118  0.00  0.00     0.033 A 
ATOM      4  C4  UNL d   1       3.790   0.874  -1.255  0.00  0.00    -0.042 A 
ATOM      5  C5  UNL d   1       3.953  -0.107  -2.226  0.00  0.00     0.033 A 
ATOM      6  C6  UNL d   1       3.361  -1.362  -2.057  0.00  0.00    -0.057 A 
ENDROOT
BRANCH   1   7
ATOM      7  N   UNL d   1       2.108  -2.967  -0.775  0.00  0.00    -0.732 N 
ATOM      8  C   UNL d   1       2.493  -3.762   0.371  0.00  0.00     0.284 C 
ATOM      9  H3  UNL d   1       1.128  -3.056  -1.034  0.00  0.00     0.395 HD
ENDBRANCH   1   7
TORSDOF 1
ENDMDL
