MODEL 1
REMARK minimizedAffinity -0.427226543
REMARK minimizedRMSD -1
REMARK  1 active torsions:
REMARK  status: ('A' for Active; 'I' for Inactive)
REMARK    1  A    between atoms: N_2  and  C1_3 
ROOT
ATOM      1  C1  UNL d   1       3.659   3.199   6.000  0.00  0.00     0.143 A 
ATOM      2  C2  UNL d   1       4.406   4.382   5.971  0.00  0.00    -0.057 A 
ATOM      3  C3  UNL d   1       3.782   5.635   5.984  0.00  0.00     0.033 A 
ATOM      4  C4  UNL d   1       2.394   5.728   5.996  0.00  0.00    -0.042 A 
ATOM      5  C5  UNL d   1       1.631   4.565   6.000  0.00  0.00     0.033 A 
ATOM      6  C6  UNL d   1       2.260   3.317   5.994  0.00  0.00    -0.057 A 
ENDROOT
BRANCH   1   7
ATOM      7  N   UNL d   1       4.218   1.924   5.890  0.00  0.00    -0.732 N 
ATOM      8  C   UNL d   1       3.386   0.744   5.984  0.00  0.00     0.284 C 
ATOM      9  H3  UNL d   1       4.930   1.873   5.165  0.00  0.00     0.395 HD
ENDBRANCH   1   7
TORSDOF 1
ENDMDL
