MODEL 1
REMARK minimizedAffinity 4.17828751
REMARK minimizedRMSD -1
REMARK  1 active torsions:
REMARK  status: ('A' for Active; 'I' for Inactive)
REMARK    1  A    between atoms: N_2  and  C1_3 
ROOT
ATOM      1  C1  UNL d   1       3.454   3.210   5.939  0.00  0.00     0.143 A 
ATOM      2  C2  UNL d   1       4.768   3.690   5.967  0.00  0.00    -0.057 A 
ATOM      3  C3  UNL d   1       5.038   5.064   5.992  0.00  0.00     0.033 A 
ATOM      4  C4  UNL d   1       3.996   5.985   5.959  0.00  0.00    -0.042 A 
ATOM      5  C5  UNL d   1       2.683   5.530   5.905  0.00  0.00     0.033 A 
ATOM      6  C6  UNL d   1       2.419   4.157   5.888  0.00  0.00    -0.057 A 
ENDROOT
BRANCH   1   7
ATOM      7  N   UNL d   1       3.123   1.858   5.814  0.00  0.00    -0.732 N 
ATOM      8  C   UNL d   1       4.142   0.836   5.922  0.00  0.00     0.284 C 
ATOM      9  H3  UNL d   1       2.251   1.627   6.285  0.00  0.00     0.395 HD
ENDBRANCH   1   7
TORSDOF 1
ENDMDL
