MODEL 1
REMARK minimizedAffinity 3.26263571
REMARK minimizedRMSD -1
REMARK  1 active torsions:
REMARK  status: ('A' for Active; 'I' for Inactive)
REMARK    1  A    between atoms: N_2  and  C1_3 
ROOT
ATOM      1  C1  UNL d   1      -1.632   1.383  -1.025  0.00  0.00     0.143 A 
ATOM      2  C2  UNL d   1      -2.075   0.257  -1.728  0.00  0.00    -0.057 A 
ATOM      3  C3  UNL d   1      -3.298  -0.353  -1.425  0.00  0.00     0.033 A 
ATOM      4  C4  UNL d   1      -4.088   0.135  -0.390  0.00  0.00    -0.042 A 
ATOM      5  C5  UNL d   1      -3.656   1.238   0.339  0.00  0.00     0.033 A 
ATOM      6  C6  UNL d   1      -2.437   1.847   0.026  0.00  0.00    -0.057 A 
ENDROOT
BRANCH   1   7
ATOM      7  N   UNL d   1      -0.381   1.975  -1.214  0.00  0.00    -0.732 N 
ATOM      8  C   UNL d   1       0.773   1.513  -0.472  0.00  0.00     0.284 C 
ATOM      9  H3  UNL d   1      -0.191   2.178  -2.193  0.00  0.00     0.395 HD
ENDBRANCH   1   7
TORSDOF 1
ENDMDL
