MODEL 1
REMARK minimizedAffinity 1.24262512
REMARK minimizedRMSD -1
REMARK  1 active torsions:
REMARK  status: ('A' for Active; 'I' for Inactive)
REMARK    1  A    between atoms: N_2  and  C1_3 
ROOT
ATOM      1  C1  UNL d   1       2.434   2.008   4.471  0.00  0.00     0.143 A 
ATOM      2  C2  UNL d   1       2.699   2.874   3.405  0.00  0.00    -0.057 A 
ATOM      3  C3  UNL d   1       3.152   4.181   3.626  0.00  0.00     0.033 A 
ATOM      4  C4  UNL d   1       3.321   4.654   4.923  0.00  0.00    -0.042 A 
ATOM      5  C5  UNL d   1       3.039   3.819   5.998  0.00  0.00     0.033 A 
ATOM      6  C6  UNL d   1       2.594   2.513   5.770  0.00  0.00    -0.057 A 
ENDROOT
BRANCH   1   7
ATOM      7  N   UNL d   1       1.888   0.731   4.318  0.00  0.00    -0.732 N 
ATOM      8  C   UNL d   1       0.701   0.528   3.515  0.00  0.00     0.284 C 
ATOM      9  H3  UNL d   1       2.601   0.016   4.194  0.00  0.00     0.395 HD
ENDBRANCH   1   7
TORSDOF 1
ENDMDL
