MODEL 1
REMARK minimizedAffinity 8.25456715
REMARK minimizedRMSD -1
REMARK  1 active torsions:
REMARK  status: ('A' for Active; 'I' for Inactive)
REMARK    1  A    between atoms: N_2  and  C1_3 
ROOT
ATOM      1  C1  UNL d   1       2.511   0.533  -0.591  0.00  0.00     0.143 A 
ATOM      2  C2  UNL d   1       3.115   0.322   0.653  0.00  0.00    -0.057 A 
ATOM      3  C3  UNL d   1       3.552  -0.950   1.042  0.00  0.00     0.033 A 
ATOM      4  C4  UNL d   1       3.363  -2.043   0.203  0.00  0.00    -0.042 A 
ATOM      5  C5  UNL d   1       2.742  -1.862  -1.028  0.00  0.00     0.033 A 
ATOM      6  C6  UNL d   1       2.315  -0.588  -1.413  0.00  0.00    -0.057 A 
ENDROOT
BRANCH   1   7
ATOM      7  N   UNL d   1       1.967   1.755  -0.995  0.00  0.00    -0.732 N 
ATOM      8  C   UNL d   1       0.550   1.880  -1.259  0.00  0.00     0.284 C 
ATOM      9  H3  UNL d   1       2.366   2.543  -0.490  0.00  0.00     0.395 HD
ENDBRANCH   1   7
TORSDOF 1
ENDMDL
