MODEL 1
REMARK minimizedAffinity 1.63629329
REMARK minimizedRMSD -1
REMARK  1 active torsions:
REMARK  status: ('A' for Active; 'I' for Inactive)
REMARK    1  A    between atoms: N_2  and  C1_3 
ROOT
ATOM      1  C1  UNL d   1      -2.426   1.349  -0.552  0.00  0.00     0.143 A 
ATOM      2  C2  UNL d   1      -2.373   1.064   0.817  0.00  0.00    -0.057 A 
ATOM      3  C3  UNL d   1      -3.509   1.178   1.627  0.00  0.00     0.033 A 
ATOM      4  C4  UNL d   1      -4.716   1.609   1.086  0.00  0.00    -0.042 A 
ATOM      5  C5  UNL d   1      -4.786   1.923  -0.267  0.00  0.00     0.033 A 
ATOM      6  C6  UNL d   1      -3.649   1.800  -1.072  0.00  0.00    -0.057 A 
ENDROOT
BRANCH   1   7
ATOM      7  N   UNL d   1      -1.308   1.350  -1.390  0.00  0.00    -0.732 N 
ATOM      8  C   UNL d   1       0.019   1.547  -0.849  0.00  0.00     0.284 C 
ATOM      9  H3  UNL d   1      -1.361   0.632  -2.109  0.00  0.00     0.395 HD
ENDBRANCH   1   7
TORSDOF 1
ENDMDL
