MODEL 1
REMARK minimizedAffinity -3.50434685
REMARK minimizedRMSD -1
REMARK  1 active torsions:
REMARK  status: ('A' for Active; 'I' for Inactive)
REMARK    1  A    between atoms: N_2  and  C1_3 
ROOT
ATOM      1  C1  UNL d   1       2.765   4.833   5.340  0.00  0.00     0.143 A 
ATOM      2  C2  UNL d   1       2.853   3.560   5.914  0.00  0.00    -0.057 A 
ATOM      3  C3  UNL d   1       3.410   2.484   5.213  0.00  0.00     0.033 A 
ATOM      4  C4  UNL d   1       3.863   2.656   3.909  0.00  0.00    -0.042 A 
ATOM      5  C5  UNL d   1       3.763   3.906   3.309  0.00  0.00     0.033 A 
ATOM      6  C6  UNL d   1       3.212   4.978   4.017  0.00  0.00    -0.057 A 
ENDROOT
BRANCH   1   7
ATOM      7  N   UNL d   1       2.133   5.919   5.949  0.00  0.00    -0.732 N 
ATOM      8  C   UNL d   1       0.689   5.999   5.999  0.00  0.00     0.284 C 
ATOM      9  H3  UNL d   1       2.595   6.205   6.810  0.00  0.00     0.395 HD
ENDBRANCH   1   7
TORSDOF 1
ENDMDL
