MODEL 1
REMARK minimizedAffinity 1.27212441
REMARK minimizedRMSD -1
REMARK  1 active torsions:
REMARK  status: ('A' for Active; 'I' for Inactive)
REMARK    1  A    between atoms: N_2  and  C1_3 
ROOT
ATOM      1  C1  UNL d   1      -0.217   3.848   4.158  0.00  0.00     0.143 A 
ATOM      2  C2  UNL d   1       0.647   4.949   4.167  0.00  0.00    -0.057 A 
ATOM      3  C3  UNL d   1       0.474   5.999   5.077  0.00  0.00     0.033 A 
ATOM      4  C4  UNL d   1      -0.586   5.980   5.978  0.00  0.00    -0.042 A 
ATOM      5  C5  UNL d   1      -1.471   4.908   5.969  0.00  0.00     0.033 A 
ATOM      6  C6  UNL d   1      -1.290   3.859   5.063  0.00  0.00    -0.057 A 
ENDROOT
BRANCH   1   7
ATOM      7  N   UNL d   1      -0.156   2.820   3.213  0.00  0.00    -0.732 N 
ATOM      8  C   UNL d   1      -0.523   3.064   1.835  0.00  0.00     0.284 C 
ATOM      9  H3  UNL d   1       0.669   2.236   3.327  0.00  0.00     0.395 HD
ENDBRANCH   1   7
TORSDOF 1
ENDMDL
