MODEL 1
REMARK minimizedAffinity 7.57163525
REMARK minimizedRMSD -1
REMARK  0 active torsions:
REMARK  status: ('A' for Active; 'I' for Inactive)
ROOT
ATOM      1  O1  BZF d   1      -2.648  -3.254   0.333  0.00  0.00    -0.204 OA
ATOM      2  C2  BZF d   1      -1.489  -2.696   0.838  0.00  0.00     0.174 A 
ATOM      3  C3  BZF d   1      -0.702  -2.244  -0.159  0.00  0.00    -0.012 A 
ATOM      4  C3A BZF d   1      -1.455  -2.454  -1.358  0.00  0.00    -0.107 A 
ATOM      5  C4  BZF d   1      -1.213  -2.193  -2.676  0.00  0.00     0.055 A 
ATOM      6  C5  BZF d   1      -2.122  -2.588  -3.605  0.00  0.00    -0.016 A 
ATOM      7  C6  BZF d   1      -3.280  -3.249  -3.252  0.00  0.00     0.022 A 
ATOM      8  C7  BZF d   1      -3.567  -3.525  -1.957  0.00  0.00     0.029 A 
ATOM      9  C7A BZF d   1      -2.665  -3.098  -1.013  0.00  0.00     0.058 A 
ENDROOT
TORSDOF 0
ENDMDL
