MODEL 1
REMARK minimizedAffinity 6.76205015
REMARK minimizedRMSD -1
REMARK  0 active torsions:
REMARK  status: ('A' for Active; 'I' for Inactive)
ROOT
ATOM      1  O1  BZF d   1       4.612  -0.777   2.186  0.00  0.00    -0.204 OA
ATOM      2  C2  BZF d   1       5.049  -0.696   0.878  0.00  0.00     0.174 A 
ATOM      3  C3  BZF d   1       4.219   0.072   0.143  0.00  0.00    -0.012 A 
ATOM      4  C3A BZF d   1       3.250   0.572   1.069  0.00  0.00    -0.107 A 
ATOM      5  C4  BZF d   1       2.174   1.403   0.945  0.00  0.00     0.055 A 
ATOM      6  C5  BZF d   1       1.389   1.634   2.030  0.00  0.00    -0.016 A 
ATOM      7  C6  BZF d   1       1.648   1.048   3.252  0.00  0.00     0.022 A 
ATOM      8  C7  BZF d   1       2.707   0.221   3.425  0.00  0.00     0.029 A 
ATOM      9  C7A BZF d   1       3.521   0.011   2.339  0.00  0.00     0.058 A 
ENDROOT
TORSDOF 0
ENDMDL
