MODEL 1
REMARK minimizedAffinity 4.96582508
REMARK minimizedRMSD -1
REMARK  0 active torsions:
REMARK  status: ('A' for Active; 'I' for Inactive)
ROOT
ATOM      1  O1  BZF d   1      -0.526  -3.501  -3.187  0.00  0.00    -0.204 OA
ATOM      2  C2  BZF d   1      -1.538  -3.300  -4.106  0.00  0.00     0.174 A 
ATOM      3  C3  BZF d   1      -2.676  -2.922  -3.489  0.00  0.00    -0.012 A 
ATOM      4  C3A BZF d   1      -2.330  -2.795  -2.106  0.00  0.00    -0.107 A 
ATOM      5  C4  BZF d   1      -3.032  -2.432  -0.992  0.00  0.00     0.055 A 
ATOM      6  C5  BZF d   1      -2.419  -2.481   0.220  0.00  0.00    -0.016 A 
ATOM      7  C6  BZF d   1      -1.109  -2.891   0.355  0.00  0.00     0.022 A 
ATOM      8  C7  BZF d   1      -0.370  -3.255  -0.722  0.00  0.00     0.029 A 
ATOM      9  C7A BZF d   1      -0.977  -3.175  -1.952  0.00  0.00     0.058 A 
ENDROOT
TORSDOF 0
ENDMDL
