MODEL 1
REMARK minimizedAffinity 9.57697964
REMARK minimizedRMSD -1
REMARK  0 active torsions:
REMARK  status: ('A' for Active; 'I' for Inactive)
ROOT
ATOM      1  O1  BZF d   1       1.866   1.404  -1.461  0.00  0.00    -0.204 OA
ATOM      2  C2  BZF d   1       2.687   1.075  -2.522  0.00  0.00     0.174 A 
ATOM      3  C3  BZF d   1       3.828   0.504  -2.085  0.00  0.00    -0.012 A 
ATOM      4  C3A BZF d   1       3.673   0.391  -0.668  0.00  0.00    -0.107 A 
ATOM      5  C4  BZF d   1       4.464  -0.111   0.326  0.00  0.00     0.055 A 
ATOM      6  C5  BZF d   1       4.051  -0.004   1.617  0.00  0.00    -0.016 A 
ATOM      7  C6  BZF d   1       2.857   0.602   1.949  0.00  0.00     0.022 A 
ATOM      8  C7  BZF d   1       2.037   1.110   0.997  0.00  0.00     0.029 A 
ATOM      9  C7A BZF d   1       2.436   0.974  -0.310  0.00  0.00     0.058 A 
ENDROOT
TORSDOF 0
ENDMDL
