MODEL 1
REMARK minimizedAffinity -0.224341065
REMARK minimizedRMSD -1
REMARK  0 active torsions:
REMARK  status: ('A' for Active; 'I' for Inactive)
ROOT
ATOM      1  O1  BZF d   1       4.716   2.894   0.804  0.00  0.00    -0.204 OA
ATOM      2  C2  BZF d   1       5.994   2.393   0.957  0.00  0.00     0.174 A 
ATOM      3  C3  BZF d   1       5.959   1.118   1.397  0.00  0.00    -0.012 A 
ATOM      4  C3A BZF d   1       4.572   0.773   1.439  0.00  0.00    -0.107 A 
ATOM      5  C4  BZF d   1       3.897  -0.365   1.780  0.00  0.00     0.055 A 
ATOM      6  C5  BZF d   1       2.538  -0.351   1.784  0.00  0.00    -0.016 A 
ATOM      7  C6  BZF d   1       1.823   0.783   1.457  0.00  0.00     0.022 A 
ATOM      8  C7  BZF d   1       2.448   1.933   1.107  0.00  0.00     0.029 A 
ATOM      9  C7A BZF d   1       3.821   1.913   1.071  0.00  0.00     0.058 A 
ENDROOT
TORSDOF 0
ENDMDL
