MODEL 1
REMARK minimizedAffinity 12.812355
REMARK minimizedRMSD -1
REMARK  0 active torsions:
REMARK  status: ('A' for Active; 'I' for Inactive)
ROOT
ATOM      1  O1  BZF d   1       3.555   0.065   1.217  0.00  0.00    -0.204 OA
ATOM      2  C2  BZF d   1       2.454   0.829   1.554  0.00  0.00     0.174 A 
ATOM      3  C3  BZF d   1       2.108   1.644   0.536  0.00  0.00    -0.012 A 
ATOM      4  C3A BZF d   1       2.995   1.306  -0.535  0.00  0.00    -0.107 A 
ATOM      5  C4  BZF d   1       3.136   1.759  -1.815  0.00  0.00     0.055 A 
ATOM      6  C5  BZF d   1       4.149   1.273  -2.580  0.00  0.00    -0.016 A 
ATOM      7  C6  BZF d   1       5.040   0.338  -2.096  0.00  0.00     0.022 A 
ATOM      8  C7  BZF d   1       4.937  -0.146  -0.834  0.00  0.00     0.029 A 
ATOM      9  C7A BZF d   1       3.895   0.320  -0.069  0.00  0.00     0.058 A 
ENDROOT
TORSDOF 0
ENDMDL
