MODEL 1
REMARK minimizedAffinity -0.104180142
REMARK minimizedRMSD -1
REMARK  0 active torsions:
REMARK  status: ('A' for Active; 'I' for Inactive)
ROOT
ATOM      1  O1  BZF d   1       0.699  -3.478  -1.241  0.00  0.00    -0.204 OA
ATOM      2  C2  BZF d   1       0.766  -3.789  -2.586  0.00  0.00     0.174 A 
ATOM      3  C3  BZF d   1      -0.463  -3.780  -3.141  0.00  0.00    -0.012 A 
ATOM      4  C3A BZF d   1      -1.344  -3.351  -2.098  0.00  0.00    -0.107 A 
ATOM      5  C4  BZF d   1      -2.690  -3.130  -2.038  0.00  0.00     0.055 A 
ATOM      6  C5  BZF d   1      -3.251  -2.786  -0.849  0.00  0.00    -0.016 A 
ATOM      7  C6  BZF d   1      -2.497  -2.661   0.299  0.00  0.00     0.022 A 
ATOM      8  C7  BZF d   1      -1.158  -2.865   0.289  0.00  0.00     0.029 A 
ATOM      9  C7A BZF d   1      -0.583  -3.180  -0.919  0.00  0.00     0.058 A 
ENDROOT
TORSDOF 0
ENDMDL
