MODEL 1
REMARK minimizedAffinity 4.27400494
REMARK minimizedRMSD -1
REMARK  0 active torsions:
REMARK  status: ('A' for Active; 'I' for Inactive)
ROOT
ATOM      1  O1  BZF d   1      -3.994  -3.529  -1.586  0.00  0.00    -0.204 OA
ATOM      2  C2  BZF d   1      -3.447  -2.735  -2.575  0.00  0.00     0.174 A 
ATOM      3  C3  BZF d   1      -2.223  -2.298  -2.216  0.00  0.00    -0.012 A 
ATOM      4  C3A BZF d   1      -1.952  -2.929  -0.961  0.00  0.00    -0.107 A 
ATOM      5  C4  BZF d   1      -0.886  -2.902  -0.107  0.00  0.00     0.055 A 
ATOM      6  C5  BZF d   1      -0.967  -3.572   1.072  0.00  0.00    -0.016 A 
ATOM      7  C6  BZF d   1      -2.098  -4.274   1.432  0.00  0.00     0.022 A 
ATOM      8  C7  BZF d   1      -3.179  -4.334   0.616  0.00  0.00     0.029 A 
ATOM      9  C7A BZF d   1      -3.088  -3.685  -0.591  0.00  0.00     0.058 A 
ENDROOT
TORSDOF 0
ENDMDL
