MODEL 1
REMARK minimizedAffinity -0.68010956
REMARK minimizedRMSD -1
REMARK  0 active torsions:
REMARK  status: ('A' for Active; 'I' for Inactive)
ROOT
ATOM      1  O1  BZF d   1      -3.275  -2.852  -2.431  0.00  0.00    -0.204 OA
ATOM      2  C2  BZF d   1      -2.854  -2.675  -3.734  0.00  0.00     0.174 A 
ATOM      3  C3  BZF d   1      -1.508  -2.726  -3.813  0.00  0.00    -0.012 A 
ATOM      4  C3A BZF d   1      -1.066  -3.041  -2.490  0.00  0.00    -0.107 A 
ATOM      5  C4  BZF d   1       0.166  -3.241  -1.934  0.00  0.00     0.055 A 
ATOM      6  C5  BZF d   1       0.259  -3.460  -0.597  0.00  0.00    -0.016 A 
ATOM      7  C6  BZF d   1      -0.855  -3.480   0.216  0.00  0.00     0.022 A 
ATOM      8  C7  BZF d   1      -2.099  -3.292  -0.290  0.00  0.00     0.029 A 
ATOM      9  C7A BZF d   1      -2.199  -3.103  -1.647  0.00  0.00     0.058 A 
ENDROOT
TORSDOF 0
ENDMDL
