MODEL 1
REMARK minimizedAffinity -1.01108885
REMARK minimizedRMSD -1
REMARK  0 active torsions:
REMARK  status: ('A' for Active; 'I' for Inactive)
ROOT
ATOM      1  O1  BZF d   1       2.392   2.227   0.986  0.00  0.00    -0.204 OA
ATOM      2  C2  BZF d   1       1.572   1.134   1.188  0.00  0.00     0.174 A 
ATOM      3  C3  BZF d   1       2.293  -0.005   1.228  0.00  0.00    -0.012 A 
ATOM      4  C3A BZF d   1       3.659   0.412   1.131  0.00  0.00    -0.107 A 
ATOM      5  C4  BZF d   1       4.848  -0.260   1.131  0.00  0.00     0.055 A 
ATOM      6  C5  BZF d   1       6.000   0.436   0.947  0.00  0.00    -0.016 A 
ATOM      7  C6  BZF d   1       6.000   1.802   0.754  0.00  0.00     0.022 A 
ATOM      8  C7  BZF d   1       4.846   2.513   0.751  0.00  0.00     0.029 A 
ATOM      9  C7A BZF d   1       3.683   1.816   0.970  0.00  0.00     0.058 A 
ENDROOT
TORSDOF 0
ENDMDL
