MODEL 1
REMARK minimizedAffinity 8.62151146
REMARK minimizedRMSD -1
REMARK  0 active torsions:
REMARK  status: ('A' for Active; 'I' for Inactive)
ROOT
ATOM      1  O1  BZF d   1      -3.766  -2.657  -3.375  0.00  0.00    -0.204 OA
ATOM      2  C2  BZF d   1      -2.629  -2.481  -2.610  0.00  0.00     0.174 A 
ATOM      3  C3  BZF d   1      -2.548  -3.424  -1.649  0.00  0.00    -0.012 A 
ATOM      4  C3A BZF d   1      -3.658  -4.295  -1.883  0.00  0.00    -0.107 A 
ATOM      5  C4  BZF d   1      -4.107  -5.429  -1.269  0.00  0.00     0.055 A 
ATOM      6  C5  BZF d   1      -5.265  -5.999  -1.697  0.00  0.00    -0.016 A 
ATOM      7  C6  BZF d   1      -6.000  -5.458  -2.732  0.00  0.00     0.022 A 
ATOM      8  C7  BZF d   1      -5.592  -4.337  -3.375  0.00  0.00     0.029 A 
ATOM      9  C7A BZF d   1      -4.406  -3.778  -2.966  0.00  0.00     0.058 A 
ENDROOT
TORSDOF 0
ENDMDL
