MODEL 1
REMARK minimizedAffinity -1.55640364
REMARK minimizedRMSD -1
REMARK  0 active torsions:
REMARK  status: ('A' for Active; 'I' for Inactive)
ROOT
ATOM      1  O1  BZF d   1       6.000   4.863   3.705  0.00  0.00    -0.204 OA
ATOM      2  C2  BZF d   1       5.273   5.998   3.401  0.00  0.00     0.174 A 
ATOM      3  C3  BZF d   1       4.415   5.760   2.388  0.00  0.00    -0.012 A 
ATOM      4  C3A BZF d   1       4.553   4.366   2.098  0.00  0.00    -0.107 A 
ATOM      5  C4  BZF d   1       3.952   3.530   1.201  0.00  0.00     0.055 A 
ATOM      6  C5  BZF d   1       4.365   2.238   1.123  0.00  0.00    -0.016 A 
ATOM      7  C6  BZF d   1       5.377   1.750   1.924  0.00  0.00     0.022 A 
ATOM      8  C7  BZF d   1       5.999   2.540   2.833  0.00  0.00     0.029 A 
ATOM      9  C7A BZF d   1       5.562   3.837   2.936  0.00  0.00     0.058 A 
ENDROOT
TORSDOF 0
ENDMDL
