MODEL 1
REMARK minimizedAffinity 13.1904402
REMARK minimizedRMSD -1
REMARK  0 active torsions:
REMARK  status: ('A' for Active; 'I' for Inactive)
ROOT
ATOM      1  O1  BZF d   1       1.927   0.746   0.450  0.00  0.00    -0.204 OA
ATOM      2  C2  BZF d   1       2.591  -0.459   0.575  0.00  0.00     0.174 A 
ATOM      3  C3  BZF d   1       3.883  -0.261   0.908  0.00  0.00    -0.012 A 
ATOM      4  C3A BZF d   1       4.013   1.152   1.088  0.00  0.00    -0.107 A 
ATOM      5  C4  BZF d   1       5.055   1.962   1.440  0.00  0.00     0.055 A 
ATOM      6  C5  BZF d   1       4.869   3.308   1.454  0.00  0.00    -0.016 A 
ATOM      7  C6  BZF d   1       3.659   3.878   1.117  0.00  0.00     0.022 A 
ATOM      8  C7  BZF d   1       2.595   3.115   0.765  0.00  0.00     0.029 A 
ATOM      9  C7A BZF d   1       2.770   1.753   0.782  0.00  0.00     0.058 A 
ENDROOT
TORSDOF 0
ENDMDL
