MODEL 1
REMARK minimizedAffinity 3.46374249
REMARK minimizedRMSD -1
REMARK  0 active torsions:
REMARK  status: ('A' for Active; 'I' for Inactive)
ROOT
ATOM      1  O1  BZF d   1       0.814   1.931   2.688  0.00  0.00    -0.204 OA
ATOM      2  C2  BZF d   1       0.846   1.385   3.957  0.00  0.00     0.174 A 
ATOM      3  C3  BZF d   1       1.829   0.467   4.058  0.00  0.00    -0.012 A 
ATOM      4  C3A BZF d   1       2.510   0.504   2.800  0.00  0.00    -0.107 A 
ATOM      5  C4  BZF d   1       3.586  -0.168   2.295  0.00  0.00     0.055 A 
ATOM      6  C5  BZF d   1       3.953   0.047   1.004  0.00  0.00    -0.016 A 
ATOM      7  C6  BZF d   1       3.264   0.923   0.190  0.00  0.00     0.022 A 
ATOM      8  C7  BZF d   1       2.194   1.616   0.648  0.00  0.00     0.029 A 
ATOM      9  C7A BZF d   1       1.840   1.425   1.962  0.00  0.00     0.058 A 
ENDROOT
TORSDOF 0
ENDMDL
