MODEL 1
REMARK minimizedAffinity 4.37557602
REMARK minimizedRMSD -1
REMARK  0 active torsions:
REMARK  status: ('A' for Active; 'I' for Inactive)
ROOT
ATOM      1  O1  BZF d   1      -2.255  -3.752  -5.339  0.00  0.00    -0.204 OA
ATOM      2  C2  BZF d   1      -1.349  -2.944  -6.000  0.00  0.00     0.174 A 
ATOM      3  C3  BZF d   1      -0.851  -2.005  -5.170  0.00  0.00    -0.012 A 
ATOM      4  C3A BZF d   1      -1.416  -2.298  -3.888  0.00  0.00    -0.107 A 
ATOM      5  C4  BZF d   1      -1.289  -1.729  -2.653  0.00  0.00     0.055 A 
ATOM      6  C5  BZF d   1      -2.033  -2.211  -1.624  0.00  0.00    -0.016 A 
ATOM      7  C6  BZF d   1      -2.917  -3.256  -1.794  0.00  0.00     0.022 A 
ATOM      8  C7  BZF d   1      -3.074  -3.856  -2.999  0.00  0.00     0.029 A 
ATOM      9  C7A BZF d   1      -2.299  -3.393  -4.034  0.00  0.00     0.058 A 
ENDROOT
TORSDOF 0
ENDMDL
