MODEL 1
REMARK minimizedAffinity 0.7731269
REMARK minimizedRMSD -1
REMARK  0 active torsions:
REMARK  status: ('A' for Active; 'I' for Inactive)
ROOT
ATOM      1  O1  BZF d   1      -0.158  -3.957   0.429  0.00  0.00    -0.204 OA
ATOM      2  C2  BZF d   1      -1.247  -3.519   1.157  0.00  0.00     0.174 A 
ATOM      3  C3  BZF d   1      -2.156  -2.933   0.352  0.00  0.00    -0.012 A 
ATOM      4  C3A BZF d   1      -1.643  -3.091  -0.974  0.00  0.00    -0.107 A 
ATOM      5  C4  BZF d   1      -2.103  -2.732  -2.208  0.00  0.00     0.055 A 
ATOM      6  C5  BZF d   1      -1.326  -2.969  -3.298  0.00  0.00    -0.016 A 
ATOM      7  C6  BZF d   1      -0.084  -3.558  -3.189  0.00  0.00     0.022 A 
ATOM      8  C7  BZF d   1       0.413  -3.937  -1.986  0.00  0.00     0.029 A 
ATOM      9  C7A BZF d   1      -0.383  -3.729  -0.887  0.00  0.00     0.058 A 
ENDROOT
TORSDOF 0
ENDMDL
