MODEL 1
REMARK minimizedAffinity 2.68008828
REMARK minimizedRMSD -1
REMARK  0 active torsions:
REMARK  status: ('A' for Active; 'I' for Inactive)
ROOT
ATOM      1  O1  BZF d   1      -3.536  -3.916  -4.740  0.00  0.00    -0.204 OA
ATOM      2  C2  BZF d   1      -4.649  -4.496  -4.162  0.00  0.00     0.174 A 
ATOM      3  C3  BZF d   1      -4.595  -4.401  -2.818  0.00  0.00    -0.012 A 
ATOM      4  C3A BZF d   1      -3.417  -3.637  -2.542  0.00  0.00    -0.107 A 
ATOM      5  C4  BZF d   1      -2.833  -3.195  -1.390  0.00  0.00     0.055 A 
ATOM      6  C5  BZF d   1      -1.646  -2.536  -1.461  0.00  0.00    -0.016 A 
ATOM      7  C6  BZF d   1      -1.015  -2.306  -2.666  0.00  0.00     0.022 A 
ATOM      8  C7  BZF d   1      -1.558  -2.721  -3.836  0.00  0.00     0.029 A 
ATOM      9  C7A BZF d   1      -2.773  -3.359  -3.770  0.00  0.00     0.058 A 
ENDROOT
TORSDOF 0
ENDMDL
