MODEL 1
REMARK minimizedAffinity 8.14641666
REMARK minimizedRMSD -1
REMARK  0 active torsions:
REMARK  status: ('A' for Active; 'I' for Inactive)
ROOT
ATOM      1  O1  BZF d   1      -0.308  -3.570   0.076  0.00  0.00    -0.204 OA
ATOM      2  C2  BZF d   1      -1.104  -2.881   0.972  0.00  0.00     0.174 A 
ATOM      3  C3  BZF d   1      -2.187  -2.369   0.353  0.00  0.00    -0.012 A 
ATOM      4  C3A BZF d   1      -2.108  -2.840  -0.996  0.00  0.00    -0.107 A 
ATOM      5  C4  BZF d   1      -2.905  -2.681  -2.094  0.00  0.00     0.055 A 
ATOM      6  C5  BZF d   1      -2.507  -3.211  -3.280  0.00  0.00    -0.016 A 
ATOM      7  C6  BZF d   1      -1.319  -3.900  -3.406  0.00  0.00     0.022 A 
ATOM      8  C7  BZF d   1      -0.498  -4.087  -2.344  0.00  0.00     0.029 A 
ATOM      9  C7A BZF d   1      -0.913  -3.581  -1.136  0.00  0.00     0.058 A 
ENDROOT
TORSDOF 0
ENDMDL
