MODEL 1
REMARK minimizedAffinity -3.45620537
REMARK minimizedRMSD -1
REMARK  0 active torsions:
REMARK  status: ('A' for Active; 'I' for Inactive)
ROOT
ATOM      1  C   UNL d   1       0.693  -0.731  -0.572  0.00  0.00     0.020 A 
ATOM      2  C1  UNL d   1       1.424  -0.277   0.525  0.00  0.00     0.020 A 
ATOM      3  C2  UNL d   1       0.787   0.440   1.541  0.00  0.00     0.034 A 
ATOM      4  C3  UNL d   1      -0.585   0.705   1.461  0.00  0.00     0.017 A 
ATOM      5  C4  UNL d   1      -1.318   0.249   0.359  0.00  0.00     0.017 A 
ATOM      6  C5  UNL d   1      -0.675  -0.468  -0.654  0.00  0.00     0.034 A 
ATOM      7 Cl   UNL d   1      -3.014   0.538   0.191  0.00  0.00    -0.070 Cl
ATOM      8 Cl1  UNL d   1      -1.307   1.597   2.753  0.00  0.00    -0.070 Cl
ENDROOT
TORSDOF 0
ENDMDL
