MODEL 1
REMARK minimizedAffinity -5.46374273
REMARK minimizedRMSD -1
REMARK  0 active torsions:
REMARK  status: ('A' for Active; 'I' for Inactive)
ROOT
ATOM      1  C   UNL d   1      -0.438   1.108   2.748  0.00  0.00     0.020 A 
ATOM      2  C1  UNL d   1       0.864   0.909   2.290  0.00  0.00     0.020 A 
ATOM      3  C2  UNL d   1       1.083   0.357   1.026  0.00  0.00     0.034 A 
ATOM      4  C3  UNL d   1      -0.002   0.001   0.216  0.00  0.00     0.017 A 
ATOM      5  C4  UNL d   1      -1.308   0.201   0.676  0.00  0.00     0.017 A 
ATOM      6  C5  UNL d   1      -1.522   0.755   1.943  0.00  0.00     0.034 A 
ATOM      7 Cl   UNL d   1      -2.697  -0.212  -0.266  0.00  0.00    -0.070 Cl
ATOM      8 Cl1  UNL d   1       0.342  -0.677  -1.336  0.00  0.00    -0.070 Cl
ENDROOT
TORSDOF 0
ENDMDL
