MODEL 1
REMARK minimizedAffinity -3.47136688
REMARK minimizedRMSD -1
REMARK  0 active torsions:
REMARK  status: ('A' for Active; 'I' for Inactive)
ROOT
ATOM      1  C   UNL d   1      -0.568  -0.340  -0.579  0.00  0.00     0.020 A 
ATOM      2  C1  UNL d   1      -1.813  -0.017  -0.040  0.00  0.00     0.020 A 
ATOM      3  C2  UNL d   1      -1.893   0.605   1.208  0.00  0.00     0.034 A 
ATOM      4  C3  UNL d   1      -0.727   0.907   1.921  0.00  0.00     0.017 A 
ATOM      5  C4  UNL d   1       0.522   0.582   1.379  0.00  0.00     0.017 A 
ATOM      6  C5  UNL d   1       0.597  -0.041   0.130  0.00  0.00     0.034 A 
ATOM      7 Cl   UNL d   1       2.005   0.923   2.200  0.00  0.00    -0.070 Cl
ATOM      8 Cl1  UNL d   1      -0.901   1.677   3.458  0.00  0.00    -0.070 Cl
ENDROOT
TORSDOF 0
ENDMDL
