MODEL 1
REMARK minimizedAffinity -4.33128643
REMARK minimizedRMSD -1
REMARK  0 active torsions:
REMARK  status: ('A' for Active; 'I' for Inactive)
ROOT
ATOM      1  C   UNL d   1       1.106   0.478   2.678  0.00  0.00     0.020 A 
ATOM      2  C1  UNL d   1      -0.146   0.866   3.152  0.00  0.00     0.020 A 
ATOM      3  C2  UNL d   1      -1.262   0.794   2.316  0.00  0.00     0.034 A 
ATOM      4  C3  UNL d   1      -1.129   0.332   1.002  0.00  0.00     0.017 A 
ATOM      5  C4  UNL d   1       0.129  -0.057   0.527  0.00  0.00     0.017 A 
ATOM      6  C5  UNL d   1       1.243   0.017   1.368  0.00  0.00     0.034 A 
ATOM      7 Cl   UNL d   1       0.372  -0.638  -1.083  0.00  0.00    -0.070 Cl
ATOM      8 Cl1  UNL d   1      -2.552   0.268   0.024  0.00  0.00    -0.070 Cl
ENDROOT
TORSDOF 0
ENDMDL
