MODEL 1
REMARK minimizedAffinity -4.1311717
REMARK minimizedRMSD -1
REMARK  0 active torsions:
REMARK  status: ('A' for Active; 'I' for Inactive)
ROOT
ATOM      1  C   UNL d   1      -0.960   1.407   2.833  0.00  0.00     0.020 A 
ATOM      2  C1  UNL d   1       0.259   1.733   2.238  0.00  0.00     0.020 A 
ATOM      3  C2  UNL d   1       0.555   1.272   0.954  0.00  0.00     0.034 A 
ATOM      4  C3  UNL d   1      -0.369   0.482   0.260  0.00  0.00     0.017 A 
ATOM      5  C4  UNL d   1      -1.591   0.154   0.857  0.00  0.00     0.017 A 
ATOM      6  C5  UNL d   1      -1.882   0.619   2.144  0.00  0.00     0.034 A 
ATOM      7 Cl   UNL d   1      -2.780  -0.817   0.063  0.00  0.00    -0.070 Cl
ATOM      8 Cl1  UNL d   1       0.064  -0.054  -1.325  0.00  0.00    -0.070 Cl
ENDROOT
TORSDOF 0
ENDMDL
