MODEL 1
REMARK minimizedAffinity -4.11804533
REMARK minimizedRMSD -1
REMARK  0 active torsions:
REMARK  status: ('A' for Active; 'I' for Inactive)
ROOT
ATOM      1  C   UNL d   1      -0.054   1.681   2.470  0.00  0.00     0.020 A 
ATOM      2  C1  UNL d   1      -1.354   1.354   2.856  0.00  0.00     0.020 A 
ATOM      3  C2  UNL d   1      -2.142   0.544   2.036  0.00  0.00     0.034 A 
ATOM      4  C3  UNL d   1      -1.633   0.058   0.826  0.00  0.00     0.017 A 
ATOM      5  C4  UNL d   1      -0.328   0.387   0.440  0.00  0.00     0.017 A 
ATOM      6  C5  UNL d   1       0.457   1.199   1.264  0.00  0.00     0.034 A 
ATOM      7 Cl   UNL d   1       0.370  -0.174  -1.039  0.00  0.00    -0.070 Cl
ATOM      8 Cl1  UNL d   1      -2.664  -0.939  -0.138  0.00  0.00    -0.070 Cl
ENDROOT
TORSDOF 0
ENDMDL
