MODEL 1
REMARK minimizedAffinity -3.46579289
REMARK minimizedRMSD -1
REMARK  0 active torsions:
REMARK  status: ('A' for Active; 'I' for Inactive)
ROOT
ATOM      1  C   UNL d   1       0.440   0.545   2.102  0.00  0.00     0.020 A 
ATOM      2  C1  UNL d   1      -0.851   0.557   2.629  0.00  0.00     0.020 A 
ATOM      3  C2  UNL d   1      -1.950   0.355   1.791  0.00  0.00     0.034 A 
ATOM      4  C3  UNL d   1      -1.760   0.139   0.421  0.00  0.00     0.017 A 
ATOM      5  C4  UNL d   1      -0.464   0.127  -0.107  0.00  0.00     0.017 A 
ATOM      6  C5  UNL d   1       0.632   0.330   0.737  0.00  0.00     0.034 A 
ATOM      7 Cl   UNL d   1      -0.151  -0.134  -1.787  0.00  0.00    -0.070 Cl
ATOM      8 Cl1  UNL d   1      -3.164  -0.104  -0.556  0.00  0.00    -0.070 Cl
ENDROOT
TORSDOF 0
ENDMDL
