MODEL 1
REMARK minimizedAffinity -2.95294619
REMARK minimizedRMSD -1
REMARK  0 active torsions:
REMARK  status: ('A' for Active; 'I' for Inactive)
ROOT
ATOM      1  C   UNL d   1      -1.483   0.802   3.027  0.00  0.00     0.020 A 
ATOM      2  C1  UNL d   1      -2.259   0.780   1.869  0.00  0.00     0.020 A 
ATOM      3  C2  UNL d   1      -1.681   0.428   0.648  0.00  0.00     0.034 A 
ATOM      4  C3  UNL d   1      -0.323   0.097   0.581  0.00  0.00     0.017 A 
ATOM      5  C4  UNL d   1       0.456   0.120   1.744  0.00  0.00     0.017 A 
ATOM      6  C5  UNL d   1      -0.128   0.473   2.964  0.00  0.00     0.034 A 
ATOM      7 Cl   UNL d   1       2.138  -0.275   1.740  0.00  0.00    -0.070 Cl
ATOM      8 Cl1  UNL d   1       0.325  -0.328  -0.963  0.00  0.00    -0.070 Cl
ENDROOT
TORSDOF 0
ENDMDL
