MODEL 1
REMARK minimizedAffinity -1.98005354
REMARK minimizedRMSD -1
REMARK  0 active torsions:
REMARK  status: ('A' for Active; 'I' for Inactive)
ROOT
ATOM      1  C   UNL d   1       2.445   0.771  -3.419  0.00  0.00     0.020 A 
ATOM      2  C1  UNL d   1       2.305   0.704  -4.804  0.00  0.00     0.020 A 
ATOM      3  C2  UNL d   1       1.208   0.045  -5.364  0.00  0.00     0.034 A 
ATOM      4  C3  UNL d   1       0.248  -0.551  -4.538  0.00  0.00     0.017 A 
ATOM      5  C4  UNL d   1       0.390  -0.484  -3.147  0.00  0.00     0.017 A 
ATOM      6  C5  UNL d   1       1.490   0.178  -2.592  0.00  0.00     0.034 A 
ATOM      7 Cl   UNL d   1      -0.753  -1.194  -2.064  0.00  0.00    -0.070 Cl
ATOM      8 Cl1  UNL d   1      -1.082  -1.350  -5.299  0.00  0.00    -0.070 Cl
ENDROOT
TORSDOF 0
ENDMDL
