MODEL 1
REMARK minimizedAffinity -4.21303701
REMARK minimizedRMSD -1
REMARK  0 active torsions:
REMARK  status: ('A' for Active; 'I' for Inactive)
ROOT
ATOM      1  C   UNL d   1       0.291   0.970  -3.741  0.00  0.00     0.020 A 
ATOM      2  C1  UNL d   1       1.381   0.165  -4.066  0.00  0.00     0.020 A 
ATOM      3  C2  UNL d   1       1.881  -0.744  -3.130  0.00  0.00     0.034 A 
ATOM      4  C3  UNL d   1       1.291  -0.849  -1.866  0.00  0.00     0.017 A 
ATOM      5  C4  UNL d   1       0.196  -0.039  -1.541  0.00  0.00     0.017 A 
ATOM      6  C5  UNL d   1      -0.301   0.868  -2.481  0.00  0.00     0.034 A 
ATOM      7 Cl   UNL d   1      -0.586  -0.112  -0.001  0.00  0.00    -0.070 Cl
ATOM      8 Cl1  UNL d   1       1.960  -1.994  -0.758  0.00  0.00    -0.070 Cl
ENDROOT
TORSDOF 0
ENDMDL
