MODEL 1
REMARK minimizedAffinity -4.95540762
REMARK minimizedRMSD -1
REMARK  0 active torsions:
REMARK  status: ('A' for Active; 'I' for Inactive)
ROOT
ATOM      1  C   UNL d   1       0.358   1.365   2.270  0.00  0.00     0.020 A 
ATOM      2  C1  UNL d   1      -0.818   0.924   2.876  0.00  0.00     0.020 A 
ATOM      3  C2  UNL d   1      -1.714   0.125   2.162  0.00  0.00     0.034 A 
ATOM      4  C3  UNL d   1      -1.434  -0.237   0.839  0.00  0.00     0.017 A 
ATOM      5  C4  UNL d   1      -0.253   0.206   0.232  0.00  0.00     0.017 A 
ATOM      6  C5  UNL d   1       0.640   1.006   0.951  0.00  0.00     0.034 A 
ATOM      7 Cl   UNL d   1       0.160  -0.199  -1.396  0.00  0.00    -0.070 Cl
ATOM      8 Cl1  UNL d   1      -2.586  -1.228   0.017  0.00  0.00    -0.070 Cl
ENDROOT
TORSDOF 0
ENDMDL
