MODEL 1
REMARK minimizedAffinity -4.80722666
REMARK minimizedRMSD -1
REMARK  0 active torsions:
REMARK  status: ('A' for Active; 'I' for Inactive)
ROOT
ATOM      1  C4' PXY d   1      -2.213   2.082   1.180  0.00  0.00     0.077 C 
ATOM      2  C1' PXY d   1       2.105  -0.993  -1.125  0.00  0.00     0.077 C 
ATOM      3  C1  PXY d   1       0.977  -0.176  -0.527  0.00  0.00    -0.082 A 
ATOM      4  C2  PXY d   1       0.410  -0.571   0.601  0.00  0.00     0.003 A 
ATOM      5  C3  PXY d   1      -0.633   0.138   1.139  0.00  0.00     0.003 A 
ATOM      6  C4  PXY d   1      -1.064   1.294   0.545  0.00  0.00    -0.082 A 
ATOM      7  C5  PXY d   1      -0.483   1.710  -0.600  0.00  0.00     0.003 A 
ATOM      8  C6  PXY d   1       0.546   0.953  -1.152  0.00  0.00     0.003 A 
ENDROOT
TORSDOF 0
ENDMDL
