MODEL 1
REMARK minimizedAffinity -0.972679913
REMARK minimizedRMSD -1
REMARK  0 active torsions:
REMARK  status: ('A' for Active; 'I' for Inactive)
ROOT
ATOM      1  C4' PXY d   1       1.288  -1.889  -1.333  0.00  0.00     0.077 C 
ATOM      2  C1' PXY d   1      -1.520   1.845   2.072  0.00  0.00     0.077 C 
ATOM      3  C1  PXY d   1      -0.787   0.873   1.168  0.00  0.00    -0.082 A 
ATOM      4  C2  PXY d   1      -0.616  -0.380   1.557  0.00  0.00     0.003 A 
ATOM      5  C3  PXY d   1       0.072  -1.264   0.767  0.00  0.00     0.003 A 
ATOM      6  C4  PXY d   1       0.546  -0.875  -0.457  0.00  0.00    -0.082 A 
ATOM      7  C5  PXY d   1       0.367   0.399  -0.866  0.00  0.00     0.003 A 
ATOM      8  C6  PXY d   1      -0.299   1.291  -0.031  0.00  0.00     0.003 A 
ENDROOT
TORSDOF 0
ENDMDL
