MODEL 1
REMARK minimizedAffinity -4.59952879
REMARK minimizedRMSD -1
REMARK  0 active torsions:
REMARK  status: ('A' for Active; 'I' for Inactive)
ROOT
ATOM      1  C4' PXY d   1      -2.072   2.564   1.591  0.00  0.00     0.077 C 
ATOM      2  C1' PXY d   1       0.911  -1.435  -1.328  0.00  0.00     0.077 C 
ATOM      3  C1  PXY d   1       0.138  -0.377  -0.565  0.00  0.00    -0.082 A 
ATOM      4  C2  PXY d   1      -0.709  -0.743   0.383  0.00  0.00     0.003 A 
ATOM      5  C3  PXY d   1      -1.440   0.199   1.060  0.00  0.00     0.003 A 
ATOM      6  C4  PXY d   1      -1.263   1.531   0.802  0.00  0.00    -0.082 A 
ATOM      7  C5  PXY d   1      -0.393   1.913  -0.157  0.00  0.00     0.003 A 
ATOM      8  C6  PXY d   1       0.309   0.940  -0.862  0.00  0.00     0.003 A 
ENDROOT
TORSDOF 0
ENDMDL
