MODEL 1
REMARK minimizedAffinity -1.46002126
REMARK minimizedRMSD -1
REMARK  0 active torsions:
REMARK  status: ('A' for Active; 'I' for Inactive)
ROOT
ATOM      1  C4' PXY d   1       1.634   1.827  -1.787  0.00  0.00     0.077 C 
ATOM      2  C1' PXY d   1      -3.854   0.684  -0.377  0.00  0.00     0.077 C 
ATOM      3  C1  PXY d   1      -2.411   0.978  -0.735  0.00  0.00    -0.082 A 
ATOM      4  C2  PXY d   1      -2.132   1.969  -1.566  0.00  0.00     0.003 A 
ATOM      5  C3  PXY d   1      -0.835   2.229  -1.926  0.00  0.00     0.003 A 
ATOM      6  C4  PXY d   1       0.192   1.500  -1.389  0.00  0.00    -0.082 A 
ATOM      7  C5  PXY d   1      -0.083   0.494  -0.532  0.00  0.00     0.003 A 
ATOM      8  C6  PXY d   1      -1.409   0.220  -0.211  0.00  0.00     0.003 A 
ENDROOT
TORSDOF 0
ENDMDL
