MODEL 1
REMARK minimizedAffinity -3.46468806
REMARK minimizedRMSD -1
REMARK  0 active torsions:
REMARK  status: ('A' for Active; 'I' for Inactive)
ROOT
ATOM      1  C4' PXY d   1       1.158  -1.084  -0.712  0.00  0.00     0.077 C 
ATOM      2  C1' PXY d   1      -2.383   2.725   1.813  0.00  0.00     0.077 C 
ATOM      3  C1  PXY d   1      -1.455   1.732   1.140  0.00  0.00    -0.082 A 
ATOM      4  C2  PXY d   1      -1.301   0.525   1.658  0.00  0.00     0.003 A 
ATOM      5  C3  PXY d   1      -0.442  -0.374   1.080  0.00  0.00     0.003 A 
ATOM      6  C4  PXY d   1       0.226  -0.052  -0.071  0.00  0.00    -0.082 A 
ATOM      7  C5  PXY d   1       0.066   1.174  -0.612  0.00  0.00     0.003 A 
ATOM      8  C6  PXY d   1      -0.779   2.086   0.013  0.00  0.00     0.003 A 
ENDROOT
TORSDOF 0
ENDMDL
