MODEL 1
REMARK minimizedAffinity -2.61019444
REMARK minimizedRMSD -1
REMARK  0 active torsions:
REMARK  status: ('A' for Active; 'I' for Inactive)
ROOT
ATOM      1  C4' PXY d   1      -0.731   2.040   2.277  0.00  0.00     0.077 C 
ATOM      2  C1' PXY d   1      -0.059  -1.975  -1.828  0.00  0.00     0.077 C 
ATOM      3  C1  PXY d   1      -0.236  -0.913  -0.761  0.00  0.00    -0.082 A 
ATOM      4  C2  PXY d   1       0.181  -1.149   0.473  0.00  0.00     0.003 A 
ATOM      5  C3  PXY d   1       0.000  -0.212   1.457  0.00  0.00     0.003 A 
ATOM      6  C4  PXY d   1      -0.565   1.000   1.165  0.00  0.00    -0.082 A 
ATOM      7  C5  PXY d   1      -0.984   1.253  -0.093  0.00  0.00     0.003 A 
ATOM      8  C6  PXY d   1      -0.828   0.273  -1.069  0.00  0.00     0.003 A 
ENDROOT
TORSDOF 0
ENDMDL
