MODEL 1
REMARK minimizedAffinity -4.16913509
REMARK minimizedRMSD -1
REMARK  0 active torsions:
REMARK  status: ('A' for Active; 'I' for Inactive)
ROOT
ATOM      1  C4' PXY d   1       1.180  -1.379  -0.823  0.00  0.00     0.077 C 
ATOM      2  C1' PXY d   1      -2.252   2.652   1.497  0.00  0.00     0.077 C 
ATOM      3  C1  PXY d   1      -1.349   1.591   0.901  0.00  0.00    -0.082 A 
ATOM      4  C2  PXY d   1      -0.849   1.763  -0.313  0.00  0.00     0.003 A 
ATOM      5  C3  PXY d   1      -0.057   0.799  -0.880  0.00  0.00     0.003 A 
ATOM      6  C4  PXY d   1       0.272  -0.330  -0.178  0.00  0.00    -0.082 A 
ATOM      7  C5  PXY d   1      -0.225  -0.508   1.065  0.00  0.00     0.003 A 
ATOM      8  C6  PXY d   1      -1.061   0.464   1.607  0.00  0.00     0.003 A 
ENDROOT
TORSDOF 0
ENDMDL
