MODEL 1
REMARK minimizedAffinity -0.406219423
REMARK minimizedRMSD -1
REMARK  0 active torsions:
REMARK  status: ('A' for Active; 'I' for Inactive)
ROOT
ATOM      1  C4' PXY d   1       1.478  -1.552  -1.462  0.00  0.00     0.077 C 
ATOM      2  C1' PXY d   1      -1.698   2.306   1.443  0.00  0.00     0.077 C 
ATOM      3  C1  PXY d   1      -0.860   1.290   0.692  0.00  0.00    -0.082 A 
ATOM      4  C2  PXY d   1      -0.579   1.490  -0.585  0.00  0.00     0.003 A 
ATOM      5  C3  PXY d   1       0.151   0.565  -1.287  0.00  0.00     0.003 A 
ATOM      6  C4  PXY d   1       0.643  -0.549  -0.662  0.00  0.00    -0.082 A 
ATOM      7  C5  PXY d   1       0.370  -0.754   0.644  0.00  0.00     0.003 A 
ATOM      8  C6  PXY d   1      -0.407   0.176   1.328  0.00  0.00     0.003 A 
ENDROOT
TORSDOF 0
ENDMDL
