MODEL 1
REMARK minimizedAffinity -2.02918553
REMARK minimizedRMSD -1
REMARK  0 active torsions:
REMARK  status: ('A' for Active; 'I' for Inactive)
ROOT
ATOM      1  C4' PXY d   1       0.465  -2.191  -1.552  0.00  0.00     0.077 C 
ATOM      2  C1' PXY d   1      -0.809   1.818   2.414  0.00  0.00     0.077 C 
ATOM      3  C1  PXY d   1      -0.474   0.776   1.365  0.00  0.00    -0.082 A 
ATOM      4  C2  PXY d   1      -0.852  -0.479   1.545  0.00  0.00     0.003 A 
ATOM      5  C3  PXY d   1      -0.530  -1.440   0.622  0.00  0.00     0.003 A 
ATOM      6  C4  PXY d   1       0.141  -1.103  -0.524  0.00  0.00    -0.082 A 
ATOM      7  C5  PXY d   1       0.521   0.177  -0.720  0.00  0.00     0.003 A 
ATOM      8  C6  PXY d   1       0.220   1.130   0.249  0.00  0.00     0.003 A 
ENDROOT
TORSDOF 0
ENDMDL
