MODEL 1
REMARK minimizedAffinity -4.1031146
REMARK minimizedRMSD -1
REMARK  0 active torsions:
REMARK  status: ('A' for Active; 'I' for Inactive)
ROOT
ATOM      1  C4' PXY d   1      -0.361   2.863  -1.417  0.00  0.00     0.077 C 
ATOM      2  C1' PXY d   1      -0.689  -1.158   2.722  0.00  0.00     0.077 C 
ATOM      3  C1  PXY d   1      -0.615  -0.099   1.641  0.00  0.00    -0.082 A 
ATOM      4  C2  PXY d   1       0.125  -0.313   0.565  0.00  0.00     0.003 A 
ATOM      5  C3  PXY d   1       0.229   0.647  -0.408  0.00  0.00     0.003 A 
ATOM      6  C4  PXY d   1      -0.473   1.818  -0.304  0.00  0.00    -0.082 A 
ATOM      7  C5  PXY d   1      -1.238   2.040   0.786  0.00  0.00     0.003 A 
ATOM      8  C6  PXY d   1      -1.298   1.069   1.782  0.00  0.00     0.003 A 
ENDROOT
TORSDOF 0
ENDMDL
