MODEL 1
REMARK minimizedAffinity -5.42071867
REMARK minimizedRMSD -1
REMARK  0 active torsions:
REMARK  status: ('A' for Active; 'I' for Inactive)
ROOT
ATOM      1  C4' PXY d   1       0.903  -1.097  -0.909  0.00  0.00     0.077 C 
ATOM      2  C1' PXY d   1      -2.261   2.940   1.757  0.00  0.00     0.077 C 
ATOM      3  C1  PXY d   1      -1.429   1.875   1.069  0.00  0.00    -0.082 A 
ATOM      4  C2  PXY d   1      -0.884   2.131  -0.109  0.00  0.00     0.003 A 
ATOM      5  C3  PXY d   1      -0.155   1.169  -0.760  0.00  0.00     0.003 A 
ATOM      6  C4  PXY d   1       0.063  -0.049  -0.174  0.00  0.00    -0.082 A 
ATOM      7  C5  PXY d   1      -0.481  -0.314   1.033  0.00  0.00     0.003 A 
ATOM      8  C6  PXY d   1      -1.252   0.662   1.658  0.00  0.00     0.003 A 
ENDROOT
TORSDOF 0
ENDMDL
