MODEL 1
REMARK minimizedAffinity -5.04454899
REMARK minimizedRMSD -1
REMARK  0 active torsions:
REMARK  status: ('A' for Active; 'I' for Inactive)
ROOT
ATOM      1  C4' PXY d   1       1.959  -0.025  -1.451  0.00  0.00     0.077 C 
ATOM      2  C1' PXY d   1      -2.530   1.749   1.730  0.00  0.00     0.077 C 
ATOM      3  C1  PXY d   1      -1.348   1.277   0.906  0.00  0.00    -0.082 A 
ATOM      4  C2  PXY d   1      -0.957   1.984  -0.142  0.00  0.00     0.003 A 
ATOM      5  C3  PXY d   1       0.089   1.555  -0.917  0.00  0.00     0.003 A 
ATOM      6  C4  PXY d   1       0.777   0.419  -0.585  0.00  0.00    -0.082 A 
ATOM      7  C5  PXY d   1       0.391  -0.302   0.489  0.00  0.00     0.003 A 
ATOM      8  C6  PXY d   1      -0.700   0.128   1.239  0.00  0.00     0.003 A 
ENDROOT
TORSDOF 0
ENDMDL
