MODEL 1
REMARK minimizedAffinity -4.99249744
REMARK minimizedRMSD -1
REMARK  0 active torsions:
REMARK  status: ('A' for Active; 'I' for Inactive)
ROOT
ATOM      1  C4' PXY d   1       0.900  -1.177  -1.058  0.00  0.00     0.077 C 
ATOM      2  C1' PXY d   1      -2.325   2.675   1.801  0.00  0.00     0.077 C 
ATOM      3  C1  PXY d   1      -1.482   1.671   1.040  0.00  0.00    -0.082 A 
ATOM      4  C2  PXY d   1      -1.231   0.488   1.577  0.00  0.00     0.003 A 
ATOM      5  C3  PXY d   1      -0.444  -0.420   0.916  0.00  0.00     0.003 A 
ATOM      6  C4  PXY d   1       0.046  -0.135  -0.330  0.00  0.00    -0.082 A 
ATOM      7  C5  PXY d   1      -0.215   1.065  -0.889  0.00  0.00     0.003 A 
ATOM      8  C6  PXY d   1      -0.982   1.989  -0.185  0.00  0.00     0.003 A 
ENDROOT
TORSDOF 0
ENDMDL
