MODEL 1
REMARK minimizedAffinity -1.80994725
REMARK minimizedRMSD -1
REMARK  0 active torsions:
REMARK  status: ('A' for Active; 'I' for Inactive)
ROOT
ATOM      1  C4' PXY d   1       0.014   2.739  -2.224  0.00  0.00     0.077 C 
ATOM      2  C1' PXY d   1      -0.473  -0.907   2.235  0.00  0.00     0.077 C 
ATOM      3  C1  PXY d   1      -0.333   0.045   1.064  0.00  0.00    -0.082 A 
ATOM      4  C2  PXY d   1      -1.158   1.074   0.956  0.00  0.00     0.003 A 
ATOM      5  C3  PXY d   1      -1.066   1.928  -0.114  0.00  0.00     0.003 A 
ATOM      6  C4  PXY d   1      -0.085   1.757  -1.054  0.00  0.00    -0.082 A 
ATOM      7  C5  PXY d   1       0.767   0.716  -0.944  0.00  0.00     0.003 A 
ATOM      8  C6  PXY d   1       0.631  -0.163   0.127  0.00  0.00     0.003 A 
ENDROOT
TORSDOF 0
ENDMDL
