MODEL 1
REMARK minimizedAffinity -1.45213318
REMARK minimizedRMSD -1
REMARK  0 active torsions:
REMARK  status: ('A' for Active; 'I' for Inactive)
ROOT
ATOM      1  C4' PXY d   1       1.460  -1.651  -0.009  0.00  0.00     0.077 C 
ATOM      2  C1' PXY d   1      -2.608   2.228   1.341  0.00  0.00     0.077 C 
ATOM      3  C1  PXY d   1      -1.537   1.211   0.999  0.00  0.00    -0.082 A 
ATOM      4  C2  PXY d   1      -1.125   1.091  -0.253  0.00  0.00     0.003 A 
ATOM      5  C3  PXY d   1      -0.180   0.154  -0.584  0.00  0.00     0.003 A 
ATOM      6  C4  PXY d   1       0.387  -0.631   0.383  0.00  0.00    -0.082 A 
ATOM      7  C5  PXY d   1      -0.020  -0.506   1.664  0.00  0.00     0.003 A 
ATOM      8  C6  PXY d   1      -1.010   0.422   1.974  0.00  0.00     0.003 A 
ENDROOT
TORSDOF 0
ENDMDL
