MODEL 1
REMARK minimizedAffinity -2.29926395
REMARK minimizedRMSD -1
REMARK  0 active torsions:
REMARK  status: ('A' for Active; 'I' for Inactive)
ROOT
ATOM      1  C4' PXY d   1      -1.501   3.181  -1.863  0.00  0.00     0.077 C 
ATOM      2  C1' PXY d   1       0.276  -1.244   1.404  0.00  0.00     0.077 C 
ATOM      3  C1  PXY d   1      -0.177  -0.081   0.544  0.00  0.00    -0.082 A 
ATOM      4  C2  PXY d   1      -1.346   0.492   0.783  0.00  0.00     0.003 A 
ATOM      5  C3  PXY d   1      -1.786   1.524  -0.005  0.00  0.00     0.003 A 
ATOM      6  C4  PXY d   1      -0.998   2.010  -1.015  0.00  0.00    -0.082 A 
ATOM      7  C5  PXY d   1       0.200   1.438  -1.258  0.00  0.00     0.003 A 
ATOM      8  C6  PXY d   1       0.610   0.364  -0.473  0.00  0.00     0.003 A 
ENDROOT
TORSDOF 0
ENDMDL
