MODEL 1
REMARK minimizedAffinity -2.75348902
REMARK minimizedRMSD -1
REMARK  0 active torsions:
REMARK  status: ('A' for Active; 'I' for Inactive)
ROOT
ATOM      1  C4' PXY d   1       1.504  -1.253  -0.608  0.00  0.00     0.077 C 
ATOM      2  C1' PXY d   1      -2.594   2.215   1.536  0.00  0.00     0.077 C 
ATOM      3  C1  PXY d   1      -1.513   1.307   0.985  0.00  0.00    -0.082 A 
ATOM      4  C2  PXY d   1      -1.323   1.234  -0.323  0.00  0.00     0.003 A 
ATOM      5  C3  PXY d   1      -0.371   0.393  -0.839  0.00  0.00     0.003 A 
ATOM      6  C4  PXY d   1       0.431  -0.341  -0.007  0.00  0.00    -0.082 A 
ATOM      7  C5  PXY d   1       0.250  -0.264   1.329  0.00  0.00     0.003 A 
ATOM      8  C6  PXY d   1      -0.749   0.564   1.832  0.00  0.00     0.003 A 
ENDROOT
TORSDOF 0
ENDMDL
