MODEL 1
REMARK minimizedAffinity -5.59582138
REMARK minimizedRMSD -1
REMARK  0 active torsions:
REMARK  status: ('A' for Active; 'I' for Inactive)
ROOT
ATOM      1  C4' PXY d   1       1.262  -1.581  -0.582  0.00  0.00     0.077 C 
ATOM      2  C1' PXY d   1      -2.307   2.446   1.530  0.00  0.00     0.077 C 
ATOM      3  C1  PXY d   1      -1.368   1.386   0.989  0.00  0.00    -0.082 A 
ATOM      4  C2  PXY d   1      -0.833   1.538  -0.212  0.00  0.00     0.003 A 
ATOM      5  C3  PXY d   1      -0.008   0.574  -0.730  0.00  0.00     0.003 A 
ATOM      6  C4  PXY d   1       0.316  -0.532   0.009  0.00  0.00    -0.082 A 
ATOM      7  C5  PXY d   1      -0.217  -0.689   1.240  0.00  0.00     0.003 A 
ATOM      8  C6  PXY d   1      -1.086   0.281   1.731  0.00  0.00     0.003 A 
ENDROOT
TORSDOF 0
ENDMDL
