MODEL 1
REMARK minimizedAffinity -4.68342113
REMARK minimizedRMSD -1
REMARK  0 active torsions:
REMARK  status: ('A' for Active; 'I' for Inactive)
ROOT
ATOM      1  C4' PXY d   1      -1.852   2.207   1.932  0.00  0.00     0.077 C 
ATOM      2  C1' PXY d   1       0.935  -1.727  -1.258  0.00  0.00     0.077 C 
ATOM      3  C1  PXY d   1       0.198  -0.705  -0.415  0.00  0.00    -0.082 A 
ATOM      4  C2  PXY d   1       0.051   0.530  -0.865  0.00  0.00     0.003 A 
ATOM      5  C3  PXY d   1      -0.585   1.476  -0.102  0.00  0.00     0.003 A 
ATOM      6  C4  PXY d   1      -1.123   1.139   1.111  0.00  0.00    -0.082 A 
ATOM      7  C5  PXY d   1      -0.987  -0.122   1.572  0.00  0.00     0.003 A 
ATOM      8  C6  PXY d   1      -0.302  -1.056   0.801  0.00  0.00     0.003 A 
ENDROOT
TORSDOF 0
ENDMDL
