MODEL 1
REMARK minimizedAffinity -4.21001625
REMARK minimizedRMSD -1
REMARK  0 active torsions:
REMARK  status: ('A' for Active; 'I' for Inactive)
ROOT
ATOM      1  C4' PXY d   1       0.126  -1.573   1.960  0.00  0.00     0.077 C 
ATOM      2  C1' PXY d   1      -0.318   2.872  -1.708  0.00  0.00     0.077 C 
ATOM      3  C1  PXY d   1      -0.197   1.699  -0.755  0.00  0.00    -0.082 A 
ATOM      4  C2  PXY d   1      -0.979   1.638   0.310  0.00  0.00     0.003 A 
ATOM      5  C3  PXY d   1      -0.861   0.600   1.199  0.00  0.00     0.003 A 
ATOM      6  C4  PXY d   1       0.031  -0.412   0.967  0.00  0.00    -0.082 A 
ATOM      7  C5  PXY d   1       0.826  -0.362  -0.123  0.00  0.00     0.003 A 
ATOM      8  C6  PXY d   1       0.719   0.720  -0.992  0.00  0.00     0.003 A 
ENDROOT
TORSDOF 0
ENDMDL
