MODEL 1
REMARK minimizedAffinity -4.81233788
REMARK minimizedRMSD -1
REMARK  0 active torsions:
REMARK  status: ('A' for Active; 'I' for Inactive)
ROOT
ATOM      1  C   UNL d   1       2.886  -2.332   0.493  0.00  0.00     0.077 C 
ATOM      2  C1  UNL d   1       1.627  -1.624   0.898  0.00  0.00    -0.074 A 
ATOM      3  C2  UNL d   1       1.156  -1.692   2.213  0.00  0.00    -0.005 A 
ATOM      4  C3  UNL d   1      -0.011  -1.021   2.577  0.00  0.00     0.006 A 
ATOM      5  C4  UNL d   1      -0.719  -0.277   1.632  0.00  0.00    -0.005 A 
ATOM      6  C5  UNL d   1      -0.263  -0.197   0.312  0.00  0.00    -0.074 A 
ATOM      7  C6  UNL d   1      -1.005   0.606  -0.714  0.00  0.00     0.077 C 
ATOM      8  C7  UNL d   1       0.915  -0.869  -0.044  0.00  0.00    -0.001 A 
ENDROOT
TORSDOF 0
ENDMDL
