MODEL 1
REMARK minimizedAffinity -1.70280039
REMARK minimizedRMSD -1
REMARK  0 active torsions:
REMARK  status: ('A' for Active; 'I' for Inactive)
ROOT
ATOM      1  C   UNL d   1      -1.173  -3.966   4.438  0.00  0.00     0.077 C 
ATOM      2  C1  UNL d   1      -0.139  -3.588   3.420  0.00  0.00    -0.074 A 
ATOM      3  C2  UNL d   1       0.751  -4.541   2.912  0.00  0.00    -0.005 A 
ATOM      4  C3  UNL d   1       1.701  -4.177   1.958  0.00  0.00     0.006 A 
ATOM      5  C4  UNL d   1       1.772  -2.860   1.503  0.00  0.00    -0.005 A 
ATOM      6  C5  UNL d   1       0.891  -1.894   1.999  0.00  0.00    -0.074 A 
ATOM      7  C6  UNL d   1       0.947  -0.476   1.514  0.00  0.00     0.077 C 
ATOM      8  C7  UNL d   1      -0.066  -2.269   2.952  0.00  0.00    -0.001 A 
ENDROOT
TORSDOF 0
ENDMDL
