MODEL 1
REMARK minimizedAffinity -3.66506505
REMARK minimizedRMSD -1
REMARK  0 active torsions:
REMARK  status: ('A' for Active; 'I' for Inactive)
ROOT
ATOM      1  C   UNL d   1       0.318  -1.350   2.791  0.00  0.00     0.077 C 
ATOM      2  C1  UNL d   1       0.941  -0.733   1.574  0.00  0.00    -0.074 A 
ATOM      3  C2  UNL d   1       2.330  -0.696   1.419  0.00  0.00    -0.005 A 
ATOM      4  C3  UNL d   1       2.896  -0.127   0.278  0.00  0.00     0.006 A 
ATOM      5  C4  UNL d   1       2.079   0.411  -0.718  0.00  0.00    -0.005 A 
ATOM      6  C5  UNL d   1       0.687   0.382  -0.580  0.00  0.00    -0.074 A 
ATOM      7  C6  UNL d   1      -0.205   0.947  -1.645  0.00  0.00     0.077 C 
ATOM      8  C7  UNL d   1       0.127  -0.198   0.566  0.00  0.00    -0.001 A 
ENDROOT
TORSDOF 0
ENDMDL
