MODEL 1
REMARK minimizedAffinity -1.09133518
REMARK minimizedRMSD -1
REMARK  0 active torsions:
REMARK  status: ('A' for Active; 'I' for Inactive)
ROOT
ATOM      1  C   UNL d   1      -2.573  -0.816   0.551  0.00  0.00     0.077 C 
ATOM      2  C1  UNL d   1      -1.084  -0.662   0.648  0.00  0.00    -0.074 A 
ATOM      3  C2  UNL d   1      -0.346  -0.128  -0.414  0.00  0.00    -0.005 A 
ATOM      4  C3  UNL d   1       1.037   0.018  -0.306  0.00  0.00     0.006 A 
ATOM      5  C4  UNL d   1       1.695  -0.367   0.862  0.00  0.00    -0.005 A 
ATOM      6  C5  UNL d   1       0.974  -0.902   1.934  0.00  0.00    -0.074 A 
ATOM      7  C6  UNL d   1       1.665  -1.312   3.201  0.00  0.00     0.077 C 
ATOM      8  C7  UNL d   1      -0.416  -1.039   1.821  0.00  0.00    -0.001 A 
ENDROOT
TORSDOF 0
ENDMDL
