MODEL 1
REMARK minimizedAffinity -0.0753793418
REMARK minimizedRMSD -1
REMARK  0 active torsions:
REMARK  status: ('A' for Active; 'I' for Inactive)
ROOT
ATOM      1  C   UNL d   1      -0.000  -0.535   0.510  0.00  0.00     0.077 C 
ATOM      2  C1  UNL d   1       0.363  -1.769   1.280  0.00  0.00    -0.074 A 
ATOM      3  C2  UNL d   1       1.684  -2.228   1.321  0.00  0.00    -0.005 A 
ATOM      4  C3  UNL d   1       2.009  -3.372   2.050  0.00  0.00     0.006 A 
ATOM      5  C4  UNL d   1       1.018  -4.068   2.743  0.00  0.00    -0.005 A 
ATOM      6  C5  UNL d   1      -0.308  -3.624   2.714  0.00  0.00    -0.074 A 
ATOM      7  C6  UNL d   1      -1.384  -4.355   3.461  0.00  0.00     0.077 C 
ATOM      8  C7  UNL d   1      -0.625  -2.470   1.985  0.00  0.00    -0.001 A 
ENDROOT
TORSDOF 0
ENDMDL
