MODEL 1
REMARK minimizedAffinity -3.35985947
REMARK minimizedRMSD -1
REMARK  0 active torsions:
REMARK  status: ('A' for Active; 'I' for Inactive)
ROOT
ATOM      1  C   UNL d   1      -0.208   0.406  -0.734  0.00  0.00     0.077 C 
ATOM      2  C1  UNL d   1      -0.644   1.614  -1.510  0.00  0.00    -0.074 A 
ATOM      3  C2  UNL d   1       0.291   2.429  -2.157  0.00  0.00    -0.005 A 
ATOM      4  C3  UNL d   1      -0.130   3.543  -2.882  0.00  0.00     0.006 A 
ATOM      5  C4  UNL d   1      -1.488   3.854  -2.968  0.00  0.00    -0.005 A 
ATOM      6  C5  UNL d   1      -2.437   3.050  -2.328  0.00  0.00    -0.074 A 
ATOM      7  C6  UNL d   1      -3.901   3.365  -2.418  0.00  0.00     0.077 C 
ATOM      8  C7  UNL d   1      -2.007   1.928  -1.607  0.00  0.00    -0.001 A 
ENDROOT
TORSDOF 0
ENDMDL
