MODEL 1
REMARK minimizedAffinity -3.22715139
REMARK minimizedRMSD -1
REMARK  0 active torsions:
REMARK  status: ('A' for Active; 'I' for Inactive)
ROOT
ATOM      1  C   UNL d   1      -2.215  -0.825   0.160  0.00  0.00     0.077 C 
ATOM      2  C1  UNL d   1      -0.868  -0.691   0.806  0.00  0.00    -0.074 A 
ATOM      3  C2  UNL d   1      -0.751  -0.401   2.169  0.00  0.00    -0.005 A 
ATOM      4  C3  UNL d   1       0.509  -0.288   2.758  0.00  0.00     0.006 A 
ATOM      5  C4  UNL d   1       1.661  -0.463   1.991  0.00  0.00    -0.005 A 
ATOM      6  C5  UNL d   1       1.563  -0.754   0.627  0.00  0.00    -0.074 A 
ATOM      7  C6  UNL d   1       2.792  -0.955  -0.210  0.00  0.00     0.077 C 
ATOM      8  C7  UNL d   1       0.294  -0.873   0.044  0.00  0.00    -0.001 A 
ENDROOT
TORSDOF 0
ENDMDL
