MODEL 1
REMARK minimizedAffinity -4.52019215
REMARK minimizedRMSD -1
REMARK  0 active torsions:
REMARK  status: ('A' for Active; 'I' for Inactive)
ROOT
ATOM      1  C   UNL d   1      -1.709  -0.563  -0.272  0.00  0.00     0.077 C 
ATOM      2  C1  UNL d   1      -0.561  -0.616   0.692  0.00  0.00    -0.074 A 
ATOM      3  C2  UNL d   1      -0.778  -0.568   2.072  0.00  0.00    -0.005 A 
ATOM      4  C3  UNL d   1       0.299  -0.628   2.957  0.00  0.00     0.006 A 
ATOM      5  C4  UNL d   1       1.602  -0.735   2.470  0.00  0.00    -0.005 A 
ATOM      6  C5  UNL d   1       1.839  -0.786   1.093  0.00  0.00    -0.074 A 
ATOM      7  C6  UNL d   1       3.233  -0.911   0.554  0.00  0.00     0.077 C 
ATOM      8  C7  UNL d   1       0.751  -0.732   0.211  0.00  0.00    -0.001 A 
ENDROOT
TORSDOF 0
ENDMDL
