MODEL 1
REMARK minimizedAffinity -1.10179448
REMARK minimizedRMSD -1
REMARK  0 active torsions:
REMARK  status: ('A' for Active; 'I' for Inactive)
ROOT
ATOM      1  C   UNL d   1       0.451  -1.839   3.331  0.00  0.00     0.077 C 
ATOM      2  C1  UNL d   1       0.067  -1.132   2.065  0.00  0.00    -0.074 A 
ATOM      3  C2  UNL d   1      -1.071  -0.321   2.011  0.00  0.00    -0.005 A 
ATOM      4  C3  UNL d   1      -1.410   0.338   0.830  0.00  0.00     0.006 A 
ATOM      5  C4  UNL d   1      -0.615   0.194  -0.308  0.00  0.00    -0.005 A 
ATOM      6  C5  UNL d   1       0.527  -0.612  -0.273  0.00  0.00    -0.074 A 
ATOM      7  C6  UNL d   1       1.398  -0.770  -1.484  0.00  0.00     0.077 C 
ATOM      8  C7  UNL d   1       0.865  -1.265   0.920  0.00  0.00    -0.001 A 
ENDROOT
TORSDOF 0
ENDMDL
