MODEL 1
REMARK minimizedAffinity 4.18221807
REMARK minimizedRMSD -1
REMARK  1 active torsions:
REMARK  status: ('A' for Active; 'I' for Inactive)
REMARK    1  A    between atoms: C3_4  and  O_7 
ROOT
ATOM      1  C   UNL d   1      -1.050   1.927   3.396  0.00  0.00    -0.033 A 
ATOM      2  C1  UNL d   1       0.274   2.316   3.189  0.00  0.00     0.039 A 
ATOM      3  C2  UNL d   1       0.755   2.498   1.890  0.00  0.00    -0.080 A 
ATOM      4  C3  UNL d   1      -0.097   2.288   0.810  0.00  0.00     0.150 A 
ATOM      5  C4  UNL d   1      -1.419   1.905   1.010  0.00  0.00    -0.007 A 
ATOM      6  C5  UNL d   1      -1.898   1.723   2.307  0.00  0.00     0.039 A 
ENDROOT
BRANCH   4   7
ATOM      7  O   UNL d   1       0.328   2.449  -0.475  0.00  0.00    -0.526 OA
ATOM      8  H5  UNL d   1       1.270   2.687  -0.460  0.00  0.00     0.418 HD
ENDBRANCH   4   7
TORSDOF 1
ENDMDL
