MODEL 1
REMARK minimizedAffinity -3.42958999
REMARK minimizedRMSD -1
REMARK  1 active torsions:
REMARK  status: ('A' for Active; 'I' for Inactive)
REMARK    1  A    between atoms: C3_4  and  O_7 
ROOT
ATOM      1  C   UNL d   1      -0.111   3.251  -0.878  0.00  0.00    -0.033 A 
ATOM      2  C1  UNL d   1      -0.881   2.263  -0.261  0.00  0.00     0.039 A 
ATOM      3  C2  UNL d   1      -1.929   1.658  -0.956  0.00  0.00    -0.080 A 
ATOM      4  C3  UNL d   1      -2.196   2.047  -2.265  0.00  0.00     0.150 A 
ATOM      5  C4  UNL d   1      -1.431   3.028  -2.887  0.00  0.00    -0.007 A 
ATOM      6  C5  UNL d   1      -0.385   3.632  -2.192  0.00  0.00     0.039 A 
ENDROOT
BRANCH   4   7
ATOM      7  O   UNL d   1      -3.212   1.488  -2.982  0.00  0.00    -0.526 OA
ATOM      8  H5  UNL d   1      -3.673   0.847  -2.415  0.00  0.00     0.418 HD
ENDBRANCH   4   7
TORSDOF 1
ENDMDL
