MODEL 1
REMARK minimizedAffinity 2.07181454
REMARK minimizedRMSD -1
REMARK  1 active torsions:
REMARK  status: ('A' for Active; 'I' for Inactive)
REMARK    1  A    between atoms: C3_4  and  O_7 
ROOT
ATOM      1  C   UNL d   1       0.373   3.958   0.102  0.00  0.00    -0.033 A 
ATOM      2  C1  UNL d   1      -0.648   3.044   0.370  0.00  0.00     0.039 A 
ATOM      3  C2  UNL d   1      -1.941   3.497   0.638  0.00  0.00    -0.080 A 
ATOM      4  C3  UNL d   1      -2.200   4.865   0.634  0.00  0.00     0.150 A 
ATOM      5  C4  UNL d   1      -1.189   5.781   0.364  0.00  0.00    -0.007 A 
ATOM      6  C5  UNL d   1       0.102   5.327   0.098  0.00  0.00     0.039 A 
ENDROOT
BRANCH   4   7
ATOM      7  O   UNL d   1      -3.445   5.356   0.895  0.00  0.00    -0.526 OA
ATOM      8  H5  UNL d   1      -4.035   4.609   1.091  0.00  0.00     0.418 HD
ENDBRANCH   4   7
TORSDOF 1
ENDMDL
