MODEL 1
REMARK minimizedAffinity 5.9774828
REMARK minimizedRMSD -1
REMARK  1 active torsions:
REMARK  status: ('A' for Active; 'I' for Inactive)
REMARK    1  A    between atoms: C3_4  and  O_7 
ROOT
ATOM      1  C   UNL d   1      -4.935   5.996   1.597  0.00  0.00    -0.033 A 
ATOM      2  C1  UNL d   1      -5.859   5.969   0.550  0.00  0.00     0.039 A 
ATOM      3  C2  UNL d   1      -5.416   5.949  -0.774  0.00  0.00    -0.080 A 
ATOM      4  C3  UNL d   1      -4.049   5.955  -1.037  0.00  0.00     0.150 A 
ATOM      5  C4  UNL d   1      -3.123   5.978   0.001  0.00  0.00    -0.007 A 
ATOM      6  C5  UNL d   1      -3.567   5.999   1.323  0.00  0.00     0.039 A 
ENDROOT
BRANCH   4   7
ATOM      7  O   UNL d   1      -3.569   5.941  -2.313  0.00  0.00    -0.526 OA
ATOM      8  H5  UNL d   1      -4.323   5.955  -2.925  0.00  0.00     0.418 HD
ENDBRANCH   4   7
TORSDOF 1
ENDMDL
