MODEL 1
REMARK minimizedAffinity 3.00089836
REMARK minimizedRMSD -1
REMARK  1 active torsions:
REMARK  status: ('A' for Active; 'I' for Inactive)
REMARK    1  A    between atoms: C3_4  and  O_7 
ROOT
ATOM      1  C   UNL d   1      -5.865  -4.454   1.365  0.00  0.00    -0.033 A 
ATOM      2  C1  UNL d   1      -5.652  -3.462   2.323  0.00  0.00     0.039 A 
ATOM      3  C2  UNL d   1      -5.569  -2.122   1.938  0.00  0.00    -0.080 A 
ATOM      4  C3  UNL d   1      -5.702  -1.789   0.593  0.00  0.00     0.150 A 
ATOM      5  C4  UNL d   1      -5.918  -2.773  -0.367  0.00  0.00    -0.007 A 
ATOM      6  C5  UNL d   1      -5.999  -4.110   0.020  0.00  0.00     0.039 A 
ENDROOT
BRANCH   4   7
ATOM      7  O   UNL d   1      -5.623  -0.496   0.168  0.00  0.00    -0.526 OA
ATOM      8  H5  UNL d   1      -5.443   0.070   0.937  0.00  0.00     0.418 HD
ENDBRANCH   4   7
TORSDOF 1
ENDMDL
