MODEL 1
REMARK minimizedAffinity 5.81193256
REMARK minimizedRMSD -1
REMARK  1 active torsions:
REMARK  status: ('A' for Active; 'I' for Inactive)
REMARK    1  A    between atoms: C3_4  and  O_7 
ROOT
ATOM      1  C   UNL d   1      -3.558   5.988   0.164  0.00  0.00    -0.033 A 
ATOM      2  C1  UNL d   1      -2.831   5.996   1.356  0.00  0.00     0.039 A 
ATOM      3  C2  UNL d   1      -3.499   5.998   2.583  0.00  0.00    -0.080 A 
ATOM      4  C3  UNL d   1      -4.891   5.992   2.603  0.00  0.00     0.150 A 
ATOM      5  C4  UNL d   1      -5.621   5.980   1.419  0.00  0.00    -0.007 A 
ATOM      6  C5  UNL d   1      -4.952   5.978   0.195  0.00  0.00     0.039 A 
ENDROOT
BRANCH   4   7
ATOM      7  O   UNL d   1      -5.587   5.999   3.775  0.00  0.00    -0.526 OA
ATOM      8  H5  UNL d   1      -4.952   6.036   4.510  0.00  0.00     0.418 HD
ENDBRANCH   4   7
TORSDOF 1
ENDMDL
