MODEL 1
REMARK minimizedAffinity -1.61689746
REMARK minimizedRMSD -1
REMARK  1 active torsions:
REMARK  status: ('A' for Active; 'I' for Inactive)
REMARK    1  A    between atoms: C3_4  and  O_7 
ROOT
ATOM      1  C   UNL d   1      -0.022   3.523  -1.076  0.00  0.00    -0.033 A 
ATOM      2  C1  UNL d   1       0.964   3.867  -0.151  0.00  0.00     0.039 A 
ATOM      3  C2  UNL d   1       0.889   3.394   1.161  0.00  0.00    -0.080 A 
ATOM      4  C3  UNL d   1      -0.175   2.578   1.533  0.00  0.00     0.150 A 
ATOM      5  C4  UNL d   1      -1.160   2.228   0.615  0.00  0.00    -0.007 A 
ATOM      6  C5  UNL d   1      -1.084   2.702  -0.694  0.00  0.00     0.039 A 
ENDROOT
BRANCH   4   7
ATOM      7  O   UNL d   1      -0.294   2.096   2.802  0.00  0.00    -0.526 OA
ATOM      8  H5  UNL d   1       0.442   2.443   3.333  0.00  0.00     0.418 HD
ENDBRANCH   4   7
TORSDOF 1
ENDMDL
