MODEL 1
REMARK minimizedAffinity 14.9049292
REMARK minimizedRMSD -1
REMARK  1 active torsions:
REMARK  status: ('A' for Active; 'I' for Inactive)
REMARK    1  A    between atoms: C3_4  and  O_7 
ROOT
ATOM      1  C   UNL d   1      -4.041   5.264  -1.232  0.00  0.00    -0.033 A 
ATOM      2  C1  UNL d   1      -3.058   5.009  -0.274  0.00  0.00     0.039 A 
ATOM      3  C2  UNL d   1      -3.318   5.250   1.077  0.00  0.00    -0.080 A 
ATOM      4  C3  UNL d   1      -4.563   5.744   1.455  0.00  0.00     0.150 A 
ATOM      5  C4  UNL d   1      -5.548   5.997   0.506  0.00  0.00    -0.007 A 
ATOM      6  C5  UNL d   1      -5.287   5.756  -0.842  0.00  0.00     0.039 A 
ENDROOT
BRANCH   4   7
ATOM      7  O   UNL d   1      -4.862   6.000   2.761  0.00  0.00    -0.526 OA
ATOM      8  H5  UNL d   1      -4.077   5.805   3.299  0.00  0.00     0.418 HD
ENDBRANCH   4   7
TORSDOF 1
ENDMDL
