MODEL 1
REMARK minimizedAffinity -2.31104064
REMARK minimizedRMSD -1
REMARK  1 active torsions:
REMARK  status: ('A' for Active; 'I' for Inactive)
REMARK    1  A    between atoms: C3_4  and  O_7 
ROOT
ATOM      1  C   UNL d   1      -0.629   1.752   3.342  0.00  0.00    -0.033 A 
ATOM      2  C1  UNL d   1      -0.816   0.825   2.314  0.00  0.00     0.039 A 
ATOM      3  C2  UNL d   1      -0.368   1.112   1.023  0.00  0.00    -0.080 A 
ATOM      4  C3  UNL d   1       0.265   2.327   0.774  0.00  0.00     0.150 A 
ATOM      5  C4  UNL d   1       0.458   3.253   1.794  0.00  0.00    -0.007 A 
ATOM      6  C5  UNL d   1       0.009   2.965   3.082  0.00  0.00     0.039 A 
ENDROOT
BRANCH   4   7
ATOM      7  O   UNL d   1       0.715   2.653  -0.471  0.00  0.00    -0.526 OA
ATOM      8  H5  UNL d   1       0.487   1.931  -1.080  0.00  0.00     0.418 HD
ENDBRANCH   4   7
TORSDOF 1
ENDMDL
