MODEL 1
REMARK minimizedAffinity 10.891408
REMARK minimizedRMSD -1
REMARK  1 active torsions:
REMARK  status: ('A' for Active; 'I' for Inactive)
REMARK    1  A    between atoms: C3_4  and  O_7 
ROOT
ATOM      1  C   UNL d   1      -1.010   5.724  -1.170  0.00  0.00    -0.033 A 
ATOM      2  C1  UNL d   1      -0.188   4.797  -1.813  0.00  0.00     0.039 A 
ATOM      3  C2  UNL d   1       0.174   3.614  -1.165  0.00  0.00    -0.080 A 
ATOM      4  C3  UNL d   1      -0.292   3.371   0.123  0.00  0.00     0.150 A 
ATOM      5  C4  UNL d   1      -1.115   4.288   0.769  0.00  0.00    -0.007 A 
ATOM      6  C5  UNL d   1      -1.475   5.468   0.121  0.00  0.00     0.039 A 
ENDROOT
BRANCH   4   7
ATOM      7  O   UNL d   1       0.039   2.233   0.798  0.00  0.00    -0.526 OA
ATOM      8  H5  UNL d   1       0.635   1.707   0.239  0.00  0.00     0.418 HD
ENDBRANCH   4   7
TORSDOF 1
ENDMDL
