MODEL 1
REMARK minimizedAffinity -3.28212643
REMARK minimizedRMSD -1
REMARK  1 active torsions:
REMARK  status: ('A' for Active; 'I' for Inactive)
REMARK    1  A    between atoms: C3_4  and  O_7 
ROOT
ATOM      1  C   UNL d   1      -1.235   1.534   2.664  0.00  0.00    -0.033 A 
ATOM      2  C1  UNL d   1      -1.435   1.103   1.351  0.00  0.00     0.039 A 
ATOM      3  C2  UNL d   1      -0.813   1.768   0.293  0.00  0.00    -0.080 A 
ATOM      4  C3  UNL d   1       0.007   2.861   0.561  0.00  0.00     0.150 A 
ATOM      5  C4  UNL d   1       0.214   3.294   1.867  0.00  0.00    -0.007 A 
ATOM      6  C5  UNL d   1      -0.409   2.629   2.922  0.00  0.00     0.039 A 
ENDROOT
BRANCH   4   7
ATOM      7  O   UNL d   1       0.632   3.545  -0.439  0.00  0.00    -0.526 OA
ATOM      8  H5  UNL d   1       0.374   3.152  -1.289  0.00  0.00     0.418 HD
ENDBRANCH   4   7
TORSDOF 1
ENDMDL
