MODEL 1
REMARK minimizedAffinity -4.75788593
REMARK minimizedRMSD -1
REMARK  1 active torsions:
REMARK  status: ('A' for Active; 'I' for Inactive)
REMARK    1  A    between atoms: C3_4  and  O_7 
ROOT
ATOM      1  C   UNL d   1      -0.607   1.786   2.944  0.00  0.00    -0.033 A 
ATOM      2  C1  UNL d   1       0.440   2.674   3.200  0.00  0.00     0.039 A 
ATOM      3  C2  UNL d   1       0.925   3.496   2.181  0.00  0.00    -0.080 A 
ATOM      4  C3  UNL d   1       0.354   3.422   0.913  0.00  0.00     0.150 A 
ATOM      5  C4  UNL d   1      -0.692   2.543   0.653  0.00  0.00    -0.007 A 
ATOM      6  C5  UNL d   1      -1.174   1.722   1.671  0.00  0.00     0.039 A 
ENDROOT
BRANCH   4   7
ATOM      7  O   UNL d   1       0.797   4.201  -0.114  0.00  0.00    -0.526 OA
ATOM      8  H5  UNL d   1       1.542   4.737   0.205  0.00  0.00     0.418 HD
ENDBRANCH   4   7
TORSDOF 1
ENDMDL
