MODEL 1
REMARK minimizedAffinity 0.0418157056
REMARK minimizedRMSD -1
REMARK  1 active torsions:
REMARK  status: ('A' for Active; 'I' for Inactive)
REMARK    1  A    between atoms: C3_4  and  O_7 
ROOT
ATOM      1  C   UNL d   1      -0.371   2.646   0.711  0.00  0.00    -0.033 A 
ATOM      2  C1  UNL d   1      -1.511   3.200   1.297  0.00  0.00     0.039 A 
ATOM      3  C2  UNL d   1      -2.262   2.455   2.208  0.00  0.00    -0.080 A 
ATOM      4  C3  UNL d   1      -1.862   1.160   2.526  0.00  0.00     0.150 A 
ATOM      5  C4  UNL d   1      -0.725   0.603   1.949  0.00  0.00    -0.007 A 
ATOM      6  C5  UNL d   1       0.023   1.348   1.039  0.00  0.00     0.039 A 
ENDROOT
BRANCH   4   7
ATOM      7  O   UNL d   1      -2.565   0.393   3.406  0.00  0.00    -0.526 OA
ATOM      8  H5  UNL d   1      -3.342   0.897   3.702  0.00  0.00     0.418 HD
ENDBRANCH   4   7
TORSDOF 1
ENDMDL
