MODEL 1
REMARK minimizedAffinity -1.14231217
REMARK minimizedRMSD -1
REMARK  1 active torsions:
REMARK  status: ('A' for Active; 'I' for Inactive)
REMARK    1  A    between atoms: C3_4  and  O_7 
ROOT
ATOM      1  C   UNL d   1      -0.771   2.559   0.080  0.00  0.00    -0.033 A 
ATOM      2  C1  UNL d   1      -0.798   2.512   1.475  0.00  0.00     0.039 A 
ATOM      3  C2  UNL d   1       0.101   3.279   2.219  0.00  0.00    -0.080 A 
ATOM      4  C3  UNL d   1       1.020   4.088   1.557  0.00  0.00     0.150 A 
ATOM      5  C4  UNL d   1       1.050   4.143   0.168  0.00  0.00    -0.007 A 
ATOM      6  C5  UNL d   1       0.152   3.376  -0.574  0.00  0.00     0.039 A 
ENDROOT
BRANCH   4   7
ATOM      7  O   UNL d   1       1.920   4.851   2.241  0.00  0.00    -0.526 OA
ATOM      8  H5  UNL d   1       1.800   4.690   3.191  0.00  0.00     0.418 HD
ENDBRANCH   4   7
TORSDOF 1
ENDMDL
