MODEL 1
REMARK minimizedAffinity -3.73134732
REMARK minimizedRMSD -1
REMARK  0 active torsions:
REMARK  status: ('A' for Active; 'I' for Inactive)
ROOT
ATOM      1  C1  BNZ d   1      -1.921   0.629   1.375  0.00  0.00     0.000 A 
ATOM      2  C2  BNZ d   1      -1.013   1.187   2.235  0.00  0.00     0.000 A 
ATOM      3  C3  BNZ d   1       0.320   1.199   1.935  0.00  0.00     0.000 A 
ATOM      4  C4  BNZ d   1       0.749   0.618   0.796  0.00  0.00     0.000 A 
ATOM      5  C5  BNZ d   1      -0.153   0.043  -0.077  0.00  0.00     0.000 A 
ATOM      6  C6  BNZ d   1      -1.498   0.067   0.209  0.00  0.00     0.000 A 
ENDROOT
TORSDOF 0
ENDMDL
