MODEL 1
REMARK minimizedAffinity -2.11477113
REMARK minimizedRMSD -1
REMARK  0 active torsions:
REMARK  status: ('A' for Active; 'I' for Inactive)
ROOT
ATOM      1  C1  BNZ d   1      -1.603   0.130  -0.009  0.00  0.00     0.000 A 
ATOM      2  C2  BNZ d   1      -1.609   0.771   1.200  0.00  0.00     0.000 A 
ATOM      3  C3  BNZ d   1      -0.438   1.103   1.823  0.00  0.00     0.000 A 
ATOM      4  C4  BNZ d   1       0.736   0.757   1.256  0.00  0.00     0.000 A 
ATOM      5  C5  BNZ d   1       0.758   0.101   0.041  0.00  0.00     0.000 A 
ATOM      6  C6  BNZ d   1      -0.422  -0.196  -0.602  0.00  0.00     0.000 A 
ENDROOT
TORSDOF 0
ENDMDL
