MODEL 1
REMARK minimizedAffinity -2.21570492
REMARK minimizedRMSD -1
REMARK  0 active torsions:
REMARK  status: ('A' for Active; 'I' for Inactive)
ROOT
ATOM      1  C1  BNZ d   1      -1.659  -0.159  -0.132  0.00  0.00     0.000 A 
ATOM      2  C2  BNZ d   1      -0.953   0.037   1.024  0.00  0.00     0.000 A 
ATOM      3  C3  BNZ d   1       0.410   0.139   1.004  0.00  0.00     0.000 A 
ATOM      4  C4  BNZ d   1       1.067   0.004  -0.166  0.00  0.00     0.000 A 
ATOM      5  C5  BNZ d   1       0.370  -0.203  -1.340  0.00  0.00     0.000 A 
ATOM      6  C6  BNZ d   1      -1.004  -0.266  -1.321  0.00  0.00     0.000 A 
ENDROOT
TORSDOF 0
ENDMDL
