MODEL 1
REMARK minimizedAffinity -2.43680716
REMARK minimizedRMSD -1
REMARK  0 active torsions:
REMARK  status: ('A' for Active; 'I' for Inactive)
ROOT
ATOM      1  C1  BNZ d   1       0.038   0.744   1.189  0.00  0.00     0.000 A 
ATOM      2  C2  BNZ d   1       1.258   0.261   0.797  0.00  0.00     0.000 A 
ATOM      3  C3  BNZ d   1       1.401  -0.394  -0.394  0.00  0.00     0.000 A 
ATOM      4  C4  BNZ d   1       0.318  -0.602  -1.171  0.00  0.00     0.000 A 
ATOM      5  C5  BNZ d   1      -0.920  -0.130  -0.785  0.00  0.00     0.000 A 
ATOM      6  C6  BNZ d   1      -1.053   0.564   0.396  0.00  0.00     0.000 A 
ENDROOT
TORSDOF 0
ENDMDL
