MODEL 1
REMARK minimizedAffinity -3.63739562
REMARK minimizedRMSD -1
REMARK  0 active torsions:
REMARK  status: ('A' for Active; 'I' for Inactive)
ROOT
ATOM      1  C1  BNZ d   1      -2.116   0.489   1.275  0.00  0.00     0.000 A 
ATOM      2  C2  BNZ d   1      -1.927  -0.060   0.034  0.00  0.00     0.000 A 
ATOM      3  C3  BNZ d   1      -0.667  -0.284  -0.447  0.00  0.00     0.000 A 
ATOM      4  C4  BNZ d   1       0.400   0.077   0.295  0.00  0.00     0.000 A 
ATOM      5  C5  BNZ d   1       0.225   0.640   1.543  0.00  0.00     0.000 A 
ATOM      6  C6  BNZ d   1      -1.044   0.828   2.040  0.00  0.00     0.000 A 
ENDROOT
TORSDOF 0
ENDMDL
