MODEL 1
REMARK minimizedAffinity -4.59906578
REMARK minimizedRMSD -1
REMARK  0 active torsions:
REMARK  status: ('A' for Active; 'I' for Inactive)
ROOT
ATOM      1  C1  BNZ d   1      -2.368   0.286   1.841  0.00  0.00     0.000 A 
ATOM      2  C2  BNZ d   1      -2.305  -0.068   0.519  0.00  0.00     0.000 A 
ATOM      3  C3  BNZ d   1      -1.100  -0.245  -0.101  0.00  0.00     0.000 A 
ATOM      4  C4  BNZ d   1       0.038  -0.028   0.588  0.00  0.00     0.000 A 
ATOM      5  C5  BNZ d   1      -0.008   0.339   1.918  0.00  0.00     0.000 A 
ATOM      6  C6  BNZ d   1      -1.223   0.478   2.550  0.00  0.00     0.000 A 
ENDROOT
TORSDOF 0
ENDMDL
