MODEL 1
REMARK minimizedAffinity -4.65900278
REMARK minimizedRMSD -1
REMARK  0 active torsions:
REMARK  status: ('A' for Active; 'I' for Inactive)
ROOT
ATOM      1  C1  BNZ d   1      -1.818  -0.051   0.578  0.00  0.00     0.000 A 
ATOM      2  C2  BNZ d   1      -0.640  -0.035  -0.119  0.00  0.00     0.000 A 
ATOM      3  C3  BNZ d   1       0.476   0.556   0.405  0.00  0.00     0.000 A 
ATOM      4  C4  BNZ d   1       0.401   1.164   1.607  0.00  0.00     0.000 A 
ATOM      5  C5  BNZ d   1      -0.782   1.164   2.318  0.00  0.00     0.000 A 
ATOM      6  C6  BNZ d   1      -1.893   0.535   1.804  0.00  0.00     0.000 A 
ENDROOT
TORSDOF 0
ENDMDL
