MODEL 1
REMARK minimizedAffinity -3.66942644
REMARK minimizedRMSD -1
REMARK  0 active torsions:
REMARK  status: ('A' for Active; 'I' for Inactive)
ROOT
ATOM      1  C1  BNZ d   1       0.290   1.161   0.563  0.00  0.00     0.000 A 
ATOM      2  C2  BNZ d   1       0.466   1.951   1.668  0.00  0.00     0.000 A 
ATOM      3  C3  BNZ d   1      -0.053   1.587   2.879  0.00  0.00     0.000 A 
ATOM      4  C4  BNZ d   1      -0.781   0.456   2.975  0.00  0.00     0.000 A 
ATOM      5  C5  BNZ d   1      -0.975  -0.347   1.868  0.00  0.00     0.000 A 
ATOM      6  C6  BNZ d   1      -0.418   0.003   0.660  0.00  0.00     0.000 A 
ENDROOT
TORSDOF 0
ENDMDL
