MODEL 1
REMARK minimizedAffinity 4.02562809
REMARK minimizedRMSD -1
REMARK  0 active torsions:
REMARK  status: ('A' for Active; 'I' for Inactive)
ROOT
ATOM      1  C   UNL d   1       0.492   3.758  -0.955  0.00  0.00     0.172 C 
ATOM      2  N   UNL d   1      -0.011   3.024   0.183  0.00  0.00    -0.070 N 
ATOM      3  C1  UNL d   1       0.749   2.320   1.078  0.00  0.00    -0.004 A 
ATOM      4  C2  UNL d   1      -0.101   1.767   2.010  0.00  0.00    -0.047 A 
ATOM      5  C3  UNL d   1      -1.418   2.151   1.663  0.00  0.00    -0.047 A 
ATOM      6  C4  UNL d   1      -1.333   2.929   0.528  0.00  0.00    -0.004 A 
ENDROOT
TORSDOF 0
ENDMDL
