MODEL 1
REMARK minimizedAffinity -2.00009847
REMARK minimizedRMSD -1
REMARK  0 active torsions:
REMARK  status: ('A' for Active; 'I' for Inactive)
ROOT
ATOM      1  C   UNL d   1      -0.780   2.127   1.542  0.00  0.00     0.172 C 
ATOM      2  N   UNL d   1      -0.411   2.948   0.412  0.00  0.00    -0.070 N 
ATOM      3  C1  UNL d   1      -0.561   2.606  -0.905  0.00  0.00    -0.004 A 
ATOM      4  C2  UNL d   1      -0.092   3.654  -1.669  0.00  0.00    -0.047 A 
ATOM      5  C3  UNL d   1       0.356   4.659  -0.779  0.00  0.00    -0.047 A 
ATOM      6  C4  UNL d   1       0.147   4.196   0.503  0.00  0.00    -0.004 A 
ENDROOT
TORSDOF 0
ENDMDL
