MODEL 1
REMARK minimizedAffinity -1.07531643
REMARK minimizedRMSD -1
REMARK  0 active torsions:
REMARK  status: ('A' for Active; 'I' for Inactive)
ROOT
ATOM      1  C   UNL d   1      -0.034   3.615  -1.495  0.00  0.00     0.172 C 
ATOM      2  N   UNL d   1      -0.033   3.551  -0.052  0.00  0.00    -0.070 N 
ATOM      3  C1  UNL d   1       0.144   2.418   0.696  0.00  0.00    -0.004 A 
ATOM      4  C2  UNL d   1       0.080   2.777   2.026  0.00  0.00    -0.047 A 
ATOM      5  C3  UNL d   1      -0.145   4.173   2.077  0.00  0.00    -0.047 A 
ATOM      6  C4  UNL d   1      -0.210   4.627   0.777  0.00  0.00    -0.004 A 
ENDROOT
TORSDOF 0
ENDMDL
