MODEL 1
REMARK minimizedAffinity 7.74597931
REMARK minimizedRMSD -1
REMARK  0 active torsions:
REMARK  status: ('A' for Active; 'I' for Inactive)
ROOT
ATOM      1  C   UNL d   1       3.302  -2.397  -5.484  0.00  0.00     0.172 C 
ATOM      2  N   UNL d   1       4.042  -3.082  -4.451  0.00  0.00    -0.070 N 
ATOM      3  C1  UNL d   1       3.531  -3.515  -3.256  0.00  0.00    -0.004 A 
ATOM      4  C2  UNL d   1       4.552  -4.118  -2.554  0.00  0.00    -0.047 A 
ATOM      5  C3  UNL d   1       5.717  -4.044  -3.354  0.00  0.00    -0.047 A 
ATOM      6  C4  UNL d   1       5.373  -3.398  -4.523  0.00  0.00    -0.004 A 
ENDROOT
TORSDOF 0
ENDMDL
