MODEL 1
REMARK minimizedAffinity -0.686684668
REMARK minimizedRMSD -1
REMARK  0 active torsions:
REMARK  status: ('A' for Active; 'I' for Inactive)
ROOT
ATOM      1  C   UNL d   1      -5.999  -5.933   5.958  0.00  0.00     0.172 C 
ATOM      2  N   UNL d   1      -5.374  -4.784   5.346  0.00  0.00    -0.070 N 
ATOM      3  C1  UNL d   1      -4.980  -3.647   5.999  0.00  0.00    -0.004 A 
ATOM      4  C2  UNL d   1      -4.430  -2.794   5.067  0.00  0.00    -0.047 A 
ATOM      5  C3  UNL d   1      -4.497  -3.439   3.810  0.00  0.00    -0.047 A 
ATOM      6  C4  UNL d   1      -5.086  -4.670   4.011  0.00  0.00    -0.004 A 
ENDROOT
TORSDOF 0
ENDMDL
