MODEL 1
REMARK minimizedAffinity -0.20642148
REMARK minimizedRMSD -1
REMARK  0 active torsions:
REMARK  status: ('A' for Active; 'I' for Inactive)
ROOT
ATOM      1  C   UNL d   1       0.333   3.754  -1.291  0.00  0.00     0.172 C 
ATOM      2  N   UNL d   1       0.196   3.262   0.059  0.00  0.00    -0.070 N 
ATOM      3  C1  UNL d   1      -0.689   2.302   0.474  0.00  0.00    -0.004 A 
ATOM      4  C2  UNL d   1      -0.506   2.116   1.827  0.00  0.00    -0.047 A 
ATOM      5  C3  UNL d   1       0.523   2.994   2.240  0.00  0.00    -0.047 A 
ATOM      6  C4  UNL d   1       0.940   3.692   1.126  0.00  0.00    -0.004 A 
ENDROOT
TORSDOF 0
ENDMDL
