MODEL 1
REMARK minimizedAffinity 9.25294209
REMARK minimizedRMSD -1
REMARK  0 active torsions:
REMARK  status: ('A' for Active; 'I' for Inactive)
ROOT
ATOM      1  C   UNL d   1      -2.748   2.163  -3.568  0.00  0.00     0.172 C 
ATOM      2  N   UNL d   1      -1.699   2.994  -3.026  0.00  0.00    -0.070 N 
ATOM      3  C1  UNL d   1      -1.085   2.815  -1.815  0.00  0.00    -0.004 A 
ATOM      4  C2  UNL d   1      -0.144   3.811  -1.668  0.00  0.00    -0.047 A 
ATOM      5  C3  UNL d   1      -0.194   4.616  -2.831  0.00  0.00    -0.047 A 
ATOM      6  C4  UNL d   1      -1.165   4.088  -3.654  0.00  0.00    -0.004 A 
ENDROOT
TORSDOF 0
ENDMDL
