MODEL 1
REMARK minimizedAffinity 2.40401125
REMARK minimizedRMSD -1
REMARK  0 active torsions:
REMARK  status: ('A' for Active; 'I' for Inactive)
ROOT
ATOM      1  C   UNL d   1      -0.928   2.074   2.002  0.00  0.00     0.172 C 
ATOM      2  N   UNL d   1      -0.582   2.743   0.770  0.00  0.00    -0.070 N 
ATOM      3  C1  UNL d   1      -0.735   2.227  -0.489  0.00  0.00    -0.004 A 
ATOM      4  C2  UNL d   1      -0.291   3.171  -1.390  0.00  0.00    -0.047 A 
ATOM      5  C3  UNL d   1       0.146   4.293  -0.646  0.00  0.00    -0.047 A 
ATOM      6  C4  UNL d   1      -0.046   4.001   0.688  0.00  0.00    -0.004 A 
ENDROOT
TORSDOF 0
ENDMDL
