MODEL 1
REMARK minimizedAffinity -2.07402301
REMARK minimizedRMSD -1
REMARK  0 active torsions:
REMARK  status: ('A' for Active; 'I' for Inactive)
ROOT
ATOM      1  C   UNL d   1       0.062   3.527  -0.876  0.00  0.00     0.172 C 
ATOM      2  N   UNL d   1      -0.014   3.176   0.522  0.00  0.00    -0.070 N 
ATOM      3  C1  UNL d   1      -1.012   2.444   1.109  0.00  0.00    -0.004 A 
ATOM      4  C2  UNL d   1      -0.718   2.328   2.450  0.00  0.00    -0.047 A 
ATOM      5  C3  UNL d   1       0.498   3.015   2.678  0.00  0.00    -0.047 A 
ATOM      6  C4  UNL d   1       0.912   3.530   1.468  0.00  0.00    -0.004 A 
ENDROOT
TORSDOF 0
ENDMDL
