MODEL 1
REMARK minimizedAffinity 7.75796318
REMARK minimizedRMSD -1
REMARK  0 active torsions:
REMARK  status: ('A' for Active; 'I' for Inactive)
ROOT
ATOM      1  C   UNL d   1      -1.930   5.720   0.092  0.00  0.00     0.172 C 
ATOM      2  N   UNL d   1      -0.777   4.881  -0.135  0.00  0.00    -0.070 N 
ATOM      3  C1  UNL d   1       0.528   5.296  -0.121  0.00  0.00    -0.004 A 
ATOM      4  C2  UNL d   1       1.322   4.200  -0.380  0.00  0.00    -0.047 A 
ATOM      5  C3  UNL d   1       0.465   3.088  -0.557  0.00  0.00    -0.047 A 
ATOM      6  C4  UNL d   1      -0.829   3.538  -0.400  0.00  0.00    -0.004 A 
ENDROOT
TORSDOF 0
ENDMDL
