MODEL 1
REMARK minimizedAffinity 5.39278746
REMARK minimizedRMSD -1
REMARK  0 active torsions:
REMARK  status: ('A' for Active; 'I' for Inactive)
ROOT
ATOM      1  C   UNL d   1      -0.354   1.533   0.717  0.00  0.00     0.172 C 
ATOM      2  N   UNL d   1      -0.024   2.604  -0.194  0.00  0.00    -0.070 N 
ATOM      3  C1  UNL d   1       0.628   3.762   0.137  0.00  0.00    -0.004 A 
ATOM      4  C2  UNL d   1       0.750   4.520  -1.008  0.00  0.00    -0.047 A 
ATOM      5  C3  UNL d   1       0.148   3.793  -2.063  0.00  0.00    -0.047 A 
ATOM      6  C4  UNL d   1      -0.323   2.611  -1.531  0.00  0.00    -0.004 A 
ENDROOT
TORSDOF 0
ENDMDL
