MODEL 1
REMARK minimizedAffinity 1.10190582
REMARK minimizedRMSD -1
REMARK  0 active torsions:
REMARK  status: ('A' for Active; 'I' for Inactive)
ROOT
ATOM      1  C   UNL d   1      -2.919  -2.558   4.504  0.00  0.00     0.172 C 
ATOM      2  N   UNL d   1      -4.165  -3.199   4.852  0.00  0.00    -0.070 N 
ATOM      3  C1  UNL d   1      -4.820  -4.134   4.097  0.00  0.00    -0.004 A 
ATOM      4  C2  UNL d   1      -5.965  -4.497   4.773  0.00  0.00    -0.047 A 
ATOM      5  C3  UNL d   1      -5.999  -3.753   5.977  0.00  0.00    -0.047 A 
ATOM      6  C4  UNL d   1      -4.873  -2.958   6.000  0.00  0.00    -0.004 A 
ENDROOT
TORSDOF 0
ENDMDL
