MODEL 1
REMARK minimizedAffinity 6.55900574
REMARK minimizedRMSD -1
REMARK  0 active torsions:
REMARK  status: ('A' for Active; 'I' for Inactive)
ROOT
ATOM      1  C   UNL d   1      -1.856   6.000   0.746  0.00  0.00     0.172 C 
ATOM      2  N   UNL d   1      -1.141   4.799   0.380  0.00  0.00    -0.070 N 
ATOM      3  C1  UNL d   1      -1.656   3.531   0.387  0.00  0.00    -0.004 A 
ATOM      4  C2  UNL d   1      -0.662   2.670  -0.026  0.00  0.00    -0.047 A 
ATOM      5  C3  UNL d   1       0.490   3.448  -0.288  0.00  0.00    -0.047 A 
ATOM      6  C4  UNL d   1       0.166   4.763  -0.028  0.00  0.00    -0.004 A 
ENDROOT
TORSDOF 0
ENDMDL
