MODEL 1
REMARK minimizedAffinity -1.9058547
REMARK minimizedRMSD -1
REMARK  0 active torsions:
REMARK  status: ('A' for Active; 'I' for Inactive)
ROOT
ATOM      1  C   UNL d   1      -5.986  -5.932   5.989  0.00  0.00     0.172 C 
ATOM      2  N   UNL d   1      -5.631  -5.425   4.684  0.00  0.00    -0.070 N 
ATOM      3  C1  UNL d   1      -4.882  -4.305   4.440  0.00  0.00    -0.004 A 
ATOM      4  C2  UNL d   1      -4.769  -4.163   3.074  0.00  0.00    -0.047 A 
ATOM      5  C3  UNL d   1      -5.476  -5.233   2.476  0.00  0.00    -0.047 A 
ATOM      6  C4  UNL d   1      -6.000  -5.999   3.496  0.00  0.00    -0.004 A 
ENDROOT
TORSDOF 0
ENDMDL
