MODEL 1
REMARK minimizedAffinity -3.7713933
REMARK minimizedRMSD -1
REMARK  0 active torsions:
REMARK  status: ('A' for Active; 'I' for Inactive)
ROOT
ATOM      1  C   UNL d   1      -5.567  -2.233  -0.706  0.00  0.00     0.172 C 
ATOM      2  N   UNL d   1      -5.232  -1.145  -1.594  0.00  0.00    -0.070 N 
ATOM      3  C1  UNL d   1      -6.000  -0.700  -2.638  0.00  0.00    -0.004 A 
ATOM      4  C2  UNL d   1      -5.334   0.348  -3.235  0.00  0.00    -0.047 A 
ATOM      5  C3  UNL d   1      -4.124   0.541  -2.527  0.00  0.00    -0.047 A 
ATOM      6  C4  UNL d   1      -4.086  -0.397  -1.516  0.00  0.00    -0.004 A 
ENDROOT
TORSDOF 0
ENDMDL
