MODEL 1
REMARK minimizedAffinity -1.46595573
REMARK minimizedRMSD -1
REMARK  0 active torsions:
REMARK  status: ('A' for Active; 'I' for Inactive)
ROOT
ATOM      1  C   UNL d   1      -5.918  -3.263   5.669  0.00  0.00     0.172 C 
ATOM      2  N   UNL d   1      -5.936  -4.143   4.524  0.00  0.00    -0.070 N 
ATOM      3  C1  UNL d   1      -5.893  -3.748   3.213  0.00  0.00    -0.004 A 
ATOM      4  C2  UNL d   1      -5.929  -4.882   2.430  0.00  0.00    -0.047 A 
ATOM      5  C3  UNL d   1      -5.997  -5.996   3.300  0.00  0.00    -0.047 A 
ATOM      6  C4  UNL d   1      -6.000  -5.509   4.591  0.00  0.00    -0.004 A 
ENDROOT
TORSDOF 0
ENDMDL
