MODEL 1
REMARK minimizedAffinity 0.984424949
REMARK minimizedRMSD -1
REMARK  0 active torsions:
REMARK  status: ('A' for Active; 'I' for Inactive)
ROOT
ATOM      1  C   UNL d   1       0.109   2.672  -0.597  0.00  0.00     0.172 C 
ATOM      2  N   UNL d   1      -0.184   2.360   0.782  0.00  0.00    -0.070 N 
ATOM      3  C1  UNL d   1      -0.972   1.328   1.217  0.00  0.00    -0.004 A 
ATOM      4  C2  UNL d   1      -0.999   1.370   2.595  0.00  0.00    -0.047 A 
ATOM      5  C3  UNL d   1      -0.201   2.466   3.001  0.00  0.00    -0.047 A 
ATOM      6  C4  UNL d   1       0.292   3.061   1.859  0.00  0.00    -0.004 A 
ENDROOT
TORSDOF 0
ENDMDL
