MODEL 1
REMARK minimizedAffinity -3.47327399
REMARK minimizedRMSD -1
REMARK  3 active torsions:
REMARK  status: ('A' for Active; 'I' for Inactive)
REMARK    1  A    between atoms: C3'_2  and  C2'_3 
REMARK    2  A    between atoms: C2'_3  and  C1'_4 
REMARK    3  A    between atoms: C1'_4  and  C1_5 
ROOT
ATOM      1  C1  N4B d   1       0.250   0.177  -0.483  0.00  0.00    -0.075 A 
ATOM      2  C2  N4B d   1       1.164  -0.894  -0.368  0.00  0.00     0.002 A 
ATOM      3  C3  N4B d   1       1.236  -1.613   0.801  0.00  0.00     0.002 A 
ATOM      4  C4  N4B d   1       0.423  -1.268   1.869  0.00  0.00    -0.004 A 
ATOM      5  C5  N4B d   1      -0.475  -0.248   1.741  0.00  0.00     0.002 A 
ATOM      6  C6  N4B d   1      -0.561   0.480   0.572  0.00  0.00     0.002 A 
ENDROOT
BRANCH   1   7
ATOM      7  C1' N4B d   1       0.195   1.045  -1.710  0.00  0.00     0.057 C 
BRANCH   7   8
ATOM      8  C2' N4B d   1      -1.215   1.608  -1.862  0.00  0.00     0.009 C 
BRANCH   8   9
ATOM      9  C3' N4B d   1      -1.219   2.944  -2.584  0.00  0.00     0.004 C 
ATOM     10  C4' N4B d   1       0.159   3.412  -2.946  0.00  0.00     0.003 C 
ENDBRANCH   8   9
ENDBRANCH   7   8
ENDBRANCH   1   7
TORSDOF 3
ENDMDL
