MODEL 1
REMARK minimizedAffinity -5.33188534
REMARK minimizedRMSD -1
REMARK  3 active torsions:
REMARK  status: ('A' for Active; 'I' for Inactive)
REMARK    1  A    between atoms: C3'_2  and  C2'_3 
REMARK    2  A    between atoms: C2'_3  and  C1'_4 
REMARK    3  A    between atoms: C1'_4  and  C1_5 
ROOT
ATOM      1  C1  N4B d   1      -0.931   0.825  -1.222  0.00  0.00    -0.075 A 
ATOM      2  C2  N4B d   1      -1.111   2.222  -1.321  0.00  0.00     0.002 A 
ATOM      3  C3  N4B d   1      -0.537   2.917  -2.358  0.00  0.00     0.002 A 
ATOM      4  C4  N4B d   1       0.234   2.241  -3.292  0.00  0.00    -0.004 A 
ATOM      5  C5  N4B d   1       0.382   0.888  -3.203  0.00  0.00     0.002 A 
ATOM      6  C6  N4B d   1      -0.192   0.177  -2.169  0.00  0.00     0.002 A 
ENDROOT
BRANCH   1   7
ATOM      7  C1' N4B d   1      -1.467   0.036  -0.059  0.00  0.00     0.057 C 
BRANCH   7   8
ATOM      8  C2' N4B d   1      -0.803   0.523   1.225  0.00  0.00     0.009 C 
BRANCH   8   9
ATOM      9  C3' N4B d   1      -0.892  -0.508   2.337  0.00  0.00     0.004 C 
ATOM     10  C4' N4B d   1       0.237  -1.495   2.305  0.00  0.00     0.003 C 
ENDBRANCH   8   9
ENDBRANCH   7   8
ENDBRANCH   1   7
TORSDOF 3
ENDMDL
