MODEL 1
REMARK minimizedAffinity -1.8641603
REMARK minimizedRMSD -1
REMARK  3 active torsions:
REMARK  status: ('A' for Active; 'I' for Inactive)
REMARK    1  A    between atoms: C3'_2  and  C2'_3 
REMARK    2  A    between atoms: C2'_3  and  C1'_4 
REMARK    3  A    between atoms: C1'_4  and  C1_5 
ROOT
ATOM      1  C1  N4B d   1      -0.135  -0.985   1.157  0.00  0.00    -0.075 A 
ATOM      2  C2  N4B d   1      -0.775   0.107   1.785  0.00  0.00     0.002 A 
ATOM      3  C3  N4B d   1      -1.131   1.210   1.048  0.00  0.00     0.002 A 
ATOM      4  C4  N4B d   1      -0.843   1.252  -0.308  0.00  0.00    -0.004 A 
ATOM      5  C5  N4B d   1      -0.248   0.183  -0.912  0.00  0.00     0.002 A 
ATOM      6  C6  N4B d   1       0.112  -0.934  -0.184  0.00  0.00     0.002 A 
ENDROOT
BRANCH   1   7
ATOM      7  C1' N4B d   1       0.350  -2.176   1.936  0.00  0.00     0.057 C 
BRANCH   7   8
ATOM      8  C2' N4B d   1       1.875  -2.158   1.979  0.00  0.00     0.009 C 
BRANCH   8   9
ATOM      9  C3' N4B d   1       2.481  -3.230   1.089  0.00  0.00     0.004 C 
ATOM     10  C4' N4B d   1       3.226  -2.660  -0.081  0.00  0.00     0.003 C 
ENDBRANCH   8   9
ENDBRANCH   7   8
ENDBRANCH   1   7
TORSDOF 3
ENDMDL
