MODEL 1
REMARK minimizedAffinity -2.88919926
REMARK minimizedRMSD -1
REMARK  3 active torsions:
REMARK  status: ('A' for Active; 'I' for Inactive)
REMARK    1  A    between atoms: C3'_2  and  C2'_3 
REMARK    2  A    between atoms: C2'_3  and  C1'_4 
REMARK    3  A    between atoms: C1'_4  and  C1_5 
ROOT
ATOM      1  C1  N4B d   1      -0.508   1.480  -1.813  0.00  0.00    -0.075 A 
ATOM      2  C2  N4B d   1      -1.780   2.083  -1.924  0.00  0.00     0.002 A 
ATOM      3  C3  N4B d   1      -1.884   3.408  -2.270  0.00  0.00     0.002 A 
ATOM      4  C4  N4B d   1      -0.734   4.152  -2.490  0.00  0.00    -0.004 A 
ATOM      5  C5  N4B d   1       0.490   3.555  -2.405  0.00  0.00     0.002 A 
ATOM      6  C6  N4B d   1       0.609   2.223  -2.062  0.00  0.00     0.002 A 
ENDROOT
BRANCH   1   7
ATOM      7  C1' N4B d   1      -0.341   0.057  -1.354  0.00  0.00     0.057 C 
BRANCH   7   8
ATOM      8  C2' N4B d   1       0.250   0.051   0.053  0.00  0.00     0.009 C 
BRANCH   8   9
ATOM      9  C3' N4B d   1      -0.814  -0.169   1.115  0.00  0.00     0.004 C 
ATOM     10  C4' N4B d   1      -0.288  -0.885   2.324  0.00  0.00     0.003 C 
ENDBRANCH   8   9
ENDBRANCH   7   8
ENDBRANCH   1   7
TORSDOF 3
ENDMDL
