MODEL 1
REMARK minimizedAffinity -3.28416181
REMARK minimizedRMSD -1
REMARK  1 active torsions:
REMARK  status: ('A' for Active; 'I' for Inactive)
REMARK    1  A    between atoms: C1_2  and  C2_3 
ROOT
ATOM      1  C2  UNL d   1      -1.005  -1.424   0.201  0.00  0.00    -0.081 A 
ATOM      2  C3  UNL d   1      -0.053  -1.221  -0.805  0.00  0.00     0.006 A 
ATOM      3  C4  UNL d   1       0.476   0.052  -1.034  0.00  0.00     0.002 A 
ATOM      4  C5  UNL d   1       0.069   1.140  -0.255  0.00  0.00    -0.080 A 
ATOM      5  C6  UNL d   1       0.651   2.505  -0.469  0.00  0.00     0.076 C 
ATOM      6  C7  UNL d   1      -0.895   0.941   0.740  0.00  0.00     0.002 A 
ATOM      7  C8  UNL d   1      -1.425  -0.331   0.968  0.00  0.00     0.006 A 
ENDROOT
BRANCH   1   8
ATOM      8  C1  UNL d   1      -1.529  -2.807   0.493  0.00  0.00     0.054 C 
ATOM      9  C   UNL d   1      -0.431  -3.853   0.368  0.00  0.00     0.018 C 
ENDBRANCH   1   8
TORSDOF 1
ENDMDL
