MODEL 1
REMARK minimizedAffinity -4.16479874
REMARK minimizedRMSD -1
REMARK  1 active torsions:
REMARK  status: ('A' for Active; 'I' for Inactive)
REMARK    1  A    between atoms: C1_2  and  C2_3 
ROOT
ATOM      1  C2  UNL d   1       0.355   0.681   0.003  0.00  0.00    -0.081 A 
ATOM      2  C3  UNL d   1      -0.144   0.049   1.149  0.00  0.00     0.006 A 
ATOM      3  C4  UNL d   1      -0.320  -1.337   1.173  0.00  0.00     0.002 A 
ATOM      4  C5  UNL d   1       0.007  -2.114   0.056  0.00  0.00    -0.080 A 
ATOM      5  C6  UNL d   1      -0.149  -3.605   0.080  0.00  0.00     0.076 C 
ATOM      6  C7  UNL d   1       0.488  -1.480  -1.094  0.00  0.00     0.002 A 
ATOM      7  C8  UNL d   1       0.664  -0.095  -1.120  0.00  0.00     0.006 A 
ENDROOT
BRANCH   1   8
ATOM      8  C1  UNL d   1       0.607   2.167  -0.004  0.00  0.00     0.054 C 
ATOM      9  C   UNL d   1       2.020   2.491   0.459  0.00  0.00     0.018 C 
ENDBRANCH   1   8
TORSDOF 1
ENDMDL
