MODEL 1
REMARK minimizedAffinity -4.29311466
REMARK minimizedRMSD -1
REMARK  1 active torsions:
REMARK  status: ('A' for Active; 'I' for Inactive)
REMARK    1  A    between atoms: C1_2  and  C2_3 
ROOT
ATOM      1  C2  UNL d   1      -1.412  -0.329   1.261  0.00  0.00    -0.081 A 
ATOM      2  C3  UNL d   1      -1.081   0.733   0.410  0.00  0.00     0.006 A 
ATOM      3  C4  UNL d   1      -0.549   0.486  -0.858  0.00  0.00     0.002 A 
ATOM      4  C5  UNL d   1      -0.347  -0.826  -1.299  0.00  0.00    -0.080 A 
ATOM      5  C6  UNL d   1       0.194  -1.106  -2.669  0.00  0.00     0.076 C 
ATOM      6  C7  UNL d   1      -0.662  -1.887  -0.443  0.00  0.00     0.002 A 
ATOM      7  C8  UNL d   1      -1.193  -1.641   0.825  0.00  0.00     0.006 A 
ENDROOT
BRANCH   1   8
ATOM      8  C1  UNL d   1      -2.046  -0.067   2.603  0.00  0.00     0.054 C 
ATOM      9  C   UNL d   1      -3.123   1.003   2.507  0.00  0.00     0.018 C 
ENDBRANCH   1   8
TORSDOF 1
ENDMDL
