MODEL 1
REMARK minimizedAffinity -4.69972181
REMARK minimizedRMSD -1
REMARK  1 active torsions:
REMARK  status: ('A' for Active; 'I' for Inactive)
REMARK    1  A    between atoms: C1_2  and  C2_3 
ROOT
ATOM      1  C2  UNL d   1      -0.620  -1.443   0.106  0.00  0.00    -0.081 A 
ATOM      2  C3  UNL d   1      -0.577  -0.725   1.308  0.00  0.00     0.006 A 
ATOM      3  C4  UNL d   1      -0.219   0.626   1.313  0.00  0.00     0.002 A 
ATOM      4  C5  UNL d   1       0.093   1.282   0.117  0.00  0.00    -0.080 A 
ATOM      5  C6  UNL d   1       0.450   2.739   0.106  0.00  0.00     0.076 C 
ATOM      6  C7  UNL d   1       0.067   0.560  -1.081  0.00  0.00     0.002 A 
ATOM      7  C8  UNL d   1      -0.290  -0.790  -1.087  0.00  0.00     0.006 A 
ENDROOT
BRANCH   1   8
ATOM      8  C1  UNL d   1      -1.069  -2.882   0.090  0.00  0.00     0.054 C 
ATOM      9  C   UNL d   1       0.120  -3.831   0.039  0.00  0.00     0.018 C 
ENDBRANCH   1   8
TORSDOF 1
ENDMDL
