MODEL 1
REMARK minimizedAffinity -3.8948133
REMARK minimizedRMSD -1
REMARK  1 active torsions:
REMARK  status: ('A' for Active; 'I' for Inactive)
REMARK    1  A    between atoms: C1_2  and  C2_3 
ROOT
ATOM      1  C2  UNL d   1      -0.144   0.913   0.002  0.00  0.00    -0.081 A 
ATOM      2  C3  UNL d   1      -1.016   0.407   0.974  0.00  0.00     0.006 A 
ATOM      3  C4  UNL d   1      -1.155  -0.971   1.152  0.00  0.00     0.002 A 
ATOM      4  C5  UNL d   1      -0.421  -1.866   0.367  0.00  0.00    -0.080 A 
ATOM      5  C6  UNL d   1      -0.539  -3.348   0.568  0.00  0.00     0.076 C 
ATOM      6  C7  UNL d   1       0.436  -1.362  -0.617  0.00  0.00     0.002 A 
ATOM      7  C8  UNL d   1       0.576   0.017  -0.795  0.00  0.00     0.006 A 
ENDROOT
BRANCH   1   8
ATOM      8  C1  UNL d   1       0.057   2.399  -0.149  0.00  0.00     0.054 C 
ATOM      9  C   UNL d   1       1.337   2.856   0.537  0.00  0.00     0.018 C 
ENDBRANCH   1   8
TORSDOF 1
ENDMDL
