MODEL 1
REMARK minimizedAffinity -4.67336416
REMARK minimizedRMSD -1
REMARK  1 active torsions:
REMARK  status: ('A' for Active; 'I' for Inactive)
REMARK    1  A    between atoms: C1_2  and  C2_3 
ROOT
ATOM      1  C2  UNL d   1      -0.075   0.845   0.148  0.00  0.00    -0.081 A 
ATOM      2  C3  UNL d   1      -1.178   0.064   0.514  0.00  0.00     0.006 A 
ATOM      3  C4  UNL d   1      -1.128  -1.328   0.407  0.00  0.00     0.002 A 
ATOM      4  C5  UNL d   1       0.029  -1.962  -0.061  0.00  0.00    -0.080 A 
ATOM      5  C6  UNL d   1       0.107  -3.457  -0.152  0.00  0.00     0.076 C 
ATOM      6  C7  UNL d   1       1.124  -1.181  -0.443  0.00  0.00     0.002 A 
ATOM      7  C8  UNL d   1       1.074   0.211  -0.336  0.00  0.00     0.006 A 
ENDROOT
BRANCH   1   8
ATOM      8  C1  UNL d   1      -0.104   2.341   0.324  0.00  0.00     0.054 C 
ATOM      9  C   UNL d   1       1.291   2.896   0.576  0.00  0.00     0.018 C 
ENDBRANCH   1   8
TORSDOF 1
ENDMDL
