MODEL 1
REMARK minimizedAffinity -4.489995
REMARK minimizedRMSD -1
REMARK  1 active torsions:
REMARK  status: ('A' for Active; 'I' for Inactive)
REMARK    1  A    between atoms: C1_2  and  C2_3 
ROOT
ATOM      1  C2  UNL d   1       0.213   0.839  -0.042  0.00  0.00    -0.081 A 
ATOM      2  C3  UNL d   1      -0.437   0.207   1.026  0.00  0.00     0.006 A 
ATOM      3  C4  UNL d   1      -0.529  -1.186   1.075  0.00  0.00     0.002 A 
ATOM      4  C5  UNL d   1       0.033  -1.970   0.062  0.00  0.00    -0.080 A 
ATOM      5  C6  UNL d   1      -0.032  -3.467   0.117  0.00  0.00     0.076 C 
ATOM      6  C7  UNL d   1       0.667  -1.338  -1.014  0.00  0.00     0.002 A 
ATOM      7  C8  UNL d   1       0.759   0.054  -1.063  0.00  0.00     0.006 A 
ENDROOT
BRANCH   1   8
ATOM      8  C1  UNL d   1       0.370   2.338  -0.064  0.00  0.00     0.054 C 
ATOM      9  C   UNL d   1       1.721   2.761   0.496  0.00  0.00     0.018 C 
ENDBRANCH   1   8
TORSDOF 1
ENDMDL
