MODEL 1
REMARK minimizedAffinity -5.91851139
REMARK minimizedRMSD -1
REMARK  1 active torsions:
REMARK  status: ('A' for Active; 'I' for Inactive)
REMARK    1  A    between atoms: C1_2  and  C2_3 
ROOT
ATOM      1  C2  UNL d   1       0.344   1.086   0.333  0.00  0.00    -0.081 A 
ATOM      2  C3  UNL d   1      -0.425   0.493   1.342  0.00  0.00     0.006 A 
ATOM      3  C4  UNL d   1      -0.611  -0.891   1.370  0.00  0.00     0.002 A 
ATOM      4  C5  UNL d   1      -0.024  -1.706   0.396  0.00  0.00    -0.080 A 
ATOM      5  C6  UNL d   1      -0.191  -3.196   0.432  0.00  0.00     0.076 C 
ATOM      6  C7  UNL d   1       0.730  -1.112  -0.622  0.00  0.00     0.002 A 
ATOM      7  C8  UNL d   1       0.915   0.272  -0.651  0.00  0.00     0.006 A 
ENDROOT
BRANCH   1   8
ATOM      8  C1  UNL d   1       0.599   2.571   0.337  0.00  0.00     0.054 C 
ATOM      9  C   UNL d   1       2.025   2.887   0.767  0.00  0.00     0.018 C 
ENDBRANCH   1   8
TORSDOF 1
ENDMDL
