MODEL 1
REMARK minimizedAffinity -4.83659601
REMARK minimizedRMSD -1
REMARK  1 active torsions:
REMARK  status: ('A' for Active; 'I' for Inactive)
REMARK    1  A    between atoms: C1_2  and  C2_3 
ROOT
ATOM      1  C2  UNL d   1       0.127   1.178  -0.130  0.00  0.00    -0.081 A 
ATOM      2  C3  UNL d   1      -0.552   0.661   0.980  0.00  0.00     0.006 A 
ATOM      3  C4  UNL d   1      -0.665  -0.720   1.162  0.00  0.00     0.002 A 
ATOM      4  C5  UNL d   1      -0.095  -1.606   0.241  0.00  0.00    -0.080 A 
ATOM      5  C6  UNL d   1      -0.182  -3.090   0.440  0.00  0.00     0.076 C 
ATOM      6  C7  UNL d   1       0.568  -1.089  -0.877  0.00  0.00     0.002 A 
ATOM      7  C8  UNL d   1       0.681   0.291  -1.060  0.00  0.00     0.006 A 
ENDROOT
BRANCH   1   8
ATOM      8  C1  UNL d   1       0.306   2.665  -0.294  0.00  0.00     0.054 C 
ATOM      9  C   UNL d   1       1.687   3.110   0.165  0.00  0.00     0.018 C 
ENDBRANCH   1   8
TORSDOF 1
ENDMDL
