MODEL 1
REMARK minimizedAffinity -1.66917133
REMARK minimizedRMSD -1
REMARK  1 active torsions:
REMARK  status: ('A' for Active; 'I' for Inactive)
REMARK    1  A    between atoms: C1_2  and  C2_3 
ROOT
ATOM      1  C2  UNL d   1       0.351   1.148  -0.220  0.00  0.00    -0.081 A 
ATOM      2  C3  UNL d   1      -0.359   0.903   0.962  0.00  0.00     0.006 A 
ATOM      3  C4  UNL d   1      -1.003  -0.320   1.160  0.00  0.00     0.002 A 
ATOM      4  C5  UNL d   1      -0.941  -1.322   0.185  0.00  0.00    -0.080 A 
ATOM      5  C6  UNL d   1      -1.602  -2.651   0.399  0.00  0.00     0.076 C 
ATOM      6  C7  UNL d   1      -0.246  -1.071  -1.003  0.00  0.00     0.002 A 
ATOM      7  C8  UNL d   1       0.398   0.153  -1.202  0.00  0.00     0.006 A 
ENDROOT
BRANCH   1   8
ATOM      8  C1  UNL d   1       1.100   2.442  -0.410  0.00  0.00     0.054 C 
ATOM      9  C   UNL d   1       1.079   3.285   0.858  0.00  0.00     0.018 C 
ENDBRANCH   1   8
TORSDOF 1
ENDMDL
