MODEL 1
REMARK minimizedAffinity -3.40715718
REMARK minimizedRMSD -1
REMARK  1 active torsions:
REMARK  status: ('A' for Active; 'I' for Inactive)
REMARK    1  A    between atoms: C1_2  and  C2_3 
ROOT
ATOM      1  C2  UNL d   1       0.501   0.468  -0.123  0.00  0.00    -0.081 A 
ATOM      2  C3  UNL d   1       1.758   0.957  -0.499  0.00  0.00     0.006 A 
ATOM      3  C4  UNL d   1       2.162   2.239  -0.119  0.00  0.00     0.002 A 
ATOM      4  C5  UNL d   1       1.321   3.050   0.650  0.00  0.00    -0.080 A 
ATOM      5  C6  UNL d   1       1.755   4.416   1.090  0.00  0.00     0.076 C 
ATOM      6  C7  UNL d   1       0.058   2.568   1.011  0.00  0.00     0.002 A 
ATOM      7  C8  UNL d   1      -0.347   1.287   0.630  0.00  0.00     0.006 A 
ENDROOT
BRANCH   1   8
ATOM      8  C1  UNL d   1       0.088  -0.938  -0.477  0.00  0.00     0.054 C 
ATOM      9  C   UNL d   1      -0.653  -1.603   0.674  0.00  0.00     0.018 C 
ENDBRANCH   1   8
TORSDOF 1
ENDMDL
