MODEL 1
REMARK minimizedAffinity -3.60025311
REMARK minimizedRMSD -1
REMARK  1 active torsions:
REMARK  status: ('A' for Active; 'I' for Inactive)
REMARK    1  A    between atoms: C1_2  and  C2_3 
ROOT
ATOM      1  C2  UNL d   1      -0.232   0.440   0.105  0.00  0.00    -0.081 A 
ATOM      2  C3  UNL d   1      -1.118  -0.286   0.910  0.00  0.00     0.006 A 
ATOM      3  C4  UNL d   1      -1.009  -1.675   1.011  0.00  0.00     0.002 A 
ATOM      4  C5  UNL d   1      -0.007  -2.360   0.315  0.00  0.00    -0.080 A 
ATOM      5  C6  UNL d   1       0.140  -3.848   0.438  0.00  0.00     0.076 C 
ATOM      6  C7  UNL d   1       0.868  -1.637  -0.503  0.00  0.00     0.002 A 
ATOM      7  C8  UNL d   1       0.758  -0.249  -0.605  0.00  0.00     0.006 A 
ENDROOT
BRANCH   1   8
ATOM      8  C1  UNL d   1      -0.306   1.944   0.045  0.00  0.00     0.054 C 
ATOM      9  C   UNL d   1       0.949   2.584   0.620  0.00  0.00     0.018 C 
ENDBRANCH   1   8
TORSDOF 1
ENDMDL
