MODEL 1
REMARK minimizedAffinity -2.42814302
REMARK minimizedRMSD -1
REMARK  1 active torsions:
REMARK  status: ('A' for Active; 'I' for Inactive)
REMARK    1  A    between atoms: C1_2  and  C2_3 
ROOT
ATOM      1  C2  UNL d   1      -0.441  -1.645  -0.037  0.00  0.00    -0.081 A 
ATOM      2  C3  UNL d   1       0.357  -1.001  -0.990  0.00  0.00     0.006 A 
ATOM      3  C4  UNL d   1       0.485   0.390  -0.984  0.00  0.00     0.002 A 
ATOM      4  C5  UNL d   1      -0.177   1.159  -0.021  0.00  0.00    -0.080 A 
ATOM      5  C6  UNL d   1      -0.024   2.651   0.016  0.00  0.00     0.076 C 
ATOM      6  C7  UNL d   1      -0.988   0.517   0.921  0.00  0.00     0.002 A 
ATOM      7  C8  UNL d   1      -1.117  -0.874   0.915  0.00  0.00     0.006 A 
ENDROOT
BRANCH   1   8
ATOM      8  C1  UNL d   1      -0.529  -3.149  -0.001  0.00  0.00     0.054 C 
ATOM      9  C   UNL d   1       0.791  -3.771   0.434  0.00  0.00     0.018 C 
ENDBRANCH   1   8
TORSDOF 1
ENDMDL
