MODEL 1
REMARK minimizedAffinity -2.30948544
REMARK minimizedRMSD -1
REMARK  1 active torsions:
REMARK  status: ('A' for Active; 'I' for Inactive)
REMARK    1  A    between atoms: C1_2  and  C2_3 
ROOT
ATOM      1  C2  UNL d   1      -0.161  -0.886   0.518  0.00  0.00    -0.081 A 
ATOM      2  C3  UNL d   1      -1.085  -0.076  -0.152  0.00  0.00     0.006 A 
ATOM      3  C4  UNL d   1      -0.825   1.283  -0.348  0.00  0.00     0.002 A 
ATOM      4  C5  UNL d   1       0.367   1.851   0.116  0.00  0.00    -0.080 A 
ATOM      5  C6  UNL d   1       0.672   3.301  -0.115  0.00  0.00     0.076 C 
ATOM      6  C7  UNL d   1       1.282   1.045   0.801  0.00  0.00     0.002 A 
ATOM      7  C8  UNL d   1       1.022  -0.313   0.998  0.00  0.00     0.006 A 
ENDROOT
BRANCH   1   8
ATOM      8  C1  UNL d   1      -0.409  -2.365   0.675  0.00  0.00     0.054 C 
ATOM      9  C   UNL d   1      -0.672  -3.027  -0.671  0.00  0.00     0.018 C 
ENDBRANCH   1   8
TORSDOF 1
ENDMDL
