MODEL 1
REMARK minimizedAffinity 2.54423499
REMARK minimizedRMSD -1
REMARK  0 active torsions:
REMARK  status: ('A' for Active; 'I' for Inactive)
ROOT
ATOM      1  C   UNL d   1      -3.007   4.170   2.947  0.00  0.00     0.172 C 
ATOM      2  N   UNL d   1      -3.038   4.910   4.187  0.00  0.00    -0.070 N 
ATOM      3  C1  UNL d   1      -4.168   5.300   4.856  0.00  0.00    -0.004 A 
ATOM      4  C2  UNL d   1      -3.774   5.979   5.989  0.00  0.00    -0.047 A 
ATOM      5  C3  UNL d   1      -2.359   6.000   6.000  0.00  0.00    -0.047 A 
ATOM      6  C4  UNL d   1      -1.930   5.331   4.873  0.00  0.00    -0.004 A 
ENDROOT
TORSDOF 0
ENDMDL
