MODEL 1
REMARK minimizedAffinity 7.89096737
REMARK minimizedRMSD -1
REMARK  0 active torsions:
REMARK  status: ('A' for Active; 'I' for Inactive)
ROOT
ATOM      1  C   UNL d   1      -3.003   3.649   3.020  0.00  0.00     0.172 C 
ATOM      2  N   UNL d   1      -3.093   2.238   2.724  0.00  0.00    -0.070 N 
ATOM      3  C1  UNL d   1      -2.155   1.294   3.045  0.00  0.00    -0.004 A 
ATOM      4  C2  UNL d   1      -2.612   0.075   2.593  0.00  0.00    -0.047 A 
ATOM      5  C3  UNL d   1      -3.867   0.294   1.978  0.00  0.00    -0.047 A 
ATOM      6  C4  UNL d   1      -4.141   1.642   2.073  0.00  0.00    -0.004 A 
ENDROOT
TORSDOF 0
ENDMDL
