MODEL 1
REMARK minimizedAffinity 3.32028437
REMARK minimizedRMSD -1
REMARK  0 active torsions:
REMARK  status: ('A' for Active; 'I' for Inactive)
ROOT
ATOM      1  C   UNL d   1       5.931  -3.850   5.005  0.00  0.00     0.172 C 
ATOM      2  N   UNL d   1       5.948  -2.409   4.909  0.00  0.00    -0.070 N 
ATOM      3  C1  UNL d   1       5.915  -1.686   3.747  0.00  0.00    -0.004 A 
ATOM      4  C2  UNL d   1       5.945  -0.349   4.080  0.00  0.00    -0.047 A 
ATOM      5  C3  UNL d   1       5.999  -0.266   5.492  0.00  0.00    -0.047 A 
ATOM      6  C4  UNL d   1       6.000  -1.556   5.980  0.00  0.00    -0.004 A 
ENDROOT
TORSDOF 0
ENDMDL
