MODEL 1
REMARK minimizedAffinity 0.0392759368
REMARK minimizedRMSD -1
REMARK  0 active torsions:
REMARK  status: ('A' for Active; 'I' for Inactive)
ROOT
ATOM      1  C   UNL d   1      -2.605   3.612   2.993  0.00  0.00     0.172 C 
ATOM      2  N   UNL d   1      -3.173   4.539   3.945  0.00  0.00    -0.070 N 
ATOM      3  C1  UNL d   1      -2.627   4.875   5.155  0.00  0.00    -0.004 A 
ATOM      4  C2  UNL d   1      -3.469   5.783   5.759  0.00  0.00    -0.047 A 
ATOM      5  C3  UNL d   1      -4.558   6.000   4.883  0.00  0.00    -0.047 A 
ATOM      6  C4  UNL d   1      -4.350   5.217   3.767  0.00  0.00    -0.004 A 
ENDROOT
TORSDOF 0
ENDMDL
