MODEL 1
REMARK minimizedAffinity 7.58716154
REMARK minimizedRMSD -1
REMARK  0 active torsions:
REMARK  status: ('A' for Active; 'I' for Inactive)
ROOT
ATOM      1  C   UNL d   1       2.767  -5.783   3.171  0.00  0.00     0.172 C 
ATOM      2  N   UNL d   1       3.884  -5.859   4.084  0.00  0.00    -0.070 N 
ATOM      3  C1  UNL d   1       5.203  -5.947   3.726  0.00  0.00    -0.004 A 
ATOM      4  C2  UNL d   1       5.952  -5.998   4.882  0.00  0.00    -0.047 A 
ATOM      5  C3  UNL d   1       5.052  -5.939   5.972  0.00  0.00    -0.047 A 
ATOM      6  C4  UNL d   1       3.778  -5.853   5.449  0.00  0.00    -0.004 A 
ENDROOT
TORSDOF 0
ENDMDL
