MODEL 1
REMARK minimizedAffinity 4.62807274
REMARK minimizedRMSD -1
REMARK  0 active torsions:
REMARK  status: ('A' for Active; 'I' for Inactive)
ROOT
ATOM      1  C   UNL d   1      -2.626   2.502   3.845  0.00  0.00     0.172 C 
ATOM      2  N   UNL d   1      -2.749   3.796   4.473  0.00  0.00    -0.070 N 
ATOM      3  C1  UNL d   1      -3.003   4.019   5.800  0.00  0.00    -0.004 A 
ATOM      4  C2  UNL d   1      -3.044   5.382   6.000  0.00  0.00    -0.047 A 
ATOM      5  C3  UNL d   1      -2.808   6.000   4.749  0.00  0.00    -0.047 A 
ATOM      6  C4  UNL d   1      -2.628   4.995   3.822  0.00  0.00    -0.004 A 
ENDROOT
TORSDOF 0
ENDMDL
