MODEL 1
REMARK minimizedAffinity 3.36970568
REMARK minimizedRMSD -1
REMARK  0 active torsions:
REMARK  status: ('A' for Active; 'I' for Inactive)
ROOT
ATOM      1  C   UNL d   1       5.910  -2.496   5.268  0.00  0.00     0.172 C 
ATOM      2  N   UNL d   1       5.366  -3.826   5.413  0.00  0.00    -0.070 N 
ATOM      3  C1  UNL d   1       6.000  -4.888   6.000  0.00  0.00    -0.004 A 
ATOM      4  C2  UNL d   1       5.151  -5.972   5.940  0.00  0.00    -0.047 A 
ATOM      5  C3  UNL d   1       3.966  -5.546   5.294  0.00  0.00    -0.047 A 
ATOM      6  C4  UNL d   1       4.126  -4.213   4.978  0.00  0.00    -0.004 A 
ENDROOT
TORSDOF 0
ENDMDL
