MODEL 1
REMARK minimizedAffinity -3.40096092
REMARK minimizedRMSD -1
REMARK  0 active torsions:
REMARK  status: ('A' for Active; 'I' for Inactive)
ROOT
ATOM      1  C   UNL d   1       5.861  -0.508   4.666  0.00  0.00     0.172 C 
ATOM      2  N   UNL d   1       5.239  -1.787   4.913  0.00  0.00    -0.070 N 
ATOM      3  C1  UNL d   1       5.673  -2.727   5.809  0.00  0.00    -0.004 A 
ATOM      4  C2  UNL d   1       4.812  -3.801   5.745  0.00  0.00    -0.047 A 
ATOM      5  C3  UNL d   1       3.826  -3.497   4.776  0.00  0.00    -0.047 A 
ATOM      6  C4  UNL d   1       4.115  -2.244   4.277  0.00  0.00    -0.004 A 
ENDROOT
TORSDOF 0
ENDMDL
