MODEL 1
REMARK minimizedAffinity -1.80923092
REMARK minimizedRMSD -1
REMARK  0 active torsions:
REMARK  status: ('A' for Active; 'I' for Inactive)
ROOT
ATOM      1  C   UNL d   1      -3.131   5.888   4.960  0.00  0.00     0.172 C 
ATOM      2  N   UNL d   1      -3.548   5.483   3.638  0.00  0.00    -0.070 N 
ATOM      3  C1  UNL d   1      -4.818   5.584   3.135  0.00  0.00    -0.004 A 
ATOM      4  C2  UNL d   1      -4.803   5.094   1.847  0.00  0.00    -0.047 A 
ATOM      5  C3  UNL d   1      -3.478   4.684   1.566  0.00  0.00    -0.047 A 
ATOM      6  C4  UNL d   1      -2.722   4.936   2.692  0.00  0.00    -0.004 A 
ENDROOT
TORSDOF 0
ENDMDL
