MODEL 1
REMARK minimizedAffinity 2.3436234
REMARK minimizedRMSD -1
REMARK  0 active torsions:
REMARK  status: ('A' for Active; 'I' for Inactive)
ROOT
ATOM      1  C   UNL d   1      -0.858   6.000   6.000  0.00  0.00     0.172 C 
ATOM      2  N   UNL d   1      -2.008   5.458   5.314  0.00  0.00    -0.070 N 
ATOM      3  C1  UNL d   1      -3.294   5.915   5.428  0.00  0.00    -0.004 A 
ATOM      4  C2  UNL d   1      -4.092   5.137   4.618  0.00  0.00    -0.047 A 
ATOM      5  C3  UNL d   1      -3.257   4.178   3.997  0.00  0.00    -0.047 A 
ATOM      6  C4  UNL d   1      -1.972   4.400   4.446  0.00  0.00    -0.004 A 
ENDROOT
TORSDOF 0
ENDMDL
