MODEL 1
REMARK minimizedAffinity 5.63123894
REMARK minimizedRMSD -1
REMARK  0 active torsions:
REMARK  status: ('A' for Active; 'I' for Inactive)
ROOT
ATOM      1  C   UNL d   1       2.566   3.301  -2.264  0.00  0.00     0.172 C 
ATOM      2  N   UNL d   1       1.900   2.058  -2.576  0.00  0.00    -0.070 N 
ATOM      3  C1  UNL d   1       1.973   0.906  -1.840  0.00  0.00    -0.004 A 
ATOM      4  C2  UNL d   1       1.200  -0.047  -2.468  0.00  0.00    -0.047 A 
ATOM      5  C3  UNL d   1       0.644   0.553  -3.623  0.00  0.00    -0.047 A 
ATOM      6  C4  UNL d   1       1.093   1.856  -3.665  0.00  0.00    -0.004 A 
ENDROOT
TORSDOF 0
ENDMDL
