MODEL 1
REMARK minimizedAffinity 1.37621868
REMARK minimizedRMSD -1
REMARK  0 active torsions:
REMARK  status: ('A' for Active; 'I' for Inactive)
ROOT
ATOM      1  C   UNL d   1      -5.408   5.992   4.150  0.00  0.00     0.172 C 
ATOM      2  N   UNL d   1      -4.039   5.993   4.608  0.00  0.00    -0.070 N 
ATOM      3  C1  UNL d   1      -2.929   5.991   3.806  0.00  0.00    -0.004 A 
ATOM      4  C2  UNL d   1      -1.818   5.994   4.622  0.00  0.00    -0.047 A 
ATOM      5  C3  UNL d   1      -2.277   5.997   5.961  0.00  0.00    -0.047 A 
ATOM      6  C4  UNL d   1      -3.655   5.996   5.923  0.00  0.00    -0.004 A 
ENDROOT
TORSDOF 0
ENDMDL
