MODEL 1
REMARK minimizedAffinity 2.21578217
REMARK minimizedRMSD -1
REMARK  0 active torsions:
REMARK  status: ('A' for Active; 'I' for Inactive)
ROOT
ATOM      1  C   UNL d   1       2.230   3.451  -0.621  0.00  0.00     0.172 C 
ATOM      2  N   UNL d   1       1.916   2.405  -1.566  0.00  0.00    -0.070 N 
ATOM      3  C1  UNL d   1       2.106   2.469  -2.920  0.00  0.00    -0.004 A 
ATOM      4  C2  UNL d   1       1.684   1.275  -3.463  0.00  0.00    -0.047 A 
ATOM      5  C3  UNL d   1       1.223   0.465  -2.398  0.00  0.00    -0.047 A 
ATOM      6  C4  UNL d   1       1.378   1.190  -1.234  0.00  0.00    -0.004 A 
ENDROOT
TORSDOF 0
ENDMDL
