MODEL 1
REMARK minimizedAffinity 2.95852041
REMARK minimizedRMSD -1
REMARK  0 active torsions:
REMARK  status: ('A' for Active; 'I' for Inactive)
ROOT
ATOM      1  C   UNL d   1       1.900  -2.683  -3.027  0.00  0.00     0.172 C 
ATOM      2  N   UNL d   1       1.893  -1.256  -2.803  0.00  0.00    -0.070 N 
ATOM      3  C1  UNL d   1       1.125  -0.345  -3.478  0.00  0.00    -0.004 A 
ATOM      4  C2  UNL d   1       1.408   0.904  -2.970  0.00  0.00    -0.047 A 
ATOM      5  C3  UNL d   1       2.381   0.739  -1.956  0.00  0.00    -0.047 A 
ATOM      6  C4  UNL d   1       2.663  -0.608  -1.873  0.00  0.00    -0.004 A 
ENDROOT
TORSDOF 0
ENDMDL
