MODEL 1
REMARK minimizedAffinity 8.26387978
REMARK minimizedRMSD -1
REMARK  0 active torsions:
REMARK  status: ('A' for Active; 'I' for Inactive)
ROOT
ATOM      1  C   UNL d   1      -3.338  -0.645   2.456  0.00  0.00     0.172 C 
ATOM      2  N   UNL d   1      -4.277  -0.395   3.524  0.00  0.00    -0.070 N 
ATOM      3  C1  UNL d   1      -5.354   0.449   3.459  0.00  0.00    -0.004 A 
ATOM      4  C2  UNL d   1      -5.997   0.408   4.677  0.00  0.00    -0.047 A 
ATOM      5  C3  UNL d   1      -5.282  -0.491   5.503  0.00  0.00    -0.047 A 
ATOM      6  C4  UNL d   1      -4.222  -0.974   4.764  0.00  0.00    -0.004 A 
ENDROOT
TORSDOF 0
ENDMDL
