MODEL 1
REMARK minimizedAffinity 0.836220682
REMARK minimizedRMSD -1
REMARK  0 active torsions:
REMARK  status: ('A' for Active; 'I' for Inactive)
ROOT
ATOM      1  C   UNL d   1      -5.793   0.032   5.917  0.00  0.00     0.172 C 
ATOM      2  N   UNL d   1      -5.213   0.748   4.805  0.00  0.00    -0.070 N 
ATOM      3  C1  UNL d   1      -5.260   2.104   4.617  0.00  0.00    -0.004 A 
ATOM      4  C2  UNL d   1      -4.593   2.391   3.446  0.00  0.00    -0.047 A 
ATOM      5  C3  UNL d   1      -4.130   1.166   2.911  0.00  0.00    -0.047 A 
ATOM      6  C4  UNL d   1      -4.528   0.165   3.772  0.00  0.00    -0.004 A 
ENDROOT
TORSDOF 0
ENDMDL
