MODEL 1
REMARK minimizedAffinity 4.52821779
REMARK minimizedRMSD -1
REMARK  0 active torsions:
REMARK  status: ('A' for Active; 'I' for Inactive)
ROOT
ATOM      1  C   UNL d   1       1.330   0.758  -4.843  0.00  0.00     0.172 C 
ATOM      2  N   UNL d   1       1.621   0.167  -3.557  0.00  0.00    -0.070 N 
ATOM      3  C1  UNL d   1       2.111   0.833  -2.466  0.00  0.00    -0.004 A 
ATOM      4  C2  UNL d   1       2.249  -0.080  -1.442  0.00  0.00    -0.047 A 
ATOM      5  C3  UNL d   1       1.828  -1.337  -1.936  0.00  0.00    -0.047 A 
ATOM      6  C4  UNL d   1       1.444  -1.156  -3.248  0.00  0.00    -0.004 A 
ENDROOT
TORSDOF 0
ENDMDL
