MODEL 1
REMARK minimizedAffinity -4.09968519
REMARK minimizedRMSD -1
REMARK  0 active torsions:
REMARK  status: ('A' for Active; 'I' for Inactive)
ROOT
ATOM      1  C   UNL d   1       0.882   1.433  -0.795  0.00  0.00     0.078 C 
ATOM      2  C1  UNL d   1       0.579   0.080  -0.223  0.00  0.00    -0.077 A 
ATOM      3  C2  UNL d   1       1.530  -0.946  -0.255  0.00  0.00    -0.001 A 
ATOM      4  C3  UNL d   1       1.231  -2.203   0.272  0.00  0.00     0.003 A 
ATOM      5  C4  UNL d   1      -0.021  -2.446   0.834  0.00  0.00    -0.005 A 
ATOM      6  C5  UNL d   1      -0.975  -1.431   0.869  0.00  0.00     0.003 A 
ATOM      7  C6  UNL d   1      -0.677  -0.173   0.342  0.00  0.00    -0.001 A 
ENDROOT
TORSDOF 0
ENDMDL
