MODEL 1
REMARK minimizedAffinity -2.6496253
REMARK minimizedRMSD -1
REMARK  0 active torsions:
REMARK  status: ('A' for Active; 'I' for Inactive)
ROOT
ATOM      1  C   UNL d   1       0.417   1.867  -2.151  0.00  0.00     0.078 C 
ATOM      2  C1  UNL d   1       0.482   0.643  -1.287  0.00  0.00    -0.077 A 
ATOM      3  C2  UNL d   1       0.877  -0.592  -1.815  0.00  0.00    -0.001 A 
ATOM      4  C3  UNL d   1       0.923  -1.725  -1.001  0.00  0.00     0.003 A 
ATOM      5  C4  UNL d   1       0.574  -1.635   0.345  0.00  0.00    -0.005 A 
ATOM      6  C5  UNL d   1       0.178  -0.410   0.879  0.00  0.00     0.003 A 
ATOM      7  C6  UNL d   1       0.131   0.724   0.066  0.00  0.00    -0.001 A 
ENDROOT
TORSDOF 0
ENDMDL
