MODEL 1
REMARK minimizedAffinity -1.59536731
REMARK minimizedRMSD -1
REMARK  0 active torsions:
REMARK  status: ('A' for Active; 'I' for Inactive)
ROOT
ATOM      1  C   UNL d   1       0.743   2.348  -0.735  0.00  0.00     0.078 C 
ATOM      2  C1  UNL d   1       0.596   0.890  -0.418  0.00  0.00    -0.077 A 
ATOM      3  C2  UNL d   1      -0.294   0.082  -1.137  0.00  0.00    -0.001 A 
ATOM      4  C3  UNL d   1      -0.428  -1.272  -0.824  0.00  0.00     0.003 A 
ATOM      5  C4  UNL d   1       0.324  -1.829   0.208  0.00  0.00    -0.005 A 
ATOM      6  C5  UNL d   1       1.210  -1.033   0.930  0.00  0.00     0.003 A 
ATOM      7  C6  UNL d   1       1.345   0.321   0.619  0.00  0.00    -0.001 A 
ENDROOT
TORSDOF 0
ENDMDL
