MODEL 1
REMARK minimizedAffinity -5.29945564
REMARK minimizedRMSD -1
REMARK  0 active torsions:
REMARK  status: ('A' for Active; 'I' for Inactive)
ROOT
ATOM      1  C   UNL d   1       0.079   0.412  -0.765  0.00  0.00     0.078 C 
ATOM      2  C1  UNL d   1      -0.730  -0.493   0.115  0.00  0.00    -0.077 A 
ATOM      3  C2  UNL d   1      -1.866  -0.022   0.785  0.00  0.00    -0.001 A 
ATOM      4  C3  UNL d   1      -2.604  -0.873   1.608  0.00  0.00     0.003 A 
ATOM      5  C4  UNL d   1      -2.214  -2.201   1.771  0.00  0.00    -0.005 A 
ATOM      6  C5  UNL d   1      -1.084  -2.679   1.110  0.00  0.00     0.003 A 
ATOM      7  C6  UNL d   1      -0.345  -1.829   0.286  0.00  0.00    -0.001 A 
ENDROOT
TORSDOF 0
ENDMDL
