MODEL 1
REMARK minimizedAffinity -2.70285773
REMARK minimizedRMSD -1
REMARK  0 active torsions:
REMARK  status: ('A' for Active; 'I' for Inactive)
ROOT
ATOM      1  C   UNL d   1       0.482   0.902  -0.619  0.00  0.00     0.078 C 
ATOM      2  C1  UNL d   1       0.050  -0.293   0.177  0.00  0.00    -0.077 A 
ATOM      3  C2  UNL d   1       0.715  -1.519   0.057  0.00  0.00    -0.001 A 
ATOM      4  C3  UNL d   1       0.296  -2.625   0.798  0.00  0.00     0.003 A 
ATOM      5  C4  UNL d   1      -0.790  -2.517   1.663  0.00  0.00    -0.005 A 
ATOM      6  C5  UNL d   1      -1.460  -1.302   1.788  0.00  0.00     0.003 A 
ATOM      7  C6  UNL d   1      -1.043  -0.194   1.048  0.00  0.00    -0.001 A 
ENDROOT
TORSDOF 0
ENDMDL
