MODEL 1
REMARK minimizedAffinity -3.87899065
REMARK minimizedRMSD -1
REMARK  0 active torsions:
REMARK  status: ('A' for Active; 'I' for Inactive)
ROOT
ATOM      1  C   UNL d   1       0.372   2.368  -2.504  0.00  0.00     0.078 C 
ATOM      2  C1  UNL d   1       0.341   1.171  -1.602  0.00  0.00    -0.077 A 
ATOM      3  C2  UNL d   1       0.100  -0.110  -2.111  0.00  0.00    -0.001 A 
ATOM      4  C3  UNL d   1       0.064  -1.215  -1.258  0.00  0.00     0.003 A 
ATOM      5  C4  UNL d   1       0.268  -1.048   0.110  0.00  0.00    -0.005 A 
ATOM      6  C5  UNL d   1       0.506   0.223   0.627  0.00  0.00     0.003 A 
ATOM      7  C6  UNL d   1       0.543   1.329  -0.225  0.00  0.00    -0.001 A 
ENDROOT
TORSDOF 0
ENDMDL
