MODEL 1
REMARK minimizedAffinity -4.7352562
REMARK minimizedRMSD -1
REMARK  0 active torsions:
REMARK  status: ('A' for Active; 'I' for Inactive)
ROOT
ATOM      1  C   UNL d   1      -1.871  -1.967   1.531  0.00  0.00     0.078 C 
ATOM      2  C1  UNL d   1      -1.126  -0.845   0.872  0.00  0.00    -0.077 A 
ATOM      3  C2  UNL d   1       0.007  -1.094   0.088  0.00  0.00    -0.001 A 
ATOM      4  C3  UNL d   1       0.697  -0.040  -0.511  0.00  0.00     0.003 A 
ATOM      5  C4  UNL d   1       0.262   1.272  -0.332  0.00  0.00    -0.005 A 
ATOM      6  C5  UNL d   1      -0.863   1.530   0.448  0.00  0.00     0.003 A 
ATOM      7  C6  UNL d   1      -1.554   0.477   1.048  0.00  0.00    -0.001 A 
ENDROOT
TORSDOF 0
ENDMDL
