MODEL 1
REMARK minimizedAffinity -4.37215281
REMARK minimizedRMSD -1
REMARK  0 active torsions:
REMARK  status: ('A' for Active; 'I' for Inactive)
ROOT
ATOM      1  C   UNL d   1       1.155   2.249  -3.181  0.00  0.00     0.078 C 
ATOM      2  C1  UNL d   1       0.755   1.395  -2.015  0.00  0.00    -0.077 A 
ATOM      3  C2  UNL d   1       0.404   1.970  -0.788  0.00  0.00    -0.001 A 
ATOM      4  C3  UNL d   1       0.044   1.163   0.292  0.00  0.00     0.003 A 
ATOM      5  C4  UNL d   1       0.031  -0.224   0.156  0.00  0.00    -0.005 A 
ATOM      6  C5  UNL d   1       0.381  -0.805  -1.061  0.00  0.00     0.003 A 
ATOM      7  C6  UNL d   1       0.742   0.001  -2.142  0.00  0.00    -0.001 A 
ENDROOT
TORSDOF 0
ENDMDL
