MODEL 1
REMARK minimizedAffinity -2.70815706
REMARK minimizedRMSD -1
REMARK  0 active torsions:
REMARK  status: ('A' for Active; 'I' for Inactive)
ROOT
ATOM      1  C   UNL d   1       0.102   0.924   0.004  0.00  0.00     0.078 C 
ATOM      2  C1  UNL d   1      -0.559  -0.344   0.456  0.00  0.00    -0.077 A 
ATOM      3  C2  UNL d   1      -1.792  -0.743  -0.074  0.00  0.00    -0.001 A 
ATOM      4  C3  UNL d   1      -2.400  -1.921   0.363  0.00  0.00     0.003 A 
ATOM      5  C4  UNL d   1      -1.783  -2.709   1.333  0.00  0.00    -0.005 A 
ATOM      6  C5  UNL d   1      -0.557  -2.319   1.868  0.00  0.00     0.003 A 
ATOM      7  C6  UNL d   1       0.053  -1.141   1.432  0.00  0.00    -0.001 A 
ENDROOT
TORSDOF 0
ENDMDL
