MODEL 1
REMARK minimizedAffinity -3.9264524
REMARK minimizedRMSD -1
REMARK  0 active torsions:
REMARK  status: ('A' for Active; 'I' for Inactive)
ROOT
ATOM      1  C   UNL d   1      -1.524  -2.677   2.302  0.00  0.00     0.078 C 
ATOM      2  C1  UNL d   1      -1.146  -1.444   1.538  0.00  0.00    -0.077 A 
ATOM      3  C2  UNL d   1      -1.934  -0.288   1.597  0.00  0.00    -0.001 A 
ATOM      4  C3  UNL d   1      -1.575   0.849   0.872  0.00  0.00     0.003 A 
ATOM      5  C4  UNL d   1      -0.427   0.842   0.082  0.00  0.00    -0.005 A 
ATOM      6  C5  UNL d   1       0.362  -0.304   0.015  0.00  0.00     0.003 A 
ATOM      7  C6  UNL d   1       0.005  -1.443   0.739  0.00  0.00    -0.001 A 
ENDROOT
TORSDOF 0
ENDMDL
