MODEL 1
REMARK minimizedAffinity -4.28603888
REMARK minimizedRMSD -1
REMARK  0 active torsions:
REMARK  status: ('A' for Active; 'I' for Inactive)
ROOT
ATOM      1  C   UNL d   1      -0.294  -0.391  -0.447  0.00  0.00     0.078 C 
ATOM      2  C1  UNL d   1       0.133   0.466  -1.601  0.00  0.00    -0.077 A 
ATOM      3  C2  UNL d   1      -0.199   0.122  -2.917  0.00  0.00    -0.001 A 
ATOM      4  C3  UNL d   1       0.213   0.924  -3.982  0.00  0.00     0.003 A 
ATOM      5  C4  UNL d   1       0.960   2.076  -3.742  0.00  0.00    -0.005 A 
ATOM      6  C5  UNL d   1       1.297   2.426  -2.436  0.00  0.00     0.003 A 
ATOM      7  C6  UNL d   1       0.886   1.624  -1.370  0.00  0.00    -0.001 A 
ENDROOT
TORSDOF 0
ENDMDL
