MODEL 1
REMARK minimizedAffinity -5.28125811
REMARK minimizedRMSD -1
REMARK  0 active torsions:
REMARK  status: ('A' for Active; 'I' for Inactive)
ROOT
ATOM      1  C   UNL d   1      -2.678   0.065   2.427  0.00  0.00     0.078 C 
ATOM      2  C1  UNL d   1      -1.505  -0.398   1.616  0.00  0.00    -0.077 A 
ATOM      3  C2  UNL d   1      -0.811   0.486   0.781  0.00  0.00    -0.001 A 
ATOM      4  C3  UNL d   1       0.273   0.039   0.024  0.00  0.00     0.003 A 
ATOM      5  C4  UNL d   1       0.672  -1.295   0.094  0.00  0.00    -0.005 A 
ATOM      6  C5  UNL d   1      -0.014  -2.182   0.921  0.00  0.00     0.003 A 
ATOM      7  C6  UNL d   1      -1.098  -1.737   1.678  0.00  0.00    -0.001 A 
ENDROOT
TORSDOF 0
ENDMDL
