MODEL 1
REMARK minimizedAffinity -4.81527233
REMARK minimizedRMSD -1
REMARK  0 active torsions:
REMARK  status: ('A' for Active; 'I' for Inactive)
ROOT
ATOM      1  C   UNL d   1      -0.068  -1.583   0.640  0.00  0.00     0.078 C 
ATOM      2  C1  UNL d   1       0.341  -0.577  -0.393  0.00  0.00    -0.077 A 
ATOM      3  C2  UNL d   1       0.561   0.762  -0.049  0.00  0.00    -0.001 A 
ATOM      4  C3  UNL d   1       0.932   1.690  -1.023  0.00  0.00     0.003 A 
ATOM      5  C4  UNL d   1       1.087   1.288  -2.349  0.00  0.00    -0.005 A 
ATOM      6  C5  UNL d   1       0.868  -0.042  -2.701  0.00  0.00     0.003 A 
ATOM      7  C6  UNL d   1       0.497  -0.971  -1.728  0.00  0.00    -0.001 A 
ENDROOT
TORSDOF 0
ENDMDL
