MODEL 1
REMARK minimizedAffinity -2.81648493
REMARK minimizedRMSD -1
REMARK  0 active torsions:
REMARK  status: ('A' for Active; 'I' for Inactive)
ROOT
ATOM      1  C   UNL d   1       0.737   0.859  -1.073  0.00  0.00     0.078 C 
ATOM      2  C1  UNL d   1       0.442  -0.346  -0.231  0.00  0.00    -0.077 A 
ATOM      3  C2  UNL d   1      -0.734  -1.084  -0.415  0.00  0.00    -0.001 A 
ATOM      4  C3  UNL d   1      -1.000  -2.198   0.382  0.00  0.00     0.003 A 
ATOM      5  C4  UNL d   1      -0.096  -2.584   1.370  0.00  0.00    -0.005 A 
ATOM      6  C5  UNL d   1       1.076  -1.855   1.562  0.00  0.00     0.003 A 
ATOM      7  C6  UNL d   1       1.344  -0.740   0.765  0.00  0.00    -0.001 A 
ENDROOT
TORSDOF 0
ENDMDL
