MODEL 1
REMARK minimizedAffinity -3.67223811
REMARK minimizedRMSD -1
REMARK  0 active torsions:
REMARK  status: ('A' for Active; 'I' for Inactive)
ROOT
ATOM      1  C   UNL d   1       0.395   0.647  -0.442  0.00  0.00     0.078 C 
ATOM      2  C1  UNL d   1       0.766   1.203  -1.785  0.00  0.00    -0.077 A 
ATOM      3  C2  UNL d   1      -0.166   1.908  -2.556  0.00  0.00    -0.001 A 
ATOM      4  C3  UNL d   1       0.190   2.411  -3.808  0.00  0.00     0.003 A 
ATOM      5  C4  UNL d   1       1.479   2.214  -4.301  0.00  0.00    -0.005 A 
ATOM      6  C5  UNL d   1       2.412   1.512  -3.542  0.00  0.00     0.003 A 
ATOM      7  C6  UNL d   1       2.058   1.008  -2.289  0.00  0.00    -0.001 A 
ENDROOT
TORSDOF 0
ENDMDL
