MODEL 1
REMARK minimizedAffinity 2.93547201
REMARK minimizedRMSD -1
REMARK  0 active torsions:
REMARK  status: ('A' for Active; 'I' for Inactive)
ROOT
ATOM      1  C1  DEN d   1       2.244   0.788   2.500  0.00  0.00     0.130 A 
ATOM      2  C2  DEN d   1       1.949   2.168   2.874  0.00  0.00    -0.031 A 
ATOM      3  C3  DEN d   1       1.221   2.799   1.754  0.00  0.00     0.027 A 
ATOM      4  C4  DEN d   1       0.523   1.776  -0.509  0.00  0.00     0.027 A 
ATOM      5  C5  DEN d   1       0.563   0.640  -1.287  0.00  0.00    -0.003 A 
ATOM      6  C6  DEN d   1       1.190  -0.506  -0.875  0.00  0.00     0.001 A 
ATOM      7  C7  DEN d   1       1.764  -0.556   0.367  0.00  0.00     0.017 A 
ATOM      8  C8  DEN d   1       1.735   0.587   1.155  0.00  0.00    -0.094 A 
ATOM      9  C9  DEN d   1       1.086   1.732   0.726  0.00  0.00    -0.072 A 
ENDROOT
TORSDOF 0
ENDMDL
