MODEL 1
REMARK minimizedAffinity 7.62711906
REMARK minimizedRMSD -1
REMARK  0 active torsions:
REMARK  status: ('A' for Active; 'I' for Inactive)
ROOT
ATOM      1  C1  DEN d   1       1.495   2.350  -1.793  0.00  0.00     0.130 A 
ATOM      2  C2  DEN d   1       1.236   1.358  -0.753  0.00  0.00    -0.031 A 
ATOM      3  C3  DEN d   1       1.086   2.071   0.531  0.00  0.00     0.027 A 
ATOM      4  C4  DEN d   1       1.223   4.602   1.008  0.00  0.00     0.027 A 
ATOM      5  C5  DEN d   1       1.436   5.841   0.443  0.00  0.00    -0.003 A 
ATOM      6  C6  DEN d   1       1.715   5.998  -0.888  0.00  0.00     0.001 A 
ATOM      7  C7  DEN d   1       1.743   4.903  -1.710  0.00  0.00     0.017 A 
ATOM      8  C8  DEN d   1       1.537   3.650  -1.147  0.00  0.00    -0.094 A 
ATOM      9  C9  DEN d   1       1.245   3.513   0.199  0.00  0.00    -0.072 A 
ENDROOT
TORSDOF 0
ENDMDL
