MODEL 1
REMARK minimizedAffinity 13.5044098
REMARK minimizedRMSD -1
REMARK  0 active torsions:
REMARK  status: ('A' for Active; 'I' for Inactive)
ROOT
ATOM      1  C1  DEN d   1       1.231   1.425  -0.478  0.00  0.00     0.130 A 
ATOM      2  C2  DEN d   1       1.144   1.072  -1.893  0.00  0.00    -0.031 A 
ATOM      3  C3  DEN d   1       1.341   2.303  -2.684  0.00  0.00     0.027 A 
ATOM      4  C4  DEN d   1       1.776   4.709  -1.860  0.00  0.00     0.027 A 
ATOM      5  C5  DEN d   1       1.922   5.504  -0.745  0.00  0.00    -0.003 A 
ATOM      6  C6  DEN d   1       1.815   5.006   0.526  0.00  0.00     0.001 A 
ATOM      7  C7  DEN d   1       1.600   3.667   0.715  0.00  0.00     0.017 A 
ATOM      8  C8  DEN d   1       1.444   2.859  -0.405  0.00  0.00    -0.094 A 
ATOM      9  C9  DEN d   1       1.567   3.380  -1.682  0.00  0.00    -0.072 A 
ENDROOT
TORSDOF 0
ENDMDL
