MODEL 1
REMARK minimizedAffinity -2.14871287
REMARK minimizedRMSD -1
REMARK  0 active torsions:
REMARK  status: ('A' for Active; 'I' for Inactive)
ROOT
ATOM      1  C1  DEN d   1       1.542   4.059  -0.771  0.00  0.00     0.130 A 
ATOM      2  C2  DEN d   1       1.800   3.901  -2.199  0.00  0.00    -0.031 A 
ATOM      3  C3  DEN d   1       1.724   2.461  -2.520  0.00  0.00     0.027 A 
ATOM      4  C4  DEN d   1       1.230   0.474  -0.952  0.00  0.00     0.027 A 
ATOM      5  C5  DEN d   1       0.958   0.111   0.349  0.00  0.00    -0.003 A 
ATOM      6  C6  DEN d   1       0.896   1.027   1.365  0.00  0.00     0.001 A 
ATOM      7  C7  DEN d   1       1.064   2.358   1.090  0.00  0.00     0.017 A 
ATOM      8  C8  DEN d   1       1.346   2.731  -0.218  0.00  0.00    -0.094 A 
ATOM      9  C9  DEN d   1       1.392   1.791  -1.233  0.00  0.00    -0.072 A 
ENDROOT
TORSDOF 0
ENDMDL
