MODEL 1
REMARK minimizedAffinity -2.22356176
REMARK minimizedRMSD -1
REMARK  0 active torsions:
REMARK  status: ('A' for Active; 'I' for Inactive)
ROOT
ATOM      1  C1  DEN d   1       1.110   0.393   0.574  0.00  0.00     0.130 A 
ATOM      2  C2  DEN d   1       0.940  -0.515  -0.557  0.00  0.00    -0.031 A 
ATOM      3  C3  DEN d   1       0.937   0.293  -1.793  0.00  0.00     0.027 A 
ATOM      4  C4  DEN d   1       1.182   2.846  -2.065  0.00  0.00     0.027 A 
ATOM      5  C5  DEN d   1       1.338   4.037  -1.391  0.00  0.00    -0.003 A 
ATOM      6  C6  DEN d   1       1.395   4.099  -0.023  0.00  0.00     0.001 A 
ATOM      7  C7  DEN d   1       1.340   2.945   0.712  0.00  0.00     0.017 A 
ATOM      8  C8  DEN d   1       1.175   1.741   0.039  0.00  0.00    -0.094 A 
ATOM      9  C9  DEN d   1       1.132   1.697  -1.344  0.00  0.00    -0.072 A 
ENDROOT
TORSDOF 0
ENDMDL
