MODEL 1
REMARK minimizedAffinity 0.180627957
REMARK minimizedRMSD -1
REMARK  0 active torsions:
REMARK  status: ('A' for Active; 'I' for Inactive)
ROOT
ATOM      1  C1  DEN d   1       1.316   3.563  -0.603  0.00  0.00     0.130 A 
ATOM      2  C2  DEN d   1       1.404   3.713  -2.053  0.00  0.00    -0.031 A 
ATOM      3  C3  DEN d   1       1.390   2.363  -2.653  0.00  0.00     0.027 A 
ATOM      4  C4  DEN d   1       1.238   0.069  -1.484  0.00  0.00     0.027 A 
ATOM      5  C5  DEN d   1       1.157  -0.566  -0.264  0.00  0.00    -0.003 A 
ATOM      6  C6  DEN d   1       1.158   0.124   0.920  0.00  0.00     0.001 A 
ATOM      7  C7  DEN d   1       1.195   1.493   0.908  0.00  0.00     0.017 A 
ATOM      8  C8  DEN d   1       1.285   2.140  -0.318  0.00  0.00    -0.094 A 
ATOM      9  C9  DEN d   1       1.270   1.426  -1.504  0.00  0.00    -0.072 A 
ENDROOT
TORSDOF 0
ENDMDL
