MODEL 1
REMARK minimizedAffinity -6.28601456
REMARK minimizedRMSD -1
REMARK  0 active torsions:
REMARK  status: ('A' for Active; 'I' for Inactive)
ROOT
ATOM      1  C1  DEN d   1       1.356   3.620  -1.522  0.00  0.00     0.130 A 
ATOM      2  C2  DEN d   1       1.388   4.505  -0.360  0.00  0.00    -0.031 A 
ATOM      3  C3  DEN d   1       1.154   3.684   0.845  0.00  0.00     0.027 A 
ATOM      4  C4  DEN d   1       0.752   1.142   1.025  0.00  0.00     0.027 A 
ATOM      5  C5  DEN d   1       0.626  -0.027   0.308  0.00  0.00    -0.003 A 
ATOM      6  C6  DEN d   1       0.699  -0.058  -1.059  0.00  0.00     0.001 A 
ATOM      7  C7  DEN d   1       0.950   1.097  -1.751  0.00  0.00     0.017 A 
ATOM      8  C8  DEN d   1       1.072   2.282  -1.037  0.00  0.00    -0.094 A 
ATOM      9  C9  DEN d   1       1.007   2.290   0.346  0.00  0.00    -0.072 A 
ENDROOT
TORSDOF 0
ENDMDL
