MODEL 1
REMARK minimizedAffinity -2.70451641
REMARK minimizedRMSD -1
REMARK  0 active torsions:
REMARK  status: ('A' for Active; 'I' for Inactive)
ROOT
ATOM      1  C1  DEN d   1       1.601   4.349  -1.853  0.00  0.00     0.130 A 
ATOM      2  C2  DEN d   1       1.825   5.306  -0.772  0.00  0.00    -0.031 A 
ATOM      3  C3  DEN d   1       1.810   4.564   0.505  0.00  0.00     0.027 A 
ATOM      4  C4  DEN d   1       1.466   2.040   0.911  0.00  0.00     0.027 A 
ATOM      5  C5  DEN d   1       1.227   0.828   0.303  0.00  0.00    -0.003 A 
ATOM      6  C6  DEN d   1       1.064   0.710  -1.052  0.00  0.00     0.001 A 
ATOM      7  C7  DEN d   1       1.182   1.818  -1.849  0.00  0.00     0.017 A 
ATOM      8  C8  DEN d   1       1.415   3.045  -1.242  0.00  0.00    -0.094 A 
ATOM      9  C9  DEN d   1       1.590   3.142   0.128  0.00  0.00    -0.072 A 
ENDROOT
TORSDOF 0
ENDMDL
