MODEL 1
REMARK minimizedAffinity 5.54456139
REMARK minimizedRMSD -1
REMARK  0 active torsions:
REMARK  status: ('A' for Active; 'I' for Inactive)
ROOT
ATOM      1  C1  DEN d   1       1.928   5.220  -1.880  0.00  0.00     0.130 A 
ATOM      2  C2  DEN d   1       2.008   5.995  -0.644  0.00  0.00    -0.031 A 
ATOM      3  C3  DEN d   1       1.801   5.070   0.489  0.00  0.00     0.027 A 
ATOM      4  C4  DEN d   1       1.371   2.527   0.450  0.00  0.00     0.027 A 
ATOM      5  C5  DEN d   1       1.207   1.429  -0.364  0.00  0.00    -0.003 A 
ATOM      6  C6  DEN d   1       1.237   1.522  -1.730  0.00  0.00     0.001 A 
ATOM      7  C7  DEN d   1       1.481   2.733  -2.323  0.00  0.00     0.017 A 
ATOM      8  C8  DEN d   1       1.641   3.846  -1.509  0.00  0.00    -0.094 A 
ATOM      9  C9  DEN d   1       1.619   3.729  -0.129  0.00  0.00    -0.072 A 
ENDROOT
TORSDOF 0
ENDMDL
