MODEL 1
REMARK minimizedAffinity 5.65752935
REMARK minimizedRMSD -1
REMARK  0 active torsions:
REMARK  status: ('A' for Active; 'I' for Inactive)
ROOT
ATOM      1  C1  DEN d   1       0.518   2.665  -1.637  0.00  0.00     0.130 A 
ATOM      2  C2  DEN d   1       0.359   1.827  -2.822  0.00  0.00    -0.031 A 
ATOM      3  C3  DEN d   1       0.787   0.457  -2.472  0.00  0.00     0.027 A 
ATOM      4  C4  DEN d   1       1.672  -0.442  -0.223  0.00  0.00     0.027 A 
ATOM      5  C5  DEN d   1       1.995  -0.103   1.073  0.00  0.00    -0.003 A 
ATOM      6  C6  DEN d   1       1.881   1.179   1.542  0.00  0.00     0.001 A 
ATOM      7  C7  DEN d   1       1.390   2.161   0.722  0.00  0.00     0.017 A 
ATOM      8  C8  DEN d   1       1.070   1.828  -0.587  0.00  0.00    -0.094 A 
ATOM      9  C9  DEN d   1       1.180   0.524  -1.039  0.00  0.00    -0.072 A 
ENDROOT
TORSDOF 0
ENDMDL
