MODEL 1
REMARK minimizedAffinity 8.62387276
REMARK minimizedRMSD -1
REMARK  0 active torsions:
REMARK  status: ('A' for Active; 'I' for Inactive)
ROOT
ATOM      1  C1  DEN d   1       1.751   3.521   0.021  0.00  0.00     0.130 A 
ATOM      2  C2  DEN d   1       1.174   4.477  -0.921  0.00  0.00    -0.031 A 
ATOM      3  C3  DEN d   1       0.478   3.714  -1.977  0.00  0.00     0.027 A 
ATOM      4  C4  DEN d   1       0.234   1.160  -2.241  0.00  0.00     0.027 A 
ATOM      5  C5  DEN d   1       0.563  -0.061  -1.695  0.00  0.00    -0.003 A 
ATOM      6  C6  DEN d   1       1.333  -0.174  -0.568  0.00  0.00     0.001 A 
ATOM      7  C7  DEN d   1       1.763   0.956   0.076  0.00  0.00     0.017 A 
ATOM      8  C8  DEN d   1       1.441   2.191  -0.472  0.00  0.00    -0.094 A 
ATOM      9  C9  DEN d   1       0.651   2.284  -1.605  0.00  0.00    -0.072 A 
ENDROOT
TORSDOF 0
ENDMDL
