MODEL 1
REMARK minimizedAffinity 7.88473082
REMARK minimizedRMSD -1
REMARK  0 active torsions:
REMARK  status: ('A' for Active; 'I' for Inactive)
ROOT
ATOM      1  C1  DEN d   1       2.140   0.343  -0.309  0.00  0.00     0.130 A 
ATOM      2  C2  DEN d   1       1.699  -0.834  -1.051  0.00  0.00    -0.031 A 
ATOM      3  C3  DEN d   1       0.756  -0.388  -2.096  0.00  0.00     0.027 A 
ATOM      4  C4  DEN d   1      -0.056   2.000  -2.637  0.00  0.00     0.027 A 
ATOM      5  C5  DEN d   1       0.033   3.325  -2.272  0.00  0.00    -0.003 A 
ATOM      6  C6  DEN d   1       0.796   3.742  -1.214  0.00  0.00     0.001 A 
ATOM      7  C7  DEN d   1       1.539   2.829  -0.512  0.00  0.00     0.017 A 
ATOM      8  C8  DEN d   1       1.449   1.490  -0.869  0.00  0.00    -0.094 A 
ATOM      9  C9  DEN d   1       0.681   1.090  -1.950  0.00  0.00    -0.072 A 
ENDROOT
TORSDOF 0
ENDMDL
