MODEL 1
REMARK minimizedAffinity 7.6735301
REMARK minimizedRMSD -1
REMARK  0 active torsions:
REMARK  status: ('A' for Active; 'I' for Inactive)
ROOT
ATOM      1  C4' PXY d   1      -3.757  -0.032  -3.731  0.00  0.00     0.077 C 
ATOM      2  C1' PXY d   1      -5.923  -4.890  -5.994  0.00  0.00     0.077 C 
ATOM      3  C1  PXY d   1      -5.366  -3.614  -5.394  0.00  0.00    -0.082 A 
ATOM      4  C2  PXY d   1      -4.371  -2.986  -6.000  0.00  0.00     0.003 A 
ATOM      5  C3  PXY d   1      -3.834  -1.848  -5.454  0.00  0.00     0.003 A 
ATOM      6  C4  PXY d   1      -4.357  -1.318  -4.305  0.00  0.00    -0.082 A 
ATOM      7  C5  PXY d   1      -5.379  -1.946  -3.687  0.00  0.00     0.003 A 
ATOM      8  C6  PXY d   1      -5.883  -3.123  -4.235  0.00  0.00     0.003 A 
ENDROOT
TORSDOF 0
ENDMDL
