MODEL 1
REMARK minimizedAffinity 18.9503574
REMARK minimizedRMSD -1
REMARK  0 active torsions:
REMARK  status: ('A' for Active; 'I' for Inactive)
ROOT
ATOM      1  C4' PXY d   1      -2.148  -0.825   1.704  0.00  0.00     0.077 C 
ATOM      2  C1' PXY d   1       1.545   3.400   3.091  0.00  0.00     0.077 C 
ATOM      3  C1  PXY d   1       0.567   2.301   2.724  0.00  0.00    -0.082 A 
ATOM      4  C2  PXY d   1       0.702   1.100   3.263  0.00  0.00     0.003 A 
ATOM      5  C3  PXY d   1      -0.154   0.086   2.918  0.00  0.00     0.003 A 
ATOM      6  C4  PXY d   1      -1.190   0.318   2.053  0.00  0.00    -0.082 A 
ATOM      7  C5  PXY d   1      -1.340   1.543   1.508  0.00  0.00     0.003 A 
ATOM      8  C6  PXY d   1      -0.436   2.548   1.839  0.00  0.00     0.003 A 
ENDROOT
TORSDOF 0
ENDMDL
