MODEL 1
REMARK minimizedAffinity 1.95382047
REMARK minimizedRMSD -1
REMARK  0 active torsions:
REMARK  status: ('A' for Active; 'I' for Inactive)
ROOT
ATOM      1  C4' PXY d   1      -4.922  -5.964  -6.000  0.00  0.00     0.077 C 
ATOM      2  C1' PXY d   1      -5.999  -2.077  -1.859  0.00  0.00     0.077 C 
ATOM      3  C1  PXY d   1      -5.718  -3.087  -2.954  0.00  0.00    -0.082 A 
ATOM      4  C2  PXY d   1      -5.945  -4.372  -2.733  0.00  0.00     0.003 A 
ATOM      5  C3  PXY d   1      -5.666  -5.302  -3.701  0.00  0.00     0.003 A 
ATOM      6  C4  PXY d   1      -5.200  -4.908  -4.927  0.00  0.00    -0.082 A 
ATOM      7  C5  PXY d   1      -4.977  -3.598  -5.164  0.00  0.00     0.003 A 
ATOM      8  C6  PXY d   1      -5.228  -2.674  -4.154  0.00  0.00     0.003 A 
ENDROOT
TORSDOF 0
ENDMDL
