MODEL 1
REMARK minimizedAffinity 14.9838629
REMARK minimizedRMSD -1
REMARK  0 active torsions:
REMARK  status: ('A' for Active; 'I' for Inactive)
ROOT
ATOM      1  C4' PXY d   1      -5.018  -1.756  -1.646  0.00  0.00     0.077 C 
ATOM      2  C1' PXY d   1      -5.338  -5.546  -6.000  0.00  0.00     0.077 C 
ATOM      3  C1  PXY d   1      -5.251  -4.543  -4.866  0.00  0.00    -0.082 A 
ATOM      4  C2  PXY d   1      -5.010  -4.965  -3.636  0.00  0.00     0.003 A 
ATOM      5  C3  PXY d   1      -4.960  -4.075  -2.594  0.00  0.00     0.003 A 
ATOM      6  C4  PXY d   1      -5.105  -2.733  -2.823  0.00  0.00    -0.082 A 
ATOM      7  C5  PXY d   1      -5.340  -2.293  -4.077  0.00  0.00     0.003 A 
ATOM      8  C6  PXY d   1      -5.429  -3.216  -5.114  0.00  0.00     0.003 A 
ENDROOT
TORSDOF 0
ENDMDL
