MODEL 1
REMARK minimizedAffinity 2.67373157
REMARK minimizedRMSD -1
REMARK  0 active torsions:
REMARK  status: ('A' for Active; 'I' for Inactive)
ROOT
ATOM      1  C4' PXY d   1      -5.999  -0.602   0.416  0.00  0.00     0.077 C 
ATOM      2  C1' PXY d   1      -3.991  -5.997   0.947  0.00  0.00     0.077 C 
ATOM      3  C1  PXY d   1      -4.523  -4.583   0.820  0.00  0.00    -0.082 A 
ATOM      4  C2  PXY d   1      -4.739  -4.071  -0.381  0.00  0.00     0.003 A 
ATOM      5  C3  PXY d   1      -5.189  -2.783  -0.515  0.00  0.00     0.003 A 
ATOM      6  C4  PXY d   1      -5.472  -2.029   0.592  0.00  0.00    -0.082 A 
ATOM      7  C5  PXY d   1      -5.264  -2.548   1.821  0.00  0.00     0.003 A 
ATOM      8  C6  PXY d   1      -4.767  -3.843   1.935  0.00  0.00     0.003 A 
ENDROOT
TORSDOF 0
ENDMDL
