MODEL 1
REMARK minimizedAffinity 13.9380322
REMARK minimizedRMSD -1
REMARK  0 active torsions:
REMARK  status: ('A' for Active; 'I' for Inactive)
ROOT
ATOM      1  C4' PXY d   1       5.210   3.755  -4.876  0.00  0.00     0.077 C 
ATOM      2  C1' PXY d   1      -0.205   5.779  -4.820  0.00  0.00     0.077 C 
ATOM      3  C1  PXY d   1       1.212   5.240  -4.844  0.00  0.00    -0.082 A 
ATOM      4  C2  PXY d   1       1.970   5.344  -3.765  0.00  0.00     0.003 A 
ATOM      5  C3  PXY d   1       3.264   4.891  -3.780  0.00  0.00     0.003 A 
ATOM      6  C4  PXY d   1       3.770   4.276  -4.894  0.00  0.00    -0.082 A 
ATOM      7  C5  PXY d   1       2.999   4.156  -5.995  0.00  0.00     0.003 A 
ATOM      8  C6  PXY d   1       1.702   4.660  -5.973  0.00  0.00     0.003 A 
ENDROOT
TORSDOF 0
ENDMDL
