MODEL 1
REMARK minimizedAffinity 16.4397106
REMARK minimizedRMSD -1
REMARK  0 active torsions:
REMARK  status: ('A' for Active; 'I' for Inactive)
ROOT
ATOM      1  C4' PXY d   1       1.959   3.111  -1.459  0.00  0.00     0.077 C 
ATOM      2  C1' PXY d   1       1.719  -1.553  -4.864  0.00  0.00     0.077 C 
ATOM      3  C1  PXY d   1       1.792  -0.326  -3.978  0.00  0.00    -0.082 A 
ATOM      4  C2  PXY d   1       1.332  -0.385  -2.739  0.00  0.00     0.003 A 
ATOM      5  C3  PXY d   1       1.361   0.725  -1.934  0.00  0.00     0.003 A 
ATOM      6  C4  PXY d   1       1.914   1.893  -2.386  0.00  0.00    -0.082 A 
ATOM      7  C5  PXY d   1       2.395   1.959  -3.646  0.00  0.00     0.003 A 
ATOM      8  C6  PXY d   1       2.318   0.833  -4.460  0.00  0.00     0.003 A 
ENDROOT
TORSDOF 0
ENDMDL
