MODEL 1
REMARK minimizedAffinity 2.84858012
REMARK minimizedRMSD -1
REMARK  0 active torsions:
REMARK  status: ('A' for Active; 'I' for Inactive)
ROOT
ATOM      1  C4' PXY d   1      -4.922  -2.768  -2.207  0.00  0.00     0.077 C 
ATOM      2  C1' PXY d   1      -6.000  -4.084   3.318  0.00  0.00     0.077 C 
ATOM      3  C1  PXY d   1      -5.708  -3.748   1.869  0.00  0.00    -0.082 A 
ATOM      4  C2  PXY d   1      -6.000  -2.544   1.405  0.00  0.00     0.003 A 
ATOM      5  C3  PXY d   1      -5.772  -2.234   0.089  0.00  0.00     0.003 A 
ATOM      6  C4  PXY d   1      -5.191  -3.148  -0.748  0.00  0.00    -0.082 A 
ATOM      7  C5  PXY d   1      -4.880  -4.375  -0.279  0.00  0.00     0.003 A 
ATOM      8  C6  PXY d   1      -5.157  -4.684   1.049  0.00  0.00     0.003 A 
ENDROOT
TORSDOF 0
ENDMDL
