MODEL 1
REMARK minimizedAffinity 10.8481398
REMARK minimizedRMSD -1
REMARK  0 active torsions:
REMARK  status: ('A' for Active; 'I' for Inactive)
ROOT
ATOM      1  C4' PXY d   1      -0.065  -2.748  -6.000  0.00  0.00     0.077 C 
ATOM      2  C1' PXY d   1       3.140   1.699  -4.164  0.00  0.00     0.077 C 
ATOM      3  C1  PXY d   1       2.290   0.541  -4.649  0.00  0.00    -0.082 A 
ATOM      4  C2  PXY d   1       2.521  -0.678  -4.189  0.00  0.00     0.003 A 
ATOM      5  C3  PXY d   1       1.783  -1.741  -4.640  0.00  0.00     0.003 A 
ATOM      6  C4  PXY d   1       0.762  -1.547  -5.532  0.00  0.00    -0.082 A 
ATOM      7  C5  PXY d   1       0.513  -0.305  -5.997  0.00  0.00     0.003 A 
ATOM      8  C6  PXY d   1       1.301   0.755  -5.558  0.00  0.00     0.003 A 
ENDROOT
TORSDOF 0
ENDMDL
