MODEL 1
REMARK minimizedAffinity 14.9425526
REMARK minimizedRMSD -1
REMARK  0 active torsions:
REMARK  status: ('A' for Active; 'I' for Inactive)
ROOT
ATOM      1  C4' PXY d   1       5.979   2.955  -5.977  0.00  0.00     0.077 C 
ATOM      2  C1' PXY d   1       1.232   5.787  -4.285  0.00  0.00     0.077 C 
ATOM      3  C1  PXY d   1       2.484   5.055  -4.726  0.00  0.00    -0.082 A 
ATOM      4  C2  PXY d   1       2.393   4.079  -5.614  0.00  0.00     0.003 A 
ATOM      5  C3  PXY d   1       3.511   3.385  -6.000  0.00  0.00     0.003 A 
ATOM      6  C4  PXY d   1       4.742   3.728  -5.511  0.00  0.00    -0.082 A 
ATOM      7  C5  PXY d   1       4.845   4.730  -4.612  0.00  0.00     0.003 A 
ATOM      8  C6  PXY d   1       3.693   5.395  -4.202  0.00  0.00     0.003 A 
ENDROOT
TORSDOF 0
ENDMDL
