MODEL 1
REMARK minimizedAffinity 7.64948606
REMARK minimizedRMSD -1
REMARK  0 active torsions:
REMARK  status: ('A' for Active; 'I' for Inactive)
ROOT
ATOM      1  C4' PXY d   1      -3.165  -5.915  -6.000  0.00  0.00     0.077 C 
ATOM      2  C1' PXY d   1      -5.976  -1.303  -3.941  0.00  0.00     0.077 C 
ATOM      3  C1  PXY d   1      -5.247  -2.520  -4.474  0.00  0.00    -0.082 A 
ATOM      4  C2  PXY d   1      -4.017  -2.391  -4.946  0.00  0.00     0.003 A 
ATOM      5  C3  PXY d   1      -3.355  -3.476  -5.461  0.00  0.00     0.003 A 
ATOM      6  C4  PXY d   1      -3.936  -4.715  -5.443  0.00  0.00    -0.082 A 
ATOM      7  C5  PXY d   1      -5.186  -4.857  -4.953  0.00  0.00     0.003 A 
ATOM      8  C6  PXY d   1      -5.857  -3.736  -4.473  0.00  0.00     0.003 A 
ENDROOT
TORSDOF 0
ENDMDL
