MODEL 1
REMARK minimizedAffinity 7.43056631
REMARK minimizedRMSD -1
REMARK  0 active torsions:
REMARK  status: ('A' for Active; 'I' for Inactive)
ROOT
ATOM      1  C4' PXY d   1       4.268  -5.997   5.004  0.00  0.00     0.077 C 
ATOM      2  C1' PXY d   1       0.066  -4.861   1.201  0.00  0.00     0.077 C 
ATOM      3  C1  PXY d   1       1.175  -5.164   2.189  0.00  0.00    -0.082 A 
ATOM      4  C2  PXY d   1       0.890  -5.288   3.475  0.00  0.00     0.003 A 
ATOM      5  C3  PXY d   1       1.886  -5.530   4.386  0.00  0.00     0.003 A 
ATOM      6  C4  PXY d   1       3.179  -5.700   3.969  0.00  0.00    -0.082 A 
ATOM      7  C5  PXY d   1       3.476  -5.586   2.658  0.00  0.00     0.003 A 
ATOM      8  C6  PXY d   1       2.457  -5.298   1.754  0.00  0.00     0.003 A 
ENDROOT
TORSDOF 0
ENDMDL
