MODEL 1
REMARK minimizedAffinity 5.43313503
REMARK minimizedRMSD -1
REMARK  0 active torsions:
REMARK  status: ('A' for Active; 'I' for Inactive)
ROOT
ATOM      1  C4' PXY d   1      -4.086  -2.367   0.104  0.00  0.00     0.077 C 
ATOM      2  C1' PXY d   1      -2.401   2.838   1.970  0.00  0.00     0.077 C 
ATOM      3  C1  PXY d   1      -2.855   1.477   1.483  0.00  0.00    -0.082 A 
ATOM      4  C2  PXY d   1      -2.023   0.450   1.540  0.00  0.00     0.003 A 
ATOM      5  C3  PXY d   1      -2.406  -0.781   1.074  0.00  0.00     0.003 A 
ATOM      6  C4  PXY d   1      -3.673  -0.976   0.593  0.00  0.00    -0.082 A 
ATOM      7  C5  PXY d   1      -4.532   0.064   0.541  0.00  0.00     0.003 A 
ATOM      8  C6  PXY d   1      -4.110   1.315   0.981  0.00  0.00     0.003 A 
ENDROOT
TORSDOF 0
ENDMDL
