MODEL 1
REMARK minimizedAffinity 9.71453762
REMARK minimizedRMSD -1
REMARK  0 active torsions:
REMARK  status: ('A' for Active; 'I' for Inactive)
ROOT
ATOM      1  C4' PXY d   1      -4.871  -1.184   0.846  0.00  0.00     0.077 C 
ATOM      2  C1' PXY d   1      -0.044   1.946   1.405  0.00  0.00     0.077 C 
ATOM      3  C1  PXY d   1      -1.317   1.135   1.261  0.00  0.00    -0.082 A 
ATOM      4  C2  PXY d   1      -1.275  -0.179   1.404  0.00  0.00     0.003 A 
ATOM      5  C3  PXY d   1      -2.411  -0.931   1.246  0.00  0.00     0.003 A 
ATOM      6  C4  PXY d   1      -3.612  -0.325   0.991  0.00  0.00    -0.082 A 
ATOM      7  C5  PXY d   1      -3.665   1.017   0.855  0.00  0.00     0.003 A 
ATOM      8  C6  PXY d   1      -2.493   1.758   0.978  0.00  0.00     0.003 A 
ENDROOT
TORSDOF 0
ENDMDL
