MODEL 1
REMARK minimizedAffinity 11.9684649
REMARK minimizedRMSD -1
REMARK  0 active torsions:
REMARK  status: ('A' for Active; 'I' for Inactive)
ROOT
ATOM      1  C4' PXY d   1       0.119   3.039   3.043  0.00  0.00     0.077 C 
ATOM      2  C1' PXY d   1      -3.639  -0.762   0.843  0.00  0.00     0.077 C 
ATOM      3  C1  PXY d   1      -2.660   0.244   1.414  0.00  0.00    -0.082 A 
ATOM      4  C2  PXY d   1      -1.469  -0.162   1.823  0.00  0.00     0.003 A 
ATOM      5  C3  PXY d   1      -0.583   0.730   2.371  0.00  0.00     0.003 A 
ATOM      6  C4  PXY d   1      -0.898   2.060   2.452  0.00  0.00    -0.082 A 
ATOM      7  C5  PXY d   1      -2.107   2.483   2.027  0.00  0.00     0.003 A 
ATOM      8  C6  PXY d   1      -3.008   1.556   1.511  0.00  0.00     0.003 A 
ENDROOT
TORSDOF 0
ENDMDL
