MODEL 1
REMARK minimizedAffinity 8.998209
REMARK minimizedRMSD -1
REMARK  0 active torsions:
REMARK  status: ('A' for Active; 'I' for Inactive)
ROOT
ATOM      1  C4' PXY d   1       0.600   2.611   3.187  0.00  0.00     0.077 C 
ATOM      2  C1' PXY d   1      -3.377  -1.082   1.196  0.00  0.00     0.077 C 
ATOM      3  C1  PXY d   1      -2.339  -0.104   1.711  0.00  0.00    -0.082 A 
ATOM      4  C2  PXY d   1      -1.176  -0.556   2.150  0.00  0.00     0.003 A 
ATOM      5  C3  PXY d   1      -0.238   0.312   2.649  0.00  0.00     0.003 A 
ATOM      6  C4  PXY d   1      -0.473   1.661   2.649  0.00  0.00    -0.082 A 
ATOM      7  C5  PXY d   1      -1.654   2.130   2.193  0.00  0.00     0.003 A 
ATOM      8  C6  PXY d   1      -2.608   1.230   1.729  0.00  0.00     0.003 A 
ENDROOT
TORSDOF 0
ENDMDL
