MODEL 1
REMARK minimizedAffinity 1.65138137
REMARK minimizedRMSD -1
REMARK  0 active torsions:
REMARK  status: ('A' for Active; 'I' for Inactive)
ROOT
ATOM      1  C4' PXY d   1      -3.215   1.402   1.308  0.00  0.00     0.077 C 
ATOM      2  C1' PXY d   1      -3.249  -4.092  -0.491  0.00  0.00     0.077 C 
ATOM      3  C1  PXY d   1      -3.229  -2.653  -0.012  0.00  0.00    -0.082 A 
ATOM      4  C2  PXY d   1      -4.360  -1.970   0.053  0.00  0.00     0.003 A 
ATOM      5  C3  PXY d   1      -4.356  -0.658   0.453  0.00  0.00     0.003 A 
ATOM      6  C4  PXY d   1      -3.189  -0.056   0.840  0.00  0.00    -0.082 A 
ATOM      7  C5  PXY d   1      -2.032  -0.750   0.786  0.00  0.00     0.003 A 
ATOM      8  C6  PXY d   1      -2.052  -2.067   0.339  0.00  0.00     0.003 A 
ENDROOT
TORSDOF 0
ENDMDL
