MODEL 1
REMARK minimizedAffinity 15.0545206
REMARK minimizedRMSD -1
REMARK  0 active torsions:
REMARK  status: ('A' for Active; 'I' for Inactive)
ROOT
ATOM      1  C4' PXY d   1       4.225   4.519  -4.854  0.00  0.00     0.077 C 
ATOM      2  C1' PXY d   1       1.257   2.726  -0.229  0.00  0.00     0.077 C 
ATOM      3  C1  PXY d   1       2.026   3.206  -1.444  0.00  0.00    -0.082 A 
ATOM      4  C2  PXY d   1       2.821   2.366  -2.089  0.00  0.00     0.003 A 
ATOM      5  C3  PXY d   1       3.549   2.792  -3.170  0.00  0.00     0.003 A 
ATOM      6  C4  PXY d   1       3.421   4.076  -3.629  0.00  0.00    -0.082 A 
ATOM      7  C5  PXY d   1       2.604   4.935  -2.983  0.00  0.00     0.003 A 
ATOM      8  C6  PXY d   1       1.906   4.495  -1.863  0.00  0.00     0.003 A 
ENDROOT
TORSDOF 0
ENDMDL
