MODEL 1
REMARK minimizedAffinity 12.9312782
REMARK minimizedRMSD -1
REMARK  0 active torsions:
REMARK  status: ('A' for Active; 'I' for Inactive)
ROOT
ATOM      1  C4' PXY d   1      -0.330   0.735   1.875  0.00  0.00     0.077 C 
ATOM      2  C1' PXY d   1      -6.000   0.759   3.004  0.00  0.00     0.077 C 
ATOM      3  C1  PXY d   1      -4.516   0.752   2.695  0.00  0.00    -0.082 A 
ATOM      4  C2  PXY d   1      -3.655   0.376   3.627  0.00  0.00     0.003 A 
ATOM      5  C3  PXY d   1      -2.308   0.393   3.375  0.00  0.00     0.003 A 
ATOM      6  C4  PXY d   1      -1.839   0.749   2.139  0.00  0.00    -0.082 A 
ATOM      7  C5  PXY d   1      -2.710   1.124   1.179  0.00  0.00     0.003 A 
ATOM      8  C6  PXY d   1      -4.072   1.139   1.468  0.00  0.00     0.003 A 
ENDROOT
TORSDOF 0
ENDMDL
