MODEL 1
REMARK minimizedAffinity 0.831254303
REMARK minimizedRMSD -1
REMARK  0 active torsions:
REMARK  status: ('A' for Active; 'I' for Inactive)
ROOT
ATOM      1  C4' PXY d   1      -5.566   0.716   2.085  0.00  0.00     0.077 C 
ATOM      2  C1' PXY d   1       0.195   0.573   2.543  0.00  0.00     0.077 C 
ATOM      3  C1  PXY d   1      -1.315   0.619   2.412  0.00  0.00    -0.082 A 
ATOM      4  C2  PXY d   1      -2.070   0.390   3.474  0.00  0.00     0.003 A 
ATOM      5  C3  PXY d   1      -3.437   0.395   3.367  0.00  0.00     0.003 A 
ATOM      6  C4  PXY d   1      -4.037   0.690   2.172  0.00  0.00    -0.082 A 
ATOM      7  C5  PXY d   1      -3.273   0.935   1.086  0.00  0.00     0.003 A 
ATOM      8  C6  PXY d   1      -1.888   0.884   1.207  0.00  0.00     0.003 A 
ENDROOT
TORSDOF 0
ENDMDL
