MODEL 1
REMARK minimizedAffinity -2.12067866
REMARK minimizedRMSD -1
REMARK  0 active torsions:
REMARK  status: ('A' for Active; 'I' for Inactive)
ROOT
ATOM      1  N1  IND d   1       2.227   1.992   2.103  0.00  0.00    -0.196 N 
ATOM      2  C2  IND d   1       2.778   3.057   1.447  0.00  0.00     0.054 A 
ATOM      3  C3  IND d   1       2.378   3.073   0.156  0.00  0.00    -0.031 A 
ATOM      4  C4  IND d   1       0.740   1.509  -1.069  0.00  0.00     0.051 A 
ATOM      5  C5  IND d   1       0.008   0.368  -0.897  0.00  0.00    -0.031 A 
ATOM      6  C6  IND d   1      -0.024  -0.302   0.309  0.00  0.00     0.015 A 
ATOM      7  C7  IND d   1       0.668   0.152   1.396  0.00  0.00    -0.016 A 
ATOM      8  C8  IND d   1       1.418   1.307   1.223  0.00  0.00    -0.047 A 
ATOM      9  C9  IND d   1       1.489   1.967  -0.010  0.00  0.00    -0.096 A 
ATOM     10  HN1 IND d   1       2.362   1.784   2.926  0.00  0.00     0.298 HD
ENDROOT
TORSDOF 0
ENDMDL
