MODEL 1
REMARK minimizedAffinity -5.77264357
REMARK minimizedRMSD -1
REMARK  0 active torsions:
REMARK  status: ('A' for Active; 'I' for Inactive)
ROOT
ATOM      1  N1  IND d   1       0.123  -0.342   0.065  0.00  0.00    -0.196 N 
ATOM      2  C2  IND d   1       0.639   0.148  -1.102  0.00  0.00     0.054 A 
ATOM      3  C3  IND d   1      -0.341   0.309  -2.019  0.00  0.00    -0.031 A 
ATOM      4  C4  IND d   1      -2.876  -0.071  -1.787  0.00  0.00     0.051 A 
ATOM      5  C5  IND d   1      -3.819  -0.548  -0.920  0.00  0.00    -0.031 A 
ATOM      6  C6  IND d   1      -3.490  -0.987   0.346  0.00  0.00     0.015 A 
ATOM      7  C7  IND d   1      -2.201  -0.954   0.799  0.00  0.00    -0.016 A 
ATOM      8  C8  IND d   1      -1.240  -0.477  -0.081  0.00  0.00    -0.047 A 
ATOM      9  C9  IND d   1      -1.562  -0.070  -1.382  0.00  0.00    -0.096 A 
ATOM     10  HN1 IND d   1       0.573  -0.533   0.772  0.00  0.00     0.298 HD
ENDROOT
TORSDOF 0
ENDMDL
