MODEL 1
REMARK minimizedAffinity -0.0940809697
REMARK minimizedRMSD -1
REMARK  0 active torsions:
REMARK  status: ('A' for Active; 'I' for Inactive)
ROOT
ATOM      1  N1  IND d   1       0.979  -0.186   0.885  0.00  0.00    -0.196 N 
ATOM      2  C2  IND d   1       1.426   0.965   0.301  0.00  0.00     0.054 A 
ATOM      3  C3  IND d   1       0.506   1.439  -0.569  0.00  0.00    -0.031 A 
ATOM      4  C4  IND d   1      -1.844   0.541  -1.115  0.00  0.00     0.051 A 
ATOM      5  C5  IND d   1      -2.683  -0.507  -0.859  0.00  0.00    -0.031 A 
ATOM      6  C6  IND d   1      -2.338  -1.521   0.011  0.00  0.00     0.015 A 
ATOM      7  C7  IND d   1      -1.141  -1.519   0.670  0.00  0.00    -0.016 A 
ATOM      8  C8  IND d   1      -0.284  -0.460   0.407  0.00  0.00    -0.047 A 
ATOM      9  C9  IND d   1      -0.611   0.550  -0.508  0.00  0.00    -0.096 A 
ATOM     10  HN1 IND d   1       1.413  -0.661   1.456  0.00  0.00     0.298 HD
ENDROOT
TORSDOF 0
ENDMDL
