MODEL 1
REMARK minimizedAffinity -3.72800279
REMARK minimizedRMSD -1
REMARK  0 active torsions:
REMARK  status: ('A' for Active; 'I' for Inactive)
ROOT
ATOM      1  N1  IND d   1      -3.055  -0.883  -1.109  0.00  0.00    -0.196 N 
ATOM      2  C2  IND d   1      -2.641  -1.398  -2.306  0.00  0.00     0.054 A 
ATOM      3  C3  IND d   1      -1.335  -1.119  -2.512  0.00  0.00    -0.031 A 
ATOM      4  C4  IND d   1       0.344   0.081  -0.972  0.00  0.00     0.051 A 
ATOM      5  C5  IND d   1       0.425   0.761   0.210  0.00  0.00    -0.031 A 
ATOM      6  C6  IND d   1      -0.671   0.929   1.032  0.00  0.00     0.015 A 
ATOM      7  C7  IND d   1      -1.892   0.411   0.705  0.00  0.00    -0.016 A 
ATOM      8  C8  IND d   1      -1.980  -0.275  -0.499  0.00  0.00    -0.047 A 
ATOM      9  C9  IND d   1      -0.881  -0.412  -1.357  0.00  0.00    -0.096 A 
ATOM     10  HN1 IND d   1      -3.852  -0.932  -0.790  0.00  0.00     0.298 HD
ENDROOT
TORSDOF 0
ENDMDL
