MODEL 1
REMARK minimizedAffinity -2.86943412
REMARK minimizedRMSD -1
REMARK  0 active torsions:
REMARK  status: ('A' for Active; 'I' for Inactive)
ROOT
ATOM      1  N1  IND d   1      -1.344  -1.934  -0.379  0.00  0.00    -0.196 N 
ATOM      2  C2  IND d   1      -2.281  -1.548  -1.297  0.00  0.00     0.054 A 
ATOM      3  C3  IND d   1      -2.193  -0.219  -1.529  0.00  0.00    -0.031 A 
ATOM      4  C4  IND d   1      -0.520   1.498  -0.589  0.00  0.00     0.051 A 
ATOM      5  C5  IND d   1       0.499   1.627   0.312  0.00  0.00    -0.031 A 
ATOM      6  C6  IND d   1       0.967   0.553   1.042  0.00  0.00     0.015 A 
ATOM      7  C7  IND d   1       0.439  -0.697   0.888  0.00  0.00    -0.016 A 
ATOM      8  C8  IND d   1      -0.601  -0.830  -0.021  0.00  0.00    -0.047 A 
ATOM      9  C9  IND d   1      -1.109   0.264  -0.733  0.00  0.00    -0.096 A 
ATOM     10  HN1 IND d   1      -1.237  -2.731  -0.076  0.00  0.00     0.298 HD
ENDROOT
TORSDOF 0
ENDMDL
