MODEL 1
REMARK minimizedAffinity 1.44693959
REMARK minimizedRMSD -1
REMARK  0 active torsions:
REMARK  status: ('A' for Active; 'I' for Inactive)
ROOT
ATOM      1  N1  IND d   1       1.082  -0.711  -0.168  0.00  0.00    -0.196 N 
ATOM      2  C2  IND d   1       0.643   0.032  -1.228  0.00  0.00     0.054 A 
ATOM      3  C3  IND d   1      -0.659   0.358  -1.068  0.00  0.00    -0.031 A 
ATOM      4  C4  IND d   1      -2.237  -0.136   0.905  0.00  0.00     0.051 A 
ATOM      5  C5  IND d   1      -2.302  -0.815   2.089  0.00  0.00    -0.031 A 
ATOM      6  C6  IND d   1      -1.219  -1.505   2.593  0.00  0.00     0.015 A 
ATOM      7  C7  IND d   1      -0.022  -1.534   1.934  0.00  0.00    -0.016 A 
ATOM      8  C8  IND d   1       0.044  -0.851   0.728  0.00  0.00    -0.047 A 
ATOM      9  C9  IND d   1      -1.064  -0.184   0.190  0.00  0.00    -0.096 A 
ATOM     10  HN1 IND d   1       1.872  -1.037  -0.076  0.00  0.00     0.298 HD
ENDROOT
TORSDOF 0
ENDMDL
