MODEL 1
REMARK minimizedAffinity -2.18998957
REMARK minimizedRMSD -1
REMARK  0 active torsions:
REMARK  status: ('A' for Active; 'I' for Inactive)
ROOT
ATOM      1  N1  IND d   1       1.446  -0.414  -0.603  0.00  0.00    -0.196 N 
ATOM      2  C2  IND d   1       1.027   0.305  -1.687  0.00  0.00     0.054 A 
ATOM      3  C3  IND d   1      -0.321   0.267  -1.785  0.00  0.00    -0.031 A 
ATOM      4  C4  IND d   1      -2.043  -0.832  -0.219  0.00  0.00     0.051 A 
ATOM      5  C5  IND d   1      -2.139  -1.633   0.885  0.00  0.00    -0.031 A 
ATOM      6  C6  IND d   1      -1.023  -2.075   1.564  0.00  0.00     0.015 A 
ATOM      7  C7  IND d   1       0.237  -1.722   1.170  0.00  0.00    -0.016 A 
ATOM      8  C8  IND d   1       0.339  -0.915   0.046  0.00  0.00    -0.047 A 
ATOM      9  C9  IND d   1      -0.789  -0.498  -0.673  0.00  0.00    -0.096 A 
ATOM     10  HN1 IND d   1       2.264  -0.534  -0.366  0.00  0.00     0.298 HD
ENDROOT
TORSDOF 0
ENDMDL
