MODEL 1
REMARK minimizedAffinity -4.94391251
REMARK minimizedRMSD -1
REMARK  0 active torsions:
REMARK  status: ('A' for Active; 'I' for Inactive)
ROOT
ATOM      1  N1  IND d   1       1.236   1.980   0.125  0.00  0.00    -0.196 N 
ATOM      2  C2  IND d   1       2.095   1.036   0.615  0.00  0.00     0.054 A 
ATOM      3  C3  IND d   1       1.473  -0.160   0.715  0.00  0.00    -0.031 A 
ATOM      4  C4  IND d   1      -0.921  -0.820   0.036  0.00  0.00     0.051 A 
ATOM      5  C5  IND d   1      -2.094  -0.292  -0.425  0.00  0.00    -0.031 A 
ATOM      6  C6  IND d   1      -2.219   1.047  -0.735  0.00  0.00     0.015 A 
ATOM      7  C7  IND d   1      -1.167   1.909  -0.606  0.00  0.00    -0.016 A 
ATOM      8  C8  IND d   1       0.024   1.378  -0.131  0.00  0.00    -0.047 A 
ATOM      9  C9  IND d   1       0.144   0.029   0.226  0.00  0.00    -0.096 A 
ATOM     10  HN1 IND d   1       1.422   2.810  -0.002  0.00  0.00     0.298 HD
ENDROOT
TORSDOF 0
ENDMDL
