MODEL 1
REMARK minimizedAffinity -5.94822407
REMARK minimizedRMSD -1
REMARK  0 active torsions:
REMARK  status: ('A' for Active; 'I' for Inactive)
ROOT
ATOM      1  N1  IND d   1      -0.269  -0.764   0.832  0.00  0.00    -0.196 N 
ATOM      2  C2  IND d   1       1.021  -0.314   0.769  0.00  0.00     0.054 A 
ATOM      3  C3  IND d   1       1.224   0.370  -0.380  0.00  0.00    -0.031 A 
ATOM      4  C4  IND d   1      -0.444   0.960  -2.249  0.00  0.00     0.051 A 
ATOM      5  C5  IND d   1      -1.730   0.738  -2.655  0.00  0.00    -0.031 A 
ATOM      6  C6  IND d   1      -2.613  -0.009  -1.903  0.00  0.00     0.015 A 
ATOM      7  C7  IND d   1      -2.245  -0.554  -0.706  0.00  0.00    -0.016 A 
ATOM      8  C8  IND d   1      -0.938  -0.337  -0.294  0.00  0.00    -0.047 A 
ATOM      9  C9  IND d   1      -0.024   0.385  -1.073  0.00  0.00    -0.096 A 
ATOM     10  HN1 IND d   1      -0.605  -1.234   1.468  0.00  0.00     0.298 HD
ENDROOT
TORSDOF 0
ENDMDL
