MODEL 1
REMARK minimizedAffinity -5.24116182
REMARK minimizedRMSD -1
REMARK  0 active torsions:
REMARK  status: ('A' for Active; 'I' for Inactive)
ROOT
ATOM      1  N1  IND d   1      -0.043  -0.042   1.410  0.00  0.00    -0.196 N 
ATOM      2  C2  IND d   1       1.165   0.458   1.012  0.00  0.00     0.054 A 
ATOM      3  C3  IND d   1       1.232   0.507  -0.337  0.00  0.00    -0.031 A 
ATOM      4  C4  IND d   1      -0.561  -0.084  -2.087  0.00  0.00     0.051 A 
ATOM      5  C5  IND d   1      -1.814  -0.617  -2.207  0.00  0.00    -0.031 A 
ATOM      6  C6  IND d   1      -2.557  -0.990  -1.106  0.00  0.00     0.015 A 
ATOM      7  C7  IND d   1      -2.077  -0.833   0.164  0.00  0.00    -0.016 A 
ATOM      8  C8  IND d   1      -0.802  -0.299   0.290  0.00  0.00    -0.047 A 
ATOM      9  C9  IND d   1      -0.027   0.042  -0.826  0.00  0.00    -0.096 A 
ATOM     10  HN1 IND d   1      -0.289  -0.173   2.224  0.00  0.00     0.298 HD
ENDROOT
TORSDOF 0
ENDMDL
