MODEL 1
REMARK minimizedAffinity -1.66530466
REMARK minimizedRMSD -1
REMARK  0 active torsions:
REMARK  status: ('A' for Active; 'I' for Inactive)
ROOT
ATOM      1  N1  IND d   1       0.955   3.334   0.424  0.00  0.00    -0.196 N 
ATOM      2  C2  IND d   1       2.105   2.880   1.008  0.00  0.00     0.054 A 
ATOM      3  C3  IND d   1       2.167   1.532   0.937  0.00  0.00    -0.031 A 
ATOM      4  C4  IND d   1       0.545  -0.124  -0.183  0.00  0.00     0.051 A 
ATOM      5  C5  IND d   1      -0.665  -0.186  -0.815  0.00  0.00    -0.031 A 
ATOM      6  C6  IND d   1      -1.411   0.945  -1.074  0.00  0.00     0.015 A 
ATOM      7  C7  IND d   1      -0.967   2.188  -0.719  0.00  0.00    -0.016 A 
ATOM      8  C8  IND d   1       0.258   2.254  -0.071  0.00  0.00    -0.047 A 
ATOM      9  C9  IND d   1       1.000   1.105   0.232  0.00  0.00    -0.096 A 
ATOM     10  HN1 IND d   1       0.708   4.157   0.374  0.00  0.00     0.298 HD
ENDROOT
TORSDOF 0
ENDMDL
