MODEL 1
REMARK minimizedAffinity -1.34306312
REMARK minimizedRMSD -1
REMARK  0 active torsions:
REMARK  status: ('A' for Active; 'I' for Inactive)
ROOT
ATOM      1  N1  IND d   1       1.176   2.975   0.486  0.00  0.00    -0.196 N 
ATOM      2  C2  IND d   1       2.529   3.017   0.676  0.00  0.00     0.054 A 
ATOM      3  C3  IND d   1       3.013   1.771   0.878  0.00  0.00    -0.031 A 
ATOM      4  C4  IND d   1       1.783  -0.490   0.835  0.00  0.00     0.051 A 
ATOM      5  C5  IND d   1       0.533  -1.034   0.735  0.00  0.00    -0.031 A 
ATOM      6  C6  IND d   1      -0.588  -0.255   0.539  0.00  0.00     0.015 A 
ATOM      7  C7  IND d   1      -0.500   1.104   0.425  0.00  0.00    -0.016 A 
ATOM      8  C8  IND d   1       0.766   1.661   0.534  0.00  0.00    -0.047 A 
ATOM      9  C9  IND d   1       1.903   0.878   0.775  0.00  0.00    -0.096 A 
ATOM     10  HN1 IND d   1       0.666   3.656   0.357  0.00  0.00     0.298 HD
ENDROOT
TORSDOF 0
ENDMDL
