MODEL 1
REMARK minimizedAffinity -4.57940817
REMARK minimizedRMSD -1
REMARK  0 active torsions:
REMARK  status: ('A' for Active; 'I' for Inactive)
ROOT
ATOM      1  N1  IND d   1       1.578  -0.433   0.568  0.00  0.00    -0.196 N 
ATOM      2  C2  IND d   1       0.632  -0.806   1.482  0.00  0.00     0.054 A 
ATOM      3  C3  IND d   1       0.322   0.232   2.290  0.00  0.00    -0.031 A 
ATOM      4  C4  IND d   1       1.170   2.662   2.228  0.00  0.00     0.051 A 
ATOM      5  C5  IND d   1       2.070   3.474   1.594  0.00  0.00    -0.031 A 
ATOM      6  C6  IND d   1       2.865   3.016   0.564  0.00  0.00     0.015 A 
ATOM      7  C7  IND d   1       2.782   1.727   0.119  0.00  0.00    -0.016 A 
ATOM      8  C8  IND d   1       1.876   0.898   0.764  0.00  0.00    -0.047 A 
ATOM      9  C9  IND d   1       1.096   1.346   1.839  0.00  0.00    -0.096 A 
ATOM     10  HN1 IND d   1       1.929  -0.943  -0.028  0.00  0.00     0.298 HD
ENDROOT
TORSDOF 0
ENDMDL
