MODEL 1
REMARK minimizedAffinity 3.62056494
REMARK minimizedRMSD -1
REMARK  0 active torsions:
REMARK  status: ('A' for Active; 'I' for Inactive)
ROOT
ATOM      1  C1  DEN d   1      -2.519   0.386   3.165  0.00  0.00     0.130 A 
ATOM      2  C2  DEN d   1      -1.762   0.663   1.947  0.00  0.00    -0.031 A 
ATOM      3  C3  DEN d   1      -1.252  -0.621   1.425  0.00  0.00     0.027 A 
ATOM      4  C4  DEN d   1      -1.563  -2.998   2.376  0.00  0.00     0.027 A 
ATOM      5  C5  DEN d   1      -2.119  -3.734   3.398  0.00  0.00    -0.003 A 
ATOM      6  C6  DEN d   1      -2.813  -3.150   4.425  0.00  0.00     0.001 A 
ATOM      7  C7  DEN d   1      -3.008  -1.794   4.427  0.00  0.00     0.017 A 
ATOM      8  C8  DEN d   1      -2.444  -1.044   3.404  0.00  0.00    -0.094 A 
ATOM      9  C9  DEN d   1      -1.756  -1.655   2.368  0.00  0.00    -0.072 A 
ENDROOT
TORSDOF 0
ENDMDL
