MODEL 1
REMARK minimizedAffinity 6.54743481
REMARK minimizedRMSD -1
REMARK  0 active torsions:
REMARK  status: ('A' for Active; 'I' for Inactive)
ROOT
ATOM      1  C1  DEN d   1       1.257   6.000  -5.948  0.00  0.00     0.130 A 
ATOM      2  C2  DEN d   1       0.213   4.998  -5.756  0.00  0.00    -0.031 A 
ATOM      3  C3  DEN d   1       0.820   3.826  -5.094  0.00  0.00     0.027 A 
ATOM      4  C4  DEN d   1       3.264   3.469  -4.349  0.00  0.00     0.027 A 
ATOM      5  C5  DEN d   1       4.519   4.034  -4.311  0.00  0.00    -0.003 A 
ATOM      6  C6  DEN d   1       4.781   5.269  -4.842  0.00  0.00     0.001 A 
ATOM      7  C7  DEN d   1       3.763   6.000  -5.394  0.00  0.00     0.017 A 
ATOM      8  C8  DEN d   1       2.495   5.434  -5.443  0.00  0.00    -0.094 A 
ATOM      9  C9  DEN d   1       2.248   4.189  -4.890  0.00  0.00    -0.072 A 
ENDROOT
TORSDOF 0
ENDMDL
