MODEL 1
REMARK minimizedAffinity -0.128849015
REMARK minimizedRMSD -1
REMARK  0 active torsions:
REMARK  status: ('A' for Active; 'I' for Inactive)
ROOT
ATOM      1  C1  DEN d   1      -3.068   5.934  -2.273  0.00  0.00     0.130 A 
ATOM      2  C2  DEN d   1      -4.328   5.965  -3.010  0.00  0.00    -0.031 A 
ATOM      3  C3  DEN d   1      -4.013   5.998  -4.452  0.00  0.00     0.027 A 
ATOM      4  C4  DEN d   1      -1.708   6.000  -5.610  0.00  0.00     0.027 A 
ATOM      5  C5  DEN d   1      -0.347   5.992  -5.400  0.00  0.00    -0.003 A 
ATOM      6  C6  DEN d   1       0.199   6.000  -4.144  0.00  0.00     0.001 A 
ATOM      7  C7  DEN d   1      -0.622   5.969  -3.047  0.00  0.00     0.017 A 
ATOM      8  C8  DEN d   1      -1.995   5.984  -3.250  0.00  0.00    -0.094 A 
ATOM      9  C9  DEN d   1      -2.527   5.964  -4.529  0.00  0.00    -0.072 A 
ENDROOT
TORSDOF 0
ENDMDL
