MODEL 1
REMARK minimizedAffinity 2.47930169
REMARK minimizedRMSD -1
REMARK  0 active torsions:
REMARK  status: ('A' for Active; 'I' for Inactive)
ROOT
ATOM      1  C1  DEN d   1      -1.464   5.975  -5.140  0.00  0.00     0.130 A 
ATOM      2  C2  DEN d   1      -0.004   5.974  -5.108  0.00  0.00    -0.031 A 
ATOM      3  C3  DEN d   1       0.422   5.962  -3.694  0.00  0.00     0.027 A 
ATOM      4  C4  DEN d   1      -1.030   5.941  -1.563  0.00  0.00     0.027 A 
ATOM      5  C5  DEN d   1      -2.321   5.948  -1.084  0.00  0.00    -0.003 A 
ATOM      6  C6  DEN d   1      -3.408   6.000  -1.916  0.00  0.00     0.001 A 
ATOM      7  C7  DEN d   1      -3.224   5.999  -3.274  0.00  0.00     0.017 A 
ATOM      8  C8  DEN d   1      -1.925   5.999  -3.764  0.00  0.00    -0.094 A 
ATOM      9  C9  DEN d   1      -0.839   5.935  -2.906  0.00  0.00    -0.072 A 
ENDROOT
TORSDOF 0
ENDMDL
