MODEL 1
REMARK minimizedAffinity 5.82166338
REMARK minimizedRMSD -1
REMARK  0 active torsions:
REMARK  status: ('A' for Active; 'I' for Inactive)
ROOT
ATOM      1  C1  DEN d   1       4.401   5.884  -5.955  0.00  0.00     0.130 A 
ATOM      2  C2  DEN d   1       5.366   5.914  -4.859  0.00  0.00    -0.031 A 
ATOM      3  C3  DEN d   1       4.613   5.967  -3.590  0.00  0.00     0.027 A 
ATOM      4  C4  DEN d   1       2.061   6.000  -3.217  0.00  0.00     0.027 A 
ATOM      5  C5  DEN d   1       0.835   6.000  -3.845  0.00  0.00    -0.003 A 
ATOM      6  C6  DEN d   1       0.713   5.996  -5.209  0.00  0.00     0.001 A 
ATOM      7  C7  DEN d   1       1.837   5.946  -5.991  0.00  0.00     0.017 A 
ATOM      8  C8  DEN d   1       3.076   5.953  -5.365  0.00  0.00    -0.094 A 
ATOM      9  C9  DEN d   1       3.179   5.945  -3.985  0.00  0.00    -0.072 A 
ENDROOT
TORSDOF 0
ENDMDL
