MODEL 1
REMARK minimizedAffinity 3.08732891
REMARK minimizedRMSD -1
REMARK  0 active torsions:
REMARK  status: ('A' for Active; 'I' for Inactive)
ROOT
ATOM      1  C1  DEN d   1       1.609   5.778  -4.337  0.00  0.00     0.130 A 
ATOM      2  C2  DEN d   1       1.368   5.822  -5.777  0.00  0.00    -0.031 A 
ATOM      3  C3  DEN d   1      -0.089   5.915  -5.993  0.00  0.00     0.027 A 
ATOM      4  C4  DEN d   1      -1.987   5.999  -4.248  0.00  0.00     0.027 A 
ATOM      5  C5  DEN d   1      -2.275   5.977  -2.901  0.00  0.00    -0.003 A 
ATOM      6  C6  DEN d   1      -1.299   5.854  -1.948  0.00  0.00     0.001 A 
ATOM      7  C7  DEN d   1       0.016   5.794  -2.326  0.00  0.00     0.017 A 
ATOM      8  C8  DEN d   1       0.314   5.807  -3.682  0.00  0.00    -0.094 A 
ATOM      9  C9  DEN d   1      -0.686   5.945  -4.631  0.00  0.00    -0.072 A 
ENDROOT
TORSDOF 0
ENDMDL
