MODEL 1
REMARK minimizedAffinity -4.03120279
REMARK minimizedRMSD -1
REMARK  0 active torsions:
REMARK  status: ('A' for Active; 'I' for Inactive)
ROOT
ATOM      1  C1  DEN d   1       3.231   1.315   1.278  0.00  0.00     0.130 A 
ATOM      2  C2  DEN d   1       3.617   0.793   2.586  0.00  0.00    -0.031 A 
ATOM      3  C3  DEN d   1       2.386   0.415   3.308  0.00  0.00     0.027 A 
ATOM      4  C4  DEN d   1      -0.067   0.583   2.532  0.00  0.00     0.027 A 
ATOM      5  C5  DEN d   1      -0.895   0.973   1.502  0.00  0.00    -0.003 A 
ATOM      6  C6  DEN d   1      -0.411   1.532   0.349  0.00  0.00     0.001 A 
ATOM      7  C7  DEN d   1       0.940   1.675   0.178  0.00  0.00     0.017 A 
ATOM      8  C8  DEN d   1       1.781   1.290   1.215  0.00  0.00    -0.094 A 
ATOM      9  C9  DEN d   1       1.273   0.715   2.368  0.00  0.00    -0.072 A 
ENDROOT
TORSDOF 0
ENDMDL
