MODEL 1
REMARK minimizedAffinity 4.39569139
REMARK minimizedRMSD -1
REMARK  0 active torsions:
REMARK  status: ('A' for Active; 'I' for Inactive)
ROOT
ATOM      1  C1  DEN d   1       0.922   5.998  -2.981  0.00  0.00     0.130 A 
ATOM      2  C2  DEN d   1       1.026   5.970  -4.437  0.00  0.00    -0.031 A 
ATOM      3  C3  DEN d   1      -0.342   5.957  -4.993  0.00  0.00     0.027 A 
ATOM      4  C4  DEN d   1      -2.600   5.981  -3.746  0.00  0.00     0.027 A 
ATOM      5  C5  DEN d   1      -3.197   5.993  -2.505  0.00  0.00    -0.003 A 
ATOM      6  C6  DEN d   1      -2.469   5.973  -1.344  0.00  0.00     0.001 A 
ATOM      7  C7  DEN d   1      -1.100   5.986  -1.401  0.00  0.00     0.017 A 
ATOM      8  C8  DEN d   1      -0.491   5.967  -2.649  0.00  0.00    -0.094 A 
ATOM      9  C9  DEN d   1      -1.244   5.999  -3.811  0.00  0.00    -0.072 A 
ENDROOT
TORSDOF 0
ENDMDL
