MODEL 1
REMARK minimizedAffinity -0.396688432
REMARK minimizedRMSD -1
REMARK  0 active torsions:
REMARK  status: ('A' for Active; 'I' for Inactive)
ROOT
ATOM      1  C1  DEN d   1      -1.166   5.932  -5.943  0.00  0.00     0.130 A 
ATOM      2  C2  DEN d   1       0.290   5.962  -5.837  0.00  0.00    -0.031 A 
ATOM      3  C3  DEN d   1       0.643   5.996  -4.403  0.00  0.00     0.027 A 
ATOM      4  C4  DEN d   1      -0.917   6.000  -2.349  0.00  0.00     0.027 A 
ATOM      5  C5  DEN d   1      -2.231   5.993  -1.937  0.00  0.00    -0.003 A 
ATOM      6  C6  DEN d   1      -3.274   6.000  -2.825  0.00  0.00     0.001 A 
ATOM      7  C7  DEN d   1      -3.020   5.968  -4.171  0.00  0.00     0.017 A 
ATOM      8  C8  DEN d   1      -1.698   5.982  -4.593  0.00  0.00    -0.094 A 
ATOM      9  C9  DEN d   1      -0.657   5.963  -3.680  0.00  0.00    -0.072 A 
ENDROOT
TORSDOF 0
ENDMDL
