MODEL 1
REMARK minimizedAffinity 10.5301704
REMARK minimizedRMSD -1
REMARK  0 active torsions:
REMARK  status: ('A' for Active; 'I' for Inactive)
ROOT
ATOM      1  C1  DEN d   1      -2.637  -2.242  -4.321  0.00  0.00     0.130 A 
ATOM      2  C2  DEN d   1      -1.666  -1.171  -4.527  0.00  0.00    -0.031 A 
ATOM      3  C3  DEN d   1      -1.633  -0.344  -3.305  0.00  0.00     0.027 A 
ATOM      4  C4  DEN d   1      -2.980  -0.617  -1.123  0.00  0.00     0.027 A 
ATOM      5  C5  DEN d   1      -3.938  -1.372  -0.482  0.00  0.00    -0.003 A 
ATOM      6  C6  DEN d   1      -4.548  -2.441  -1.083  0.00  0.00     0.001 A 
ATOM      7  C7  DEN d   1      -4.175  -2.812  -2.348  0.00  0.00     0.017 A 
ATOM      8  C8  DEN d   1      -3.216  -2.051  -3.003  0.00  0.00    -0.094 A 
ATOM      9  C9  DEN d   1      -2.602  -0.982  -2.374  0.00  0.00    -0.072 A 
ENDROOT
TORSDOF 0
ENDMDL
