MODEL 1
REMARK minimizedAffinity -2.25885057
REMARK minimizedRMSD -1
REMARK  0 active torsions:
REMARK  status: ('A' for Active; 'I' for Inactive)
ROOT
ATOM      1  C1  DEN d   1      -2.845   5.986  -4.114  0.00  0.00     0.130 A 
ATOM      2  C2  DEN d   1      -2.840   5.999  -2.654  0.00  0.00    -0.031 A 
ATOM      3  C3  DEN d   1      -1.434   5.994  -2.202  0.00  0.00     0.027 A 
ATOM      4  C4  DEN d   1       0.724   5.971  -3.614  0.00  0.00     0.027 A 
ATOM      5  C5  DEN d   1       1.226   5.945  -4.896  0.00  0.00    -0.003 A 
ATOM      6  C6  DEN d   1       0.414   5.897  -5.998  0.00  0.00     0.001 A 
ATOM      7  C7  DEN d   1      -0.947   5.919  -5.839  0.00  0.00     0.017 A 
ATOM      8  C8  DEN d   1      -1.461   5.938  -4.549  0.00  0.00    -0.094 A 
ATOM      9  C9  DEN d   1      -0.623   5.998  -3.449  0.00  0.00    -0.072 A 
ENDROOT
TORSDOF 0
ENDMDL
