MODEL 1
REMARK minimizedAffinity 6.58084869
REMARK minimizedRMSD -1
REMARK  0 active torsions:
REMARK  status: ('A' for Active; 'I' for Inactive)
ROOT
ATOM      1  C1  DEN d   1      -0.977   5.963  -1.473  0.00  0.00     0.130 A 
ATOM      2  C2  DEN d   1      -2.432   5.997  -1.596  0.00  0.00    -0.031 A 
ATOM      3  C3  DEN d   1      -2.768   5.986  -3.034  0.00  0.00     0.027 A 
ATOM      4  C4  DEN d   1      -1.186   5.914  -5.070  0.00  0.00     0.027 A 
ATOM      5  C5  DEN d   1       0.133   5.886  -5.466  0.00  0.00    -0.003 A 
ATOM      6  C6  DEN d   1       1.166   5.916  -4.568  0.00  0.00     0.001 A 
ATOM      7  C7  DEN d   1       0.897   5.930  -3.225  0.00  0.00     0.017 A 
ATOM      8  C8  DEN d   1      -0.430   5.966  -2.817  0.00  0.00    -0.094 A 
ATOM      9  C9  DEN d   1      -1.461   5.922  -3.741  0.00  0.00    -0.072 A 
ENDROOT
TORSDOF 0
ENDMDL
