MODEL 1
REMARK minimizedAffinity 5.99452305
REMARK minimizedRMSD -1
REMARK  0 active torsions:
REMARK  status: ('A' for Active; 'I' for Inactive)
ROOT
ATOM      1  C1  DEN d   1      -1.673  -0.806  -3.249  0.00  0.00     0.130 A 
ATOM      2  C2  DEN d   1      -1.990  -1.057  -4.652  0.00  0.00    -0.031 A 
ATOM      3  C3  DEN d   1      -3.256  -1.816  -4.705  0.00  0.00     0.027 A 
ATOM      4  C4  DEN d   1      -4.749  -2.619  -2.761  0.00  0.00     0.027 A 
ATOM      5  C5  DEN d   1      -4.885  -2.654  -1.391  0.00  0.00    -0.003 A 
ATOM      6  C6  DEN d   1      -3.951  -2.109  -0.550  0.00  0.00     0.001 A 
ATOM      7  C7  DEN d   1      -2.860  -1.466  -1.072  0.00  0.00     0.017 A 
ATOM      8  C8  DEN d   1      -2.712  -1.434  -2.453  0.00  0.00    -0.094 A 
ATOM      9  C9  DEN d   1      -3.674  -1.979  -3.286  0.00  0.00    -0.072 A 
ENDROOT
TORSDOF 0
ENDMDL
