MODEL 1
REMARK minimizedAffinity 1.45289278
REMARK minimizedRMSD -1
REMARK  0 active torsions:
REMARK  status: ('A' for Active; 'I' for Inactive)
ROOT
ATOM      1  C1  DEN d   1      -2.487   5.963  -2.517  0.00  0.00     0.130 A 
ATOM      2  C2  DEN d   1      -3.784   5.975  -3.188  0.00  0.00    -0.031 A 
ATOM      3  C3  DEN d   1      -3.544   5.975  -4.645  0.00  0.00     0.027 A 
ATOM      4  C4  DEN d   1      -1.302   5.954  -5.920  0.00  0.00     0.027 A 
ATOM      5  C5  DEN d   1       0.069   5.953  -5.781  0.00  0.00    -0.003 A 
ATOM      6  C6  DEN d   1       0.678   5.990  -4.555  0.00  0.00     0.001 A 
ATOM      7  C7  DEN d   1      -0.085   5.983  -3.417  0.00  0.00     0.017 A 
ATOM      8  C8  DEN d   1      -1.467   5.991  -3.550  0.00  0.00    -0.094 A 
ATOM      9  C9  DEN d   1      -2.064   5.942  -4.798  0.00  0.00    -0.072 A 
ENDROOT
TORSDOF 0
ENDMDL
