MODEL 1
REMARK minimizedAffinity -3.70562935
REMARK minimizedRMSD -1
REMARK  1 active torsions:
REMARK  status: ('A' for Active; 'I' for Inactive)
REMARK    1  A    between atoms: C3_4  and  O_7 
ROOT
ATOM      1  C   UNL d   1       0.607  -0.191  -2.074  0.00  0.00    -0.033 A 
ATOM      2  C1  UNL d   1       0.184   1.123  -1.863  0.00  0.00     0.039 A 
ATOM      3  C2  UNL d   1      -0.588   1.439  -0.743  0.00  0.00    -0.080 A 
ATOM      4  C3  UNL d   1      -0.928   0.433   0.157  0.00  0.00     0.150 A 
ATOM      5  C4  UNL d   1      -0.506  -0.877  -0.045  0.00  0.00    -0.007 A 
ATOM      6  C5  UNL d   1       0.264  -1.190  -1.164  0.00  0.00     0.039 A 
ENDROOT
BRANCH   4   7
ATOM      7  O   UNL d   1      -1.683   0.692   1.262  0.00  0.00    -0.526 OA
ATOM      8  H5  UNL d   1      -1.926   1.633   1.256  0.00  0.00     0.418 HD
ENDBRANCH   4   7
TORSDOF 1
ENDMDL
