MODEL 1
REMARK minimizedAffinity -3.17469168
REMARK minimizedRMSD -1
REMARK  1 active torsions:
REMARK  status: ('A' for Active; 'I' for Inactive)
REMARK    1  A    between atoms: C3_4  and  O_7 
ROOT
ATOM      1  C   UNL d   1      -0.068  -0.264   3.296  0.00  0.00    -0.033 A 
ATOM      2  C1  UNL d   1      -1.077  -0.021   2.362  0.00  0.00     0.039 A 
ATOM      3  C2  UNL d   1      -0.766   0.075   1.004  0.00  0.00    -0.080 A 
ATOM      4  C3  UNL d   1       0.556  -0.076   0.594  0.00  0.00     0.150 A 
ATOM      5  C4  UNL d   1       1.566  -0.323   1.518  0.00  0.00    -0.007 A 
ATOM      6  C5  UNL d   1       1.253  -0.417   2.874  0.00  0.00     0.039 A 
ENDROOT
BRANCH   4   7
ATOM      7  O   UNL d   1       0.909   0.013  -0.720  0.00  0.00    -0.526 OA
ATOM      8  H5  UNL d   1       0.112   0.215  -1.239  0.00  0.00     0.418 HD
ENDBRANCH   4   7
TORSDOF 1
ENDMDL
