MODEL 1
REMARK minimizedAffinity -4.94406939
REMARK minimizedRMSD -1
REMARK  1 active torsions:
REMARK  status: ('A' for Active; 'I' for Inactive)
REMARK    1  A    between atoms: C3_4  and  O_7 
ROOT
ATOM      1  C   UNL d   1       1.437  -0.911   1.043  0.00  0.00    -0.033 A 
ATOM      2  C1  UNL d   1       0.324  -0.379   0.389  0.00  0.00     0.039 A 
ATOM      3  C2  UNL d   1      -0.453   0.599   1.013  0.00  0.00    -0.080 A 
ATOM      4  C3  UNL d   1      -0.106   1.036   2.288  0.00  0.00     0.150 A 
ATOM      5  C4  UNL d   1       1.003   0.513   2.944  0.00  0.00    -0.007 A 
ATOM      6  C5  UNL d   1       1.777  -0.464   2.320  0.00  0.00     0.039 A 
ENDROOT
BRANCH   4   7
ATOM      7  O   UNL d   1      -0.837   1.986   2.939  0.00  0.00    -0.526 OA
ATOM      8  H5  UNL d   1      -1.589   2.234   2.376  0.00  0.00     0.418 HD
ENDBRANCH   4   7
TORSDOF 1
ENDMDL
