MODEL 1
REMARK minimizedAffinity -1.9179008
REMARK minimizedRMSD -1
REMARK  1 active torsions:
REMARK  status: ('A' for Active; 'I' for Inactive)
REMARK    1  A    between atoms: C3_4  and  O_7 
ROOT
ATOM      1  C   UNL d   1      -1.019   0.214   2.681  0.00  0.00    -0.033 A 
ATOM      2  C1  UNL d   1       0.188  -0.437   2.422  0.00  0.00     0.039 A 
ATOM      3  C2  UNL d   1       0.503  -0.838   1.122  0.00  0.00    -0.080 A 
ATOM      4  C3  UNL d   1      -0.397  -0.580   0.091  0.00  0.00     0.150 A 
ATOM      5  C4  UNL d   1      -1.600   0.072   0.342  0.00  0.00    -0.007 A 
ATOM      6  C5  UNL d   1      -1.913   0.470   1.641  0.00  0.00     0.039 A 
ENDROOT
BRANCH   4   7
ATOM      7  O   UNL d   1      -0.137  -0.956  -1.193  0.00  0.00    -0.526 OA
ATOM      8  H5  UNL d   1       0.717  -1.421  -1.210  0.00  0.00     0.418 HD
ENDBRANCH   4   7
TORSDOF 1
ENDMDL
