MODEL 1
REMARK minimizedAffinity -4.73874378
REMARK minimizedRMSD -1
REMARK  1 active torsions:
REMARK  status: ('A' for Active; 'I' for Inactive)
REMARK    1  A    between atoms: C3_4  and  O_7 
ROOT
ATOM      1  C   UNL d   1       0.659  -0.741  -0.014  0.00  0.00    -0.033 A 
ATOM      2  C1  UNL d   1       1.440  -0.253   1.035  0.00  0.00     0.039 A 
ATOM      3  C2  UNL d   1       0.865   0.551   2.020  0.00  0.00    -0.080 A 
ATOM      4  C3  UNL d   1      -0.491   0.858   1.946  0.00  0.00     0.150 A 
ATOM      5  C4  UNL d   1      -1.276   0.372   0.906  0.00  0.00    -0.007 A 
ATOM      6  C5  UNL d   1      -0.699  -0.430  -0.078  0.00  0.00     0.039 A 
ENDROOT
BRANCH   4   7
ATOM      7  O   UNL d   1      -1.096   1.644   2.882  0.00  0.00    -0.526 OA
ATOM      8  H5  UNL d   1      -0.425   1.930   3.524  0.00  0.00     0.418 HD
ENDBRANCH   4   7
TORSDOF 1
ENDMDL
