MODEL 1
REMARK minimizedAffinity -4.84661865
REMARK minimizedRMSD -1
REMARK  1 active torsions:
REMARK  status: ('A' for Active; 'I' for Inactive)
REMARK    1  A    between atoms: C3_4  and  O_7 
ROOT
ATOM      1  C   UNL d   1      -1.231   0.248   2.615  0.00  0.00    -0.033 A 
ATOM      2  C1  UNL d   1      -1.248  -0.008   1.243  0.00  0.00     0.039 A 
ATOM      3  C2  UNL d   1      -0.058   0.008   0.512  0.00  0.00    -0.080 A 
ATOM      4  C3  UNL d   1       1.141   0.280   1.166  0.00  0.00     0.150 A 
ATOM      5  C4  UNL d   1       1.166   0.533   2.533  0.00  0.00    -0.007 A 
ATOM      6  C5  UNL d   1      -0.024   0.517   3.261  0.00  0.00     0.039 A 
ENDROOT
BRANCH   4   7
ATOM      7  O   UNL d   1       2.327   0.312   0.494  0.00  0.00    -0.526 OA
ATOM      8  H5  UNL d   1       2.152   0.147  -0.447  0.00  0.00     0.418 HD
ENDBRANCH   4   7
TORSDOF 1
ENDMDL
