MODEL 1
REMARK minimizedAffinity -3.72369361
REMARK minimizedRMSD -1
REMARK  0 active torsions:
REMARK  status: ('A' for Active; 'I' for Inactive)
ROOT
ATOM      1  C   UNL d   1      -1.126  -2.856   0.619  0.00  0.00    -0.002 A 
ATOM      2  C1  UNL d   1      -2.248  -2.039   0.634  0.00  0.00     0.010 A 
ATOM      3  C2  UNL d   1      -2.116  -0.651   0.562  0.00  0.00     0.041 A 
ATOM      4  C3  UNL d   1      -0.825  -0.093   0.472  0.00  0.00    -0.075 A 
ATOM      5  S   UNL d   1      -0.421   1.580   0.373  0.00  0.00     0.015 SA
ATOM      6  C4  UNL d   1       1.249   1.250   0.306  0.00  0.00     0.022 A 
ATOM      7  C5  UNL d   1       1.510  -0.099   0.358  0.00  0.00     0.026 A 
ATOM      8  C6  UNL d   1       0.319  -0.895   0.454  0.00  0.00    -0.082 A 
ATOM      9  C7  UNL d   1       0.152  -2.299   0.529  0.00  0.00     0.045 A 
ENDROOT
TORSDOF 0
ENDMDL
