MODEL 1
REMARK minimizedAffinity -2.56669831
REMARK minimizedRMSD -1
REMARK  0 active torsions:
REMARK  status: ('A' for Active; 'I' for Inactive)
ROOT
ATOM      1  C   UNL d   1      -0.278  -2.474   1.081  0.00  0.00    -0.002 A 
ATOM      2  C1  UNL d   1      -1.468  -2.265   0.399  0.00  0.00     0.010 A 
ATOM      3  C2  UNL d   1      -1.650  -1.118  -0.377  0.00  0.00     0.041 A 
ATOM      4  C3  UNL d   1      -0.605  -0.177  -0.458  0.00  0.00    -0.075 A 
ATOM      5  S   UNL d   1      -0.602   1.300  -1.348  0.00  0.00     0.015 SA
ATOM      6  C4  UNL d   1       0.980   1.687  -0.845  0.00  0.00     0.022 A 
ATOM      7  C5  UNL d   1       1.508   0.724  -0.017  0.00  0.00     0.026 A 
ATOM      8  C6  UNL d   1       0.604  -0.366   0.219  0.00  0.00    -0.082 A 
ATOM      9  C7  UNL d   1       0.757  -1.538   0.998  0.00  0.00     0.045 A 
ENDROOT
TORSDOF 0
ENDMDL
