MODEL 1
REMARK minimizedAffinity -1.42438006
REMARK minimizedRMSD -1
REMARK  0 active torsions:
REMARK  status: ('A' for Active; 'I' for Inactive)
ROOT
ATOM      1  C   UNL d   1      -1.214  -2.820   1.404  0.00  0.00    -0.002 A 
ATOM      2  C1  UNL d   1      -2.195  -1.862   1.617  0.00  0.00     0.010 A 
ATOM      3  C2  UNL d   1      -2.024  -0.556   1.154  0.00  0.00     0.041 A 
ATOM      4  C3  UNL d   1      -0.840  -0.226   0.465  0.00  0.00    -0.075 A 
ATOM      5  S   UNL d   1      -0.413   1.309  -0.194  0.00  0.00     0.015 SA
ATOM      6  C4  UNL d   1       1.080   0.728  -0.774  0.00  0.00     0.022 A 
ATOM      7  C5  UNL d   1       1.265  -0.602  -0.481  0.00  0.00     0.026 A 
ATOM      8  C6  UNL d   1       0.162  -1.175   0.237  0.00  0.00    -0.082 A 
ATOM      9  C7  UNL d   1      -0.041  -2.490   0.720  0.00  0.00     0.045 A 
ENDROOT
TORSDOF 0
ENDMDL
