MODEL 1
REMARK minimizedAffinity -2.62407732
REMARK minimizedRMSD -1
REMARK  0 active torsions:
REMARK  status: ('A' for Active; 'I' for Inactive)
ROOT
ATOM      1  C   UNL d   1      -0.395  -2.875   1.290  0.00  0.00    -0.002 A 
ATOM      2  C1  UNL d   1      -1.670  -2.327   1.280  0.00  0.00     0.010 A 
ATOM      3  C2  UNL d   1      -1.876  -1.015   0.848  0.00  0.00     0.041 A 
ATOM      4  C3  UNL d   1      -0.769  -0.257   0.419  0.00  0.00    -0.075 A 
ATOM      5  S   UNL d   1      -0.782   1.369  -0.153  0.00  0.00     0.015 SA
ATOM      6  C4  UNL d   1       0.905   1.375  -0.399  0.00  0.00     0.022 A 
ATOM      7  C5  UNL d   1       1.479   0.174  -0.058  0.00  0.00     0.026 A 
ATOM      8  C6  UNL d   1       0.524  -0.787   0.419  0.00  0.00    -0.082 A 
ATOM      9  C7  UNL d   1       0.701  -2.119   0.864  0.00  0.00     0.045 A 
ENDROOT
TORSDOF 0
ENDMDL
