MODEL 1
REMARK minimizedAffinity -1.87680018
REMARK minimizedRMSD -1
REMARK  0 active torsions:
REMARK  status: ('A' for Active; 'I' for Inactive)
ROOT
ATOM      1  C   UNL d   1      -1.154  -2.522   0.942  0.00  0.00    -0.002 A 
ATOM      2  C1  UNL d   1       0.171  -2.234   1.237  0.00  0.00     0.010 A 
ATOM      3  C2  UNL d   1       0.627  -0.914   1.243  0.00  0.00     0.041 A 
ATOM      4  C3  UNL d   1      -0.281   0.122   0.946  0.00  0.00    -0.075 A 
ATOM      5  S   UNL d   1       0.052   1.813   0.894  0.00  0.00     0.015 SA
ATOM      6  C4  UNL d   1      -1.557   2.193   0.480  0.00  0.00     0.022 A 
ATOM      7  C5  UNL d   1      -2.342   1.069   0.379  0.00  0.00     0.026 A 
ATOM      8  C6  UNL d   1      -1.620  -0.143   0.647  0.00  0.00    -0.082 A 
ATOM      9  C7  UNL d   1      -2.051  -1.492   0.648  0.00  0.00     0.045 A 
ENDROOT
TORSDOF 0
ENDMDL
