MODEL 1
REMARK minimizedAffinity -4.07938528
REMARK minimizedRMSD -1
REMARK  0 active torsions:
REMARK  status: ('A' for Active; 'I' for Inactive)
ROOT
ATOM      1  C   UNL d   1      -2.083   2.127   1.135  0.00  0.00     0.078 C 
ATOM      2  C1  UNL d   1      -1.020   1.162   0.704  0.00  0.00    -0.077 A 
ATOM      3  C2  UNL d   1      -0.337   1.334  -0.506  0.00  0.00    -0.001 A 
ATOM      4  C3  UNL d   1       0.645   0.422  -0.899  0.00  0.00     0.003 A 
ATOM      5  C4  UNL d   1       0.951  -0.669  -0.088  0.00  0.00    -0.005 A 
ATOM      6  C5  UNL d   1       0.275  -0.849   1.117  0.00  0.00     0.003 A 
ATOM      7  C6  UNL d   1      -0.706   0.061   1.512  0.00  0.00    -0.001 A 
ENDROOT
TORSDOF 0
ENDMDL
