MODEL 1
REMARK minimizedAffinity -3.82224965
REMARK minimizedRMSD -1
REMARK  0 active torsions:
REMARK  status: ('A' for Active; 'I' for Inactive)
ROOT
ATOM      1  C   UNL d   1      -2.277   1.735   1.365  0.00  0.00     0.078 C 
ATOM      2  C1  UNL d   1      -1.257   0.839   0.729  0.00  0.00    -0.077 A 
ATOM      3  C2  UNL d   1      -0.808  -0.317   1.378  0.00  0.00    -0.001 A 
ATOM      4  C3  UNL d   1       0.149  -1.137   0.779  0.00  0.00     0.003 A 
ATOM      5  C4  UNL d   1       0.666  -0.809  -0.473  0.00  0.00    -0.005 A 
ATOM      6  C5  UNL d   1       0.226   0.341  -1.127  0.00  0.00     0.003 A 
ATOM      7  C6  UNL d   1      -0.731   1.162  -0.528  0.00  0.00    -0.001 A 
ENDROOT
TORSDOF 0
ENDMDL
