MODEL 1
REMARK minimizedAffinity -3.29247165
REMARK minimizedRMSD -1
REMARK  0 active torsions:
REMARK  status: ('A' for Active; 'I' for Inactive)
ROOT
ATOM      1  C   UNL d   1      -2.225   1.716   0.518  0.00  0.00     0.078 C 
ATOM      2  C1  UNL d   1      -1.013   1.045  -0.054  0.00  0.00    -0.077 A 
ATOM      3  C2  UNL d   1      -0.177   1.713  -0.957  0.00  0.00    -0.001 A 
ATOM      4  C3  UNL d   1       0.943   1.072  -1.489  0.00  0.00     0.003 A 
ATOM      5  C4  UNL d   1       1.237  -0.241  -1.125  0.00  0.00    -0.005 A 
ATOM      6  C5  UNL d   1       0.409  -0.915  -0.229  0.00  0.00     0.003 A 
ATOM      7  C6  UNL d   1      -0.711  -0.275   0.304  0.00  0.00    -0.001 A 
ENDROOT
TORSDOF 0
ENDMDL
