MODEL 1
REMARK minimizedAffinity -3.92306972
REMARK minimizedRMSD -1
REMARK  0 active torsions:
REMARK  status: ('A' for Active; 'I' for Inactive)
ROOT
ATOM      1  C   UNL d   1       0.826  -0.351  -0.553  0.00  0.00     0.078 C 
ATOM      2  C1  UNL d   1      -0.070   0.577   0.211  0.00  0.00    -0.077 A 
ATOM      3  C2  UNL d   1      -0.902   1.486  -0.454  0.00  0.00    -0.001 A 
ATOM      4  C3  UNL d   1      -1.724   2.350   0.270  0.00  0.00     0.003 A 
ATOM      5  C4  UNL d   1      -1.722   2.315   1.663  0.00  0.00    -0.005 A 
ATOM      6  C5  UNL d   1      -0.896   1.415   2.334  0.00  0.00     0.003 A 
ATOM      7  C6  UNL d   1      -0.073   0.550   1.611  0.00  0.00    -0.001 A 
ENDROOT
TORSDOF 0
ENDMDL
