MODEL 1
REMARK minimizedAffinity -4.71857929
REMARK minimizedRMSD -1
REMARK  0 active torsions:
REMARK  status: ('A' for Active; 'I' for Inactive)
ROOT
ATOM      1  C   UNL d   1      -2.080   2.347   1.575  0.00  0.00     0.078 C 
ATOM      2  C1  UNL d   1      -1.085   1.289   1.204  0.00  0.00    -0.077 A 
ATOM      3  C2  UNL d   1      -0.815   0.219   2.066  0.00  0.00    -0.001 A 
ATOM      4  C3  UNL d   1       0.121  -0.754   1.712  0.00  0.00     0.003 A 
ATOM      5  C4  UNL d   1       0.797  -0.665   0.496  0.00  0.00    -0.005 A 
ATOM      6  C5  UNL d   1       0.537   0.398  -0.367  0.00  0.00     0.003 A 
ATOM      7  C6  UNL d   1      -0.399   1.371  -0.014  0.00  0.00    -0.001 A 
ENDROOT
TORSDOF 0
ENDMDL
