MODEL 1
REMARK minimizedAffinity -4.46713638
REMARK minimizedRMSD -1
REMARK  0 active torsions:
REMARK  status: ('A' for Active; 'I' for Inactive)
ROOT
ATOM      1  C   UNL d   1      -0.274  -0.782   1.203  0.00  0.00     0.078 C 
ATOM      2  C1  UNL d   1      -0.544   0.595   0.674  0.00  0.00    -0.077 A 
ATOM      3  C2  UNL d   1      -0.033   1.006  -0.563  0.00  0.00    -0.001 A 
ATOM      4  C3  UNL d   1      -0.285   2.294  -1.039  0.00  0.00     0.003 A 
ATOM      5  C4  UNL d   1      -1.047   3.182  -0.282  0.00  0.00    -0.005 A 
ATOM      6  C5  UNL d   1      -1.558   2.783   0.951  0.00  0.00     0.003 A 
ATOM      7  C6  UNL d   1      -1.307   1.496   1.428  0.00  0.00    -0.001 A 
ENDROOT
TORSDOF 0
ENDMDL
