MODEL 1
REMARK minimizedAffinity -5.30541325
REMARK minimizedRMSD -1
REMARK  0 active torsions:
REMARK  status: ('A' for Active; 'I' for Inactive)
ROOT
ATOM      1  C   UNL d   1      -2.372   1.729   0.760  0.00  0.00     0.078 C 
ATOM      2  C1  UNL d   1      -1.127   0.934   0.503  0.00  0.00    -0.077 A 
ATOM      3  C2  UNL d   1      -0.688  -0.033   1.416  0.00  0.00    -0.001 A 
ATOM      4  C3  UNL d   1       0.479  -0.759   1.169  0.00  0.00     0.003 A 
ATOM      5  C4  UNL d   1       1.217  -0.524   0.010  0.00  0.00    -0.005 A 
ATOM      6  C5  UNL d   1       0.789   0.438  -0.903  0.00  0.00     0.003 A 
ATOM      7  C6  UNL d   1      -0.378   1.164  -0.657  0.00  0.00    -0.001 A 
ENDROOT
TORSDOF 0
ENDMDL
