MODEL 1
REMARK minimizedAffinity -5.09184647
REMARK minimizedRMSD -1
REMARK  0 active torsions:
REMARK  status: ('A' for Active; 'I' for Inactive)
ROOT
ATOM      1  C   UNL d   1       1.397  -0.557  -0.574  0.00  0.00     0.078 C 
ATOM      2  C1  UNL d   1       0.274   0.017   0.237  0.00  0.00    -0.077 A 
ATOM      3  C2  UNL d   1       0.315   0.006   1.636  0.00  0.00    -0.001 A 
ATOM      4  C3  UNL d   1      -0.742   0.535   2.378  0.00  0.00     0.003 A 
ATOM      5  C4  UNL d   1      -1.849   1.078   1.730  0.00  0.00    -0.005 A 
ATOM      6  C5  UNL d   1      -1.901   1.092   0.337  0.00  0.00     0.003 A 
ATOM      7  C6  UNL d   1      -0.844   0.563  -0.406  0.00  0.00    -0.001 A 
ENDROOT
TORSDOF 0
ENDMDL
