MODEL 1
REMARK minimizedAffinity -4.14211178
REMARK minimizedRMSD -1
REMARK  0 active torsions:
REMARK  status: ('A' for Active; 'I' for Inactive)
ROOT
ATOM      1  C   UNL d   1      -2.219   2.198   0.769  0.00  0.00     0.078 C 
ATOM      2  C1  UNL d   1      -1.066   1.481   0.133  0.00  0.00    -0.077 A 
ATOM      3  C2  UNL d   1      -0.633   0.241   0.617  0.00  0.00    -0.001 A 
ATOM      4  C3  UNL d   1       0.449  -0.411   0.021  0.00  0.00     0.003 A 
ATOM      5  C4  UNL d   1       1.106   0.171  -1.061  0.00  0.00    -0.005 A 
ATOM      6  C5  UNL d   1       0.684   1.406  -1.548  0.00  0.00     0.003 A 
ATOM      7  C6  UNL d   1      -0.397   2.059  -0.953  0.00  0.00    -0.001 A 
ENDROOT
TORSDOF 0
ENDMDL
