MODEL 1
REMARK minimizedAffinity -4.20276213
REMARK minimizedRMSD -1
REMARK  0 active torsions:
REMARK  status: ('A' for Active; 'I' for Inactive)
ROOT
ATOM      1  C   UNL d   1       0.673  -1.046  -0.782  0.00  0.00     0.078 C 
ATOM      2  C1  UNL d   1      -0.160  -0.009  -0.091  0.00  0.00    -0.077 A 
ATOM      3  C2  UNL d   1      -0.796   1.006  -0.817  0.00  0.00    -0.001 A 
ATOM      4  C3  UNL d   1      -1.562   1.971  -0.160  0.00  0.00     0.003 A 
ATOM      5  C4  UNL d   1      -1.697   1.932   1.226  0.00  0.00    -0.005 A 
ATOM      6  C5  UNL d   1      -1.066   0.928   1.957  0.00  0.00     0.003 A 
ATOM      7  C6  UNL d   1      -0.300  -0.038   1.302  0.00  0.00    -0.001 A 
ENDROOT
TORSDOF 0
ENDMDL
