MODEL 1
REMARK minimizedAffinity -4.4311285
REMARK minimizedRMSD -1
REMARK  0 active torsions:
REMARK  status: ('A' for Active; 'I' for Inactive)
ROOT
ATOM      1  C   UNL d   1      -1.654   2.044   1.490  0.00  0.00     0.078 C 
ATOM      2  C1  UNL d   1      -0.620   1.348   0.657  0.00  0.00    -0.077 A 
ATOM      3  C2  UNL d   1      -0.225   0.036   0.946  0.00  0.00    -0.001 A 
ATOM      4  C3  UNL d   1       0.746  -0.597   0.168  0.00  0.00     0.003 A 
ATOM      5  C4  UNL d   1       1.331   0.075  -0.903  0.00  0.00    -0.005 A 
ATOM      6  C5  UNL d   1       0.947   1.382  -1.197  0.00  0.00     0.003 A 
ATOM      7  C6  UNL d   1      -0.024   2.016  -0.420  0.00  0.00    -0.001 A 
ENDROOT
TORSDOF 0
ENDMDL
