MODEL 1
REMARK minimizedAffinity -1.88365102
REMARK minimizedRMSD -1
REMARK  0 active torsions:
REMARK  status: ('A' for Active; 'I' for Inactive)
ROOT
ATOM      1  C   UNL d   1      -1.486   1.685   0.112  0.00  0.00     0.078 C 
ATOM      2  C1  UNL d   1      -0.520   0.547  -0.029  0.00  0.00    -0.077 A 
ATOM      3  C2  UNL d   1      -0.145  -0.222   1.079  0.00  0.00    -0.001 A 
ATOM      4  C3  UNL d   1       0.763  -1.272   0.934  0.00  0.00     0.003 A 
ATOM      5  C4  UNL d   1       1.305  -1.562  -0.316  0.00  0.00    -0.005 A 
ATOM      6  C5  UNL d   1       0.939  -0.800  -1.424  0.00  0.00     0.003 A 
ATOM      7  C6  UNL d   1       0.032   0.250  -1.282  0.00  0.00    -0.001 A 
ENDROOT
TORSDOF 0
ENDMDL
