MODEL 1
REMARK minimizedAffinity -4.79297066
REMARK minimizedRMSD -1
REMARK  0 active torsions:
REMARK  status: ('A' for Active; 'I' for Inactive)
ROOT
ATOM      1  C   UNL d   1      -2.442   1.507   1.506  0.00  0.00     0.078 C 
ATOM      2  C1  UNL d   1      -1.327   0.788   0.807  0.00  0.00    -0.077 A 
ATOM      3  C2  UNL d   1      -1.023   1.059  -0.533  0.00  0.00    -0.001 A 
ATOM      4  C3  UNL d   1       0.012   0.376  -1.173  0.00  0.00     0.003 A 
ATOM      5  C4  UNL d   1       0.749  -0.584  -0.483  0.00  0.00    -0.005 A 
ATOM      6  C5  UNL d   1       0.452  -0.862   0.850  0.00  0.00     0.003 A 
ATOM      7  C6  UNL d   1      -0.582  -0.179   1.492  0.00  0.00    -0.001 A 
ENDROOT
TORSDOF 0
ENDMDL
