MODEL 1
REMARK minimizedAffinity -5.27724648
REMARK minimizedRMSD -1
REMARK  0 active torsions:
REMARK  status: ('A' for Active; 'I' for Inactive)
ROOT
ATOM      1  C   UNL d   1       0.668  -0.946  -0.695  0.00  0.00     0.078 C 
ATOM      2  C1  UNL d   1      -0.126   0.053   0.092  0.00  0.00    -0.077 A 
ATOM      3  C2  UNL d   1      -0.160   0.007   1.491  0.00  0.00    -0.001 A 
ATOM      4  C3  UNL d   1      -0.912   0.938   2.210  0.00  0.00     0.003 A 
ATOM      5  C4  UNL d   1      -1.636   1.921   1.538  0.00  0.00    -0.005 A 
ATOM      6  C5  UNL d   1      -1.610   1.974   0.146  0.00  0.00     0.003 A 
ATOM      7  C6  UNL d   1      -0.859   1.044  -0.574  0.00  0.00    -0.001 A 
ENDROOT
TORSDOF 0
ENDMDL
