MODEL 1
REMARK minimizedAffinity -3.98889399
REMARK minimizedRMSD -1
REMARK  0 active torsions:
REMARK  status: ('A' for Active; 'I' for Inactive)
ROOT
ATOM      1  C   UNL d   1       0.037  -1.228   0.766  0.00  0.00     0.078 C 
ATOM      2  C1  UNL d   1      -0.206   0.199   0.374  0.00  0.00    -0.077 A 
ATOM      3  C2  UNL d   1       0.417   0.754  -0.750  0.00  0.00    -0.001 A 
ATOM      4  C3  UNL d   1       0.189   2.087  -1.098  0.00  0.00     0.003 A 
ATOM      5  C4  UNL d   1      -0.661   2.876  -0.325  0.00  0.00    -0.005 A 
ATOM      6  C5  UNL d   1      -1.283   2.333   0.797  0.00  0.00     0.003 A 
ATOM      7  C6  UNL d   1      -1.057   1.001   1.146  0.00  0.00    -0.001 A 
ENDROOT
TORSDOF 0
ENDMDL
