MODEL 1
REMARK minimizedAffinity -3.06098914
REMARK minimizedRMSD -1
REMARK  0 active torsions:
REMARK  status: ('A' for Active; 'I' for Inactive)
ROOT
ATOM      1  C   UNL d   1      -2.963  -1.064   2.544  0.00  0.00     0.077 C 
ATOM      2  C1  UNL d   1      -1.737  -0.417   1.972  0.00  0.00    -0.074 A 
ATOM      3  C2  UNL d   1      -0.980   0.484   2.728  0.00  0.00    -0.005 A 
ATOM      4  C3  UNL d   1       0.163   1.071   2.186  0.00  0.00     0.006 A 
ATOM      5  C4  UNL d   1       0.560   0.763   0.884  0.00  0.00    -0.005 A 
ATOM      6  C5  UNL d   1      -0.183  -0.136   0.113  0.00  0.00    -0.074 A 
ATOM      7  C6  UNL d   1       0.235  -0.485  -1.284  0.00  0.00     0.077 C 
ATOM      8  C7  UNL d   1      -1.327  -0.727   0.668  0.00  0.00    -0.001 A 
ENDROOT
TORSDOF 0
ENDMDL
