MODEL 1
REMARK minimizedAffinity -0.332138389
REMARK minimizedRMSD -1
REMARK  0 active torsions:
REMARK  status: ('A' for Active; 'I' for Inactive)
ROOT
ATOM      1  C   UNL d   1       0.390   0.835  -4.341  0.00  0.00     0.077 C 
ATOM      2  C1  UNL d   1       0.624   0.252  -2.979  0.00  0.00    -0.074 A 
ATOM      3  C2  UNL d   1       1.911  -0.098  -2.558  0.00  0.00    -0.005 A 
ATOM      4  C3  UNL d   1       2.114  -0.630  -1.285  0.00  0.00     0.006 A 
ATOM      5  C4  UNL d   1       1.034  -0.819  -0.422  0.00  0.00    -0.005 A 
ATOM      6  C5  UNL d   1      -0.260  -0.474  -0.825  0.00  0.00    -0.074 A 
ATOM      7  C6  UNL d   1      -1.430  -0.661   0.094  0.00  0.00     0.077 C 
ATOM      8  C7  UNL d   1      -0.455   0.067  -2.103  0.00  0.00    -0.001 A 
ENDROOT
TORSDOF 0
ENDMDL
