MODEL 1
REMARK minimizedAffinity -3.61793017
REMARK minimizedRMSD -1
REMARK  0 active torsions:
REMARK  status: ('A' for Active; 'I' for Inactive)
ROOT
ATOM      1  C   UNL d   1       1.462   0.708   1.981  0.00  0.00     0.077 C 
ATOM      2  C1  UNL d   1       0.449   0.455   0.904  0.00  0.00    -0.074 A 
ATOM      3  C2  UNL d   1      -0.921   0.560   1.166  0.00  0.00    -0.005 A 
ATOM      4  C3  UNL d   1      -1.851   0.331   0.152  0.00  0.00     0.006 A 
ATOM      5  C4  UNL d   1      -1.421  -0.005  -1.133  0.00  0.00    -0.005 A 
ATOM      6  C5  UNL d   1      -0.055  -0.114  -1.414  0.00  0.00    -0.074 A 
ATOM      7  C6  UNL d   1       0.424  -0.465  -2.791  0.00  0.00     0.077 C 
ATOM      8  C7  UNL d   1       0.873   0.124  -0.391  0.00  0.00    -0.001 A 
ENDROOT
TORSDOF 0
ENDMDL
