MODEL 1
REMARK minimizedAffinity -3.16523004
REMARK minimizedRMSD -1
REMARK  0 active torsions:
REMARK  status: ('A' for Active; 'I' for Inactive)
ROOT
ATOM      1  C   UNL d   1       1.472  -0.566  -1.042  0.00  0.00     0.077 C 
ATOM      2  C1  UNL d   1       0.295  -0.224  -0.178  0.00  0.00    -0.074 A 
ATOM      3  C2  UNL d   1      -0.996  -0.633  -0.526  0.00  0.00    -0.005 A 
ATOM      4  C3  UNL d   1      -2.079  -0.315   0.293  0.00  0.00     0.006 A 
ATOM      5  C4  UNL d   1      -1.883   0.414   1.466  0.00  0.00    -0.005 A 
ATOM      6  C5  UNL d   1      -0.600   0.832   1.831  0.00  0.00    -0.074 A 
ATOM      7  C6  UNL d   1      -0.370   1.608   3.094  0.00  0.00     0.077 C 
ATOM      8  C7  UNL d   1       0.485   0.502   1.007  0.00  0.00    -0.001 A 
ENDROOT
TORSDOF 0
ENDMDL
