MODEL 1
REMARK minimizedAffinity -2.68423033
REMARK minimizedRMSD -1
REMARK  0 active torsions:
REMARK  status: ('A' for Active; 'I' for Inactive)
ROOT
ATOM      1  C   UNL d   1      -0.478   1.597   2.880  0.00  0.00     0.077 C 
ATOM      2  C1  UNL d   1       0.284   0.801   1.862  0.00  0.00    -0.074 A 
ATOM      3  C2  UNL d   1       1.533   0.250   2.169  0.00  0.00    -0.005 A 
ATOM      4  C3  UNL d   1       2.225  -0.496   1.216  0.00  0.00     0.006 A 
ATOM      5  C4  UNL d   1       1.678  -0.698  -0.052  0.00  0.00    -0.005 A 
ATOM      6  C5  UNL d   1       0.430  -0.156  -0.376  0.00  0.00    -0.074 A 
ATOM      7  C6  UNL d   1      -0.177  -0.372  -1.730  0.00  0.00     0.077 C 
ATOM      8  C7  UNL d   1      -0.263   0.587   0.590  0.00  0.00    -0.001 A 
ENDROOT
TORSDOF 0
ENDMDL
