MODEL 1
REMARK minimizedAffinity -3.6429553
REMARK minimizedRMSD -1
REMARK  0 active torsions:
REMARK  status: ('A' for Active; 'I' for Inactive)
ROOT
ATOM      1  C   UNL d   1      -0.787   2.296   2.371  0.00  0.00     0.077 C 
ATOM      2  C1  UNL d   1      -0.939   1.218   1.339  0.00  0.00    -0.074 A 
ATOM      3  C2  UNL d   1      -2.201   0.712   1.009  0.00  0.00    -0.005 A 
ATOM      4  C3  UNL d   1      -2.328  -0.283   0.040  0.00  0.00     0.006 A 
ATOM      5  C4  UNL d   1      -1.196  -0.781  -0.608  0.00  0.00    -0.005 A 
ATOM      6  C5  UNL d   1       0.073  -0.286  -0.292  0.00  0.00    -0.074 A 
ATOM      7  C6  UNL d   1       1.298  -0.804  -0.986  0.00  0.00     0.077 C 
ATOM      8  C7  UNL d   1       0.191   0.719   0.678  0.00  0.00    -0.001 A 
ENDROOT
TORSDOF 0
ENDMDL
