MODEL 1
REMARK minimizedAffinity -1.48863637
REMARK minimizedRMSD -1
REMARK  0 active torsions:
REMARK  status: ('A' for Active; 'I' for Inactive)
ROOT
ATOM      1  C   UNL d   1      -0.251   1.603   2.865  0.00  0.00     0.077 C 
ATOM      2  C1  UNL d   1      -0.558   0.940   1.555  0.00  0.00    -0.074 A 
ATOM      3  C2  UNL d   1      -1.874   0.627   1.199  0.00  0.00    -0.005 A 
ATOM      4  C3  UNL d   1      -2.145   0.020  -0.027  0.00  0.00     0.006 A 
ATOM      5  C4  UNL d   1      -1.104  -0.280  -0.908  0.00  0.00    -0.005 A 
ATOM      6  C5  UNL d   1       0.217   0.027  -0.569  0.00  0.00    -0.074 A 
ATOM      7  C6  UNL d   1       1.346  -0.279  -1.509  0.00  0.00     0.077 C 
ATOM      8  C7  UNL d   1       0.481   0.644   0.661  0.00  0.00    -0.001 A 
ENDROOT
TORSDOF 0
ENDMDL
