MODEL 1
REMARK minimizedAffinity -1.73121059
REMARK minimizedRMSD -1
REMARK  0 active torsions:
REMARK  status: ('A' for Active; 'I' for Inactive)
ROOT
ATOM      1  C   UNL d   1       0.912   0.401  -3.011  0.00  0.00     0.077 C 
ATOM      2  C1  UNL d   1       0.423   0.180  -1.611  0.00  0.00    -0.074 A 
ATOM      3  C2  UNL d   1      -0.923  -0.102  -1.356  0.00  0.00    -0.005 A 
ATOM      4  C3  UNL d   1      -1.362  -0.315  -0.049  0.00  0.00     0.006 A 
ATOM      5  C4  UNL d   1      -0.461  -0.248   1.015  0.00  0.00    -0.005 A 
ATOM      6  C5  UNL d   1       0.889   0.032   0.779  0.00  0.00    -0.074 A 
ATOM      7  C6  UNL d   1       1.873   0.098   1.909  0.00  0.00     0.077 C 
ATOM      8  C7  UNL d   1       1.324   0.238  -0.538  0.00  0.00    -0.001 A 
ENDROOT
TORSDOF 0
ENDMDL
