MODEL 1
REMARK minimizedAffinity -4.50780773
REMARK minimizedRMSD -1
REMARK  0 active torsions:
REMARK  status: ('A' for Active; 'I' for Inactive)
ROOT
ATOM      1  C   UNL d   1       0.167  -0.679  -2.033  0.00  0.00     0.077 C 
ATOM      2  C1  UNL d   1       0.695  -0.421  -0.654  0.00  0.00    -0.074 A 
ATOM      3  C2  UNL d   1       1.915  -0.964  -0.238  0.00  0.00    -0.005 A 
ATOM      4  C3  UNL d   1       2.398  -0.707   1.045  0.00  0.00     0.006 A 
ATOM      5  C4  UNL d   1       1.668   0.094   1.924  0.00  0.00    -0.005 A 
ATOM      6  C5  UNL d   1       0.447   0.647   1.525  0.00  0.00    -0.074 A 
ATOM      7  C6  UNL d   1      -0.346   1.518   2.454  0.00  0.00     0.077 C 
ATOM      8  C7  UNL d   1      -0.029   0.390   0.232  0.00  0.00    -0.001 A 
ENDROOT
TORSDOF 0
ENDMDL
