MODEL 1
REMARK minimizedAffinity -3.7599349
REMARK minimizedRMSD -1
REMARK  0 active torsions:
REMARK  status: ('A' for Active; 'I' for Inactive)
ROOT
ATOM      1  C   UNL d   1      -0.716   1.530   3.239  0.00  0.00     0.077 C 
ATOM      2  C1  UNL d   1      -1.139   0.946   1.924  0.00  0.00    -0.074 A 
ATOM      3  C2  UNL d   1      -2.492   0.753   1.625  0.00  0.00    -0.005 A 
ATOM      4  C3  UNL d   1      -2.871   0.218   0.395  0.00  0.00     0.006 A 
ATOM      5  C4  UNL d   1      -1.903  -0.131  -0.548  0.00  0.00    -0.005 A 
ATOM      6  C5  UNL d   1      -0.546   0.055  -0.267  0.00  0.00    -0.074 A 
ATOM      7  C6  UNL d   1       0.507  -0.304  -1.273  0.00  0.00     0.077 C 
ATOM      8  C7  UNL d   1      -0.173   0.601   0.969  0.00  0.00    -0.001 A 
ENDROOT
TORSDOF 0
ENDMDL
