MODEL 1
REMARK minimizedAffinity -2.81226635
REMARK minimizedRMSD -1
REMARK  0 active torsions:
REMARK  status: ('A' for Active; 'I' for Inactive)
ROOT
ATOM      1  C   UNL d   1       1.138  -0.739  -1.303  0.00  0.00     0.077 C 
ATOM      2  C1  UNL d   1       0.535  -0.406   0.029  0.00  0.00    -0.074 A 
ATOM      3  C2  UNL d   1       1.319  -0.380   1.187  0.00  0.00    -0.005 A 
ATOM      4  C3  UNL d   1       0.746  -0.059   2.418  0.00  0.00     0.006 A 
ATOM      5  C4  UNL d   1      -0.614   0.238   2.503  0.00  0.00    -0.005 A 
ATOM      6  C5  UNL d   1      -1.414   0.218   1.356  0.00  0.00    -0.074 A 
ATOM      7  C6  UNL d   1      -2.876   0.545   1.429  0.00  0.00     0.077 C 
ATOM      8  C7  UNL d   1      -0.830  -0.098   0.122  0.00  0.00    -0.001 A 
ENDROOT
TORSDOF 0
ENDMDL
