MODEL 1
REMARK minimizedAffinity -4.0438652
REMARK minimizedRMSD -1
REMARK  0 active torsions:
REMARK  status: ('A' for Active; 'I' for Inactive)
ROOT
ATOM      1  C   UNL d   1      -0.296  -0.403  -0.927  0.00  0.00     0.077 C 
ATOM      2  C1  UNL d   1      -0.736   0.058   0.430  0.00  0.00    -0.074 A 
ATOM      3  C2  UNL d   1      -0.018   1.037   1.124  0.00  0.00    -0.005 A 
ATOM      4  C3  UNL d   1      -0.445   1.463   2.382  0.00  0.00     0.006 A 
ATOM      5  C4  UNL d   1      -1.592   0.915   2.958  0.00  0.00    -0.005 A 
ATOM      6  C5  UNL d   1      -2.323  -0.065   2.278  0.00  0.00    -0.074 A 
ATOM      7  C6  UNL d   1      -3.563  -0.657   2.878  0.00  0.00     0.077 C 
ATOM      8  C7  UNL d   1      -1.892  -0.482   1.012  0.00  0.00    -0.001 A 
ENDROOT
TORSDOF 0
ENDMDL
