MODEL 1
REMARK minimizedAffinity -4.47912931
REMARK minimizedRMSD -1
REMARK  0 active torsions:
REMARK  status: ('A' for Active; 'I' for Inactive)
ROOT
ATOM      1  C   UNL d   1      -0.192   1.824   2.858  0.00  0.00     0.077 C 
ATOM      2  C1  UNL d   1      -0.663   0.969   1.720  0.00  0.00    -0.074 A 
ATOM      3  C2  UNL d   1      -1.945   0.410   1.723  0.00  0.00    -0.005 A 
ATOM      4  C3  UNL d   1      -2.373  -0.376   0.653  0.00  0.00     0.006 A 
ATOM      5  C4  UNL d   1      -1.524  -0.611  -0.429  0.00  0.00    -0.005 A 
ATOM      6  C5  UNL d   1      -0.238  -0.060  -0.451  0.00  0.00    -0.074 A 
ATOM      7  C6  UNL d   1       0.683  -0.295  -1.610  0.00  0.00     0.077 C 
ATOM      8  C7  UNL d   1       0.181   0.734   0.625  0.00  0.00    -0.001 A 
ENDROOT
TORSDOF 0
ENDMDL
