MODEL 1
REMARK minimizedAffinity -2.80077624
REMARK minimizedRMSD -1
REMARK  0 active torsions:
REMARK  status: ('A' for Active; 'I' for Inactive)
ROOT
ATOM      1  C   UNL d   1      -2.207   2.303   1.465  0.00  0.00     0.020 A 
ATOM      2  C1  UNL d   1      -1.363   2.658   0.414  0.00  0.00     0.020 A 
ATOM      3  C2  UNL d   1      -0.496   1.710  -0.136  0.00  0.00     0.034 A 
ATOM      4  C3  UNL d   1      -0.472   0.404   0.366  0.00  0.00     0.017 A 
ATOM      5  C4  UNL d   1      -1.320   0.049   1.421  0.00  0.00     0.017 A 
ATOM      6  C5  UNL d   1      -2.185   1.002   1.968  0.00  0.00     0.034 A 
ATOM      7 Cl   UNL d   1      -1.347  -1.543   2.094  0.00  0.00    -0.070 Cl
ATOM      8 Cl1  UNL d   1       0.624  -0.716  -0.362  0.00  0.00    -0.070 Cl
ENDROOT
TORSDOF 0
ENDMDL
