MODEL 1
REMARK minimizedAffinity -2.5257833
REMARK minimizedRMSD -1
REMARK  0 active torsions:
REMARK  status: ('A' for Active; 'I' for Inactive)
ROOT
ATOM      1  C   UNL d   1      -1.410   1.580   2.408  0.00  0.00     0.020 A 
ATOM      2  C1  UNL d   1      -1.292   2.927   2.066  0.00  0.00     0.020 A 
ATOM      3  C2  UNL d   1      -0.682   3.291   0.864  0.00  0.00     0.034 A 
ATOM      4  C3  UNL d   1      -0.188   2.307  -0.001  0.00  0.00     0.017 A 
ATOM      5  C4  UNL d   1      -0.307   0.956   0.343  0.00  0.00     0.017 A 
ATOM      6  C5  UNL d   1      -0.919   0.597   1.548  0.00  0.00     0.034 A 
ATOM      7 Cl   UNL d   1       0.278  -0.314  -0.672  0.00  0.00    -0.070 Cl
ATOM      8 Cl1  UNL d   1       0.555   2.829  -1.471  0.00  0.00    -0.070 Cl
ENDROOT
TORSDOF 0
ENDMDL
