MODEL 1
REMARK minimizedAffinity -3.68197751
REMARK minimizedRMSD -1
REMARK  0 active torsions:
REMARK  status: ('A' for Active; 'I' for Inactive)
ROOT
ATOM      1  C   UNL d   1      -0.265  -1.051   1.618  0.00  0.00     0.020 A 
ATOM      2  C1  UNL d   1       0.511  -1.068   0.460  0.00  0.00     0.020 A 
ATOM      3  C2  UNL d   1       0.453   0.002  -0.436  0.00  0.00     0.034 A 
ATOM      4  C3  UNL d   1      -0.383   1.094  -0.174  0.00  0.00     0.017 A 
ATOM      5  C4  UNL d   1      -1.162   1.110   0.989  0.00  0.00     0.017 A 
ATOM      6  C5  UNL d   1      -1.100   0.036   1.882  0.00  0.00     0.034 A 
ATOM      7 Cl   UNL d   1      -2.217   2.422   1.380  0.00  0.00    -0.070 Cl
ATOM      8 Cl1  UNL d   1      -0.405   2.383  -1.325  0.00  0.00    -0.070 Cl
ENDROOT
TORSDOF 0
ENDMDL
