MODEL 1
REMARK minimizedAffinity -4.15414
REMARK minimizedRMSD -1
REMARK  0 active torsions:
REMARK  status: ('A' for Active; 'I' for Inactive)
ROOT
ATOM      1  C   UNL d   1      -1.360   2.436   1.452  0.00  0.00     0.020 A 
ATOM      2  C1  UNL d   1      -1.314   2.461   0.059  0.00  0.00     0.020 A 
ATOM      3  C2  UNL d   1      -0.920   1.322  -0.647  0.00  0.00     0.034 A 
ATOM      4  C3  UNL d   1      -0.571   0.154   0.040  0.00  0.00     0.017 A 
ATOM      5  C4  UNL d   1      -0.617   0.130   1.439  0.00  0.00     0.017 A 
ATOM      6  C5  UNL d   1      -1.013   1.273   2.141  0.00  0.00     0.034 A 
ATOM      7 Cl   UNL d   1      -0.201  -1.274   2.356  0.00  0.00    -0.070 Cl
ATOM      8 Cl1  UNL d   1      -0.093  -1.217  -0.897  0.00  0.00    -0.070 Cl
ENDROOT
TORSDOF 0
ENDMDL
