MODEL 1
REMARK minimizedAffinity -3.16112924
REMARK minimizedRMSD -1
REMARK  0 active torsions:
REMARK  status: ('A' for Active; 'I' for Inactive)
ROOT
ATOM      1  C   UNL d   1      -1.412   3.114   0.438  0.00  0.00     0.020 A 
ATOM      2  C1  UNL d   1      -2.169   2.783   1.562  0.00  0.00     0.020 A 
ATOM      3  C2  UNL d   1      -2.094   1.497   2.100  0.00  0.00     0.034 A 
ATOM      4  C3  UNL d   1      -1.261   0.536   1.515  0.00  0.00     0.017 A 
ATOM      5  C4  UNL d   1      -0.501   0.869   0.388  0.00  0.00     0.017 A 
ATOM      6  C5  UNL d   1      -0.580   2.158  -0.147  0.00  0.00     0.034 A 
ATOM      7 Cl   UNL d   1       0.549  -0.263  -0.389  0.00  0.00    -0.070 Cl
ATOM      8 Cl1  UNL d   1      -1.218  -1.034   2.234  0.00  0.00    -0.070 Cl
ENDROOT
TORSDOF 0
ENDMDL
