MODEL 1
REMARK minimizedAffinity -3.38358426
REMARK minimizedRMSD -1
REMARK  0 active torsions:
REMARK  status: ('A' for Active; 'I' for Inactive)
ROOT
ATOM      1  C   UNL d   1      -1.755   0.129   1.866  0.00  0.00     0.020 A 
ATOM      2  C1  UNL d   1      -0.454   0.264   2.347  0.00  0.00     0.020 A 
ATOM      3  C2  UNL d   1       0.632  -0.006   1.511  0.00  0.00     0.034 A 
ATOM      4  C3  UNL d   1       0.418  -0.412   0.189  0.00  0.00     0.017 A 
ATOM      5  C4  UNL d   1      -0.889  -0.548  -0.294  0.00  0.00     0.017 A 
ATOM      6  C5  UNL d   1      -1.972  -0.276   0.548  0.00  0.00     0.034 A 
ATOM      7 Cl   UNL d   1      -1.233  -1.045  -1.913  0.00  0.00    -0.070 Cl
ATOM      8 Cl1  UNL d   1       1.806  -0.729  -0.789  0.00  0.00    -0.070 Cl
ENDROOT
TORSDOF 0
ENDMDL
