MODEL 1
REMARK minimizedAffinity -5.91598654
REMARK minimizedRMSD -1
REMARK  0 active torsions:
REMARK  status: ('A' for Active; 'I' for Inactive)
ROOT
ATOM      1  C   UNL d   1      -1.484   2.947  -0.252  0.00  0.00     0.020 A 
ATOM      2  C1  UNL d   1      -2.206   2.664   0.906  0.00  0.00     0.020 A 
ATOM      3  C2  UNL d   1      -1.915   1.517   1.648  0.00  0.00     0.034 A 
ATOM      4  C3  UNL d   1      -0.899   0.649   1.233  0.00  0.00     0.017 A 
ATOM      5  C4  UNL d   1      -0.174   0.934   0.070  0.00  0.00     0.017 A 
ATOM      6  C5  UNL d   1      -0.469   2.084  -0.669  0.00  0.00     0.034 A 
ATOM      7 Cl   UNL d   1       1.095  -0.089  -0.506  0.00  0.00    -0.070 Cl
ATOM      8 Cl1  UNL d   1      -0.592  -0.750   2.199  0.00  0.00    -0.070 Cl
ENDROOT
TORSDOF 0
ENDMDL
