MODEL 1
REMARK minimizedAffinity -3.59112215
REMARK minimizedRMSD -1
REMARK  0 active torsions:
REMARK  status: ('A' for Active; 'I' for Inactive)
ROOT
ATOM      1  C   UNL d   1      -1.335   3.193   1.574  0.00  0.00     0.020 A 
ATOM      2  C1  UNL d   1      -0.588   3.578   0.462  0.00  0.00     0.020 A 
ATOM      3  C2  UNL d   1       0.105   2.619  -0.280  0.00  0.00     0.034 A 
ATOM      4  C3  UNL d   1       0.052   1.270   0.089  0.00  0.00     0.017 A 
ATOM      5  C4  UNL d   1      -0.699   0.884   1.205  0.00  0.00     0.017 A 
ATOM      6  C5  UNL d   1      -1.391   1.849   1.944  0.00  0.00     0.034 A 
ATOM      7 Cl   UNL d   1      -0.813  -0.761   1.722  0.00  0.00    -0.070 Cl
ATOM      8 Cl1  UNL d   1       0.932   0.138  -0.875  0.00  0.00    -0.070 Cl
ENDROOT
TORSDOF 0
ENDMDL
