MODEL 1
REMARK minimizedAffinity -3.13973308
REMARK minimizedRMSD -1
REMARK  0 active torsions:
REMARK  status: ('A' for Active; 'I' for Inactive)
ROOT
ATOM      1  C   UNL d   1       0.755  -3.799  -2.581  0.00  0.00     0.020 A 
ATOM      2  C1  UNL d   1      -0.430  -3.895  -1.854  0.00  0.00     0.020 A 
ATOM      3  C2  UNL d   1      -0.811  -2.859  -0.998  0.00  0.00     0.034 A 
ATOM      4  C3  UNL d   1      -0.005  -1.722  -0.868  0.00  0.00     0.017 A 
ATOM      5  C4  UNL d   1       1.185  -1.626  -1.598  0.00  0.00     0.017 A 
ATOM      6  C5  UNL d   1       1.561  -2.667  -2.453  0.00  0.00     0.034 A 
ATOM      7 Cl   UNL d   1       2.231  -0.255  -1.489  0.00  0.00    -0.070 Cl
ATOM      8 Cl1  UNL d   1      -0.537  -0.479   0.208  0.00  0.00    -0.070 Cl
ENDROOT
TORSDOF 0
ENDMDL
