MODEL 1
REMARK minimizedAffinity -3.05498219
REMARK minimizedRMSD -1
REMARK  0 active torsions:
REMARK  status: ('A' for Active; 'I' for Inactive)
ROOT
ATOM      1  C   UNL d   1      -1.154   0.458   2.306  0.00  0.00     0.020 A 
ATOM      2  C1  UNL d   1      -1.201   1.804   1.948  0.00  0.00     0.020 A 
ATOM      3  C2  UNL d   1      -0.512   2.251   0.818  0.00  0.00     0.034 A 
ATOM      4  C3  UNL d   1       0.227   1.350   0.043  0.00  0.00     0.017 A 
ATOM      5  C4  UNL d   1       0.273  -0.002   0.403  0.00  0.00     0.017 A 
ATOM      6  C5  UNL d   1      -0.419  -0.444   1.535  0.00  0.00     0.034 A 
ATOM      7 Cl   UNL d   1       1.164  -1.173  -0.504  0.00  0.00    -0.070 Cl
ATOM      8 Cl1  UNL d   1       1.055   1.971  -1.341  0.00  0.00    -0.070 Cl
ENDROOT
TORSDOF 0
ENDMDL
