MODEL 1
REMARK minimizedAffinity -4.32066059
REMARK minimizedRMSD -1
REMARK  0 active torsions:
REMARK  status: ('A' for Active; 'I' for Inactive)
ROOT
ATOM      1  C   UNL d   1      -2.072   2.068   1.438  0.00  0.00     0.020 A 
ATOM      2  C1  UNL d   1      -1.294   2.482   0.357  0.00  0.00     0.020 A 
ATOM      3  C2  UNL d   1      -0.341   1.619  -0.188  0.00  0.00     0.034 A 
ATOM      4  C3  UNL d   1      -0.163   0.339   0.347  0.00  0.00     0.017 A 
ATOM      5  C4  UNL d   1      -0.944  -0.076   1.432  0.00  0.00     0.017 A 
ATOM      6  C5  UNL d   1      -1.897   0.792   1.974  0.00  0.00     0.034 A 
ATOM      7 Cl   UNL d   1      -0.781  -1.641   2.147  0.00  0.00    -0.070 Cl
ATOM      8 Cl1  UNL d   1       1.034  -0.676  -0.377  0.00  0.00    -0.070 Cl
ENDROOT
TORSDOF 0
ENDMDL
