MODEL 1
REMARK minimizedAffinity -3.36813283
REMARK minimizedRMSD -1
REMARK  0 active torsions:
REMARK  status: ('A' for Active; 'I' for Inactive)
ROOT
ATOM      1  C   UNL d   1       0.618  -2.892  -2.159  0.00  0.00     0.020 A 
ATOM      2  C1  UNL d   1       1.346  -2.598  -1.007  0.00  0.00     0.020 A 
ATOM      3  C2  UNL d   1       0.966  -1.528  -0.195  0.00  0.00     0.034 A 
ATOM      4  C3  UNL d   1      -0.146  -0.748  -0.534  0.00  0.00     0.017 A 
ATOM      5  C4  UNL d   1      -0.876  -1.044  -1.691  0.00  0.00     0.017 A 
ATOM      6  C5  UNL d   1      -0.491  -2.117  -2.500  0.00  0.00     0.034 A 
ATOM      7 Cl   UNL d   1      -2.259  -0.127  -2.174  0.00  0.00    -0.070 Cl
ATOM      8 Cl1  UNL d   1      -0.560   0.561   0.516  0.00  0.00    -0.070 Cl
ENDROOT
TORSDOF 0
ENDMDL
