MODEL 1
REMARK minimizedAffinity -4.91284084
REMARK minimizedRMSD -1
REMARK  0 active torsions:
REMARK  status: ('A' for Active; 'I' for Inactive)
ROOT
ATOM      1  C   UNL d   1      -1.647   2.826   1.236  0.00  0.00     0.020 A 
ATOM      2  C1  UNL d   1      -1.077   3.061  -0.014  0.00  0.00     0.020 A 
ATOM      3  C2  UNL d   1      -0.321   2.064  -0.635  0.00  0.00     0.034 A 
ATOM      4  C3  UNL d   1      -0.132   0.829  -0.006  0.00  0.00     0.017 A 
ATOM      5  C4  UNL d   1      -0.705   0.594   1.249  0.00  0.00     0.017 A 
ATOM      6  C5  UNL d   1      -1.461   1.595   1.867  0.00  0.00     0.034 A 
ATOM      7 Cl   UNL d   1      -0.516  -0.906   2.088  0.00  0.00    -0.070 Cl
ATOM      8 Cl1  UNL d   1       0.814  -0.358  -0.832  0.00  0.00    -0.070 Cl
ENDROOT
TORSDOF 0
ENDMDL
