MODEL 1
REMARK minimizedAffinity -1.43520963
REMARK minimizedRMSD -1
REMARK  0 active torsions:
REMARK  status: ('A' for Active; 'I' for Inactive)
ROOT
ATOM      1  C   UNL d   1       0.861  -1.693   0.234  0.00  0.00     0.020 A 
ATOM      2  C1  UNL d   1       1.423  -1.318  -0.986  0.00  0.00     0.020 A 
ATOM      3  C2  UNL d   1       1.253  -0.017  -1.463  0.00  0.00     0.034 A 
ATOM      4  C3  UNL d   1       0.520   0.915  -0.720  0.00  0.00     0.017 A 
ATOM      5  C4  UNL d   1      -0.044   0.538   0.505  0.00  0.00     0.017 A 
ATOM      6  C5  UNL d   1       0.129  -0.766   0.977  0.00  0.00     0.034 A 
ATOM      7 Cl   UNL d   1      -0.962   1.632   1.478  0.00  0.00    -0.070 Cl
ATOM      8 Cl1  UNL d   1       0.351   2.507  -1.369  0.00  0.00    -0.070 Cl
ENDROOT
TORSDOF 0
ENDMDL
