MODEL 1
REMARK minimizedAffinity -4.99621773
REMARK minimizedRMSD -1
REMARK  0 active torsions:
REMARK  status: ('A' for Active; 'I' for Inactive)
ROOT
ATOM      1  C   UNL d   1       0.015  -0.764   1.146  0.00  0.00     0.020 A 
ATOM      2  C1  UNL d   1       0.621  -0.526  -0.087  0.00  0.00     0.020 A 
ATOM      3  C2  UNL d   1       0.365   0.664  -0.772  0.00  0.00     0.034 A 
ATOM      4  C3  UNL d   1      -0.498   1.620  -0.225  0.00  0.00     0.017 A 
ATOM      5  C4  UNL d   1      -1.105   1.380   1.013  0.00  0.00     0.017 A 
ATOM      6  C5  UNL d   1      -0.846   0.187   1.695  0.00  0.00     0.034 A 
ATOM      7 Cl   UNL d   1      -2.181   2.512   1.753  0.00  0.00    -0.070 Cl
ATOM      8 Cl1  UNL d   1      -0.768   3.069  -1.127  0.00  0.00    -0.070 Cl
ENDROOT
TORSDOF 0
ENDMDL
