MODEL 1
REMARK minimizedAffinity -4.99039364
REMARK minimizedRMSD -1
REMARK  0 active torsions:
REMARK  status: ('A' for Active; 'I' for Inactive)
ROOT
ATOM      1  C   UNL d   1      -1.065   4.003   0.312  0.00  0.00     0.020 A 
ATOM      2  C1  UNL d   1      -1.907   3.218   1.098  0.00  0.00     0.020 A 
ATOM      3  C2  UNL d   1      -1.722   1.835   1.154  0.00  0.00     0.034 A 
ATOM      4  C3  UNL d   1      -0.692   1.233   0.421  0.00  0.00     0.017 A 
ATOM      5  C4  UNL d   1       0.152   2.022  -0.368  0.00  0.00     0.017 A 
ATOM      6  C5  UNL d   1      -0.038   3.406  -0.420  0.00  0.00     0.034 A 
ATOM      7 Cl   UNL d   1       1.445   1.351  -1.299  0.00  0.00    -0.070 Cl
ATOM      8 Cl1  UNL d   1      -0.521  -0.483   0.537  0.00  0.00    -0.070 Cl
ENDROOT
TORSDOF 0
ENDMDL
