MODEL 1
REMARK minimizedAffinity -4.65453959
REMARK minimizedRMSD -1
REMARK  0 active torsions:
REMARK  status: ('A' for Active; 'I' for Inactive)
ROOT
ATOM      1  C   UNL d   1       1.357  -0.739  -1.039  0.00  0.00     0.020 A 
ATOM      2  C1  UNL d   1       0.669  -1.297   0.037  0.00  0.00     0.020 A 
ATOM      3  C2  UNL d   1      -0.231  -0.519   0.769  0.00  0.00     0.034 A 
ATOM      4  C3  UNL d   1      -0.445   0.820   0.426  0.00  0.00     0.017 A 
ATOM      5  C4  UNL d   1       0.246   1.380  -0.655  0.00  0.00     0.017 A 
ATOM      6  C5  UNL d   1       1.146   0.596  -1.385  0.00  0.00     0.034 A 
ATOM      7 Cl   UNL d   1       0.035   3.025  -1.139  0.00  0.00    -0.070 Cl
ATOM      8 Cl1  UNL d   1      -1.572   1.723   1.375  0.00  0.00    -0.070 Cl
ENDROOT
TORSDOF 0
ENDMDL
