MODEL 1
REMARK minimizedAffinity -5.23769712
REMARK minimizedRMSD -1
REMARK  0 active torsions:
REMARK  status: ('A' for Active; 'I' for Inactive)
ROOT
ATOM      1  C   UNL d   1      -0.312  -0.844   1.064  0.00  0.00     0.020 A 
ATOM      2  C1  UNL d   1       0.460  -0.634  -0.078  0.00  0.00     0.020 A 
ATOM      3  C2  UNL d   1       0.389   0.586  -0.755  0.00  0.00     0.034 A 
ATOM      4  C3  UNL d   1      -0.456   1.600  -0.289  0.00  0.00     0.017 A 
ATOM      5  C4  UNL d   1      -1.230   1.389   0.857  0.00  0.00     0.017 A 
ATOM      6  C5  UNL d   1      -1.155   0.165   1.531  0.00  0.00     0.034 A 
ATOM      7 Cl   UNL d   1      -2.295   2.593   1.492  0.00  0.00    -0.070 Cl
ATOM      8 Cl1  UNL d   1      -0.493   3.084  -1.175  0.00  0.00    -0.070 Cl
ENDROOT
TORSDOF 0
ENDMDL
