MODEL 1
REMARK minimizedAffinity -5.66959095
REMARK minimizedRMSD -1
REMARK  0 active torsions:
REMARK  status: ('A' for Active; 'I' for Inactive)
ROOT
ATOM      1  C   UNL d   1      -1.152   3.012   0.325  0.00  0.00     0.020 A 
ATOM      2  C1  UNL d   1      -1.889   2.592   1.432  0.00  0.00     0.020 A 
ATOM      3  C2  UNL d   1      -1.746   1.288   1.911  0.00  0.00     0.034 A 
ATOM      4  C3  UNL d   1      -0.865   0.400   1.283  0.00  0.00     0.017 A 
ATOM      5  C4  UNL d   1      -0.126   0.823   0.172  0.00  0.00     0.017 A 
ATOM      6  C5  UNL d   1      -0.273   2.130  -0.303  0.00  0.00     0.034 A 
ATOM      7 Cl   UNL d   1       0.981  -0.215  -0.655  0.00  0.00    -0.070 Cl
ATOM      8 Cl1  UNL d   1      -0.738  -1.198   1.929  0.00  0.00    -0.070 Cl
ENDROOT
TORSDOF 0
ENDMDL
