MODEL 1
REMARK minimizedAffinity 8.13109589
REMARK minimizedRMSD -1
REMARK  1 active torsions:
REMARK  status: ('A' for Active; 'I' for Inactive)
REMARK    1  A    between atoms: C1_2  and  C2_3 
ROOT
ATOM      1  C2  UNL d   1       3.871   0.102  -0.476  0.00  0.00    -0.073 A 
ATOM      2  C3  UNL d   1       2.511  -0.190  -0.624  0.00  0.00    -0.002 A 
ATOM      3  C4  UNL d   1       2.064  -1.511  -0.578  0.00  0.00     0.004 A 
ATOM      4  C5  UNL d   1       2.971  -2.552  -0.378  0.00  0.00    -0.004 A 
ATOM      5  C6  UNL d   1       4.333  -2.279  -0.217  0.00  0.00    -0.075 A 
ATOM      6  C7  UNL d   1       5.322  -3.387  -0.003  0.00  0.00     0.076 C 
ATOM      7  C8  UNL d   1       4.774  -0.950  -0.266  0.00  0.00     0.001 A 
ENDROOT
BRANCH   1   8
ATOM      8  C1  UNL d   1       4.357   1.528  -0.518  0.00  0.00     0.053 C 
ATOM      9  C   UNL d   1       3.783   2.360   0.618  0.00  0.00     0.018 C 
ENDBRANCH   1   8
TORSDOF 1
ENDMDL
