MODEL 1
REMARK minimizedAffinity -4.57902384
REMARK minimizedRMSD -1
REMARK  1 active torsions:
REMARK  status: ('A' for Active; 'I' for Inactive)
REMARK    1  A    between atoms: C1_2  and  C2_3 
ROOT
ATOM      1  C2  UNL d   1       1.594  -2.032   2.396  0.00  0.00    -0.073 A 
ATOM      2  C3  UNL d   1       1.654  -3.005   1.392  0.00  0.00    -0.002 A 
ATOM      3  C4  UNL d   1       2.593  -4.035   1.463  0.00  0.00     0.004 A 
ATOM      4  C5  UNL d   1       3.476  -4.106   2.541  0.00  0.00    -0.004 A 
ATOM      5  C6  UNL d   1       3.423  -3.150   3.561  0.00  0.00    -0.075 A 
ATOM      6  C7  UNL d   1       4.367  -3.212   4.726  0.00  0.00     0.076 C 
ATOM      7  C8  UNL d   1       2.479  -2.118   3.480  0.00  0.00     0.001 A 
ENDROOT
BRANCH   1   8
ATOM      8  C1  UNL d   1       0.577  -0.923   2.326  0.00  0.00     0.053 C 
ATOM      9  C   UNL d   1       0.398  -0.402   0.909  0.00  0.00     0.018 C 
ENDBRANCH   1   8
TORSDOF 1
ENDMDL
