MODEL 1
REMARK minimizedAffinity -0.51823312
REMARK minimizedRMSD -1
REMARK  1 active torsions:
REMARK  status: ('A' for Active; 'I' for Inactive)
REMARK    1  A    between atoms: C1_2  and  C2_3 
ROOT
ATOM      1  C2  UNL d   1      -2.149  -0.462   0.774  0.00  0.00    -0.073 A 
ATOM      2  C3  UNL d   1      -2.211  -0.047   2.109  0.00  0.00    -0.002 A 
ATOM      3  C4  UNL d   1      -1.132  -0.265   2.966  0.00  0.00     0.004 A 
ATOM      4  C5  UNL d   1       0.022  -0.892   2.496  0.00  0.00    -0.004 A 
ATOM      5  C6  UNL d   1       0.108  -1.304   1.162  0.00  0.00    -0.075 A 
ATOM      6  C7  UNL d   1       1.341  -1.982   0.641  0.00  0.00     0.076 C 
ATOM      7  C8  UNL d   1      -0.982  -1.084   0.308  0.00  0.00     0.001 A 
ENDROOT
BRANCH   1   8
ATOM      8  C1  UNL d   1      -3.310  -0.223  -0.157  0.00  0.00     0.053 C 
ATOM      9  C   UNL d   1      -4.537  -1.027   0.245  0.00  0.00     0.018 C 
ENDBRANCH   1   8
TORSDOF 1
ENDMDL
