MODEL 1
REMARK minimizedAffinity -1.33350277
REMARK minimizedRMSD -1
REMARK  1 active torsions:
REMARK  status: ('A' for Active; 'I' for Inactive)
REMARK    1  A    between atoms: C1_2  and  C2_3 
ROOT
ATOM      1  C2  UNL d   1       0.699  -1.978   1.427  0.00  0.00    -0.073 A 
ATOM      2  C3  UNL d   1      -0.136  -1.517   2.452  0.00  0.00    -0.002 A 
ATOM      3  C4  UNL d   1      -1.276  -0.771   2.151  0.00  0.00     0.004 A 
ATOM      4  C5  UNL d   1      -1.597  -0.484   0.824  0.00  0.00    -0.004 A 
ATOM      5  C6  UNL d   1      -0.782  -0.945  -0.215  0.00  0.00    -0.075 A 
ATOM      6  C7  UNL d   1      -1.112  -0.643  -1.647  0.00  0.00     0.076 C 
ATOM      7  C8  UNL d   1       0.363  -1.692   0.096  0.00  0.00     0.001 A 
ENDROOT
BRANCH   1   8
ATOM      8  C1  UNL d   1       1.927  -2.790   1.747  0.00  0.00     0.053 C 
ATOM      9  C   UNL d   1       1.971  -4.091   0.962  0.00  0.00     0.018 C 
ENDBRANCH   1   8
TORSDOF 1
ENDMDL
