MODEL 1
REMARK minimizedAffinity 10.6799135
REMARK minimizedRMSD -1
REMARK  1 active torsions:
REMARK  status: ('A' for Active; 'I' for Inactive)
REMARK    1  A    between atoms: C1_2  and  C2_3 
ROOT
ATOM      1  C2  UNL d   1       1.583   4.176   3.663  0.00  0.00    -0.073 A 
ATOM      2  C3  UNL d   1       0.517   4.509   2.819  0.00  0.00    -0.002 A 
ATOM      3  C4  UNL d   1       0.505   4.072   1.493  0.00  0.00     0.004 A 
ATOM      4  C5  UNL d   1       1.553   3.295   1.000  0.00  0.00    -0.004 A 
ATOM      5  C6  UNL d   1       2.621   2.942   1.831  0.00  0.00    -0.075 A 
ATOM      6  C7  UNL d   1       3.757   2.107   1.316  0.00  0.00     0.076 C 
ATOM      7  C8  UNL d   1       2.627   3.386   3.161  0.00  0.00     0.001 A 
ENDROOT
BRANCH   1   8
ATOM      8  C1  UNL d   1       1.598   4.639   5.096  0.00  0.00     0.053 C 
ATOM      9  C   UNL d   1       2.661   5.697   5.343  0.00  0.00     0.018 C 
ENDBRANCH   1   8
TORSDOF 1
ENDMDL
