MODEL 1
REMARK minimizedAffinity 6.05372906
REMARK minimizedRMSD -1
REMARK  1 active torsions:
REMARK  status: ('A' for Active; 'I' for Inactive)
REMARK    1  A    between atoms: C1_2  and  C2_3 
ROOT
ATOM      1  C2  UNL d   1       4.917   2.033   0.520  0.00  0.00    -0.073 A 
ATOM      2  C3  UNL d   1       5.998   1.182   0.777  0.00  0.00    -0.002 A 
ATOM      3  C4  UNL d   1       5.859  -0.199   0.625  0.00  0.00     0.004 A 
ATOM      4  C5  UNL d   1       4.642  -0.740   0.210  0.00  0.00    -0.004 A 
ATOM      5  C6  UNL d   1       3.555   0.095  -0.063  0.00  0.00    -0.075 A 
ATOM      6  C7  UNL d   1       2.239  -0.472  -0.509  0.00  0.00     0.076 C 
ATOM      7  C8  UNL d   1       3.701   1.480   0.094  0.00  0.00     0.001 A 
ENDROOT
BRANCH   1   8
ATOM      8  C1  UNL d   1       5.065   3.525   0.676  0.00  0.00     0.053 C 
ATOM      9  C   UNL d   1       4.482   4.282  -0.507  0.00  0.00     0.018 C 
ENDBRANCH   1   8
TORSDOF 1
ENDMDL
