MODEL 1
REMARK minimizedAffinity -2.79462528
REMARK minimizedRMSD -1
REMARK  2 active torsions:
REMARK  status: ('A' for Active; 'I' for Inactive)
REMARK    1  A    between atoms: C1_2  and  C2_3 
REMARK    2  A    between atoms: C2_3  and  C3_4 
ROOT
ATOM      1  C3  UNL d   1      -0.757  -1.848  -0.258  0.00  0.00    -0.075 A 
ATOM      2  C4  UNL d   1       0.336  -2.199  -1.063  0.00  0.00     0.002 A 
ATOM      3  C5  UNL d   1       0.178  -3.095  -2.121  0.00  0.00     0.002 A 
ATOM      4  C6  UNL d   1      -1.070  -3.659  -2.379  0.00  0.00    -0.004 A 
ATOM      5  C7  UNL d   1      -2.159  -3.330  -1.575  0.00  0.00     0.002 A 
ATOM      6  C8  UNL d   1      -2.004  -2.430  -0.519  0.00  0.00     0.002 A 
ENDROOT
BRANCH   1   7
ATOM      7  C2  UNL d   1      -0.598  -0.856   0.870  0.00  0.00     0.056 C 
BRANCH   7   8
ATOM      8  C1  UNL d   1      -1.528   0.358   0.768  0.00  0.00     0.007 C 
ATOM      9  C   UNL d   1      -0.786   1.665   0.526  0.00  0.00     0.009 C 
ENDBRANCH   7   8
ENDBRANCH   1   7
TORSDOF 2
ENDMDL
