MODEL 1
REMARK minimizedAffinity -5.2468276
REMARK minimizedRMSD -1
REMARK  2 active torsions:
REMARK  status: ('A' for Active; 'I' for Inactive)
REMARK    1  A    between atoms: C1_2  and  C2_3 
REMARK    2  A    between atoms: C2_3  and  C3_4 
ROOT
ATOM      1  C3  UNL d   1      -0.923  -1.118   0.102  0.00  0.00    -0.075 A 
ATOM      2  C4  UNL d   1      -2.045  -0.340  -0.219  0.00  0.00     0.002 A 
ATOM      3  C5  UNL d   1      -2.050   1.033   0.028  0.00  0.00     0.002 A 
ATOM      4  C6  UNL d   1      -0.940   1.643   0.609  0.00  0.00    -0.004 A 
ATOM      5  C7  UNL d   1       0.174   0.878   0.947  0.00  0.00     0.002 A 
ATOM      6  C8  UNL d   1       0.183  -0.495   0.696  0.00  0.00     0.002 A 
ENDROOT
BRANCH   1   7
ATOM      7  C2  UNL d   1      -0.899  -2.599  -0.191  0.00  0.00     0.056 C 
BRANCH   7   8
ATOM      8  C1  UNL d   1      -1.356  -2.962  -1.608  0.00  0.00     0.007 C 
ATOM      9  C   UNL d   1      -0.217  -3.432  -2.503  0.00  0.00     0.009 C 
ENDBRANCH   7   8
ENDBRANCH   1   7
TORSDOF 2
ENDMDL
