MODEL 1
REMARK minimizedAffinity -2.1465435
REMARK minimizedRMSD -1
REMARK  2 active torsions:
REMARK  status: ('A' for Active; 'I' for Inactive)
REMARK    1  A    between atoms: C1_2  and  C2_3 
REMARK    2  A    between atoms: C2_3  and  C3_4 
ROOT
ATOM      1  C3  UNL d   1      -0.398  -1.446  -0.477  0.00  0.00    -0.075 A 
ATOM      2  C4  UNL d   1       0.483  -1.524  -1.565  0.00  0.00     0.002 A 
ATOM      3  C5  UNL d   1       0.347  -2.536  -2.516  0.00  0.00     0.002 A 
ATOM      4  C6  UNL d   1      -0.664  -3.486  -2.386  0.00  0.00    -0.004 A 
ATOM      5  C7  UNL d   1      -1.535  -3.428  -1.300  0.00  0.00     0.002 A 
ATOM      6  C8  UNL d   1      -1.403  -2.414  -0.349  0.00  0.00     0.002 A 
ENDROOT
BRANCH   1   7
ATOM      7  C2  UNL d   1      -0.274  -0.336   0.540  0.00  0.00     0.056 C 
BRANCH   7   8
ATOM      8  C1  UNL d   1      -1.388   0.713   0.457  0.00  0.00     0.007 C 
ATOM      9  C   UNL d   1      -0.975   2.072   1.007  0.00  0.00     0.009 C 
ENDBRANCH   7   8
ENDBRANCH   1   7
TORSDOF 2
ENDMDL
