MODEL 1
REMARK minimizedAffinity -2.55663395
REMARK minimizedRMSD -1
REMARK  2 active torsions:
REMARK  status: ('A' for Active; 'I' for Inactive)
REMARK    1  A    between atoms: C1_2  and  C2_3 
REMARK    2  A    between atoms: C2_3  and  C3_4 
ROOT
ATOM      1  C3  UNL d   1      -0.133  -2.166  -0.865  0.00  0.00    -0.075 A 
ATOM      2  C4  UNL d   1       0.518  -2.359  -2.092  0.00  0.00     0.002 A 
ATOM      3  C5  UNL d   1      -0.134  -2.996  -3.147  0.00  0.00     0.002 A 
ATOM      4  C6  UNL d   1      -1.439  -3.457  -2.987  0.00  0.00    -0.004 A 
ATOM      5  C7  UNL d   1      -2.090  -3.286  -1.767  0.00  0.00     0.002 A 
ATOM      6  C8  UNL d   1      -1.441  -2.644  -0.711  0.00  0.00     0.002 A 
ENDROOT
BRANCH   1   7
ATOM      7  C2  UNL d   1       0.558  -1.451   0.272  0.00  0.00     0.056 C 
BRANCH   7   8
ATOM      8  C1  UNL d   1       0.520   0.077   0.162  0.00  0.00     0.007 C 
ATOM      9  C   UNL d   1      -0.842   0.670   0.496  0.00  0.00     0.009 C 
ENDBRANCH   7   8
ENDBRANCH   1   7
TORSDOF 2
ENDMDL
