MODEL 1
REMARK minimizedAffinity -3.3486383
REMARK minimizedRMSD -1
REMARK  2 active torsions:
REMARK  status: ('A' for Active; 'I' for Inactive)
REMARK    1  A    between atoms: C1_2  and  C2_3 
REMARK    2  A    between atoms: C2_3  and  C3_4 
ROOT
ATOM      1  C3  UNL d   1       0.011   0.422  -0.090  0.00  0.00    -0.075 A 
ATOM      2  C4  UNL d   1       1.404   0.350   0.059  0.00  0.00     0.002 A 
ATOM      3  C5  UNL d   1       2.129   1.463   0.486  0.00  0.00     0.002 A 
ATOM      4  C6  UNL d   1       1.475   2.662   0.758  0.00  0.00    -0.004 A 
ATOM      5  C7  UNL d   1       0.094   2.750   0.597  0.00  0.00     0.002 A 
ATOM      6  C8  UNL d   1      -0.635   1.637   0.174  0.00  0.00     0.002 A 
ENDROOT
BRANCH   1   7
ATOM      7  C2  UNL d   1      -0.783  -0.786  -0.524  0.00  0.00     0.056 C 
BRANCH   7   8
ATOM      8  C1  UNL d   1       0.019  -2.092  -0.524  0.00  0.00     0.007 C 
ATOM      9  C   UNL d   1      -0.729  -3.255  -1.163  0.00  0.00     0.009 C 
ENDBRANCH   7   8
ENDBRANCH   1   7
TORSDOF 2
ENDMDL
