MODEL 1
REMARK minimizedAffinity -3.4367187
REMARK minimizedRMSD -1
REMARK  2 active torsions:
REMARK  status: ('A' for Active; 'I' for Inactive)
REMARK    1  A    between atoms: C1_2  and  C2_3 
REMARK    2  A    between atoms: C2_3  and  C3_4 
ROOT
ATOM      1  C3  UNL d   1       0.810   0.526   0.283  0.00  0.00    -0.075 A 
ATOM      2  C4  UNL d   1      -0.335  -0.266   0.449  0.00  0.00     0.002 A 
ATOM      3  C5  UNL d   1      -1.594   0.324   0.560  0.00  0.00     0.002 A 
ATOM      4  C6  UNL d   1      -1.724   1.710   0.516  0.00  0.00    -0.004 A 
ATOM      5  C7  UNL d   1      -0.591   2.507   0.367  0.00  0.00     0.002 A 
ATOM      6  C8  UNL d   1       0.670   1.920   0.252  0.00  0.00     0.002 A 
ENDROOT
BRANCH   1   7
ATOM      7  C2  UNL d   1       2.173  -0.107   0.133  0.00  0.00     0.056 C 
BRANCH   7   8
ATOM      8  C1  UNL d   1       3.324   0.759   0.654  0.00  0.00     0.007 C 
ATOM      9  C   UNL d   1       3.995   1.584  -0.436  0.00  0.00     0.009 C 
ENDBRANCH   7   8
ENDBRANCH   1   7
TORSDOF 2
ENDMDL
