MODEL 1
REMARK minimizedAffinity -2.49951625
REMARK minimizedRMSD -1
REMARK  2 active torsions:
REMARK  status: ('A' for Active; 'I' for Inactive)
REMARK    1  A    between atoms: C1_2  and  C2_3 
REMARK    2  A    between atoms: C2_3  and  C3_4 
ROOT
ATOM      1  C3  UNL d   1       0.020  -0.344   0.047  0.00  0.00    -0.075 A 
ATOM      2  C4  UNL d   1       1.160   0.405   0.373  0.00  0.00     0.002 A 
ATOM      3  C5  UNL d   1       1.052   1.763   0.674  0.00  0.00     0.002 A 
ATOM      4  C6  UNL d   1      -0.191   2.390   0.643  0.00  0.00    -0.004 A 
ATOM      5  C7  UNL d   1      -1.328   1.660   0.304  0.00  0.00     0.002 A 
ATOM      6  C8  UNL d   1      -1.224   0.300   0.007  0.00  0.00     0.002 A 
ENDROOT
BRANCH   1   7
ATOM      7  C2  UNL d   1       0.125  -1.821  -0.251  0.00  0.00     0.056 C 
BRANCH   7   8
ATOM      8  C1  UNL d   1      -1.227  -2.535  -0.353  0.00  0.00     0.007 C 
ATOM      9  C   UNL d   1      -1.310  -3.499  -1.529  0.00  0.00     0.009 C 
ENDBRANCH   7   8
ENDBRANCH   1   7
TORSDOF 2
ENDMDL
