MODEL 1
REMARK minimizedAffinity -5.09224558
REMARK minimizedRMSD -1
REMARK  2 active torsions:
REMARK  status: ('A' for Active; 'I' for Inactive)
REMARK    1  A    between atoms: C1_2  and  C2_3 
REMARK    2  A    between atoms: C2_3  and  C3_4 
ROOT
ATOM      1  C3  UNL d   1       0.232  -1.044  -0.322  0.00  0.00    -0.075 A 
ATOM      2  C4  UNL d   1       1.209  -1.344  -1.282  0.00  0.00     0.002 A 
ATOM      3  C5  UNL d   1       1.186  -2.564  -1.959  0.00  0.00     0.002 A 
ATOM      4  C6  UNL d   1       0.194  -3.501  -1.678  0.00  0.00    -0.004 A 
ATOM      5  C7  UNL d   1      -0.772  -3.220  -0.715  0.00  0.00     0.002 A 
ATOM      6  C8  UNL d   1      -0.754  -1.999  -0.039  0.00  0.00     0.002 A 
ENDROOT
BRANCH   1   7
ATOM      7  C2  UNL d   1       0.234   0.286   0.393  0.00  0.00     0.056 C 
BRANCH   7   8
ATOM      8  C1  UNL d   1      -1.133   0.978   0.427  0.00  0.00     0.007 C 
ATOM      9  C   UNL d   1      -1.036   2.496   0.496  0.00  0.00     0.009 C 
ENDBRANCH   7   8
ENDBRANCH   1   7
TORSDOF 2
ENDMDL
