MODEL 1
REMARK minimizedAffinity -2.69458461
REMARK minimizedRMSD -1
REMARK  2 active torsions:
REMARK  status: ('A' for Active; 'I' for Inactive)
REMARK    1  A    between atoms: C1_2  and  C2_3 
REMARK    2  A    between atoms: C2_3  and  C3_4 
ROOT
ATOM      1  C3  UNL d   1      -0.240  -0.890  -0.378  0.00  0.00    -0.075 A 
ATOM      2  C4  UNL d   1      -1.062  -1.086   0.741  0.00  0.00     0.002 A 
ATOM      3  C5  UNL d   1      -1.530   0.004   1.476  0.00  0.00     0.002 A 
ATOM      4  C6  UNL d   1      -1.175   1.300   1.108  0.00  0.00    -0.004 A 
ATOM      5  C7  UNL d   1      -0.345   1.506   0.008  0.00  0.00     0.002 A 
ATOM      6  C8  UNL d   1       0.121   0.417  -0.731  0.00  0.00     0.002 A 
ENDROOT
BRANCH   1   7
ATOM      7  C2  UNL d   1       0.245  -2.063  -1.194  0.00  0.00     0.056 C 
BRANCH   7   8
ATOM      8  C1  UNL d   1      -0.773  -3.202  -1.317  0.00  0.00     0.007 C 
ATOM      9  C   UNL d   1      -1.521  -3.198  -2.643  0.00  0.00     0.009 C 
ENDBRANCH   7   8
ENDBRANCH   1   7
TORSDOF 2
ENDMDL
