MODEL 1
REMARK minimizedAffinity 0.174668476
REMARK minimizedRMSD -1
REMARK  2 active torsions:
REMARK  status: ('A' for Active; 'I' for Inactive)
REMARK    1  A    between atoms: C1_2  and  C2_3 
REMARK    2  A    between atoms: C2_3  and  C3_4 
ROOT
ATOM      1  C3  UNL d   1       1.128   0.930   0.703  0.00  0.00    -0.075 A 
ATOM      2  C4  UNL d   1       0.664  -0.344   0.345  0.00  0.00     0.002 A 
ATOM      3  C5  UNL d   1      -0.685  -0.553   0.060  0.00  0.00     0.002 A 
ATOM      4  C6  UNL d   1      -1.589   0.505   0.139  0.00  0.00    -0.004 A 
ATOM      5  C7  UNL d   1      -1.142   1.771   0.510  0.00  0.00     0.002 A 
ATOM      6  C8  UNL d   1       0.209   1.984   0.792  0.00  0.00     0.002 A 
ENDROOT
BRANCH   1   7
ATOM      7  C2  UNL d   1       2.592   1.168   0.985  0.00  0.00     0.056 C 
BRANCH   7   8
ATOM      8  C1  UNL d   1       2.910   2.583   1.479  0.00  0.00     0.007 C 
ATOM      9  C   UNL d   1       3.678   2.601   2.795  0.00  0.00     0.009 C 
ENDBRANCH   7   8
ENDBRANCH   1   7
TORSDOF 2
ENDMDL
