MODEL 1
REMARK minimizedAffinity -2.93618131
REMARK minimizedRMSD -1
REMARK  2 active torsions:
REMARK  status: ('A' for Active; 'I' for Inactive)
REMARK    1  A    between atoms: C1_2  and  C2_3 
REMARK    2  A    between atoms: C2_3  and  C3_4 
ROOT
ATOM      1  C3  UNL d   1       0.472   1.100   0.572  0.00  0.00    -0.075 A 
ATOM      2  C4  UNL d   1      -0.065   2.274   1.121  0.00  0.00     0.002 A 
ATOM      3  C5  UNL d   1       0.767   3.224   1.714  0.00  0.00     0.002 A 
ATOM      4  C6  UNL d   1       2.143   3.009   1.775  0.00  0.00    -0.004 A 
ATOM      5  C7  UNL d   1       2.685   1.839   1.247  0.00  0.00     0.002 A 
ATOM      6  C8  UNL d   1       1.855   0.889   0.650  0.00  0.00     0.002 A 
ENDROOT
BRANCH   1   7
ATOM      7  C2  UNL d   1      -0.420   0.082  -0.097  0.00  0.00     0.056 C 
BRANCH   7   8
ATOM      8  C1  UNL d   1       0.041  -1.368   0.088  0.00  0.00     0.007 C 
ATOM      9  C   UNL d   1      -0.073  -2.200  -1.183  0.00  0.00     0.009 C 
ENDBRANCH   7   8
ENDBRANCH   1   7
TORSDOF 2
ENDMDL
