MODEL 1
REMARK minimizedAffinity -1.28432953
REMARK minimizedRMSD -1
REMARK  2 active torsions:
REMARK  status: ('A' for Active; 'I' for Inactive)
REMARK    1  A    between atoms: C1_2  and  C2_3 
REMARK    2  A    between atoms: C2_3  and  C3_4 
ROOT
ATOM      1  C3  UNL d   1       0.063   0.535   0.532  0.00  0.00    -0.075 A 
ATOM      2  C4  UNL d   1       1.449   0.344   0.639  0.00  0.00     0.002 A 
ATOM      3  C5  UNL d   1       2.279   1.392   1.039  0.00  0.00     0.002 A 
ATOM      4  C6  UNL d   1       1.738   2.643   1.326  0.00  0.00    -0.004 A 
ATOM      5  C7  UNL d   1       0.365   2.848   1.207  0.00  0.00     0.002 A 
ATOM      6  C8  UNL d   1      -0.469   1.801   0.812  0.00  0.00     0.002 A 
ENDROOT
BRANCH   1   7
ATOM      7  C2  UNL d   1      -0.844  -0.602   0.128  0.00  0.00     0.056 C 
BRANCH   7   8
ATOM      8  C1  UNL d   1      -0.187  -1.623  -0.807  0.00  0.00     0.007 C 
ATOM      9  C   UNL d   1      -1.101  -2.789  -1.160  0.00  0.00     0.009 C 
ENDBRANCH   7   8
ENDBRANCH   1   7
TORSDOF 2
ENDMDL
