MODEL 1
REMARK minimizedAffinity -4.91956234
REMARK minimizedRMSD -1
REMARK  2 active torsions:
REMARK  status: ('A' for Active; 'I' for Inactive)
REMARK    1  A    between atoms: C1_2  and  C2_3 
REMARK    2  A    between atoms: C2_3  and  C3_4 
ROOT
ATOM      1  C3  UNL d   1      -0.280  -0.873  -0.118  0.00  0.00    -0.075 A 
ATOM      2  C4  UNL d   1      -1.414  -0.047  -0.142  0.00  0.00     0.002 A 
ATOM      3  C5  UNL d   1      -1.302   1.317   0.126  0.00  0.00     0.002 A 
ATOM      4  C6  UNL d   1      -0.060   1.872   0.429  0.00  0.00    -0.004 A 
ATOM      5  C7  UNL d   1       1.070   1.058   0.471  0.00  0.00     0.002 A 
ATOM      6  C8  UNL d   1       0.962  -0.307   0.200  0.00  0.00     0.002 A 
ENDROOT
BRANCH   1   7
ATOM      7  C2  UNL d   1      -0.390  -2.345  -0.436  0.00  0.00     0.056 C 
BRANCH   7   8
ATOM      8  C1  UNL d   1      -0.165  -2.683  -1.913  0.00  0.00     0.007 C 
ATOM      9  C   UNL d   1      -1.457  -2.966  -2.668  0.00  0.00     0.009 C 
ENDBRANCH   7   8
ENDBRANCH   1   7
TORSDOF 2
ENDMDL
