MODEL 1
REMARK minimizedAffinity -5.43940258
REMARK minimizedRMSD -1
REMARK  2 active torsions:
REMARK  status: ('A' for Active; 'I' for Inactive)
REMARK    1  A    between atoms: C1_2  and  C2_3 
REMARK    2  A    between atoms: C2_3  and  C3_4 
ROOT
ATOM      1  C3  UNL d   1      -0.314  -1.008  -0.875  0.00  0.00    -0.075 A 
ATOM      2  C4  UNL d   1      -0.187  -0.797  -2.255  0.00  0.00     0.002 A 
ATOM      3  C5  UNL d   1      -0.455  -1.827  -3.157  0.00  0.00     0.002 A 
ATOM      4  C6  UNL d   1      -0.843  -3.081  -2.691  0.00  0.00    -0.004 A 
ATOM      5  C7  UNL d   1      -0.957  -3.307  -1.321  0.00  0.00     0.002 A 
ATOM      6  C8  UNL d   1      -0.694  -2.277  -0.417  0.00  0.00     0.002 A 
ENDROOT
BRANCH   1   7
ATOM      7  C2  UNL d   1      -0.054   0.111   0.105  0.00  0.00     0.056 C 
BRANCH   7   8
ATOM      8  C1  UNL d   1      -1.316   0.644   0.792  0.00  0.00     0.007 C 
ATOM      9  C   UNL d   1      -1.782   1.983   0.235  0.00  0.00     0.009 C 
ENDBRANCH   7   8
ENDBRANCH   1   7
TORSDOF 2
ENDMDL
