MODEL 1
REMARK minimizedAffinity -2.77581573
REMARK minimizedRMSD -1
REMARK  3 active torsions:
REMARK  status: ('A' for Active; 'I' for Inactive)
REMARK    1  A    between atoms: C3'_2  and  C2'_3 
REMARK    2  A    between atoms: C2'_3  and  C1'_4 
REMARK    3  A    between atoms: C1'_4  and  C1_5 
ROOT
ATOM      1  C1  N4B d   1       0.401  -0.198  -0.713  0.00  0.00    -0.075 A 
ATOM      2  C2  N4B d   1       1.431  -0.532   0.194  0.00  0.00     0.002 A 
ATOM      3  C3  N4B d   1       1.328  -0.169   1.514  0.00  0.00     0.002 A 
ATOM      4  C4  N4B d   1       0.217   0.542   1.945  0.00  0.00    -0.004 A 
ATOM      5  C5  N4B d   1      -0.785   0.838   1.068  0.00  0.00     0.002 A 
ATOM      6  C6  N4B d   1      -0.696   0.476  -0.261  0.00  0.00     0.002 A 
ENDROOT
BRANCH   1   7
ATOM      7  C1' N4B d   1       0.510  -0.499  -2.183  0.00  0.00     0.057 C 
BRANCH   7   8
ATOM      8  C2' N4B d   1       1.581   0.396  -2.800  0.00  0.00     0.009 C 
BRANCH   8   9
ATOM      9  C3' N4B d   1       1.580   0.321  -4.317  0.00  0.00     0.004 C 
ATOM     10  C4' N4B d   1       0.703   1.361  -4.949  0.00  0.00     0.003 C 
ENDBRANCH   8   9
ENDBRANCH   7   8
ENDBRANCH   1   7
TORSDOF 3
ENDMDL
