MODEL 1
REMARK minimizedAffinity -4.62846184
REMARK minimizedRMSD -1
REMARK  3 active torsions:
REMARK  status: ('A' for Active; 'I' for Inactive)
REMARK    1  A    between atoms: C3'_2  and  C2'_3 
REMARK    2  A    between atoms: C2'_3  and  C1'_4 
REMARK    3  A    between atoms: C1'_4  and  C1_5 
ROOT
ATOM      1  C1  N4B d   1      -0.436   0.079   0.261  0.00  0.00    -0.075 A 
ATOM      2  C2  N4B d   1      -1.755  -0.090   0.736  0.00  0.00     0.002 A 
ATOM      3  C3  N4B d   1      -2.157   0.543   1.886  0.00  0.00     0.002 A 
ATOM      4  C4  N4B d   1      -1.256   1.332   2.585  0.00  0.00    -0.004 A 
ATOM      5  C5  N4B d   1       0.009   1.511   2.106  0.00  0.00     0.002 A 
ATOM      6  C6  N4B d   1       0.425   0.883   0.949  0.00  0.00     0.002 A 
ENDROOT
BRANCH   1   7
ATOM      7  C1' N4B d   1       0.075  -0.662  -0.945  0.00  0.00     0.057 C 
BRANCH   7   8
ATOM      8  C2' N4B d   1       1.078   0.218  -1.685  0.00  0.00     0.009 C 
BRANCH   8   9
ATOM      9  C3' N4B d   1       0.780   0.291  -3.173  0.00  0.00     0.004 C 
ATOM     10  C4' N4B d   1       1.660   1.269  -3.894  0.00  0.00     0.003 C 
ENDBRANCH   8   9
ENDBRANCH   7   8
ENDBRANCH   1   7
TORSDOF 3
ENDMDL
