MODEL 1
REMARK minimizedAffinity -4.23226213
REMARK minimizedRMSD -1
REMARK  3 active torsions:
REMARK  status: ('A' for Active; 'I' for Inactive)
REMARK    1  A    between atoms: C3'_2  and  C2'_3 
REMARK    2  A    between atoms: C2'_3  and  C1'_4 
REMARK    3  A    between atoms: C1'_4  and  C1_5 
ROOT
ATOM      1  C1  N4B d   1       0.477  -0.433  -2.781  0.00  0.00    -0.075 A 
ATOM      2  C2  N4B d   1       0.075  -0.926  -4.042  0.00  0.00     0.002 A 
ATOM      3  C3  N4B d   1       0.731  -0.520  -5.178  0.00  0.00     0.002 A 
ATOM      4  C4  N4B d   1       1.776   0.387  -5.080  0.00  0.00    -0.004 A 
ATOM      5  C5  N4B d   1       2.174   0.838  -3.856  0.00  0.00     0.002 A 
ATOM      6  C6  N4B d   1       1.526   0.436  -2.705  0.00  0.00     0.002 A 
ENDROOT
BRANCH   1   7
ATOM      7  C1' N4B d   1      -0.265  -0.781  -1.519  0.00  0.00     0.057 C 
BRANCH   7   8
ATOM      8  C2' N4B d   1       0.575  -0.369  -0.314  0.00  0.00     0.009 C 
BRANCH   8   9
ATOM      9  C3' N4B d   1      -0.222   0.464   0.676  0.00  0.00     0.004 C 
ATOM     10  C4' N4B d   1       0.546   0.770   1.927  0.00  0.00     0.003 C 
ENDBRANCH   8   9
ENDBRANCH   7   8
ENDBRANCH   1   7
TORSDOF 3
ENDMDL
