MODEL 1
REMARK minimizedAffinity 17.7485142
REMARK minimizedRMSD -1
REMARK  0 active torsions:
REMARK  status: ('A' for Active; 'I' for Inactive)
ROOT
ATOM      1  O1  BZF d   1       1.084  -0.510   0.245  0.00  0.00    -0.204 OA
ATOM      2  C2  BZF d   1       1.258   0.704  -0.390  0.00  0.00     0.174 A 
ATOM      3  C3  BZF d   1       0.195   1.508  -0.186  0.00  0.00    -0.012 A 
ATOM      4  C3A BZF d   1      -0.659   0.783   0.705  0.00  0.00    -0.107 A 
ATOM      5  C4  BZF d   1      -1.861   1.064   1.288  0.00  0.00     0.055 A 
ATOM      6  C5  BZF d   1      -2.465   0.112   2.048  0.00  0.00    -0.016 A 
ATOM      7  C6  BZF d   1      -1.897  -1.130   2.241  0.00  0.00     0.022 A 
ATOM      8  C7  BZF d   1      -0.703  -1.453   1.687  0.00  0.00     0.029 A 
ATOM      9  C7A BZF d   1      -0.075  -0.482   0.945  0.00  0.00     0.058 A 
ENDROOT
TORSDOF 0
ENDMDL
