MODEL 1
REMARK minimizedAffinity 0.804310262
REMARK minimizedRMSD -1
REMARK  0 active torsions:
REMARK  status: ('A' for Active; 'I' for Inactive)
ROOT
ATOM      1  O1  BZF d   1       1.048  -1.506  -0.258  0.00  0.00    -0.204 OA
ATOM      2  C2  BZF d   1       1.408  -0.206   0.040  0.00  0.00     0.174 A 
ATOM      3  C3  BZF d   1       0.518   0.354   0.885  0.00  0.00    -0.012 A 
ATOM      4  C3A BZF d   1      -0.408  -0.689   1.203  0.00  0.00    -0.107 A 
ATOM      5  C4  BZF d   1      -1.510  -0.753   2.006  0.00  0.00     0.055 A 
ATOM      6  C5  BZF d   1      -2.238  -1.900   2.039  0.00  0.00    -0.016 A 
ATOM      7  C6  BZF d   1      -1.895  -2.999   1.279  0.00  0.00     0.022 A 
ATOM      8  C7  BZF d   1      -0.807  -2.985   0.471  0.00  0.00     0.029 A 
ATOM      9  C7A BZF d   1      -0.051  -1.838   0.460  0.00  0.00     0.058 A 
ENDROOT
TORSDOF 0
ENDMDL
