MODEL 1
REMARK minimizedAffinity 11.960845
REMARK minimizedRMSD -1
REMARK  0 active torsions:
REMARK  status: ('A' for Active; 'I' for Inactive)
ROOT
ATOM      1  O1  BZF d   1       0.344   1.430   3.206  0.00  0.00    -0.204 OA
ATOM      2  C2  BZF d   1       1.068   0.822   4.214  0.00  0.00     0.174 A 
ATOM      3  C3  BZF d   1       2.112   0.135   3.705  0.00  0.00    -0.012 A 
ATOM      4  C3A BZF d   1       2.089   0.402   2.300  0.00  0.00    -0.107 A 
ATOM      5  C4  BZF d   1       2.883   0.016   1.258  0.00  0.00     0.055 A 
ATOM      6  C5  BZF d   1       2.545   0.391  -0.004  0.00  0.00    -0.016 A 
ATOM      7  C6  BZF d   1       1.420   1.148  -0.260  0.00  0.00     0.022 A 
ATOM      8  C7  BZF d   1       0.605   1.559   0.742  0.00  0.00     0.029 A 
ATOM      9  C7A BZF d   1       0.962   1.209   2.021  0.00  0.00     0.058 A 
ENDROOT
TORSDOF 0
ENDMDL
