MODEL 1
REMARK minimizedAffinity 7.31187677
REMARK minimizedRMSD -1
REMARK  0 active torsions:
REMARK  status: ('A' for Active; 'I' for Inactive)
ROOT
ATOM      1  O1  BZF d   1      -1.647   4.443  -4.573  0.00  0.00    -0.204 OA
ATOM      2  C2  BZF d   1      -0.878   5.567  -4.340  0.00  0.00     0.174 A 
ATOM      3  C3  BZF d   1      -0.727   5.777  -3.016  0.00  0.00    -0.012 A 
ATOM      4  C3A BZF d   1      -1.369   4.666  -2.383  0.00  0.00    -0.107 A 
ATOM      5  C4  BZF d   1      -1.541   4.299  -1.079  0.00  0.00     0.055 A 
ATOM      6  C5  BZF d   1      -2.280   3.194  -0.796  0.00  0.00    -0.016 A 
ATOM      7  C6  BZF d   1      -2.863   2.436  -1.790  0.00  0.00     0.022 A 
ATOM      8  C7  BZF d   1      -2.716   2.758  -3.098  0.00  0.00     0.029 A 
ATOM      9  C7A BZF d   1      -1.944   3.855  -3.389  0.00  0.00     0.058 A 
ENDROOT
TORSDOF 0
ENDMDL
