MODEL 1
REMARK minimizedAffinity 4.57372427
REMARK minimizedRMSD -1
REMARK  0 active torsions:
REMARK  status: ('A' for Active; 'I' for Inactive)
ROOT
ATOM      1  O1  BZF d   1       1.900   1.392  -0.649  0.00  0.00    -0.204 OA
ATOM      2  C2  BZF d   1       1.981   2.663  -0.114  0.00  0.00     0.174 A 
ATOM      3  C3  BZF d   1       1.042   2.843   0.837  0.00  0.00    -0.012 A 
ATOM      4  C3A BZF d   1       0.389   1.576   0.965  0.00  0.00    -0.107 A 
ATOM      5  C4  BZF d   1      -0.621   1.117   1.761  0.00  0.00     0.055 A 
ATOM      6  C5  BZF d   1      -1.074  -0.153   1.587  0.00  0.00    -0.016 A 
ATOM      7  C6  BZF d   1      -0.543  -0.987   0.625  0.00  0.00     0.022 A 
ATOM      8  C7  BZF d   1       0.464  -0.578  -0.184  0.00  0.00     0.029 A 
ATOM      9  C7A BZF d   1       0.946   0.693   0.011  0.00  0.00     0.058 A 
ENDROOT
TORSDOF 0
ENDMDL
