MODEL 1
REMARK minimizedAffinity 3.84140325
REMARK minimizedRMSD -1
REMARK  0 active torsions:
REMARK  status: ('A' for Active; 'I' for Inactive)
ROOT
ATOM      1  O1  BZF d   1       2.237   4.170  -4.631  0.00  0.00    -0.204 OA
ATOM      2  C2  BZF d   1       1.516   5.116  -5.333  0.00  0.00     0.174 A 
ATOM      3  C3  BZF d   1       2.342   5.998  -5.933  0.00  0.00    -0.012 A 
ATOM      4  C3A BZF d   1       3.663   5.523  -5.659  0.00  0.00    -0.107 A 
ATOM      5  C4  BZF d   1       4.909   5.965  -6.000  0.00  0.00     0.055 A 
ATOM      6  C5  BZF d   1       5.998   5.316  -5.510  0.00  0.00    -0.016 A 
ATOM      7  C6  BZF d   1       5.877   4.225  -4.673  0.00  0.00     0.022 A 
ATOM      8  C7  BZF d   1       4.662   3.747  -4.311  0.00  0.00     0.029 A 
ATOM      9  C7A BZF d   1       3.560   4.381  -4.831  0.00  0.00     0.058 A 
ENDROOT
TORSDOF 0
ENDMDL
