MODEL 1
REMARK minimizedAffinity 18.5197277
REMARK minimizedRMSD -1
REMARK  0 active torsions:
REMARK  status: ('A' for Active; 'I' for Inactive)
ROOT
ATOM      1  O1  BZF d   1       5.105   0.012   0.566  0.00  0.00    -0.204 OA
ATOM      2  C2  BZF d   1       6.000   0.929   0.050  0.00  0.00     0.174 A 
ATOM      3  C3  BZF d   1       5.357   1.876  -0.662  0.00  0.00    -0.012 A 
ATOM      4  C3A BZF d   1       3.965   1.582  -0.509  0.00  0.00    -0.107 A 
ATOM      5  C4  BZF d   1       2.824   2.175  -0.969  0.00  0.00     0.055 A 
ATOM      6  C5  BZF d   1       1.624   1.596  -0.700  0.00  0.00    -0.016 A 
ATOM      7  C6  BZF d   1       1.529   0.423   0.019  0.00  0.00     0.022 A 
ATOM      8  C7  BZF d   1       2.633  -0.200   0.500  0.00  0.00     0.029 A 
ATOM      9  C7A BZF d   1       3.844   0.401   0.258  0.00  0.00     0.058 A 
ENDROOT
TORSDOF 0
ENDMDL
