MODEL 1
REMARK minimizedAffinity 2.55699587
REMARK minimizedRMSD -1
REMARK  0 active torsions:
REMARK  status: ('A' for Active; 'I' for Inactive)
ROOT
ATOM      1  O1  BZF d   1      -0.326   5.950  -6.000  0.00  0.00    -0.204 OA
ATOM      2  C2  BZF d   1       1.048   5.907  -5.856  0.00  0.00     0.174 A 
ATOM      3  C3  BZF d   1       1.393   5.931  -4.552  0.00  0.00    -0.012 A 
ATOM      4  C3A BZF d   1       0.155   5.899  -3.835  0.00  0.00    -0.107 A 
ATOM      5  C4  BZF d   1      -0.159   5.888  -2.506  0.00  0.00     0.055 A 
ATOM      6  C5  BZF d   1      -1.466   5.930  -2.136  0.00  0.00    -0.016 A 
ATOM      7  C6  BZF d   1      -2.483   5.990  -3.067  0.00  0.00     0.022 A 
ATOM      8  C7  BZF d   1      -2.220   5.999  -4.397  0.00  0.00     0.029 A 
ATOM      9  C7A BZF d   1      -0.901   5.922  -4.774  0.00  0.00     0.058 A 
ENDROOT
TORSDOF 0
ENDMDL
