MODEL 1
REMARK minimizedAffinity 1.58758831
REMARK minimizedRMSD -1
REMARK  0 active torsions:
REMARK  status: ('A' for Active; 'I' for Inactive)
ROOT
ATOM      1  O1  BZF d   1       0.381   4.926  -5.232  0.00  0.00    -0.204 OA
ATOM      2  C2  BZF d   1       0.851   5.975  -5.998  0.00  0.00     0.174 A 
ATOM      3  C3  BZF d   1       2.199   6.000  -6.000  0.00  0.00    -0.012 A 
ATOM      4  C3A BZF d   1       2.598   4.842  -5.259  0.00  0.00    -0.107 A 
ATOM      5  C4  BZF d   1       3.811   4.312  -4.926  0.00  0.00     0.055 A 
ATOM      6  C5  BZF d   1       3.856   3.211  -4.131  0.00  0.00    -0.016 A 
ATOM      7  C6  BZF d   1       2.708   2.619  -3.647  0.00  0.00     0.022 A 
ATOM      8  C7  BZF d   1       1.481   3.105  -3.954  0.00  0.00     0.029 A 
ATOM      9  C7A BZF d   1       1.432   4.198  -4.784  0.00  0.00     0.058 A 
ENDROOT
TORSDOF 0
ENDMDL
