MODEL 1
REMARK minimizedAffinity 0.71007973
REMARK minimizedRMSD -1
REMARK  0 active torsions:
REMARK  status: ('A' for Active; 'I' for Inactive)
ROOT
ATOM      1  O1  BZF d   1      -0.813   5.961  -2.359  0.00  0.00    -0.204 OA
ATOM      2  C2  BZF d   1      -0.023   5.964  -3.492  0.00  0.00     0.174 A 
ATOM      3  C3  BZF d   1      -0.783   5.922  -4.605  0.00  0.00    -0.012 A 
ATOM      4  C3A BZF d   1      -2.135   5.985  -4.140  0.00  0.00    -0.107 A 
ATOM      5  C4  BZF d   1      -3.346   5.997  -4.771  0.00  0.00     0.055 A 
ATOM      6  C5  BZF d   1      -4.481   5.990  -4.024  0.00  0.00    -0.016 A 
ATOM      7  C6  BZF d   1      -4.442   5.965  -2.645  0.00  0.00     0.022 A 
ATOM      8  C7  BZF d   1      -3.265   5.958  -1.974  0.00  0.00     0.029 A 
ATOM      9  C7A BZF d   1      -2.116   5.998  -2.726  0.00  0.00     0.058 A 
ENDROOT
TORSDOF 0
ENDMDL
