MODEL 1
REMARK minimizedAffinity 7.41916084
REMARK minimizedRMSD -1
REMARK  0 active torsions:
REMARK  status: ('A' for Active; 'I' for Inactive)
ROOT
ATOM      1  O1  BZF d   1       1.385   0.114  -0.431  0.00  0.00    -0.204 OA
ATOM      2  C2  BZF d   1       1.852   1.381  -0.141  0.00  0.00     0.174 A 
ATOM      3  C3  BZF d   1       1.172   1.916   0.894  0.00  0.00    -0.012 A 
ATOM      4  C3A BZF d   1       0.283   0.885   1.333  0.00  0.00    -0.107 A 
ATOM      5  C4  BZF d   1      -0.641   0.806   2.336  0.00  0.00     0.055 A 
ATOM      6  C5  BZF d   1      -1.396  -0.318   2.452  0.00  0.00    -0.016 A 
ATOM      7  C6  BZF d   1      -1.257  -1.379   1.580  0.00  0.00     0.022 A 
ATOM      8  C7  BZF d   1      -0.351  -1.349   0.573  0.00  0.00     0.029 A 
ATOM      9  C7A BZF d   1       0.436  -0.227   0.473  0.00  0.00     0.058 A 
ENDROOT
TORSDOF 0
ENDMDL
