MODEL 1
REMARK minimizedAffinity 7.41162443
REMARK minimizedRMSD -1
REMARK  0 active torsions:
REMARK  status: ('A' for Active; 'I' for Inactive)
ROOT
ATOM      1  O1  BZF d   1      -0.764  -0.295   2.409  0.00  0.00    -0.204 OA
ATOM      2  C2  BZF d   1      -1.917  -0.467   1.668  0.00  0.00     0.174 A 
ATOM      3  C3  BZF d   1      -1.869   0.257   0.531  0.00  0.00    -0.012 A 
ATOM      4  C3A BZF d   1      -0.567   0.851   0.519  0.00  0.00    -0.107 A 
ATOM      5  C4  BZF d   1       0.084   1.668  -0.360  0.00  0.00     0.055 A 
ATOM      6  C5  BZF d   1       1.322   2.129  -0.042  0.00  0.00    -0.016 A 
ATOM      7  C6  BZF d   1       1.936   1.797   1.148  0.00  0.00     0.022 A 
ATOM      8  C7  BZF d   1       1.332   0.985   2.050  0.00  0.00     0.029 A 
ATOM      9  C7A BZF d   1       0.095   0.492   1.716  0.00  0.00     0.058 A 
ENDROOT
TORSDOF 0
ENDMDL
