MODEL 1
REMARK minimizedAffinity 1.03889024
REMARK minimizedRMSD -1
REMARK  0 active torsions:
REMARK  status: ('A' for Active; 'I' for Inactive)
ROOT
ATOM      1  O1  BZF d   1      -0.168   1.018   2.025  0.00  0.00    -0.204 OA
ATOM      2  C2  BZF d   1      -0.538  -0.290   1.772  0.00  0.00     0.174 A 
ATOM      3  C3  BZF d   1      -0.076  -0.694   0.572  0.00  0.00    -0.012 A 
ATOM      4  C3A BZF d   1       0.705   0.400   0.081  0.00  0.00    -0.107 A 
ATOM      5  C4  BZF d   1       1.433   0.597  -1.057  0.00  0.00     0.055 A 
ATOM      6  C5  BZF d   1       2.017   1.806  -1.267  0.00  0.00    -0.016 A 
ATOM      7  C6  BZF d   1       1.889   2.841  -0.363  0.00  0.00     0.022 A 
ATOM      8  C7  BZF d   1       1.180   2.691   0.783  0.00  0.00     0.029 A 
ATOM      9  C7A BZF d   1       0.616   1.460   1.013  0.00  0.00     0.058 A 
ENDROOT
TORSDOF 0
ENDMDL
