MODEL 1
REMARK minimizedAffinity 5.6358633
REMARK minimizedRMSD -1
REMARK  0 active torsions:
REMARK  status: ('A' for Active; 'I' for Inactive)
ROOT
ATOM      1  O1  BZF d   1       0.544  -0.197   0.378  0.00  0.00    -0.204 OA
ATOM      2  C2  BZF d   1      -0.345  -0.192   1.435  0.00  0.00     0.174 A 
ATOM      3  C3  BZF d   1      -0.468   1.048   1.951  0.00  0.00    -0.012 A 
ATOM      4  C3A BZF d   1       0.329   1.886   1.109  0.00  0.00    -0.107 A 
ATOM      5  C4  BZF d   1       0.596   3.226   1.101  0.00  0.00     0.055 A 
ATOM      6  C5  BZF d   1       1.474   3.718   0.187  0.00  0.00    -0.016 A 
ATOM      7  C6  BZF d   1       2.106   2.900  -0.727  0.00  0.00     0.022 A 
ATOM      8  C7  BZF d   1       1.869   1.566  -0.760  0.00  0.00     0.029 A 
ATOM      9  C7A BZF d   1       0.957   1.071   0.140  0.00  0.00     0.058 A 
ENDROOT
TORSDOF 0
ENDMDL
