MODEL 1
REMARK minimizedAffinity 3.0818975
REMARK minimizedRMSD -1
REMARK  0 active torsions:
REMARK  status: ('A' for Active; 'I' for Inactive)
ROOT
ATOM      1  O1  BZF d   1      -2.321  -0.202  -2.992  0.00  0.00    -0.204 OA
ATOM      2  C2  BZF d   1      -1.534  -0.329  -4.121  0.00  0.00     0.174 A 
ATOM      3  C3  BZF d   1      -0.225  -0.295  -3.797  0.00  0.00    -0.012 A 
ATOM      4  C3A BZF d   1      -0.192  -0.229  -2.368  0.00  0.00    -0.107 A 
ATOM      5  C4  BZF d   1       0.821  -0.187  -1.453  0.00  0.00     0.055 A 
ATOM      6  C5  BZF d   1       0.516  -0.052  -0.136  0.00  0.00    -0.016 A 
ATOM      7  C6  BZF d   1      -0.789   0.049   0.301  0.00  0.00     0.022 A 
ATOM      8  C7  BZF d   1      -1.827   0.007  -0.569  0.00  0.00     0.029 A 
ATOM      9  C7A BZF d   1      -1.524  -0.162  -1.898  0.00  0.00     0.058 A 
ENDROOT
TORSDOF 0
ENDMDL
