MODEL 1
REMARK minimizedAffinity 1.97545743
REMARK minimizedRMSD -1
REMARK  0 active torsions:
REMARK  status: ('A' for Active; 'I' for Inactive)
ROOT
ATOM      1  O1  BZF d   1       0.987   1.823   1.851  0.00  0.00    -0.204 OA
ATOM      2  C2  BZF d   1       1.438   3.077   1.490  0.00  0.00     0.174 A 
ATOM      3  C3  BZF d   1       1.598   3.161   0.153  0.00  0.00    -0.012 A 
ATOM      4  C3A BZF d   1       1.134   1.909  -0.361  0.00  0.00    -0.107 A 
ATOM      5  C4  BZF d   1       1.025   1.394  -1.621  0.00  0.00     0.055 A 
ATOM      6  C5  BZF d   1       0.602   0.112  -1.776  0.00  0.00    -0.016 A 
ATOM      7  C6  BZF d   1       0.285  -0.684  -0.694  0.00  0.00     0.022 A 
ATOM      8  C7  BZF d   1       0.372  -0.215   0.574  0.00  0.00     0.029 A 
ATOM      9  C7A BZF d   1       0.768   1.091   0.733  0.00  0.00     0.058 A 
ENDROOT
TORSDOF 0
ENDMDL
