MODEL 1
REMARK minimizedAffinity 3.27349734
REMARK minimizedRMSD -1
REMARK  0 active torsions:
REMARK  status: ('A' for Active; 'I' for Inactive)
ROOT
ATOM      1  O1  BZF d   1       0.741   0.850  -0.904  0.00  0.00    -0.204 OA
ATOM      2  C2  BZF d   1       1.723   1.820  -0.866  0.00  0.00     0.174 A 
ATOM      3  C3  BZF d   1       1.777   2.398   0.352  0.00  0.00    -0.012 A 
ATOM      4  C3A BZF d   1       0.827   1.685   1.149  0.00  0.00    -0.107 A 
ATOM      5  C4  BZF d   1       0.435   1.783   2.454  0.00  0.00     0.055 A 
ATOM      6  C5  BZF d   1      -0.569   0.985   2.903  0.00  0.00    -0.016 A 
ATOM      7  C6  BZF d   1      -1.205   0.083   2.076  0.00  0.00     0.022 A 
ATOM      8  C7  BZF d   1      -0.848  -0.053   0.775  0.00  0.00     0.029 A 
ATOM      9  C7A BZF d   1       0.189   0.728   0.327  0.00  0.00     0.058 A 
ENDROOT
TORSDOF 0
ENDMDL
