MODEL 1
REMARK minimizedAffinity 6.49786282
REMARK minimizedRMSD -1
REMARK  0 active torsions:
REMARK  status: ('A' for Active; 'I' for Inactive)
ROOT
ATOM      1  O1  BZF d   1       2.126   1.355   1.000  0.00  0.00    -0.204 OA
ATOM      2  C2  BZF d   1       2.074   0.601  -0.156  0.00  0.00     0.174 A 
ATOM      3  C3  BZF d   1       0.881  -0.016  -0.272  0.00  0.00    -0.012 A 
ATOM      4  C3A BZF d   1       0.107   0.450   0.838  0.00  0.00    -0.107 A 
ATOM      5  C4  BZF d   1      -1.169   0.208   1.261  0.00  0.00     0.055 A 
ATOM      6  C5  BZF d   1      -1.595   0.764   2.425  0.00  0.00    -0.016 A 
ATOM      7  C6  BZF d   1      -0.772   1.561   3.194  0.00  0.00     0.022 A 
ATOM      8  C7  BZF d   1       0.500   1.833   2.813  0.00  0.00     0.029 A 
ATOM      9  C7A BZF d   1       0.923   1.300   1.620  0.00  0.00     0.058 A 
ENDROOT
TORSDOF 0
ENDMDL
