MODEL 1
REMARK minimizedAffinity 4.45551777
REMARK minimizedRMSD -1
REMARK  0 active torsions:
REMARK  status: ('A' for Active; 'I' for Inactive)
ROOT
ATOM      1  O1  BZF d   1      -0.491  -0.258  -0.101  0.00  0.00    -0.204 OA
ATOM      2  C2  BZF d   1       0.219   0.072  -1.239  0.00  0.00     0.174 A 
ATOM      3  C3  BZF d   1       1.161   0.998  -0.964  0.00  0.00    -0.012 A 
ATOM      4  C3A BZF d   1       1.092   1.195   0.452  0.00  0.00    -0.107 A 
ATOM      5  C4  BZF d   1       1.787   1.982   1.325  0.00  0.00     0.055 A 
ATOM      6  C5  BZF d   1       1.424   1.996   2.635  0.00  0.00    -0.016 A 
ATOM      7  C6  BZF d   1       0.369   1.240   3.104  0.00  0.00     0.022 A 
ATOM      8  C7  BZF d   1      -0.347   0.440   2.276  0.00  0.00     0.029 A 
ATOM      9  C7A BZF d   1       0.038   0.399   0.959  0.00  0.00     0.058 A 
ENDROOT
TORSDOF 0
ENDMDL
