MODEL 1
REMARK minimizedAffinity -1.54027474
REMARK minimizedRMSD -1
REMARK  0 active torsions:
REMARK  status: ('A' for Active; 'I' for Inactive)
ROOT
ATOM      1  C1  BNZ d   1       0.171  -0.877   0.020  0.00  0.00     0.000 A 
ATOM      2  C2  BNZ d   1       1.136  -1.398  -0.800  0.00  0.00     0.000 A 
ATOM      3  C3  BNZ d   1       1.284  -0.948  -2.082  0.00  0.00     0.000 A 
ATOM      4  C4  BNZ d   1       0.443  -0.006  -2.555  0.00  0.00     0.000 A 
ATOM      5  C5  BNZ d   1      -0.542   0.523  -1.744  0.00  0.00     0.000 A 
ATOM      6  C6  BNZ d   1      -0.663   0.095  -0.442  0.00  0.00     0.000 A 
ENDROOT
TORSDOF 0
ENDMDL
