MODEL 1
REMARK minimizedAffinity -4.59244633
REMARK minimizedRMSD -1
REMARK  0 active torsions:
REMARK  status: ('A' for Active; 'I' for Inactive)
ROOT
ATOM      1  C1  BNZ d   1       0.245   1.149   0.329  0.00  0.00     0.000 A 
ATOM      2  C2  BNZ d   1       0.064   1.604   1.608  0.00  0.00     0.000 A 
ATOM      3  C3  BNZ d   1      -1.125   1.419   2.255  0.00  0.00     0.000 A 
ATOM      4  C4  BNZ d   1      -2.144   0.815   1.610  0.00  0.00     0.000 A 
ATOM      5  C5  BNZ d   1      -1.981   0.359   0.318  0.00  0.00     0.000 A 
ATOM      6  C6  BNZ d   1      -0.770   0.513  -0.317  0.00  0.00     0.000 A 
ENDROOT
TORSDOF 0
ENDMDL
