MODEL 1
REMARK minimizedAffinity -3.70147848
REMARK minimizedRMSD -1
REMARK  0 active torsions:
REMARK  status: ('A' for Active; 'I' for Inactive)
ROOT
ATOM      1  C1  BNZ d   1      -1.665   0.144   1.552  0.00  0.00     0.000 A 
ATOM      2  C2  BNZ d   1      -1.670  -0.636   0.427  0.00  0.00     0.000 A 
ATOM      3  C3  BNZ d   1      -0.627  -0.597  -0.457  0.00  0.00     0.000 A 
ATOM      4  C4  BNZ d   1       0.398   0.251  -0.235  0.00  0.00     0.000 A 
ATOM      5  C5  BNZ d   1       0.413   1.051   0.890  0.00  0.00     0.000 A 
ATOM      6  C6  BNZ d   1      -0.619   0.980   1.797  0.00  0.00     0.000 A 
ENDROOT
TORSDOF 0
ENDMDL
