MODEL 1
REMARK minimizedAffinity -3.04179931
REMARK minimizedRMSD -1
REMARK  0 active torsions:
REMARK  status: ('A' for Active; 'I' for Inactive)
ROOT
ATOM      1  C1  BNZ d   1      -0.650  -0.480  -0.697  0.00  0.00     0.000 A 
ATOM      2  C2  BNZ d   1      -1.433   0.298   0.114  0.00  0.00     0.000 A 
ATOM      3  C3  BNZ d   1      -0.955   0.772   1.303  0.00  0.00     0.000 A 
ATOM      4  C4  BNZ d   1       0.290   0.436   1.699  0.00  0.00     0.000 A 
ATOM      5  C5  BNZ d   1       1.088  -0.356   0.898  0.00  0.00     0.000 A 
ATOM      6  C6  BNZ d   1       0.618  -0.799  -0.317  0.00  0.00     0.000 A 
ENDROOT
TORSDOF 0
ENDMDL
