MODEL 1
REMARK minimizedAffinity -3.55704331
REMARK minimizedRMSD -1
REMARK  0 active torsions:
REMARK  status: ('A' for Active; 'I' for Inactive)
ROOT
ATOM      1  C1  BNZ d   1      -1.445  -0.544  -0.220  0.00  0.00     0.000 A 
ATOM      2  C2  BNZ d   1      -1.482   0.326   0.837  0.00  0.00     0.000 A 
ATOM      3  C3  BNZ d   1      -0.327   0.793   1.399  0.00  0.00     0.000 A 
ATOM      4  C4  BNZ d   1       0.861   0.361   0.930  0.00  0.00     0.000 A 
ATOM      5  C5  BNZ d   1       0.915  -0.524  -0.129  0.00  0.00     0.000 A 
ATOM      6  C6  BNZ d   1      -0.249  -0.962  -0.717  0.00  0.00     0.000 A 
ENDROOT
TORSDOF 0
ENDMDL
