MODEL 1
REMARK minimizedAffinity -4.17941475
REMARK minimizedRMSD -1
REMARK  0 active torsions:
REMARK  status: ('A' for Active; 'I' for Inactive)
ROOT
ATOM      1  C1  BNZ d   1      -1.931   0.895   1.698  0.00  0.00     0.000 A 
ATOM      2  C2  BNZ d   1      -1.828   0.530   0.382  0.00  0.00     0.000 A 
ATOM      3  C3  BNZ d   1      -0.608   0.288  -0.183  0.00  0.00     0.000 A 
ATOM      4  C4  BNZ d   1       0.509   0.449   0.555  0.00  0.00     0.000 A 
ATOM      5  C5  BNZ d   1       0.423   0.826   1.881  0.00  0.00     0.000 A 
ATOM      6  C6  BNZ d   1      -0.810   1.031   2.458  0.00  0.00     0.000 A 
ENDROOT
TORSDOF 0
ENDMDL
