MODEL 1
REMARK minimizedAffinity -4.58346748
REMARK minimizedRMSD -1
REMARK  0 active torsions:
REMARK  status: ('A' for Active; 'I' for Inactive)
ROOT
ATOM      1  C1  BNZ d   1      -0.581  -0.242  -0.312  0.00  0.00     0.000 A 
ATOM      2  C2  BNZ d   1       0.472   0.419   0.262  0.00  0.00     0.000 A 
ATOM      3  C3  BNZ d   1       0.377   0.918   1.531  0.00  0.00     0.000 A 
ATOM      4  C4  BNZ d   1      -0.783   0.793   2.207  0.00  0.00     0.000 A 
ATOM      5  C5  BNZ d   1      -1.857   0.138   1.638  0.00  0.00     0.000 A 
ATOM      6  C6  BNZ d   1      -1.744  -0.398   0.376  0.00  0.00     0.000 A 
ENDROOT
TORSDOF 0
ENDMDL
