MODEL 1
REMARK minimizedAffinity -4.55178499
REMARK minimizedRMSD -1
REMARK  0 active torsions:
REMARK  status: ('A' for Active; 'I' for Inactive)
ROOT
ATOM      1  C1  BNZ d   1      -1.531  -0.113   2.163  0.00  0.00     0.000 A 
ATOM      2  C2  BNZ d   1      -1.550  -0.658   0.907  0.00  0.00     0.000 A 
ATOM      3  C3  BNZ d   1      -0.510  -0.461   0.043  0.00  0.00     0.000 A 
ATOM      4  C4  BNZ d   1       0.528   0.312   0.420  0.00  0.00     0.000 A 
ATOM      5  C5  BNZ d   1       0.558   0.877   1.680  0.00  0.00     0.000 A 
ATOM      6  C6  BNZ d   1      -0.473   0.644   2.561  0.00  0.00     0.000 A 
ENDROOT
TORSDOF 0
ENDMDL
