MODEL 1
REMARK minimizedAffinity -2.98012352
REMARK minimizedRMSD -1
REMARK  0 active torsions:
REMARK  status: ('A' for Active; 'I' for Inactive)
ROOT
ATOM      1  C1  BNZ d   1      -1.765  -0.008   0.062  0.00  0.00     0.000 A 
ATOM      2  C2  BNZ d   1      -1.797   0.684   1.243  0.00  0.00     0.000 A 
ATOM      3  C3  BNZ d   1      -0.640   1.030   1.883  0.00  0.00     0.000 A 
ATOM      4  C4  BNZ d   1       0.545   0.651   1.362  0.00  0.00     0.000 A 
ATOM      5  C5  BNZ d   1       0.593  -0.054   0.176  0.00  0.00     0.000 A 
ATOM      6  C6  BNZ d   1      -0.572  -0.367  -0.485  0.00  0.00     0.000 A 
ENDROOT
TORSDOF 0
ENDMDL
