MODEL 1
REMARK minimizedAffinity -4.69113255
REMARK minimizedRMSD -1
REMARK  0 active torsions:
REMARK  status: ('A' for Active; 'I' for Inactive)
ROOT
ATOM      1  C1  BNZ d   1       0.014   1.754   1.653  0.00  0.00     0.000 A 
ATOM      2  C2  BNZ d   1       0.690   0.778   0.971  0.00  0.00     0.000 A 
ATOM      3  C3  BNZ d   1       0.020  -0.133   0.204  0.00  0.00     0.000 A 
ATOM      4  C4  BNZ d   1      -1.327  -0.093   0.152  0.00  0.00     0.000 A 
ATOM      5  C5  BNZ d   1      -2.025   0.879   0.842  0.00  0.00     0.000 A 
ATOM      6  C6  BNZ d   1      -1.344   1.819   1.582  0.00  0.00     0.000 A 
ENDROOT
TORSDOF 0
ENDMDL
