MODEL 1
REMARK minimizedAffinity -0.703662336
REMARK minimizedRMSD -1
REMARK  0 active torsions:
REMARK  status: ('A' for Active; 'I' for Inactive)
ROOT
ATOM      1  C   UNL d   1       0.796   5.661   5.322  0.00  0.00     0.077 C 
ATOM      2  C1  UNL d   1       2.242   5.264   5.293  0.00  0.00    -0.074 A 
ATOM      3  C2  UNL d   1       3.203   5.998   5.997  0.00  0.00    -0.005 A 
ATOM      4  C3  UNL d   1       4.543   5.612   5.968  0.00  0.00     0.006 A 
ATOM      5  C4  UNL d   1       4.935   4.490   5.237  0.00  0.00    -0.005 A 
ATOM      6  C5  UNL d   1       3.989   3.744   4.528  0.00  0.00    -0.074 A 
ATOM      7  C6  UNL d   1       4.393   2.530   3.745  0.00  0.00     0.077 C 
ATOM      8  C7  UNL d   1       2.644   4.134   4.567  0.00  0.00    -0.001 A 
ENDROOT
TORSDOF 0
ENDMDL
