MODEL 1
REMARK minimizedAffinity -3.97970366
REMARK minimizedRMSD -1
REMARK  0 active torsions:
REMARK  status: ('A' for Active; 'I' for Inactive)
ROOT
ATOM      1  C   UNL d   1       4.116   3.547   2.901  0.00  0.00     0.077 C 
ATOM      2  C1  UNL d   1       3.432   4.393   3.933  0.00  0.00    -0.074 A 
ATOM      3  C2  UNL d   1       4.126   4.862   5.053  0.00  0.00    -0.005 A 
ATOM      4  C3  UNL d   1       3.479   5.656   6.000  0.00  0.00     0.006 A 
ATOM      5  C4  UNL d   1       2.133   5.989   5.836  0.00  0.00    -0.005 A 
ATOM      6  C5  UNL d   1       1.423   5.530   4.722  0.00  0.00    -0.074 A 
ATOM      7  C6  UNL d   1      -0.020   5.886   4.526  0.00  0.00     0.077 C 
ATOM      8  C7  UNL d   1       2.083   4.738   3.772  0.00  0.00    -0.001 A 
ENDROOT
TORSDOF 0
ENDMDL
