MODEL 1
REMARK minimizedAffinity 0.678812325
REMARK minimizedRMSD -1
REMARK  0 active torsions:
REMARK  status: ('A' for Active; 'I' for Inactive)
ROOT
ATOM      1  C   UNL d   1       3.597  -2.023   1.236  0.00  0.00     0.077 C 
ATOM      2  C1  UNL d   1       3.367  -0.568   0.954  0.00  0.00    -0.074 A 
ATOM      3  C2  UNL d   1       2.638  -0.159  -0.167  0.00  0.00    -0.005 A 
ATOM      4  C3  UNL d   1       2.424   1.197  -0.411  0.00  0.00     0.006 A 
ATOM      5  C4  UNL d   1       2.935   2.157   0.463  0.00  0.00    -0.005 A 
ATOM      6  C5  UNL d   1       3.665   1.768   1.590  0.00  0.00    -0.074 A 
ATOM      7  C6  UNL d   1       4.213   2.786   2.545  0.00  0.00     0.077 C 
ATOM      8  C7  UNL d   1       3.870   0.402   1.832  0.00  0.00    -0.001 A 
ENDROOT
TORSDOF 0
ENDMDL
