MODEL 1
REMARK minimizedAffinity -0.400373757
REMARK minimizedRMSD -1
REMARK  0 active torsions:
REMARK  status: ('A' for Active; 'I' for Inactive)
ROOT
ATOM      1  C   UNL d   1      -1.882   5.981   3.647  0.00  0.00     0.077 C 
ATOM      2  C1  UNL d   1      -0.467   5.988   4.144  0.00  0.00    -0.074 A 
ATOM      3  C2  UNL d   1      -0.186   5.974   5.514  0.00  0.00    -0.005 A 
ATOM      4  C3  UNL d   1       1.136   5.971   5.961  0.00  0.00     0.006 A 
ATOM      5  C4  UNL d   1       2.188   5.983   5.044  0.00  0.00    -0.005 A 
ATOM      6  C5  UNL d   1       1.926   5.996   3.670  0.00  0.00    -0.074 A 
ATOM      7  C6  UNL d   1       3.045   5.999   2.671  0.00  0.00     0.077 C 
ATOM      8  C7  UNL d   1       0.596   5.992   3.229  0.00  0.00    -0.001 A 
ENDROOT
TORSDOF 0
ENDMDL
