MODEL 1
REMARK minimizedAffinity 2.68348527
REMARK minimizedRMSD -1
REMARK  0 active torsions:
REMARK  status: ('A' for Active; 'I' for Inactive)
ROOT
ATOM      1  C   UNL d   1       5.098   1.697  -1.912  0.00  0.00     0.077 C 
ATOM      2  C1  UNL d   1       4.005   1.006  -1.152  0.00  0.00    -0.074 A 
ATOM      3  C2  UNL d   1       2.974   1.736  -0.551  0.00  0.00    -0.005 A 
ATOM      4  C3  UNL d   1       1.959   1.079   0.144  0.00  0.00     0.006 A 
ATOM      5  C4  UNL d   1       1.964  -0.313   0.245  0.00  0.00    -0.005 A 
ATOM      6  C5  UNL d   1       2.985  -1.060  -0.351  0.00  0.00    -0.074 A 
ATOM      7  C6  UNL d   1       3.000  -2.557  -0.261  0.00  0.00     0.077 C 
ATOM      8  C7  UNL d   1       3.998  -0.393  -1.054  0.00  0.00    -0.001 A 
ENDROOT
TORSDOF 0
ENDMDL
