MODEL 1
REMARK minimizedAffinity 1.72103083
REMARK minimizedRMSD -1
REMARK  0 active torsions:
REMARK  status: ('A' for Active; 'I' for Inactive)
ROOT
ATOM      1  C   UNL d   1       2.604   1.920   4.768  0.00  0.00     0.077 C 
ATOM      2  C1  UNL d   1       3.079   3.343   4.788  0.00  0.00    -0.074 A 
ATOM      3  C2  UNL d   1       3.228   4.033   5.995  0.00  0.00    -0.005 A 
ATOM      4  C3  UNL d   1       3.680   5.353   5.999  0.00  0.00     0.006 A 
ATOM      5  C4  UNL d   1       3.986   5.994   4.798  0.00  0.00    -0.005 A 
ATOM      6  C5  UNL d   1       3.844   5.320   3.582  0.00  0.00    -0.074 A 
ATOM      7  C6  UNL d   1       4.178   5.991   2.283  0.00  0.00     0.077 C 
ATOM      8  C7  UNL d   1       3.396   3.992   3.587  0.00  0.00    -0.001 A 
ENDROOT
TORSDOF 0
ENDMDL
