MODEL 1
REMARK minimizedAffinity 4.37359381
REMARK minimizedRMSD -1
REMARK  0 active torsions:
REMARK  status: ('A' for Active; 'I' for Inactive)
ROOT
ATOM      1  C   UNL d   1       3.740   1.699   4.910  0.00  0.00     0.077 C 
ATOM      2  C1  UNL d   1       3.770   3.198   4.907  0.00  0.00    -0.074 A 
ATOM      3  C2  UNL d   1       3.290   3.928   5.999  0.00  0.00    -0.005 A 
ATOM      4  C3  UNL d   1       3.332   5.322   5.986  0.00  0.00     0.006 A 
ATOM      5  C4  UNL d   1       3.854   5.999   4.883  0.00  0.00    -0.005 A 
ATOM      6  C5  UNL d   1       4.340   5.286   3.782  0.00  0.00    -0.074 A 
ATOM      7  C6  UNL d   1       4.913   5.997   2.593  0.00  0.00     0.077 C 
ATOM      8  C7  UNL d   1       4.300   3.885   3.806  0.00  0.00    -0.001 A 
ENDROOT
TORSDOF 0
ENDMDL
