MODEL 1
REMARK minimizedAffinity 6.16056967
REMARK minimizedRMSD -1
REMARK  0 active torsions:
REMARK  status: ('A' for Active; 'I' for Inactive)
ROOT
ATOM      1  C   UNL d   1      -2.442  -1.509   1.326  0.00  0.00     0.077 C 
ATOM      2  C1  UNL d   1      -1.002  -1.159   1.096  0.00  0.00    -0.074 A 
ATOM      3  C2  UNL d   1      -0.353  -0.220   1.904  0.00  0.00    -0.005 A 
ATOM      4  C3  UNL d   1       0.990   0.089   1.684  0.00  0.00     0.006 A 
ATOM      5  C4  UNL d   1       1.696  -0.538   0.657  0.00  0.00    -0.005 A 
ATOM      6  C5  UNL d   1       1.064  -1.481  -0.160  0.00  0.00    -0.074 A 
ATOM      7  C6  UNL d   1       1.810  -2.171  -1.263  0.00  0.00     0.077 C 
ATOM      8  C7  UNL d   1      -0.284  -1.790   0.071  0.00  0.00    -0.001 A 
ENDROOT
TORSDOF 0
ENDMDL
