MODEL 1
REMARK minimizedAffinity 1.09108293
REMARK minimizedRMSD -1
REMARK  1 active torsions:
REMARK  status: ('A' for Active; 'I' for Inactive)
REMARK    1  A    between atoms: C1_2  and  C2_3 
ROOT
ATOM      1  C2  UNL d   1       2.362  -2.027   3.347  0.00  0.00    -0.073 A 
ATOM      2  C3  UNL d   1       1.702  -3.113   3.932  0.00  0.00    -0.002 A 
ATOM      3  C4  UNL d   1       2.405  -4.020   4.727  0.00  0.00     0.004 A 
ATOM      4  C5  UNL d   1       3.771  -3.845   4.951  0.00  0.00    -0.004 A 
ATOM      5  C6  UNL d   1       4.445  -2.759   4.384  0.00  0.00    -0.075 A 
ATOM      6  C7  UNL d   1       5.915  -2.558   4.613  0.00  0.00     0.076 C 
ATOM      7  C8  UNL d   1       3.733  -1.854   3.585  0.00  0.00     0.001 A 
ENDROOT
BRANCH   1   8
ATOM      8  C1  UNL d   1       1.606  -1.042   2.493  0.00  0.00     0.053 C 
ATOM      9  C   UNL d   1       2.528  -0.014   1.857  0.00  0.00     0.018 C 
ENDBRANCH   1   8
TORSDOF 1
ENDMDL
