MODEL 1
REMARK minimizedAffinity 1.4404006
REMARK minimizedRMSD -1
REMARK  1 active torsions:
REMARK  status: ('A' for Active; 'I' for Inactive)
REMARK    1  A    between atoms: C1_2  and  C2_3 
ROOT
ATOM      1  C2  UNL d   1       1.450  -1.298   2.637  0.00  0.00    -0.073 A 
ATOM      2  C3  UNL d   1       0.566  -1.903   1.736  0.00  0.00    -0.002 A 
ATOM      3  C4  UNL d   1       0.358  -1.347   0.473  0.00  0.00     0.004 A 
ATOM      4  C5  UNL d   1       1.035  -0.188   0.096  0.00  0.00    -0.004 A 
ATOM      5  C6  UNL d   1       1.932   0.424   0.978  0.00  0.00    -0.075 A 
ATOM      6  C7  UNL d   1       2.667   1.673   0.588  0.00  0.00     0.076 C 
ATOM      7  C8  UNL d   1       2.133  -0.138   2.245  0.00  0.00     0.001 A 
ENDROOT
BRANCH   1   8
ATOM      8  C1  UNL d   1       1.682  -1.898   4.000  0.00  0.00     0.053 C 
ATOM      9  C   UNL d   1       1.524  -3.410   3.992  0.00  0.00     0.018 C 
ENDBRANCH   1   8
TORSDOF 1
ENDMDL
