MODEL 1
REMARK minimizedAffinity -2.00104117
REMARK minimizedRMSD -1
REMARK  1 active torsions:
REMARK  status: ('A' for Active; 'I' for Inactive)
REMARK    1  A    between atoms: C1_2  and  C2_3 
ROOT
ATOM      1  C2  UNL d   1       1.240   0.415   1.012  0.00  0.00    -0.073 A 
ATOM      2  C3  UNL d   1       2.274   1.145   1.609  0.00  0.00    -0.002 A 
ATOM      3  C4  UNL d   1       2.858   0.698   2.795  0.00  0.00     0.004 A 
ATOM      4  C5  UNL d   1       2.420  -0.485   3.392  0.00  0.00    -0.004 A 
ATOM      5  C6  UNL d   1       1.396  -1.234   2.803  0.00  0.00    -0.075 A 
ATOM      6  C7  UNL d   1       0.913  -2.507   3.433  0.00  0.00     0.076 C 
ATOM      7  C8  UNL d   1       0.813  -0.778   1.614  0.00  0.00     0.001 A 
ENDROOT
BRANCH   1   8
ATOM      8  C1  UNL d   1       0.611   0.890  -0.272  0.00  0.00     0.053 C 
ATOM      9  C   UNL d   1       0.549   2.407  -0.349  0.00  0.00     0.018 C 
ENDBRANCH   1   8
TORSDOF 1
ENDMDL
