MODEL 1
REMARK minimizedAffinity 1.89657211
REMARK minimizedRMSD -1
REMARK  1 active torsions:
REMARK  status: ('A' for Active; 'I' for Inactive)
REMARK    1  A    between atoms: C1_2  and  C2_3 
ROOT
ATOM      1  C2  UNL d   1       0.603  -3.041   1.264  0.00  0.00    -0.073 A 
ATOM      2  C3  UNL d   1       1.069  -4.249   1.796  0.00  0.00    -0.002 A 
ATOM      3  C4  UNL d   1       1.181  -5.379   0.984  0.00  0.00     0.004 A 
ATOM      4  C5  UNL d   1       0.837  -5.311  -0.366  0.00  0.00    -0.004 A 
ATOM      5  C6  UNL d   1       0.380  -4.110  -0.918  0.00  0.00    -0.075 A 
ATOM      6  C7  UNL d   1       0.004  -4.021  -2.367  0.00  0.00     0.076 C 
ATOM      7  C8  UNL d   1       0.268  -2.980  -0.096  0.00  0.00     0.001 A 
ENDROOT
BRANCH   1   8
ATOM      8  C1  UNL d   1       0.486  -1.816   2.135  0.00  0.00     0.053 C 
ATOM      9  C   UNL d   1       1.194  -1.995   3.468  0.00  0.00     0.018 C 
ENDBRANCH   1   8
TORSDOF 1
ENDMDL
