MODEL 1
REMARK minimizedAffinity -0.0373033471
REMARK minimizedRMSD -1
REMARK  0 active torsions:
REMARK  status: ('A' for Active; 'I' for Inactive)
ROOT
ATOM      1  C   UNL d   1      -2.853  -5.549  -5.930  0.00  0.00     0.077 C 
ATOM      2  C1  UNL d   1      -3.897  -5.247  -4.897  0.00  0.00    -0.074 A 
ATOM      3  C2  UNL d   1      -5.033  -4.498  -5.219  0.00  0.00    -0.005 A 
ATOM      4  C3  UNL d   1      -6.000  -4.234  -4.250  0.00  0.00     0.006 A 
ATOM      5  C4  UNL d   1      -5.841  -4.715  -2.949  0.00  0.00    -0.005 A 
ATOM      6  C5  UNL d   1      -4.711  -5.466  -2.608  0.00  0.00    -0.074 A 
ATOM      7  C6  UNL d   1      -4.530  -5.998  -1.218  0.00  0.00     0.077 C 
ATOM      8  C7  UNL d   1      -3.748  -5.733  -3.590  0.00  0.00    -0.001 A 
ENDROOT
TORSDOF 0
ENDMDL
