MODEL 1
REMARK minimizedAffinity 7.74446344
REMARK minimizedRMSD -1
REMARK  0 active torsions:
REMARK  status: ('A' for Active; 'I' for Inactive)
ROOT
ATOM      1  C   UNL d   1      -4.875  -4.859  -5.263  0.00  0.00     0.077 C 
ATOM      2  C1  UNL d   1      -4.606  -4.892  -3.788  0.00  0.00    -0.074 A 
ATOM      3  C2  UNL d   1      -5.013  -5.979  -3.007  0.00  0.00    -0.005 A 
ATOM      4  C3  UNL d   1      -4.747  -6.000  -1.638  0.00  0.00     0.006 A 
ATOM      5  C4  UNL d   1      -4.072  -4.937  -1.037  0.00  0.00    -0.005 A 
ATOM      6  C5  UNL d   1      -3.657  -3.842  -1.802  0.00  0.00    -0.074 A 
ATOM      7  C6  UNL d   1      -2.922  -2.696  -1.173  0.00  0.00     0.077 C 
ATOM      8  C7  UNL d   1      -3.921  -3.832  -3.178  0.00  0.00    -0.001 A 
ENDROOT
TORSDOF 0
ENDMDL
