MODEL 1
REMARK minimizedAffinity 6.26483154
REMARK minimizedRMSD -1
REMARK  0 active torsions:
REMARK  status: ('A' for Active; 'I' for Inactive)
ROOT
ATOM      1  C   UNL d   1      -5.969   5.999   4.842  0.00  0.00     0.077 C 
ATOM      2  C1  UNL d   1      -5.683   5.296   3.548  0.00  0.00    -0.074 A 
ATOM      3  C2  UNL d   1      -5.161   3.998   3.535  0.00  0.00    -0.005 A 
ATOM      4  C3  UNL d   1      -4.909   3.354   2.324  0.00  0.00     0.006 A 
ATOM      5  C4  UNL d   1      -5.176   3.999   1.116  0.00  0.00    -0.005 A 
ATOM      6  C5  UNL d   1      -5.699   5.296   1.109  0.00  0.00    -0.074 A 
ATOM      7  C6  UNL d   1      -6.000   6.000  -0.181  0.00  0.00     0.077 C 
ATOM      8  C7  UNL d   1      -5.956   5.934   2.330  0.00  0.00    -0.001 A 
ENDROOT
TORSDOF 0
ENDMDL
