MODEL 1
REMARK minimizedAffinity 2.88298821
REMARK minimizedRMSD -1
REMARK  0 active torsions:
REMARK  status: ('A' for Active; 'I' for Inactive)
ROOT
ATOM      1  C   UNL d   1       1.096  -0.016   1.051  0.00  0.00     0.077 C 
ATOM      2  C1  UNL d   1       2.521   0.346   0.753  0.00  0.00    -0.074 A 
ATOM      3  C2  UNL d   1       2.831   1.479  -0.007  0.00  0.00    -0.005 A 
ATOM      4  C3  UNL d   1       4.161   1.808  -0.268  0.00  0.00     0.006 A 
ATOM      5  C4  UNL d   1       5.193   1.010   0.227  0.00  0.00    -0.005 A 
ATOM      6  C5  UNL d   1       4.902  -0.126   0.990  0.00  0.00    -0.074 A 
ATOM      7  C6  UNL d   1       5.999  -0.990   1.538  0.00  0.00     0.077 C 
ATOM      8  C7  UNL d   1       3.563  -0.447   1.253  0.00  0.00    -0.001 A 
ENDROOT
TORSDOF 0
ENDMDL
