MODEL 1
REMARK minimizedAffinity 11.3631124
REMARK minimizedRMSD -1
REMARK  0 active torsions:
REMARK  status: ('A' for Active; 'I' for Inactive)
ROOT
ATOM      1  C   UNL d   1       4.963   3.215   0.187  0.00  0.00     0.077 C 
ATOM      2  C1  UNL d   1       4.886   1.837   0.772  0.00  0.00    -0.074 A 
ATOM      3  C2  UNL d   1       5.998   0.989   0.765  0.00  0.00    -0.005 A 
ATOM      4  C3  UNL d   1       5.914  -0.287   1.321  0.00  0.00     0.006 A 
ATOM      5  C4  UNL d   1       4.719  -0.728   1.890  0.00  0.00    -0.005 A 
ATOM      6  C5  UNL d   1       3.596   0.105   1.907  0.00  0.00    -0.074 A 
ATOM      7  C6  UNL d   1       2.306  -0.350   2.523  0.00  0.00     0.077 C 
ATOM      8  C7  UNL d   1       3.690   1.389   1.352  0.00  0.00    -0.001 A 
ENDROOT
TORSDOF 0
ENDMDL
