MODEL 1
REMARK minimizedAffinity 3.35462117
REMARK minimizedRMSD -1
REMARK  0 active torsions:
REMARK  status: ('A' for Active; 'I' for Inactive)
ROOT
ATOM      1  C   UNL d   1      -4.104  -6.000  -1.068  0.00  0.00     0.077 C 
ATOM      2  C1  UNL d   1      -4.364  -5.371  -2.404  0.00  0.00    -0.074 A 
ATOM      3  C2  UNL d   1      -5.581  -4.738  -2.677  0.00  0.00    -0.005 A 
ATOM      4  C3  UNL d   1      -5.804  -4.149  -3.921  0.00  0.00     0.006 A 
ATOM      5  C4  UNL d   1      -4.814  -4.187  -4.905  0.00  0.00    -0.005 A 
ATOM      6  C5  UNL d   1      -3.591  -4.815  -4.650  0.00  0.00    -0.074 A 
ATOM      7  C6  UNL d   1      -2.513  -4.857  -5.692  0.00  0.00     0.077 C 
ATOM      8  C7  UNL d   1      -3.371  -5.398  -3.394  0.00  0.00    -0.001 A 
ENDROOT
TORSDOF 0
ENDMDL
