MODEL 1
REMARK minimizedAffinity -1.93524659
REMARK minimizedRMSD -1
REMARK  0 active torsions:
REMARK  status: ('A' for Active; 'I' for Inactive)
ROOT
ATOM      1  C   UNL d   1      -0.724  -1.176   1.132  0.00  0.00     0.077 C 
ATOM      2  C1  UNL d   1      -0.994  -2.276   0.148  0.00  0.00    -0.074 A 
ATOM      3  C2  UNL d   1      -0.378  -3.525   0.280  0.00  0.00    -0.005 A 
ATOM      4  C3  UNL d   1      -0.646  -4.541  -0.637  0.00  0.00     0.006 A 
ATOM      5  C4  UNL d   1      -1.530  -4.319  -1.693  0.00  0.00    -0.005 A 
ATOM      6  C5  UNL d   1      -2.156  -3.077  -1.841  0.00  0.00    -0.074 A 
ATOM      7  C6  UNL d   1      -3.117  -2.825  -2.964  0.00  0.00     0.077 C 
ATOM      8  C7  UNL d   1      -1.887  -2.063  -0.911  0.00  0.00    -0.001 A 
ENDROOT
TORSDOF 0
ENDMDL
