MODEL 1
REMARK minimizedAffinity 5.83074713
REMARK minimizedRMSD -1
REMARK  0 active torsions:
REMARK  status: ('A' for Active; 'I' for Inactive)
ROOT
ATOM      1  C   UNL d   1      -1.933  -3.263  -5.276  0.00  0.00     0.077 C 
ATOM      2  C1  UNL d   1      -2.739  -3.603  -4.058  0.00  0.00    -0.074 A 
ATOM      3  C2  UNL d   1      -2.424  -3.053  -2.811  0.00  0.00    -0.005 A 
ATOM      4  C3  UNL d   1      -3.189  -3.370  -1.689  0.00  0.00     0.006 A 
ATOM      5  C4  UNL d   1      -4.275  -4.240  -1.802  0.00  0.00    -0.005 A 
ATOM      6  C5  UNL d   1      -4.605  -4.799  -3.040  0.00  0.00    -0.074 A 
ATOM      7  C6  UNL d   1      -5.775  -5.728  -3.181  0.00  0.00     0.077 C 
ATOM      8  C7  UNL d   1      -3.836  -4.469  -4.165  0.00  0.00    -0.001 A 
ENDROOT
TORSDOF 0
ENDMDL
