MODEL 1
REMARK minimizedAffinity 13.7327747
REMARK minimizedRMSD -1
REMARK  0 active torsions:
REMARK  status: ('A' for Active; 'I' for Inactive)
ROOT
ATOM      1  C   UNL d   1       5.405   2.020  -0.659  0.00  0.00     0.077 C 
ATOM      2  C1  UNL d   1       4.580   1.213   0.299  0.00  0.00    -0.074 A 
ATOM      3  C2  UNL d   1       5.092   0.051   0.886  0.00  0.00    -0.005 A 
ATOM      4  C3  UNL d   1       4.317  -0.684   1.783  0.00  0.00     0.006 A 
ATOM      5  C4  UNL d   1       3.024  -0.266   2.101  0.00  0.00    -0.005 A 
ATOM      6  C5  UNL d   1       2.496   0.894   1.525  0.00  0.00    -0.074 A 
ATOM      7  C6  UNL d   1       1.112   1.362   1.864  0.00  0.00     0.077 C 
ATOM      8  C7  UNL d   1       3.284   1.631   0.630  0.00  0.00    -0.001 A 
ENDROOT
TORSDOF 0
ENDMDL
