MODEL 1
REMARK minimizedAffinity -1.05622911
REMARK minimizedRMSD -1
REMARK  0 active torsions:
REMARK  status: ('A' for Active; 'I' for Inactive)
ROOT
ATOM      1  C   UNL d   1      -3.220  -5.865  -1.195  0.00  0.00     0.077 C 
ATOM      2  C1  UNL d   1      -3.858  -5.607  -2.527  0.00  0.00    -0.074 A 
ATOM      3  C2  UNL d   1      -5.232  -5.791  -2.714  0.00  0.00    -0.005 A 
ATOM      4  C3  UNL d   1      -5.813  -5.537  -3.956  0.00  0.00     0.006 A 
ATOM      5  C4  UNL d   1      -5.028  -5.098  -5.023  0.00  0.00    -0.005 A 
ATOM      6  C5  UNL d   1      -3.652  -4.907  -4.854  0.00  0.00    -0.074 A 
ATOM      7  C6  UNL d   1      -2.795  -4.426  -5.987  0.00  0.00     0.077 C 
ATOM      8  C7  UNL d   1      -3.077  -5.157  -3.601  0.00  0.00    -0.001 A 
ENDROOT
TORSDOF 0
ENDMDL
