MODEL 1
REMARK minimizedAffinity -2.85907221
REMARK minimizedRMSD -1
REMARK  0 active torsions:
REMARK  status: ('A' for Active; 'I' for Inactive)
ROOT
ATOM      1  C   UNL d   1       5.999   5.931   5.397  0.00  0.00     0.077 C 
ATOM      2  C1  UNL d   1       5.563   5.289   4.114  0.00  0.00    -0.074 A 
ATOM      3  C2  UNL d   1       4.778   5.988   3.191  0.00  0.00    -0.005 A 
ATOM      4  C3  UNL d   1       4.388   5.381   1.997  0.00  0.00     0.006 A 
ATOM      5  C4  UNL d   1       4.778   4.072   1.715  0.00  0.00    -0.005 A 
ATOM      6  C5  UNL d   1       5.563   3.358   2.625  0.00  0.00    -0.074 A 
ATOM      7  C6  UNL d   1       6.000   1.953   2.332  0.00  0.00     0.077 C 
ATOM      8  C7  UNL d   1       5.957   3.977   3.819  0.00  0.00    -0.001 A 
ENDROOT
TORSDOF 0
ENDMDL
