MODEL 1
REMARK minimizedAffinity 5.46058321
REMARK minimizedRMSD -1
REMARK  0 active torsions:
REMARK  status: ('A' for Active; 'I' for Inactive)
ROOT
ATOM      1  C   UNL d   1       3.224  -4.552  -5.957  0.00  0.00     0.077 C 
ATOM      2  C1  UNL d   1       1.946  -3.766  -5.965  0.00  0.00    -0.074 A 
ATOM      3  C2  UNL d   1       1.963  -2.367  -5.980  0.00  0.00    -0.005 A 
ATOM      4  C3  UNL d   1       0.767  -1.650  -5.997  0.00  0.00     0.006 A 
ATOM      5  C4  UNL d   1      -0.456  -2.323  -6.000  0.00  0.00    -0.005 A 
ATOM      6  C5  UNL d   1      -0.492  -3.721  -5.986  0.00  0.00    -0.074 A 
ATOM      7  C6  UNL d   1      -1.797  -4.459  -5.999  0.00  0.00     0.077 C 
ATOM      8  C7  UNL d   1       0.714  -4.434  -5.976  0.00  0.00    -0.001 A 
ENDROOT
TORSDOF 0
ENDMDL
