MODEL 1
REMARK minimizedAffinity 10.2051516
REMARK minimizedRMSD -1
REMARK  0 active torsions:
REMARK  status: ('A' for Active; 'I' for Inactive)
ROOT
ATOM      1  C   UNL d   1      -1.302  -2.359  -5.989  0.00  0.00     0.077 C 
ATOM      2  C1  UNL d   1      -1.324  -3.080  -4.674  0.00  0.00    -0.074 A 
ATOM      3  C2  UNL d   1      -0.410  -4.103  -4.399  0.00  0.00    -0.005 A 
ATOM      4  C3  UNL d   1      -0.437  -4.757  -3.168  0.00  0.00     0.006 A 
ATOM      5  C4  UNL d   1      -1.376  -4.397  -2.200  0.00  0.00    -0.005 A 
ATOM      6  C5  UNL d   1      -2.297  -3.376  -2.457  0.00  0.00    -0.074 A 
ATOM      7  C6  UNL d   1      -3.306  -2.970  -1.425  0.00  0.00     0.077 C 
ATOM      8  C7  UNL d   1      -2.259  -2.718  -3.694  0.00  0.00    -0.001 A 
ENDROOT
TORSDOF 0
ENDMDL
