MODEL 1
REMARK minimizedAffinity 0.482712239
REMARK minimizedRMSD -1
REMARK  0 active torsions:
REMARK  status: ('A' for Active; 'I' for Inactive)
ROOT
ATOM      1  C   UNL d   1       0.771   2.070   0.635  0.00  0.00     0.124 A 
ATOM      2  C1  UNL d   1       1.701   1.055   0.453  0.00  0.00     0.062 A 
ATOM      3  C2  UNL d   1       1.278  -0.260   0.284  0.00  0.00     0.162 A 
ATOM      4  C3  UNL d   1      -0.082  -0.569   0.296  0.00  0.00    -0.034 A 
ATOM      5  C4  UNL d   1      -1.012   0.456   0.481  0.00  0.00     0.162 A 
ATOM      6  C5  UNL d   1      -0.584   1.769   0.649  0.00  0.00     0.062 A 
ATOM      7  F   UNL d   1      -1.484   2.748   0.826  0.00  0.00    -0.097 F 
ATOM      8  F1  UNL d   1      -2.327   0.194   0.498  0.00  0.00    -0.096 F 
ATOM      9  I   UNL d   1      -0.719  -2.534   0.044  0.00  0.00    -0.060 I 
ATOM     10  F2  UNL d   1       2.198  -1.220   0.109  0.00  0.00    -0.096 F 
ATOM     11  F3  UNL d   1       3.010   1.343   0.440  0.00  0.00    -0.097 F 
ATOM     12  F4  UNL d   1       1.180   3.334   0.799  0.00  0.00    -0.092 F 
ENDROOT
TORSDOF 0
ENDMDL
