MODEL 1
REMARK minimizedAffinity 3.45699954
REMARK minimizedRMSD -1
REMARK  0 active torsions:
REMARK  status: ('A' for Active; 'I' for Inactive)
ROOT
ATOM      1  C   UNL d   1      -0.923   2.162   0.898  0.00  0.00     0.124 A 
ATOM      2  C1  UNL d   1       0.235   2.546   0.236  0.00  0.00     0.062 A 
ATOM      3  C2  UNL d   1       1.116   1.584  -0.249  0.00  0.00     0.162 A 
ATOM      4  C3  UNL d   1       0.841   0.227  -0.077  0.00  0.00    -0.034 A 
ATOM      5  C4  UNL d   1      -0.326  -0.152   0.590  0.00  0.00     0.162 A 
ATOM      6  C5  UNL d   1      -1.203   0.814   1.074  0.00  0.00     0.062 A 
ATOM      7  F   UNL d   1      -2.321   0.441   1.712  0.00  0.00    -0.097 F 
ATOM      8  F1  UNL d   1      -0.621  -1.447   0.773  0.00  0.00    -0.096 F 
ATOM      9  I   UNL d   1       2.155  -1.215  -0.802  0.00  0.00    -0.060 I 
ATOM     10  F2  UNL d   1       2.227   1.984  -0.884  0.00  0.00    -0.096 F 
ATOM     11  F3  UNL d   1       0.508   3.848   0.066  0.00  0.00    -0.097 F 
ATOM     12  F4  UNL d   1      -1.768   3.090   1.365  0.00  0.00    -0.092 F 
ENDROOT
TORSDOF 0
ENDMDL
