MODEL 1
REMARK minimizedAffinity -1.65904784
REMARK minimizedRMSD -1
REMARK  0 active torsions:
REMARK  status: ('A' for Active; 'I' for Inactive)
ROOT
ATOM      1  C   UNL d   1       1.159   2.741   0.819  0.00  0.00     0.124 A 
ATOM      2  C1  UNL d   1      -0.170   2.492   0.507  0.00  0.00     0.062 A 
ATOM      3  C2  UNL d   1      -0.584   1.203   0.185  0.00  0.00     0.162 A 
ATOM      4  C3  UNL d   1       0.332   0.151   0.175  0.00  0.00    -0.034 A 
ATOM      5  C4  UNL d   1       1.667   0.409   0.490  0.00  0.00     0.162 A 
ATOM      6  C5  UNL d   1       2.076   1.700   0.811  0.00  0.00     0.062 A 
ATOM      7  F   UNL d   1       3.361   1.938   1.113  0.00  0.00    -0.097 F 
ATOM      8  F1  UNL d   1       2.575  -0.579   0.490  0.00  0.00    -0.096 F 
ATOM      9  I   UNL d   1      -0.283  -1.778  -0.305  0.00  0.00    -0.060 I 
ATOM     10  F2  UNL d   1      -1.875   0.992  -0.113  0.00  0.00    -0.096 F 
ATOM     11  F3  UNL d   1      -1.058   3.497   0.513  0.00  0.00    -0.097 F 
ATOM     12  F4  UNL d   1       1.555   3.983   1.128  0.00  0.00    -0.092 F 
ENDROOT
TORSDOF 0
ENDMDL
