MODEL 1
REMARK minimizedAffinity -1.00338864
REMARK minimizedRMSD -1
REMARK  0 active torsions:
REMARK  status: ('A' for Active; 'I' for Inactive)
ROOT
ATOM      1  C   UNL d   1       0.281   2.863   0.472  0.00  0.00     0.124 A 
ATOM      2  C1  UNL d   1      -0.753   2.220   1.138  0.00  0.00     0.062 A 
ATOM      3  C2  UNL d   1      -0.901   0.840   1.035  0.00  0.00     0.162 A 
ATOM      4  C3  UNL d   1      -0.012   0.092   0.263  0.00  0.00    -0.034 A 
ATOM      5  C4  UNL d   1       1.025   0.746  -0.405  0.00  0.00     0.162 A 
ATOM      6  C5  UNL d   1       1.168   2.125  -0.299  0.00  0.00     0.062 A 
ATOM      7  F   UNL d   1       2.168   2.745  -0.943  0.00  0.00    -0.097 F 
ATOM      8  F1  UNL d   1       1.897   0.058  -1.156  0.00  0.00    -0.096 F 
ATOM      9  I   UNL d   1      -0.231  -1.971   0.106  0.00  0.00    -0.060 I 
ATOM     10  F2  UNL d   1      -1.910   0.245   1.690  0.00  0.00    -0.096 F 
ATOM     11  F3  UNL d   1      -1.613   2.930   1.883  0.00  0.00    -0.097 F 
ATOM     12  F4  UNL d   1       0.421   4.191   0.572  0.00  0.00    -0.092 F 
ENDROOT
TORSDOF 0
ENDMDL
