MODEL 1
REMARK minimizedAffinity 3.08007336
REMARK minimizedRMSD -1
REMARK  0 active torsions:
REMARK  status: ('A' for Active; 'I' for Inactive)
ROOT
ATOM      1  C   UNL d   1       0.753   1.868   1.114  0.00  0.00     0.124 A 
ATOM      2  C1  UNL d   1      -0.556   1.700   0.684  0.00  0.00     0.062 A 
ATOM      3  C2  UNL d   1      -0.970   0.477   0.163  0.00  0.00     0.162 A 
ATOM      4  C3  UNL d   1      -0.074  -0.588   0.070  0.00  0.00    -0.034 A 
ATOM      5  C4  UNL d   1       1.241  -0.411   0.504  0.00  0.00     0.162 A 
ATOM      6  C5  UNL d   1       1.650   0.813   1.024  0.00  0.00     0.062 A 
ATOM      7  F   UNL d   1       2.915   0.974   1.439  0.00  0.00    -0.097 F 
ATOM      8  F1  UNL d   1       2.129  -1.414   0.429  0.00  0.00    -0.096 F 
ATOM      9  I   UNL d   1      -0.688  -2.418  -0.708  0.00  0.00    -0.060 I 
ATOM     10  F2  UNL d   1      -2.240   0.343  -0.245  0.00  0.00    -0.096 F 
ATOM     11  F3  UNL d   1      -1.424   2.718   0.769  0.00  0.00    -0.097 F 
ATOM     12  F4  UNL d   1       1.149   3.046   1.614  0.00  0.00    -0.092 F 
ENDROOT
TORSDOF 0
ENDMDL
