MODEL 1
REMARK minimizedAffinity -2.93750882
REMARK minimizedRMSD -1
REMARK  0 active torsions:
REMARK  status: ('A' for Active; 'I' for Inactive)
ROOT
ATOM      1  C   UNL d   1      -2.394   2.147   3.229  0.00  0.00     0.124 A 
ATOM      2  C1  UNL d   1      -2.400   0.883   2.655  0.00  0.00     0.062 A 
ATOM      3  C2  UNL d   1      -1.580   0.606   1.565  0.00  0.00     0.162 A 
ATOM      4  C3  UNL d   1      -0.746   1.594   1.042  0.00  0.00    -0.034 A 
ATOM      5  C4  UNL d   1      -0.746   2.863   1.624  0.00  0.00     0.162 A 
ATOM      6  C5  UNL d   1      -1.567   3.135   2.714  0.00  0.00     0.062 A 
ATOM      7  F   UNL d   1      -1.559   4.357   3.267  0.00  0.00    -0.097 F 
ATOM      8  F1  UNL d   1       0.044   3.836   1.147  0.00  0.00    -0.096 F 
ATOM      9  I   UNL d   1       0.481   1.183  -0.588  0.00  0.00    -0.060 I 
ATOM     10  F2  UNL d   1      -1.607  -0.624   1.030  0.00  0.00    -0.096 F 
ATOM     11  F3  UNL d   1      -3.199  -0.073   3.150  0.00  0.00    -0.097 F 
ATOM     12  F4  UNL d   1      -3.184   2.412   4.277  0.00  0.00    -0.092 F 
ENDROOT
TORSDOF 0
ENDMDL
