MODEL 1
REMARK minimizedAffinity -1.01508272
REMARK minimizedRMSD -1
REMARK  0 active torsions:
REMARK  status: ('A' for Active; 'I' for Inactive)
ROOT
ATOM      1  C   UNL d   1      -2.024  -3.156  -1.681  0.00  0.00     0.124 A 
ATOM      2  C1  UNL d   1      -1.034  -2.776  -2.576  0.00  0.00     0.062 A 
ATOM      3  C2  UNL d   1       0.052  -2.022  -2.140  0.00  0.00     0.162 A 
ATOM      4  C3  UNL d   1       0.154  -1.644  -0.801  0.00  0.00    -0.034 A 
ATOM      5  C4  UNL d   1      -0.847  -2.029   0.093  0.00  0.00     0.162 A 
ATOM      6  C5  UNL d   1      -1.930  -2.782  -0.348  0.00  0.00     0.062 A 
ATOM      7  F   UNL d   1      -2.886  -3.149   0.518  0.00  0.00    -0.097 F 
ATOM      8  F1  UNL d   1      -0.780  -1.683   1.387  0.00  0.00    -0.096 F 
ATOM      9  I   UNL d   1       1.776  -0.517  -0.145  0.00  0.00    -0.060 I 
ATOM     10  F2  UNL d   1       0.994  -1.669  -3.027  0.00  0.00    -0.096 F 
ATOM     11  F3  UNL d   1      -1.123  -3.134  -3.865  0.00  0.00    -0.097 F 
ATOM     12  F4  UNL d   1      -3.069  -3.880  -2.104  0.00  0.00    -0.092 F 
ENDROOT
TORSDOF 0
ENDMDL
