MODEL 1
REMARK minimizedAffinity -0.850412965
REMARK minimizedRMSD -1
REMARK  0 active torsions:
REMARK  status: ('A' for Active; 'I' for Inactive)
ROOT
ATOM      1  C   UNL d   1       0.099   2.058   0.096  0.00  0.00     0.124 A 
ATOM      2  C1  UNL d   1       0.927   1.159  -0.562  0.00  0.00     0.062 A 
ATOM      3  C2  UNL d   1       0.548  -0.174  -0.694  0.00  0.00     0.162 A 
ATOM      4  C3  UNL d   1      -0.666  -0.616  -0.168  0.00  0.00    -0.034 A 
ATOM      5  C4  UNL d   1      -1.492   0.294   0.493  0.00  0.00     0.162 A 
ATOM      6  C5  UNL d   1      -1.109   1.625   0.623  0.00  0.00     0.062 A 
ATOM      7  F   UNL d   1      -1.910   2.493   1.259  0.00  0.00    -0.097 F 
ATOM      8  F1  UNL d   1      -2.666  -0.097   1.011  0.00  0.00    -0.096 F 
ATOM      9  I   UNL d   1      -1.236  -2.608  -0.363  0.00  0.00    -0.060 I 
ATOM     10  F2  UNL d   1       1.368  -1.020  -1.335  0.00  0.00    -0.096 F 
ATOM     11  F3  UNL d   1       2.096   1.575  -1.072  0.00  0.00    -0.097 F 
ATOM     12  F4  UNL d   1       0.467   3.340   0.222  0.00  0.00    -0.092 F 
ENDROOT
TORSDOF 0
ENDMDL
