MODEL 1
REMARK minimizedAffinity 11.7589111
REMARK minimizedRMSD -1
REMARK  0 active torsions:
REMARK  status: ('A' for Active; 'I' for Inactive)
ROOT
ATOM      1  C   UNL d   1       0.051   2.084   0.981  0.00  0.00     0.124 A 
ATOM      2  C1  UNL d   1      -0.866   2.371   1.983  0.00  0.00     0.062 A 
ATOM      3  C2  UNL d   1      -1.496   1.339   2.672  0.00  0.00     0.162 A 
ATOM      4  C3  UNL d   1      -1.211   0.009   2.362  0.00  0.00    -0.034 A 
ATOM      5  C4  UNL d   1      -0.289  -0.272   1.352  0.00  0.00     0.162 A 
ATOM      6  C5  UNL d   1       0.338   0.763   0.667  0.00  0.00     0.062 A 
ATOM      7  F   UNL d   1       1.223   0.484  -0.301  0.00  0.00    -0.097 F 
ATOM      8  F1  UNL d   1       0.008  -1.539   1.029  0.00  0.00    -0.096 F 
ATOM      9  I   UNL d   1      -2.152  -1.537   3.390  0.00  0.00    -0.060 I 
ATOM     10  F2  UNL d   1      -2.377   1.646   3.635  0.00  0.00    -0.096 F 
ATOM     11  F3  UNL d   1      -1.145   3.647   2.288  0.00  0.00    -0.097 F 
ATOM     12  F4  UNL d   1       0.655   3.079   0.319  0.00  0.00    -0.092 F 
ENDROOT
TORSDOF 0
ENDMDL
