MODEL 1
REMARK minimizedAffinity 10.0937691
REMARK minimizedRMSD -1
REMARK  0 active torsions:
REMARK  status: ('A' for Active; 'I' for Inactive)
ROOT
ATOM      1  C   UNL d   1      -1.144  -2.963   4.024  0.00  0.00     0.124 A 
ATOM      2  C1  UNL d   1      -2.149  -2.042   4.284  0.00  0.00     0.062 A 
ATOM      3  C2  UNL d   1      -2.248  -0.881   3.524  0.00  0.00     0.162 A 
ATOM      4  C3  UNL d   1      -1.339  -0.634   2.495  0.00  0.00    -0.034 A 
ATOM      5  C4  UNL d   1      -0.330  -1.564   2.240  0.00  0.00     0.162 A 
ATOM      6  C5  UNL d   1      -0.236  -2.724   3.003  0.00  0.00     0.062 A 
ATOM      7  F   UNL d   1       0.736  -3.613   2.750  0.00  0.00    -0.097 F 
ATOM      8  F1  UNL d   1       0.560  -1.358   1.258  0.00  0.00    -0.096 F 
ATOM      9  I   UNL d   1      -1.483   1.102   1.356  0.00  0.00    -0.060 I 
ATOM     10  F2  UNL d   1      -3.229  -0.008   3.797  0.00  0.00    -0.096 F 
ATOM     11  F3  UNL d   1      -3.027  -2.271   5.271  0.00  0.00    -0.097 F 
ATOM     12  F4  UNL d   1      -1.051  -4.080   4.758  0.00  0.00    -0.092 F 
ENDROOT
TORSDOF 0
ENDMDL
