MODEL 1
REMARK minimizedAffinity -0.474387228
REMARK minimizedRMSD -1
REMARK  0 active torsions:
REMARK  status: ('A' for Active; 'I' for Inactive)
ROOT
ATOM      1  C   UNL d   1       1.168   2.094   1.134  0.00  0.00     0.124 A 
ATOM      2  C1  UNL d   1      -0.181   1.926   0.856  0.00  0.00     0.062 A 
ATOM      3  C2  UNL d   1      -0.672   0.672   0.503  0.00  0.00     0.162 A 
ATOM      4  C3  UNL d   1       0.187  -0.424   0.427  0.00  0.00    -0.034 A 
ATOM      5  C4  UNL d   1       1.543  -0.247   0.706  0.00  0.00     0.162 A 
ATOM      6  C5  UNL d   1       2.029   1.008   1.059  0.00  0.00     0.062 A 
ATOM      7  F   UNL d   1       3.333   1.169   1.326  0.00  0.00    -0.097 F 
ATOM      8  F1  UNL d   1       2.397  -1.279   0.642  0.00  0.00    -0.096 F 
ATOM      9  I   UNL d   1      -0.543  -2.300  -0.101  0.00  0.00    -0.060 I 
ATOM     10  F2  UNL d   1      -1.981   0.539   0.240  0.00  0.00    -0.096 F 
ATOM     11  F3  UNL d   1      -1.015   2.974   0.927  0.00  0.00    -0.097 F 
ATOM     12  F4  UNL d   1       1.638   3.302   1.472  0.00  0.00    -0.092 F 
ENDROOT
TORSDOF 0
ENDMDL
