MODEL 1
REMARK minimizedAffinity -3.8259635
REMARK minimizedRMSD -1
REMARK  0 active torsions:
REMARK  status: ('A' for Active; 'I' for Inactive)
ROOT
ATOM      1  C   UNL d   1       1.541   3.021   0.081  0.00  0.00     0.124 A 
ATOM      2  C1  UNL d   1       0.194   2.691   0.035  0.00  0.00     0.062 A 
ATOM      3  C2  UNL d   1      -0.210   1.371   0.217  0.00  0.00     0.162 A 
ATOM      4  C3  UNL d   1       0.735   0.371   0.448  0.00  0.00    -0.034 A 
ATOM      5  C4  UNL d   1       2.088   0.711   0.493  0.00  0.00     0.162 A 
ATOM      6  C5  UNL d   1       2.487   2.031   0.310  0.00  0.00     0.062 A 
ATOM      7  F   UNL d   1       3.789   2.348   0.355  0.00  0.00    -0.097 F 
ATOM      8  F1  UNL d   1       3.023  -0.225   0.713  0.00  0.00    -0.096 F 
ATOM      9  I   UNL d   1       0.135  -1.603   0.721  0.00  0.00    -0.060 I 
ATOM     10  F2  UNL d   1      -1.519   1.081   0.167  0.00  0.00    -0.096 F 
ATOM     11  F3  UNL d   1      -0.722   3.645  -0.187  0.00  0.00    -0.097 F 
ATOM     12  F4  UNL d   1       1.927   4.291  -0.096  0.00  0.00    -0.092 F 
ENDROOT
TORSDOF 0
ENDMDL
