MODEL 1
REMARK minimizedAffinity -2.45045066
REMARK minimizedRMSD -1
REMARK  0 active torsions:
REMARK  status: ('A' for Active; 'I' for Inactive)
ROOT
ATOM      1  C   UNL d   1       1.093  -1.459   0.116  0.00  0.00     0.124 A 
ATOM      2  C1  UNL d   1      -0.218  -1.014   0.209  0.00  0.00     0.062 A 
ATOM      3  C2  UNL d   1      -0.500   0.349   0.176  0.00  0.00     0.162 A 
ATOM      4  C3  UNL d   1       0.533   1.278   0.047  0.00  0.00    -0.034 A 
ATOM      5  C4  UNL d   1       1.850   0.823  -0.045  0.00  0.00     0.162 A 
ATOM      6  C5  UNL d   1       2.126  -0.540  -0.011  0.00  0.00     0.062 A 
ATOM      7  F   UNL d   1       3.394  -0.968  -0.101  0.00  0.00    -0.097 F 
ATOM      8  F1  UNL d   1       2.867   1.689  -0.169  0.00  0.00    -0.096 F 
ATOM      9  I   UNL d   1       0.116   3.316  -0.003  0.00  0.00    -0.060 I 
ATOM     10  F2  UNL d   1      -1.776   0.750   0.268  0.00  0.00    -0.096 F 
ATOM     11  F3  UNL d   1      -1.217  -1.900   0.333  0.00  0.00    -0.097 F 
ATOM     12  F4  UNL d   1       1.361  -2.770   0.150  0.00  0.00    -0.092 F 
ENDROOT
TORSDOF 0
ENDMDL
