MODEL 1
REMARK minimizedAffinity -5.80097437
REMARK minimizedRMSD -1
REMARK  0 active torsions:
REMARK  status: ('A' for Active; 'I' for Inactive)
ROOT
ATOM      1  C   UNL d   1      -0.529  -2.773  -0.393  0.00  0.00     0.124 A 
ATOM      2  C1  UNL d   1      -0.817  -2.366   0.902  0.00  0.00     0.062 A 
ATOM      3  C2  UNL d   1      -0.899  -1.011   1.208  0.00  0.00     0.162 A 
ATOM      4  C3  UNL d   1      -0.693  -0.051   0.216  0.00  0.00    -0.034 A 
ATOM      5  C4  UNL d   1      -0.402  -0.468  -1.084  0.00  0.00     0.162 A 
ATOM      6  C5  UNL d   1      -0.321  -1.824  -1.385  0.00  0.00     0.062 A 
ATOM      7  F   UNL d   1      -0.042  -2.215  -2.636  0.00  0.00    -0.097 F 
ATOM      8  F1  UNL d   1      -0.198   0.427  -2.061  0.00  0.00    -0.096 F 
ATOM      9  I   UNL d   1      -0.815   1.976   0.670  0.00  0.00    -0.060 I 
ATOM     10  F2  UNL d   1      -1.180  -0.646   2.468  0.00  0.00    -0.096 F 
ATOM     11  F3  UNL d   1      -1.017  -3.281   1.862  0.00  0.00    -0.097 F 
ATOM     12  F4  UNL d   1      -0.449  -4.077  -0.685  0.00  0.00    -0.092 F 
ENDROOT
TORSDOF 0
ENDMDL
