MODEL 1
REMARK minimizedAffinity -1.95740831
REMARK minimizedRMSD -1
REMARK  0 active torsions:
REMARK  status: ('A' for Active; 'I' for Inactive)
ROOT
ATOM      1  C   UNL d   1       1.702   2.858  -0.059  0.00  0.00     0.124 A 
ATOM      2  C1  UNL d   1       2.471   1.735   0.214  0.00  0.00     0.062 A 
ATOM      3  C2  UNL d   1       1.862   0.498   0.400  0.00  0.00     0.162 A 
ATOM      4  C3  UNL d   1       0.475   0.376   0.312  0.00  0.00    -0.034 A 
ATOM      5  C4  UNL d   1      -0.292   1.510   0.039  0.00  0.00     0.162 A 
ATOM      6  C5  UNL d   1       0.322   2.745  -0.146  0.00  0.00     0.062 A 
ATOM      7  F   UNL d   1      -0.423   3.828  -0.410  0.00  0.00    -0.097 F 
ATOM      8  F1  UNL d   1      -1.628   1.429  -0.052  0.00  0.00    -0.096 F 
ATOM      9  I   UNL d   1      -0.440  -1.472   0.590  0.00  0.00    -0.060 I 
ATOM     10  F2  UNL d   1       2.630  -0.570   0.662  0.00  0.00    -0.096 F 
ATOM     11  F3  UNL d   1       3.805   1.843   0.300  0.00  0.00    -0.097 F 
ATOM     12  F4  UNL d   1       2.291   4.048  -0.236  0.00  0.00    -0.092 F 
ENDROOT
TORSDOF 0
ENDMDL
