MODEL 1
REMARK minimizedAffinity 0.869261146
REMARK minimizedRMSD -1
REMARK  0 active torsions:
REMARK  status: ('A' for Active; 'I' for Inactive)
ROOT
ATOM      1  C   UNL d   1       1.008  -1.315   0.792  0.00  0.00     0.124 A 
ATOM      2  C1  UNL d   1       2.130  -0.521   0.597  0.00  0.00     0.062 A 
ATOM      3  C2  UNL d   1       1.996   0.857   0.455  0.00  0.00     0.162 A 
ATOM      4  C3  UNL d   1       0.735   1.451   0.509  0.00  0.00    -0.034 A 
ATOM      5  C4  UNL d   1      -0.389   0.646   0.705  0.00  0.00     0.162 A 
ATOM      6  C5  UNL d   1      -0.250  -0.731   0.846  0.00  0.00     0.062 A 
ATOM      7  F   UNL d   1      -1.335  -1.496   1.035  0.00  0.00    -0.097 F 
ATOM      8  F1  UNL d   1      -1.616   1.184   0.763  0.00  0.00    -0.096 F 
ATOM      9  I   UNL d   1       0.531   3.511   0.298  0.00  0.00    -0.060 I 
ATOM     10  F2  UNL d   1       3.097   1.599   0.267  0.00  0.00    -0.096 F 
ATOM     11  F3  UNL d   1       3.346  -1.083   0.543  0.00  0.00    -0.097 F 
ATOM     12  F4  UNL d   1       1.139  -2.641   0.927  0.00  0.00    -0.092 F 
ENDROOT
TORSDOF 0
ENDMDL
