MODEL 1
REMARK minimizedAffinity 3.41492653
REMARK minimizedRMSD -1
REMARK  0 active torsions:
REMARK  status: ('A' for Active; 'I' for Inactive)
ROOT
ATOM      1  C   UNL d   1      -1.364  -1.614   0.612  0.00  0.00     0.124 A 
ATOM      2  C1  UNL d   1      -1.846  -0.312   0.600  0.00  0.00     0.062 A 
ATOM      3  C2  UNL d   1      -1.030   0.732   0.177  0.00  0.00     0.162 A 
ATOM      4  C3  UNL d   1       0.277   0.480  -0.239  0.00  0.00    -0.034 A 
ATOM      5  C4  UNL d   1       0.755  -0.831  -0.224  0.00  0.00     0.162 A 
ATOM      6  C5  UNL d   1      -0.064  -1.872   0.200  0.00  0.00     0.062 A 
ATOM      7  F   UNL d   1       0.403  -3.129   0.211  0.00  0.00    -0.097 F 
ATOM      8  F1  UNL d   1       2.007  -1.109  -0.617  0.00  0.00    -0.096 F 
ATOM      9  I   UNL d   1       1.501   2.040  -0.873  0.00  0.00    -0.060 I 
ATOM     10  F2  UNL d   1      -1.522   1.980   0.176  0.00  0.00    -0.096 F 
ATOM     11  F3  UNL d   1      -3.101  -0.060   0.998  0.00  0.00    -0.097 F 
ATOM     12  F4  UNL d   1      -2.151  -2.617   1.021  0.00  0.00    -0.092 F 
ENDROOT
TORSDOF 0
ENDMDL
