MODEL 1
REMARK minimizedAffinity 10.0945311
REMARK minimizedRMSD -1
REMARK  0 active torsions:
REMARK  status: ('A' for Active; 'I' for Inactive)
ROOT
ATOM      1  C   UNL d   1       0.715  -1.581   1.825  0.00  0.00     0.124 A 
ATOM      2  C1  UNL d   1       1.913  -0.894   1.960  0.00  0.00     0.062 A 
ATOM      3  C2  UNL d   1       2.140   0.268   1.228  0.00  0.00     0.162 A 
ATOM      4  C3  UNL d   1       1.166   0.751   0.354  0.00  0.00    -0.034 A 
ATOM      5  C4  UNL d   1      -0.037   0.054   0.223  0.00  0.00     0.162 A 
ATOM      6  C5  UNL d   1      -0.259  -1.107   0.957  0.00  0.00     0.062 A 
ATOM      7  F   UNL d   1      -1.417  -1.769   0.825  0.00  0.00    -0.097 F 
ATOM      8  F1  UNL d   1      -0.995   0.490  -0.608  0.00  0.00    -0.096 F 
ATOM      9  I   UNL d   1       1.501   2.488  -0.742  0.00  0.00    -0.060 I 
ATOM     10  F2  UNL d   1       3.307   0.912   1.378  0.00  0.00    -0.096 F 
ATOM     11  F3  UNL d   1       2.855  -1.350   2.797  0.00  0.00    -0.097 F 
ATOM     12  F4  UNL d   1       0.499  -2.699   2.530  0.00  0.00    -0.092 F 
ENDROOT
TORSDOF 0
ENDMDL
