MODEL 1
REMARK minimizedAffinity 16.198143
REMARK minimizedRMSD -1
REMARK  0 active torsions:
REMARK  status: ('A' for Active; 'I' for Inactive)
ROOT
ATOM      1  C   UNL d   1      -4.565   2.629  -3.672  0.00  0.00     0.124 A 
ATOM      2  C1  UNL d   1      -4.129   2.345  -2.385  0.00  0.00     0.062 A 
ATOM      3  C2  UNL d   1      -3.405   1.183  -2.132  0.00  0.00     0.162 A 
ATOM      4  C3  UNL d   1      -3.111   0.297  -3.168  0.00  0.00    -0.034 A 
ATOM      5  C4  UNL d   1      -3.553   0.590  -4.460  0.00  0.00     0.162 A 
ATOM      6  C5  UNL d   1      -4.276   1.752  -4.708  0.00  0.00     0.062 A 
ATOM      7  F   UNL d   1      -4.696   2.025  -5.952  0.00  0.00    -0.097 F 
ATOM      8  F1  UNL d   1      -3.288  -0.240  -5.479  0.00  0.00    -0.096 F 
ATOM      9  I   UNL d   1      -2.029  -1.440  -2.793  0.00  0.00    -0.060 I 
ATOM     10  F2  UNL d   1      -2.997   0.934  -0.878  0.00  0.00    -0.096 F 
ATOM     11  F3  UNL d   1      -4.407   3.191  -1.383  0.00  0.00    -0.097 F 
ATOM     12  F4  UNL d   1      -5.262   3.747  -3.913  0.00  0.00    -0.092 F 
ENDROOT
TORSDOF 0
ENDMDL
