MODEL 1
REMARK minimizedAffinity 12.4084616
REMARK minimizedRMSD -1
REMARK  0 active torsions:
REMARK  status: ('A' for Active; 'I' for Inactive)
ROOT
ATOM      1  C   UNL d   1       1.538  -2.224   1.455  0.00  0.00     0.124 A 
ATOM      2  C1  UNL d   1       2.668  -1.420   1.398  0.00  0.00     0.062 A 
ATOM      3  C2  UNL d   1       2.562  -0.091   0.999  0.00  0.00     0.162 A 
ATOM      4  C3  UNL d   1       1.321   0.444   0.654  0.00  0.00    -0.034 A 
ATOM      5  C4  UNL d   1       0.189  -0.371   0.713  0.00  0.00     0.162 A 
ATOM      6  C5  UNL d   1       0.300  -1.699   1.112  0.00  0.00     0.062 A 
ATOM      7  F   UNL d   1      -0.792  -2.474   1.166  0.00  0.00    -0.097 F 
ATOM      8  F1  UNL d   1      -1.020   0.110   0.388  0.00  0.00    -0.096 F 
ATOM      9  I   UNL d   1       1.158   2.431   0.056  0.00  0.00    -0.060 I 
ATOM     10  F2  UNL d   1       3.671   0.663   0.953  0.00  0.00    -0.096 F 
ATOM     11  F3  UNL d   1       3.866  -1.925   1.728  0.00  0.00    -0.097 F 
ATOM     12  F4  UNL d   1       1.643  -3.503   1.838  0.00  0.00    -0.092 F 
ENDROOT
TORSDOF 0
ENDMDL
