MODEL 1
REMARK minimizedAffinity 13.7237749
REMARK minimizedRMSD -1
REMARK  0 active torsions:
REMARK  status: ('A' for Active; 'I' for Inactive)
ROOT
ATOM      1  C   UNL d   1      -1.243  -2.881  -1.344  0.00  0.00     0.124 A 
ATOM      2  C1  UNL d   1      -1.223  -2.907   0.044  0.00  0.00     0.062 A 
ATOM      3  C2  UNL d   1      -0.182  -2.299   0.740  0.00  0.00     0.162 A 
ATOM      4  C3  UNL d   1       0.847  -1.659   0.050  0.00  0.00    -0.034 A 
ATOM      5  C4  UNL d   1       0.821  -1.639  -1.346  0.00  0.00     0.162 A 
ATOM      6  C5  UNL d   1      -0.221  -2.248  -2.037  0.00  0.00     0.062 A 
ATOM      7  F   UNL d   1      -0.239  -2.222  -3.378  0.00  0.00    -0.097 F 
ATOM      8  F1  UNL d   1       1.795  -1.032  -2.041  0.00  0.00    -0.096 F 
ATOM      9  I   UNL d   1       2.405  -0.749   1.087  0.00  0.00    -0.060 I 
ATOM     10  F2  UNL d   1      -0.188  -2.339   2.081  0.00  0.00    -0.096 F 
ATOM     11  F3  UNL d   1      -2.208  -3.519   0.716  0.00  0.00    -0.097 F 
ATOM     12  F4  UNL d   1      -2.245  -3.468  -2.011  0.00  0.00    -0.092 F 
ENDROOT
TORSDOF 0
ENDMDL
