MODEL 1
REMARK minimizedAffinity 14.6122055
REMARK minimizedRMSD -1
REMARK  0 active torsions:
REMARK  status: ('A' for Active; 'I' for Inactive)
ROOT
ATOM      1  C   UNL d   1       1.290   0.082   2.052  0.00  0.00     0.124 A 
ATOM      2  C1  UNL d   1       2.355   0.930   2.321  0.00  0.00     0.062 A 
ATOM      3  C2  UNL d   1       2.566   2.060   1.537  0.00  0.00     0.162 A 
ATOM      4  C3  UNL d   1       1.707   2.350   0.476  0.00  0.00    -0.034 A 
ATOM      5  C4  UNL d   1       0.639   1.492   0.211  0.00  0.00     0.162 A 
ATOM      6  C5  UNL d   1       0.433   0.363   0.998  0.00  0.00     0.062 A 
ATOM      7  F   UNL d   1      -0.597  -0.455   0.736  0.00  0.00    -0.097 F 
ATOM      8  F1  UNL d   1      -0.206   1.741  -0.801  0.00  0.00    -0.096 F 
ATOM      9  I   UNL d   1       2.018   4.040  -0.699  0.00  0.00    -0.060 I 
ATOM     10  F2  UNL d   1       3.603   2.862   1.819  0.00  0.00    -0.096 F 
ATOM     11  F3  UNL d   1       3.186   0.659   3.339  0.00  0.00    -0.097 F 
ATOM     12  F4  UNL d   1       1.091  -1.006   2.808  0.00  0.00    -0.092 F 
ENDROOT
TORSDOF 0
ENDMDL
