MODEL 1
REMARK minimizedAffinity 3.67264318
REMARK minimizedRMSD -1
REMARK  1 active torsions:
REMARK  status: ('A' for Active; 'I' for Inactive)
REMARK    1  A    between atoms: N_2  and  C1_3 
ROOT
ATOM      1  C1  UNL d   1       1.408   0.141   1.716  0.00  0.00     0.143 A 
ATOM      2  C2  UNL d   1       0.263   0.630   2.355  0.00  0.00    -0.057 A 
ATOM      3  C3  UNL d   1      -0.852  -0.188   2.573  0.00  0.00     0.033 A 
ATOM      4  C4  UNL d   1      -0.853  -1.505   2.128  0.00  0.00    -0.042 A 
ATOM      5  C5  UNL d   1       0.264  -2.006   1.468  0.00  0.00     0.033 A 
ATOM      6  C6  UNL d   1       1.377  -1.186   1.260  0.00  0.00    -0.057 A 
ENDROOT
BRANCH   1   7
ATOM      7  N   UNL d   1       2.510   0.932   1.382  0.00  0.00    -0.732 N 
ATOM      8  C   UNL d   1       2.475   1.793   0.220  0.00  0.00     0.284 C 
ATOM      9  H3  UNL d   1       2.947   1.353   2.199  0.00  0.00     0.395 HD
ENDBRANCH   1   7
TORSDOF 1
ENDMDL
