MODEL 1
REMARK minimizedAffinity 9.40470028
REMARK minimizedRMSD -1
REMARK  1 active torsions:
REMARK  status: ('A' for Active; 'I' for Inactive)
REMARK    1  A    between atoms: N_2  and  C1_3 
ROOT
ATOM      1  C1  UNL d   1       0.072   0.304   2.784  0.00  0.00     0.143 A 
ATOM      2  C2  UNL d   1       1.407  -0.113   2.743  0.00  0.00    -0.057 A 
ATOM      3  C3  UNL d   1       1.762  -1.361   2.216  0.00  0.00     0.033 A 
ATOM      4  C4  UNL d   1       0.782  -2.228   1.746  0.00  0.00    -0.042 A 
ATOM      5  C5  UNL d   1      -0.554  -1.845   1.800  0.00  0.00     0.033 A 
ATOM      6  C6  UNL d   1      -0.901  -0.595   2.321  0.00  0.00    -0.057 A 
ENDROOT
BRANCH   1   7
ATOM      7  N   UNL d   1      -0.354   1.490   3.386  0.00  0.00    -0.732 N 
ATOM      8  C   UNL d   1      -1.670   2.025   3.112  0.00  0.00     0.284 C 
ATOM      9  H3  UNL d   1      -0.075   1.553   4.363  0.00  0.00     0.395 HD
ENDBRANCH   1   7
TORSDOF 1
ENDMDL
