MODEL 1
REMARK minimizedAffinity 8.80885983
REMARK minimizedRMSD -1
REMARK  1 active torsions:
REMARK  status: ('A' for Active; 'I' for Inactive)
REMARK    1  A    between atoms: N_2  and  C1_3 
ROOT
ATOM      1  C1  UNL d   1      -4.276   3.574  -4.769  0.00  0.00     0.143 A 
ATOM      2  C2  UNL d   1      -3.827   4.798  -4.263  0.00  0.00    -0.057 A 
ATOM      3  C3  UNL d   1      -4.465   5.999  -4.596  0.00  0.00     0.033 A 
ATOM      4  C4  UNL d   1      -5.551   5.999  -5.465  0.00  0.00    -0.042 A 
ATOM      5  C5  UNL d   1      -6.000   4.796  -5.999  0.00  0.00     0.033 A 
ATOM      6  C6  UNL d   1      -5.362   3.600  -5.658  0.00  0.00    -0.057 A 
ENDROOT
BRANCH   1   7
ATOM      7  N   UNL d   1      -3.624   2.357  -4.554  0.00  0.00    -0.732 N 
ATOM      8  C   UNL d   1      -2.422   2.297  -3.750  0.00  0.00     0.284 C 
ATOM      9  H3  UNL d   1      -4.273   1.592  -4.389  0.00  0.00     0.395 HD
ENDBRANCH   1   7
TORSDOF 1
ENDMDL
