MODEL 1
REMARK minimizedAffinity 9.40139198
REMARK minimizedRMSD -1
REMARK  1 active torsions:
REMARK  status: ('A' for Active; 'I' for Inactive)
REMARK    1  A    between atoms: N_2  and  C1_3 
ROOT
ATOM      1  C1  UNL d   1      -0.631  -3.505   0.942  0.00  0.00     0.143 A 
ATOM      2  C2  UNL d   1      -0.015  -3.621   2.193  0.00  0.00    -0.057 A 
ATOM      3  C3  UNL d   1       0.085  -4.858   2.841  0.00  0.00     0.033 A 
ATOM      4  C4  UNL d   1      -0.456  -6.000   2.261  0.00  0.00    -0.042 A 
ATOM      5  C5  UNL d   1      -1.094  -5.905   1.029  0.00  0.00     0.033 A 
ATOM      6  C6  UNL d   1      -1.185  -4.668   0.384  0.00  0.00    -0.057 A 
ENDROOT
BRANCH   1   7
ATOM      7  N   UNL d   1      -0.849  -2.288   0.291  0.00  0.00    -0.732 N 
ATOM      8  C   UNL d   1      -2.139  -1.636   0.362  0.00  0.00     0.284 C 
ATOM      9  H3  UNL d   1      -0.057  -1.655   0.377  0.00  0.00     0.395 HD
ENDBRANCH   1   7
TORSDOF 1
ENDMDL
