MODEL 1
REMARK minimizedAffinity 13.3276062
REMARK minimizedRMSD -1
REMARK  1 active torsions:
REMARK  status: ('A' for Active; 'I' for Inactive)
REMARK    1  A    between atoms: N_2  and  C1_3 
ROOT
ATOM      1  C1  UNL d   1       4.724   3.485   0.442  0.00  0.00     0.143 A 
ATOM      2  C2  UNL d   1       5.040   4.544  -0.416  0.00  0.00    -0.057 A 
ATOM      3  C3  UNL d   1       5.455   5.784   0.084  0.00  0.00     0.033 A 
ATOM      4  C4  UNL d   1       5.532   5.997   1.457  0.00  0.00    -0.042 A 
ATOM      5  C5  UNL d   1       5.198   4.966   2.328  0.00  0.00     0.033 A 
ATOM      6  C6  UNL d   1       4.791   3.728   1.823  0.00  0.00    -0.057 A 
ENDROOT
BRANCH   1   7
ATOM      7  N   UNL d   1       4.212   2.259   0.009  0.00  0.00    -0.732 N 
ATOM      8  C   UNL d   1       2.951   2.196  -0.699  0.00  0.00     0.284 C 
ATOM      9  H3  UNL d   1       4.932   1.649  -0.371  0.00  0.00     0.395 HD
ENDBRANCH   1   7
TORSDOF 1
ENDMDL
