MODEL 1
REMARK minimizedAffinity 14.9891844
REMARK minimizedRMSD -1
REMARK  1 active torsions:
REMARK  status: ('A' for Active; 'I' for Inactive)
REMARK    1  A    between atoms: N_2  and  C1_3 
ROOT
ATOM      1  C1  UNL d   1      -1.393  -2.172   1.969  0.00  0.00     0.143 A 
ATOM      2  C2  UNL d   1      -1.620  -0.969   1.291  0.00  0.00    -0.057 A 
ATOM      3  C3  UNL d   1      -1.507  -0.888  -0.102  0.00  0.00     0.033 A 
ATOM      4  C4  UNL d   1      -1.133  -2.006  -0.841  0.00  0.00    -0.042 A 
ATOM      5  C5  UNL d   1      -0.877  -3.205  -0.186  0.00  0.00     0.033 A 
ATOM      6  C6  UNL d   1      -0.999  -3.281   1.205  0.00  0.00    -0.057 A 
ENDROOT
BRANCH   1   7
ATOM      7  N   UNL d   1      -1.393  -2.292   3.361  0.00  0.00    -0.732 N 
ATOM      8  C   UNL d   1      -1.475  -1.118   4.203  0.00  0.00     0.284 C 
ATOM      9  H3  UNL d   1      -1.959  -3.074   3.683  0.00  0.00     0.395 HD
ENDBRANCH   1   7
TORSDOF 1
ENDMDL
