MODEL 1
REMARK minimizedAffinity 12.160552
REMARK minimizedRMSD -1
REMARK  1 active torsions:
REMARK  status: ('A' for Active; 'I' for Inactive)
REMARK    1  A    between atoms: N_2  and  C1_3 
ROOT
ATOM      1  C1  UNL d   1       3.573   3.509   5.891  0.00  0.00     0.143 A 
ATOM      2  C2  UNL d   1       3.152   4.842   5.847  0.00  0.00    -0.057 A 
ATOM      3  C3  UNL d   1       4.074   5.896   5.848  0.00  0.00     0.033 A 
ATOM      4  C4  UNL d   1       5.438   5.634   5.922  0.00  0.00    -0.042 A 
ATOM      5  C5  UNL d   1       5.879   4.317   5.992  0.00  0.00     0.033 A 
ATOM      6  C6  UNL d   1       4.953   3.269   5.984  0.00  0.00    -0.057 A 
ENDROOT
BRANCH   1   7
ATOM      7  N   UNL d   1       2.703   2.421   5.992  0.00  0.00    -0.732 N 
ATOM      8  C   UNL d   1       3.213   1.067   6.000  0.00  0.00     0.284 C 
ATOM      9  H3  UNL d   1       1.951   2.586   6.658  0.00  0.00     0.395 HD
ENDBRANCH   1   7
TORSDOF 1
ENDMDL
