MODEL 1
REMARK minimizedAffinity 10.2487726
REMARK minimizedRMSD -1
REMARK  1 active torsions:
REMARK  status: ('A' for Active; 'I' for Inactive)
REMARK    1  A    between atoms: N_2  and  C1_3 
ROOT
ATOM      1  C1  UNL d   1      -2.258  -0.591   5.523  0.00  0.00     0.143 A 
ATOM      2  C2  UNL d   1      -1.139  -1.296   5.980  0.00  0.00    -0.057 A 
ATOM      3  C3  UNL d   1      -1.120  -2.696   5.997  0.00  0.00     0.033 A 
ATOM      4  C4  UNL d   1      -2.234  -3.418   5.583  0.00  0.00    -0.042 A 
ATOM      5  C5  UNL d   1      -3.367  -2.738   5.148  0.00  0.00     0.033 A 
ATOM      6  C6  UNL d   1      -3.377  -1.340   5.127  0.00  0.00    -0.057 A 
ENDROOT
BRANCH   1   7
ATOM      7  N   UNL d   1      -2.375   0.800   5.574  0.00  0.00    -0.732 N 
ATOM      8  C   UNL d   1      -3.639   1.421   5.904  0.00  0.00     0.284 C 
ATOM      9  H3  UNL d   1      -1.568   1.242   6.009  0.00  0.00     0.395 HD
ENDBRANCH   1   7
TORSDOF 1
ENDMDL
