MODEL 1
REMARK minimizedAffinity 16.3237495
REMARK minimizedRMSD -1
REMARK  1 active torsions:
REMARK  status: ('A' for Active; 'I' for Inactive)
REMARK    1  A    between atoms: N_2  and  C1_3 
ROOT
ATOM      1  C1  UNL d   1      -3.383   0.042  -1.324  0.00  0.00     0.143 A 
ATOM      2  C2  UNL d   1      -2.880  -0.417  -2.546  0.00  0.00    -0.057 A 
ATOM      3  C3  UNL d   1      -1.838  -1.350  -2.598  0.00  0.00     0.033 A 
ATOM      4  C4  UNL d   1      -1.258  -1.820  -1.425  0.00  0.00    -0.042 A 
ATOM      5  C5  UNL d   1      -1.725  -1.359  -0.199  0.00  0.00     0.033 A 
ATOM      6  C6  UNL d   1      -2.771  -0.432  -0.153  0.00  0.00    -0.057 A 
ENDROOT
BRANCH   1   7
ATOM      7  N   UNL d   1      -4.351   1.043  -1.208  0.00  0.00    -0.732 N 
ATOM      8  C   UNL d   1      -4.035   2.303  -0.570  0.00  0.00     0.284 C 
ATOM      9  H3  UNL d   1      -4.919   1.133  -2.047  0.00  0.00     0.395 HD
ENDBRANCH   1   7
TORSDOF 1
ENDMDL
