MODEL 1
REMARK minimizedAffinity 3.25925422
REMARK minimizedRMSD -1
REMARK  1 active torsions:
REMARK  status: ('A' for Active; 'I' for Inactive)
REMARK    1  A    between atoms: C1_2  and  C2_3 
ROOT
ATOM      1  C2  UNL d   1       4.358   1.838  -0.781  0.00  0.00    -0.077 A 
ATOM      2  C3  UNL d   1       3.344   1.227  -0.029  0.00  0.00     0.002 A 
ATOM      3  C4  UNL d   1       2.904  -0.058  -0.351  0.00  0.00     0.002 A 
ATOM      4  C5  UNL d   1       3.474  -0.745  -1.421  0.00  0.00    -0.004 A 
ATOM      5  C6  UNL d   1       4.482  -0.145  -2.175  0.00  0.00     0.002 A 
ATOM      6  C7  UNL d   1       4.922   1.140  -1.856  0.00  0.00     0.002 A 
ENDROOT
BRANCH   1   7
ATOM      7  C1  UNL d   1       4.869   3.204  -0.405  0.00  0.00     0.055 C 
ATOM      8  C   UNL d   1       6.000   3.113   0.609  0.00  0.00     0.019 C 
ENDBRANCH   1   7
TORSDOF 1
ENDMDL
