MODEL 1
REMARK minimizedAffinity 3.75673437
REMARK minimizedRMSD -1
REMARK  1 active torsions:
REMARK  status: ('A' for Active; 'I' for Inactive)
REMARK    1  A    between atoms: C1_2  and  C2_3 
ROOT
ATOM      1  C2  UNL d   1       2.495   4.463   4.796  0.00  0.00    -0.077 A 
ATOM      2  C3  UNL d   1       2.003   5.012   3.604  0.00  0.00     0.002 A 
ATOM      3  C4  UNL d   1       0.833   5.774   3.608  0.00  0.00     0.002 A 
ATOM      4  C5  UNL d   1       0.149   5.998   4.801  0.00  0.00    -0.004 A 
ATOM      5  C6  UNL d   1       0.629   5.454   5.991  0.00  0.00     0.002 A 
ATOM      6  C7  UNL d   1       1.798   4.691   5.989  0.00  0.00     0.002 A 
ENDROOT
BRANCH   1   7
ATOM      7  C1  UNL d   1       3.783   3.682   4.802  0.00  0.00     0.055 C 
ATOM      8  C   UNL d   1       3.778   2.614   5.886  0.00  0.00     0.019 C 
ENDBRANCH   1   7
TORSDOF 1
ENDMDL
