MODEL 1
REMARK minimizedAffinity -1.66731083
REMARK minimizedRMSD -1
REMARK  1 active torsions:
REMARK  status: ('A' for Active; 'I' for Inactive)
REMARK    1  A    between atoms: C1_2  and  C2_3 
ROOT
ATOM      1  C2  UNL d   1       3.863   0.950  -0.376  0.00  0.00    -0.077 A 
ATOM      2  C3  UNL d   1       5.212   0.663  -0.124  0.00  0.00     0.002 A 
ATOM      3  C4  UNL d   1       5.990   1.537   0.638  0.00  0.00     0.002 A 
ATOM      4  C5  UNL d   1       5.426   2.701   1.157  0.00  0.00    -0.004 A 
ATOM      5  C6  UNL d   1       4.086   2.996   0.911  0.00  0.00     0.002 A 
ATOM      6  C7  UNL d   1       3.308   2.124   0.149  0.00  0.00     0.002 A 
ENDROOT
BRANCH   1   7
ATOM      7  C1  UNL d   1       3.010  -0.016  -1.156  0.00  0.00     0.055 C 
ATOM      8  C   UNL d   1       3.040  -1.406  -0.537  0.00  0.00     0.019 C 
ENDBRANCH   1   7
TORSDOF 1
ENDMDL
