MODEL 1
REMARK minimizedAffinity 5.60024071
REMARK minimizedRMSD -1
REMARK  1 active torsions:
REMARK  status: ('A' for Active; 'I' for Inactive)
REMARK    1  A    between atoms: C1_2  and  C2_3 
ROOT
ATOM      1  C2  UNL d   1      -3.902  -0.249  -2.648  0.00  0.00    -0.077 A 
ATOM      2  C3  UNL d   1      -2.657  -0.264  -3.292  0.00  0.00     0.002 A 
ATOM      3  C4  UNL d   1      -2.543   0.157  -4.618  0.00  0.00     0.002 A 
ATOM      4  C5  UNL d   1      -3.669   0.599  -5.310  0.00  0.00    -0.004 A 
ATOM      5  C6  UNL d   1      -4.912   0.616  -4.678  0.00  0.00     0.002 A 
ATOM      6  C7  UNL d   1      -5.028   0.195  -3.353  0.00  0.00     0.002 A 
ENDROOT
BRANCH   1   7
ATOM      7  C1  UNL d   1      -4.018  -0.656  -1.202  0.00  0.00     0.055 C 
ATOM      8  C   UNL d   1      -5.244  -0.034  -0.549  0.00  0.00     0.019 C 
ENDBRANCH   1   7
TORSDOF 1
ENDMDL
