MODEL 1
REMARK minimizedAffinity 12.4939957
REMARK minimizedRMSD -1
REMARK  1 active torsions:
REMARK  status: ('A' for Active; 'I' for Inactive)
REMARK    1  A    between atoms: C1_2  and  C2_3 
ROOT
ATOM      1  C2  UNL d   1      -5.533   2.406  -1.719  0.00  0.00    -0.077 A 
ATOM      2  C3  UNL d   1      -5.980   1.140  -1.316  0.00  0.00     0.002 A 
ATOM      3  C4  UNL d   1      -5.603   0.620  -0.076  0.00  0.00     0.002 A 
ATOM      4  C5  UNL d   1      -4.783   1.361   0.772  0.00  0.00    -0.004 A 
ATOM      5  C6  UNL d   1      -4.333   2.621   0.379  0.00  0.00     0.002 A 
ATOM      6  C7  UNL d   1      -4.707   3.141  -0.860  0.00  0.00     0.002 A 
ENDROOT
BRANCH   1   7
ATOM      7  C1  UNL d   1      -5.978   2.989  -3.035  0.00  0.00     0.055 C 
ATOM      8  C   UNL d   1      -5.804   4.501  -3.058  0.00  0.00     0.019 C 
ENDBRANCH   1   7
TORSDOF 1
ENDMDL
