MODEL 1
REMARK minimizedAffinity 2.95458341
REMARK minimizedRMSD -1
REMARK  1 active torsions:
REMARK  status: ('A' for Active; 'I' for Inactive)
REMARK    1  A    between atoms: C1_2  and  C2_3 
ROOT
ATOM      1  C2  UNL d   1       3.919   0.760  -0.303  0.00  0.00    -0.077 A 
ATOM      2  C3  UNL d   1       5.153   0.456   0.288  0.00  0.00     0.002 A 
ATOM      3  C4  UNL d   1       6.000   1.478   0.721  0.00  0.00     0.002 A 
ATOM      4  C5  UNL d   1       5.619   2.810   0.574  0.00  0.00    -0.004 A 
ATOM      5  C6  UNL d   1       4.394   3.123  -0.014  0.00  0.00     0.002 A 
ATOM      6  C7  UNL d   1       3.547   2.103  -0.449  0.00  0.00     0.002 A 
ENDROOT
BRANCH   1   7
ATOM      7  C1  UNL d   1       2.983  -0.342  -0.726  0.00  0.00     0.055 C 
ATOM      8  C   UNL d   1       2.930  -1.453   0.312  0.00  0.00     0.019 C 
ENDBRANCH   1   7
TORSDOF 1
ENDMDL
