MODEL 1
REMARK minimizedAffinity -1.14883959
REMARK minimizedRMSD -1
REMARK  0 active torsions:
REMARK  status: ('A' for Active; 'I' for Inactive)
ROOT
ATOM      1  C   UNL d   1       5.983  -0.482   4.497  0.00  0.00     0.023 A 
ATOM      2  C1  UNL d   1       5.992  -0.290   3.116  0.00  0.00     0.003 A 
ATOM      3  C2  UNL d   1       5.996   1.004   2.589  0.00  0.00     0.048 A 
ATOM      4  C3  UNL d   1       5.993   2.100   3.450  0.00  0.00     0.023 A 
ATOM      5  C4  UNL d   1       5.985   1.913   4.833  0.00  0.00     0.048 A 
ATOM      6  C5  UNL d   1       5.980   0.618   5.355  0.00  0.00     0.003 A 
ATOM      7  I   UNL d   1       6.000   4.026   2.669  0.00  0.00    -0.146 I 
ENDROOT
TORSDOF 0
ENDMDL
