MODEL 1
REMARK minimizedAffinity 1.59726369
REMARK minimizedRMSD -1
REMARK  0 active torsions:
REMARK  status: ('A' for Active; 'I' for Inactive)
ROOT
ATOM      1  C   UNL d   1       5.591  -1.740   5.088  0.00  0.00     0.023 A 
ATOM      2  C1  UNL d   1       5.200  -1.381   3.798  0.00  0.00     0.003 A 
ATOM      3  C2  UNL d   1       5.206  -0.038   3.414  0.00  0.00     0.048 A 
ATOM      4  C3  UNL d   1       5.606   0.940   4.324  0.00  0.00     0.023 A 
ATOM      5  C4  UNL d   1       5.999   0.585   5.616  0.00  0.00     0.048 A 
ATOM      6  C5  UNL d   1       5.990  -0.758   5.996  0.00  0.00     0.003 A 
ATOM      7  I   UNL d   1       5.617   2.938   3.754  0.00  0.00    -0.146 I 
ENDROOT
TORSDOF 0
ENDMDL
