MODEL 1
REMARK minimizedAffinity 14.6449051
REMARK minimizedRMSD -1
REMARK  0 active torsions:
REMARK  status: ('A' for Active; 'I' for Inactive)
ROOT
ATOM      1  C   UNL d   1      -0.619   3.952   1.281  0.00  0.00     0.023 A 
ATOM      2  C1  UNL d   1      -0.762   3.831   2.663  0.00  0.00     0.003 A 
ATOM      3  C2  UNL d   1      -1.408   2.718   3.205  0.00  0.00     0.048 A 
ATOM      4  C3  UNL d   1      -1.907   1.728   2.358  0.00  0.00     0.023 A 
ATOM      5  C4  UNL d   1      -1.765   1.845   0.975  0.00  0.00     0.048 A 
ATOM      6  C5  UNL d   1      -1.120   2.960   0.438  0.00  0.00     0.003 A 
ATOM      7  I   UNL d   1      -2.867   0.070   3.162  0.00  0.00    -0.146 I 
ENDROOT
TORSDOF 0
ENDMDL
