MODEL 1
REMARK minimizedAffinity -2.9717474
REMARK minimizedRMSD -1
REMARK  0 active torsions:
REMARK  status: ('A' for Active; 'I' for Inactive)
ROOT
ATOM      1  C   UNL d   1       5.603  -1.075   5.071  0.00  0.00     0.023 A 
ATOM      2  C1  UNL d   1       5.170  -0.697   3.800  0.00  0.00     0.003 A 
ATOM      3  C2  UNL d   1       5.111   0.654   3.455  0.00  0.00     0.048 A 
ATOM      4  C3  UNL d   1       5.487   1.623   4.385  0.00  0.00     0.023 A 
ATOM      5  C4  UNL d   1       5.922   1.249   5.658  0.00  0.00     0.048 A 
ATOM      6  C5  UNL d   1       5.978  -0.104   5.999  0.00  0.00     0.003 A 
ATOM      7  I   UNL d   1       5.400   3.635   3.873  0.00  0.00    -0.146 I 
ENDROOT
TORSDOF 0
ENDMDL
