MODEL 1
REMARK minimizedAffinity -3.36467385
REMARK minimizedRMSD -1
REMARK  0 active torsions:
REMARK  status: ('A' for Active; 'I' for Inactive)
ROOT
ATOM      1  C   UNL d   1       5.988  -0.991   4.957  0.00  0.00     0.023 A 
ATOM      2  C1  UNL d   1       5.995  -0.613   3.614  0.00  0.00     0.003 A 
ATOM      3  C2  UNL d   1       5.997   0.740   3.268  0.00  0.00     0.048 A 
ATOM      4  C3  UNL d   1       5.995   1.710   4.270  0.00  0.00     0.023 A 
ATOM      5  C4  UNL d   1       5.989   1.337   5.615  0.00  0.00     0.048 A 
ATOM      6  C5  UNL d   1       5.985  -0.017   5.956  0.00  0.00     0.003 A 
ATOM      7  I   UNL d   1       5.999   3.724   3.757  0.00  0.00    -0.146 I 
ENDROOT
TORSDOF 0
ENDMDL
