MODEL 1
REMARK minimizedAffinity 10.2990618
REMARK minimizedRMSD -1
REMARK  0 active torsions:
REMARK  status: ('A' for Active; 'I' for Inactive)
ROOT
ATOM      1  C   UNL d   1       1.869   3.344  -6.000  0.00  0.00     0.023 A 
ATOM      2  C1  UNL d   1       2.807   4.226  -5.462  0.00  0.00     0.003 A 
ATOM      3  C2  UNL d   1       3.993   3.737  -4.911  0.00  0.00     0.048 A 
ATOM      4  C3  UNL d   1       4.235   2.364  -4.902  0.00  0.00     0.023 A 
ATOM      5  C4  UNL d   1       3.301   1.477  -5.440  0.00  0.00     0.048 A 
ATOM      6  C5  UNL d   1       2.116   1.971  -5.989  0.00  0.00     0.003 A 
ATOM      7  I   UNL d   1       6.000   1.632  -4.083  0.00  0.00    -0.146 I 
ENDROOT
TORSDOF 0
ENDMDL
