MODEL 1
REMARK minimizedAffinity 3.3924737
REMARK minimizedRMSD -1
REMARK  0 active torsions:
REMARK  status: ('A' for Active; 'I' for Inactive)
ROOT
ATOM      1  C   UNL d   1       5.636  -0.989   4.217  0.00  0.00     0.023 A 
ATOM      2  C1  UNL d   1       5.894  -0.048   5.214  0.00  0.00     0.003 A 
ATOM      3  C2  UNL d   1       5.999   1.306   4.887  0.00  0.00     0.048 A 
ATOM      4  C3  UNL d   1       5.844   1.712   3.562  0.00  0.00     0.023 A 
ATOM      5  C4  UNL d   1       5.584   0.774   2.562  0.00  0.00     0.048 A 
ATOM      6  C5  UNL d   1       5.481  -0.579   2.892  0.00  0.00     0.003 A 
ATOM      7  I   UNL d   1       5.999   3.726   3.074  0.00  0.00    -0.146 I 
ENDROOT
TORSDOF 0
ENDMDL
