MODEL 1
REMARK minimizedAffinity -2.49843669
REMARK minimizedRMSD -1
REMARK  0 active torsions:
REMARK  status: ('A' for Active; 'I' for Inactive)
ROOT
ATOM      1  C   UNL d   1       5.999   3.020   3.591  0.00  0.00     0.023 A 
ATOM      2  C1  UNL d   1       6.000   1.912   2.743  0.00  0.00     0.003 A 
ATOM      3  C2  UNL d   1       6.000   0.622   3.278  0.00  0.00     0.048 A 
ATOM      4  C3  UNL d   1       5.998   0.447   4.661  0.00  0.00     0.023 A 
ATOM      5  C4  UNL d   1       5.997   1.552   5.513  0.00  0.00     0.048 A 
ATOM      6  C5  UNL d   1       5.998   2.840   4.974  0.00  0.00     0.003 A 
ATOM      7  I   UNL d   1       5.998  -1.472   5.459  0.00  0.00    -0.146 I 
ENDROOT
TORSDOF 0
ENDMDL
