MODEL 1
REMARK minimizedAffinity -3.15744519
REMARK minimizedRMSD -1
REMARK  0 active torsions:
REMARK  status: ('A' for Active; 'I' for Inactive)
ROOT
ATOM      1  C   UNL d   1       5.621  -0.968   4.874  0.00  0.00     0.023 A 
ATOM      2  C1  UNL d   1       5.856  -0.582   3.554  0.00  0.00     0.003 A 
ATOM      3  C2  UNL d   1       5.965   0.772   3.230  0.00  0.00     0.048 A 
ATOM      4  C3  UNL d   1       5.838   1.734   4.231  0.00  0.00     0.023 A 
ATOM      5  C4  UNL d   1       5.604   1.353   5.553  0.00  0.00     0.048 A 
ATOM      6  C5  UNL d   1       5.495  -0.002   5.872  0.00  0.00     0.003 A 
ATOM      7  I   UNL d   1       6.000   3.750   3.751  0.00  0.00    -0.146 I 
ENDROOT
TORSDOF 0
ENDMDL
