MODEL 1
REMARK minimizedAffinity -1.42086005
REMARK minimizedRMSD -1
REMARK  0 active torsions:
REMARK  status: ('A' for Active; 'I' for Inactive)
ROOT
ATOM      1  C   UNL d   1       5.932   3.104   4.698  0.00  0.00     0.023 A 
ATOM      2  C1  UNL d   1       5.976   2.563   3.413  0.00  0.00     0.003 A 
ATOM      3  C2  UNL d   1       5.996   1.178   3.237  0.00  0.00     0.048 A 
ATOM      4  C3  UNL d   1       5.970   0.339   4.351  0.00  0.00     0.023 A 
ATOM      5  C4  UNL d   1       5.925   0.876   5.639  0.00  0.00     0.048 A 
ATOM      6  C5  UNL d   1       5.906   2.262   5.809  0.00  0.00     0.003 A 
ATOM      7  I   UNL d   1       5.999  -1.723   4.093  0.00  0.00    -0.146 I 
ENDROOT
TORSDOF 0
ENDMDL
