MODEL 1
REMARK minimizedAffinity -0.866283178
REMARK minimizedRMSD -1
REMARK  0 active torsions:
REMARK  status: ('A' for Active; 'I' for Inactive)
ROOT
ATOM      1  C   UNL d   1       5.999   4.240   3.442  0.00  0.00     0.023 A 
ATOM      2  C1  UNL d   1       5.997   3.103   2.634  0.00  0.00     0.003 A 
ATOM      3  C2  UNL d   1       5.997   1.832   3.214  0.00  0.00     0.048 A 
ATOM      4  C3  UNL d   1       5.996   1.706   4.603  0.00  0.00     0.023 A 
ATOM      5  C4  UNL d   1       5.997   2.841   5.415  0.00  0.00     0.048 A 
ATOM      6  C5  UNL d   1       5.999   4.109   4.831  0.00  0.00     0.003 A 
ATOM      7  I   UNL d   1       5.995  -0.184   5.468  0.00  0.00    -0.146 I 
ENDROOT
TORSDOF 0
ENDMDL
