MODEL 1
REMARK minimizedAffinity -4.62650299
REMARK minimizedRMSD -1
REMARK  0 active torsions:
REMARK  status: ('A' for Active; 'I' for Inactive)
ROOT
ATOM      1  C   UNL d   1       2.811   3.264   1.009  0.00  0.00     0.023 A 
ATOM      2  C1  UNL d   1       1.552   3.433   1.586  0.00  0.00     0.003 A 
ATOM      3  C2  UNL d   1       0.513   2.555   1.269  0.00  0.00     0.048 A 
ATOM      4  C3  UNL d   1       0.740   1.510   0.374  0.00  0.00     0.023 A 
ATOM      5  C4  UNL d   1       1.998   1.336  -0.206  0.00  0.00     0.048 A 
ATOM      6  C5  UNL d   1       3.033   2.217   0.114  0.00  0.00     0.003 A 
ATOM      7  I   UNL d   1      -0.804   0.202  -0.100  0.00  0.00    -0.146 I 
ENDROOT
TORSDOF 0
ENDMDL
