MODEL 1
REMARK minimizedAffinity -1.83950353
REMARK minimizedRMSD -1
REMARK  0 active torsions:
REMARK  status: ('A' for Active; 'I' for Inactive)
ROOT
ATOM      1  C   UNL d   1      -0.425  -0.820   0.520  0.00  0.00     0.023 A 
ATOM      2  C1  UNL d   1       0.838  -0.946   1.100  0.00  0.00     0.003 A 
ATOM      3  C2  UNL d   1       1.723   0.134   1.088  0.00  0.00     0.048 A 
ATOM      4  C3  UNL d   1       1.339   1.337   0.496  0.00  0.00     0.023 A 
ATOM      5  C4  UNL d   1       0.077   1.467  -0.084  0.00  0.00     0.048 A 
ATOM      6  C5  UNL d   1      -0.805   0.385  -0.072  0.00  0.00     0.003 A 
ATOM      7  I   UNL d   1       2.655   2.945   0.479  0.00  0.00    -0.146 I 
ENDROOT
TORSDOF 0
ENDMDL
