MODEL 1
REMARK minimizedAffinity 0.350172848
REMARK minimizedRMSD -1
REMARK  0 active torsions:
REMARK  status: ('A' for Active; 'I' for Inactive)
ROOT
ATOM      1  C   UNL d   1      -0.238  -1.283   0.516  0.00  0.00     0.023 A 
ATOM      2  C1  UNL d   1      -0.786  -0.033   0.228  0.00  0.00     0.003 A 
ATOM      3  C2  UNL d   1       0.017   1.109   0.267  0.00  0.00     0.048 A 
ATOM      4  C3  UNL d   1       1.368   0.993   0.594  0.00  0.00     0.023 A 
ATOM      5  C4  UNL d   1       1.921  -0.256   0.882  0.00  0.00     0.048 A 
ATOM      6  C5  UNL d   1       1.113  -1.394   0.843  0.00  0.00     0.003 A 
ATOM      7  I   UNL d   1       2.565   2.691   0.652  0.00  0.00    -0.146 I 
ENDROOT
TORSDOF 0
ENDMDL
