MODEL 1
REMARK minimizedAffinity -4.66470766
REMARK minimizedRMSD -1
REMARK  0 active torsions:
REMARK  status: ('A' for Active; 'I' for Inactive)
ROOT
ATOM      1  C   UNL d   1      -3.784  -0.744  -0.816  0.00  0.00     0.023 A 
ATOM      2  C1  UNL d   1      -3.174  -1.024   0.407  0.00  0.00     0.003 A 
ATOM      3  C2  UNL d   1      -1.824  -0.721   0.600  0.00  0.00     0.048 A 
ATOM      4  C3  UNL d   1      -1.092  -0.138  -0.434  0.00  0.00     0.023 A 
ATOM      5  C4  UNL d   1      -1.699   0.145  -1.658  0.00  0.00     0.048 A 
ATOM      6  C5  UNL d   1      -3.048  -0.161  -1.847  0.00  0.00     0.003 A 
ATOM      7  I   UNL d   1       0.917   0.313  -0.149  0.00  0.00    -0.146 I 
ENDROOT
TORSDOF 0
ENDMDL
