MODEL 1
REMARK minimizedAffinity -2.01778316
REMARK minimizedRMSD -1
REMARK  0 active torsions:
REMARK  status: ('A' for Active; 'I' for Inactive)
ROOT
ATOM      1  C   UNL d   1      -0.588   0.818   1.080  0.00  0.00     0.023 A 
ATOM      2  C1  UNL d   1       0.356   0.325   0.179  0.00  0.00     0.003 A 
ATOM      3  C2  UNL d   1      -0.059  -0.366  -0.962  0.00  0.00     0.048 A 
ATOM      4  C3  UNL d   1      -1.421  -0.559  -1.195  0.00  0.00     0.023 A 
ATOM      5  C4  UNL d   1      -2.369  -0.066  -0.297  0.00  0.00     0.048 A 
ATOM      6  C5  UNL d   1      -1.949   0.623   0.842  0.00  0.00     0.003 A 
ATOM      7  I   UNL d   1      -2.041  -1.586  -2.892  0.00  0.00    -0.146 I 
ENDROOT
TORSDOF 0
ENDMDL
