MODEL 1
REMARK minimizedAffinity -3.43409896
REMARK minimizedRMSD -1
REMARK  0 active torsions:
REMARK  status: ('A' for Active; 'I' for Inactive)
ROOT
ATOM      1  C   UNL d   1      -1.855  -1.245  -0.958  0.00  0.00     0.023 A 
ATOM      2  C1  UNL d   1      -1.172  -1.655   0.188  0.00  0.00     0.003 A 
ATOM      3  C2  UNL d   1      -0.229  -0.812   0.779  0.00  0.00     0.048 A 
ATOM      4  C3  UNL d   1       0.027   0.439   0.220  0.00  0.00     0.023 A 
ATOM      5  C4  UNL d   1      -0.653   0.854  -0.926  0.00  0.00     0.048 A 
ATOM      6  C5  UNL d   1      -1.595   0.008  -1.514  0.00  0.00     0.003 A 
ATOM      7  I   UNL d   1       1.431   1.695   1.099  0.00  0.00    -0.146 I 
ENDROOT
TORSDOF 0
ENDMDL
