MODEL 1
REMARK minimizedAffinity 0.854700208
REMARK minimizedRMSD -1
REMARK  0 active torsions:
REMARK  status: ('A' for Active; 'I' for Inactive)
ROOT
ATOM      1  C   UNL d   1      -1.882  -1.161   2.523  0.00  0.00     0.023 A 
ATOM      2  C1  UNL d   1      -2.498  -0.338   1.580  0.00  0.00     0.003 A 
ATOM      3  C2  UNL d   1      -1.813   0.033   0.421  0.00  0.00     0.048 A 
ATOM      4  C3  UNL d   1      -0.512  -0.422   0.211  0.00  0.00     0.023 A 
ATOM      5  C4  UNL d   1       0.109  -1.246   1.152  0.00  0.00     0.048 A 
ATOM      6  C5  UNL d   1      -0.580  -1.614   2.309  0.00  0.00     0.003 A 
ATOM      7  I   UNL d   1       0.510   0.129  -1.513  0.00  0.00    -0.146 I 
ENDROOT
TORSDOF 0
ENDMDL
