MODEL 1
REMARK minimizedAffinity -1.31248915
REMARK minimizedRMSD -1
REMARK  0 active torsions:
REMARK  status: ('A' for Active; 'I' for Inactive)
ROOT
ATOM      1  C   UNL d   1      -1.148  -1.930   1.396  0.00  0.00     0.023 A 
ATOM      2  C1  UNL d   1      -2.090  -1.467   0.478  0.00  0.00     0.003 A 
ATOM      3  C2  UNL d   1      -1.679  -0.733  -0.636  0.00  0.00     0.048 A 
ATOM      4  C3  UNL d   1      -0.324  -0.467  -0.827  0.00  0.00     0.023 A 
ATOM      5  C4  UNL d   1       0.623  -0.929   0.088  0.00  0.00     0.048 A 
ATOM      6  C5  UNL d   1       0.207  -1.662   1.201  0.00  0.00     0.003 A 
ATOM      7  I   UNL d   1       0.290   0.625  -2.486  0.00  0.00    -0.146 I 
ENDROOT
TORSDOF 0
ENDMDL
