MODEL 1
REMARK minimizedAffinity -4.51911545
REMARK minimizedRMSD -1
REMARK  0 active torsions:
REMARK  status: ('A' for Active; 'I' for Inactive)
ROOT
ATOM      1  C   UNL d   1      -3.359  -0.738  -1.253  0.00  0.00     0.023 A 
ATOM      2  C1  UNL d   1      -2.986  -0.980   0.070  0.00  0.00     0.003 A 
ATOM      3  C2  UNL d   1      -1.770  -0.493   0.553  0.00  0.00     0.048 A 
ATOM      4  C3  UNL d   1      -0.933   0.237  -0.290  0.00  0.00     0.023 A 
ATOM      5  C4  UNL d   1      -1.303   0.482  -1.613  0.00  0.00     0.048 A 
ATOM      6  C5  UNL d   1      -2.519  -0.008  -2.093  0.00  0.00     0.003 A 
ATOM      7  I   UNL d   1       0.877   0.964   0.428  0.00  0.00    -0.146 I 
ENDROOT
TORSDOF 0
ENDMDL
