MODEL 1
REMARK minimizedAffinity -4.59886551
REMARK minimizedRMSD -1
REMARK  0 active torsions:
REMARK  status: ('A' for Active; 'I' for Inactive)
ROOT
ATOM      1  C   UNL d   1      -2.369   0.577  -2.745  0.00  0.00     0.023 A 
ATOM      2  C1  UNL d   1      -2.624  -0.268  -1.664  0.00  0.00     0.003 A 
ATOM      3  C2  UNL d   1      -1.638  -0.488  -0.700  0.00  0.00     0.048 A 
ATOM      4  C3  UNL d   1      -0.399   0.140  -0.823  0.00  0.00     0.023 A 
ATOM      5  C4  UNL d   1      -0.139   0.986  -1.902  0.00  0.00     0.048 A 
ATOM      6  C5  UNL d   1      -1.128   1.203  -2.864  0.00  0.00     0.003 A 
ATOM      7  I   UNL d   1       1.070  -0.186   0.610  0.00  0.00    -0.146 I 
ENDROOT
TORSDOF 0
ENDMDL
