MODEL 1
REMARK minimizedAffinity -1.72082627
REMARK minimizedRMSD -1
REMARK  0 active torsions:
REMARK  status: ('A' for Active; 'I' for Inactive)
ROOT
ATOM      1  C   UNL d   1      -2.691  -1.189  -1.496  0.00  0.00     0.023 A 
ATOM      2  C1  UNL d   1      -1.993  -0.116  -2.049  0.00  0.00     0.003 A 
ATOM      3  C2  UNL d   1      -0.853   0.380  -1.413  0.00  0.00     0.048 A 
ATOM      4  C3  UNL d   1      -0.416  -0.204  -0.224  0.00  0.00     0.023 A 
ATOM      5  C4  UNL d   1      -1.111  -1.279   0.333  0.00  0.00     0.048 A 
ATOM      6  C5  UNL d   1      -2.251  -1.770  -0.307  0.00  0.00     0.003 A 
ATOM      7  I   UNL d   1       1.280   0.531   0.725  0.00  0.00    -0.146 I 
ENDROOT
TORSDOF 0
ENDMDL
