MODEL 1
REMARK minimizedAffinity -1.76640987
REMARK minimizedRMSD -1
REMARK  0 active torsions:
REMARK  status: ('A' for Active; 'I' for Inactive)
ROOT
ATOM      1  C   UNL d   1      -1.480  -1.083   1.329  0.00  0.00     0.023 A 
ATOM      2  C1  UNL d   1      -1.658  -0.062   0.395  0.00  0.00     0.003 A 
ATOM      3  C2  UNL d   1      -0.561   0.680  -0.048  0.00  0.00     0.048 A 
ATOM      4  C3  UNL d   1       0.712   0.394   0.446  0.00  0.00     0.023 A 
ATOM      5  C4  UNL d   1       0.895  -0.627   1.380  0.00  0.00     0.048 A 
ATOM      6  C5  UNL d   1      -0.205  -1.365   1.821  0.00  0.00     0.003 A 
ATOM      7  I   UNL d   1       2.346   1.496  -0.212  0.00  0.00    -0.146 I 
ENDROOT
TORSDOF 0
ENDMDL
