MODEL 1
REMARK minimizedAffinity -1.14629972
REMARK minimizedRMSD -1
REMARK  0 active torsions:
REMARK  status: ('A' for Active; 'I' for Inactive)
ROOT
ATOM      1  C   UNL d   1      -3.021  -0.820  -3.064  0.00  0.00     0.023 A 
ATOM      2  C1  UNL d   1      -2.393   0.422  -2.975  0.00  0.00     0.003 A 
ATOM      3  C2  UNL d   1      -1.466   0.665  -1.960  0.00  0.00     0.048 A 
ATOM      4  C3  UNL d   1      -1.171  -0.338  -1.037  0.00  0.00     0.023 A 
ATOM      5  C4  UNL d   1      -1.797  -1.582  -1.123  0.00  0.00     0.048 A 
ATOM      6  C5  UNL d   1      -2.724  -1.821  -2.139  0.00  0.00     0.003 A 
ATOM      7  I   UNL d   1       0.208   0.022   0.475  0.00  0.00    -0.146 I 
ENDROOT
TORSDOF 0
ENDMDL
