MODEL 1
REMARK minimizedAffinity 0.400986671
REMARK minimizedRMSD -1
REMARK  1 active torsions:
REMARK  status: ('A' for Active; 'I' for Inactive)
REMARK    1  A    between atoms: C1_2  and  C2_3 
ROOT
ATOM      1  C2  UNL d   1       2.824  -4.314   0.823  0.00  0.00    -0.077 A 
ATOM      2  C3  UNL d   1       1.872  -5.156   1.414  0.00  0.00     0.002 A 
ATOM      3  C4  UNL d   1       0.766  -4.617   2.075  0.00  0.00     0.002 A 
ATOM      4  C5  UNL d   1       0.601  -3.235   2.148  0.00  0.00    -0.004 A 
ATOM      5  C6  UNL d   1       1.544  -2.390   1.565  0.00  0.00     0.002 A 
ATOM      6  C7  UNL d   1       2.650  -2.926   0.905  0.00  0.00     0.002 A 
ENDROOT
BRANCH   1   7
ATOM      7  C1  UNL d   1       3.991  -4.893   0.067  0.00  0.00     0.055 C 
ATOM      8  C   UNL d   1       5.315  -4.374   0.610  0.00  0.00     0.019 C 
ENDBRANCH   1   7
TORSDOF 1
ENDMDL
