MODEL 1
REMARK minimizedAffinity 1.03209865
REMARK minimizedRMSD -1
REMARK  1 active torsions:
REMARK  status: ('A' for Active; 'I' for Inactive)
REMARK    1  A    between atoms: C1_2  and  C2_3 
ROOT
ATOM      1  C2  UNL d   1      -0.150   3.733  -2.885  0.00  0.00    -0.077 A 
ATOM      2  C3  UNL d   1      -1.362   4.361  -3.205  0.00  0.00     0.002 A 
ATOM      3  C4  UNL d   1      -2.573   3.691  -3.021  0.00  0.00     0.002 A 
ATOM      4  C5  UNL d   1      -2.585   2.394  -2.513  0.00  0.00    -0.004 A 
ATOM      5  C6  UNL d   1      -1.384   1.761  -2.194  0.00  0.00     0.002 A 
ATOM      6  C7  UNL d   1      -0.172   2.428  -2.378  0.00  0.00     0.002 A 
ENDROOT
BRANCH   1   7
ATOM      7  C1  UNL d   1       1.155   4.471  -3.036  0.00  0.00     0.055 C 
ATOM      8  C   UNL d   1       1.548   4.607  -4.500  0.00  0.00     0.019 C 
ENDBRANCH   1   7
TORSDOF 1
ENDMDL
