MODEL 1
REMARK minimizedAffinity 5.50365305
REMARK minimizedRMSD -1
REMARK  1 active torsions:
REMARK  status: ('A' for Active; 'I' for Inactive)
REMARK    1  A    between atoms: C1_2  and  C2_3 
ROOT
ATOM      1  C2  UNL d   1       3.972  -3.854   1.379  0.00  0.00    -0.077 A 
ATOM      2  C3  UNL d   1       2.991  -4.789   1.022  0.00  0.00     0.002 A 
ATOM      3  C4  UNL d   1       1.638  -4.500   1.209  0.00  0.00     0.002 A 
ATOM      4  C5  UNL d   1       1.254  -3.275   1.750  0.00  0.00    -0.004 A 
ATOM      5  C6  UNL d   1       2.222  -2.339   2.110  0.00  0.00     0.002 A 
ATOM      6  C7  UNL d   1       3.575  -2.626   1.925  0.00  0.00     0.002 A 
ENDROOT
BRANCH   1   7
ATOM      7  C1  UNL d   1       5.429  -4.144   1.133  0.00  0.00     0.055 C 
ATOM      8  C   UNL d   1       5.635  -5.569   0.641  0.00  0.00     0.019 C 
ENDBRANCH   1   7
TORSDOF 1
ENDMDL
