MODEL 1
REMARK minimizedAffinity 6.98144007
REMARK minimizedRMSD -1
REMARK  1 active torsions:
REMARK  status: ('A' for Active; 'I' for Inactive)
REMARK    1  A    between atoms: C1_2  and  C2_3 
ROOT
ATOM      1  C2  UNL d   1       5.976  -0.078  -3.192  0.00  0.00    -0.077 A 
ATOM      2  C3  UNL d   1       5.985   1.091  -3.966  0.00  0.00     0.002 A 
ATOM      3  C4  UNL d   1       5.999   1.015  -5.360  0.00  0.00     0.002 A 
ATOM      4  C5  UNL d   1       6.000  -0.227  -5.991  0.00  0.00    -0.004 A 
ATOM      5  C6  UNL d   1       5.993  -1.395  -5.231  0.00  0.00     0.002 A 
ATOM      6  C7  UNL d   1       5.980  -1.321  -3.837  0.00  0.00     0.002 A 
ENDROOT
BRANCH   1   7
ATOM      7  C1  UNL d   1       5.911   0.002  -1.689  0.00  0.00     0.055 C 
ATOM      8  C   UNL d   1       4.953  -1.034  -1.120  0.00  0.00     0.019 C 
ENDBRANCH   1   7
TORSDOF 1
ENDMDL
