MODEL 1
REMARK minimizedAffinity 1.59744298
REMARK minimizedRMSD -1
REMARK  1 active torsions:
REMARK  status: ('A' for Active; 'I' for Inactive)
REMARK    1  A    between atoms: C1_2  and  C2_3 
ROOT
ATOM      1  C2  UNL d   1       1.048  -2.549   2.068  0.00  0.00    -0.077 A 
ATOM      2  C3  UNL d   1       1.265  -3.932   2.138  0.00  0.00     0.002 A 
ATOM      3  C4  UNL d   1       2.167  -4.551   1.270  0.00  0.00     0.002 A 
ATOM      4  C5  UNL d   1       2.862  -3.794   0.330  0.00  0.00    -0.004 A 
ATOM      5  C6  UNL d   1       2.652  -2.417   0.251  0.00  0.00     0.002 A 
ATOM      6  C7  UNL d   1       1.750  -1.798   1.117  0.00  0.00     0.002 A 
ENDROOT
BRANCH   1   7
ATOM      7  C1  UNL d   1       0.112  -1.873   3.036  0.00  0.00     0.055 C 
ATOM      8  C   UNL d   1       0.721  -0.594   3.593  0.00  0.00     0.019 C 
ENDBRANCH   1   7
TORSDOF 1
ENDMDL
