MODEL 1
REMARK minimizedAffinity 5.18583488
REMARK minimizedRMSD -1
REMARK  1 active torsions:
REMARK  status: ('A' for Active; 'I' for Inactive)
REMARK    1  A    between atoms: C1_2  and  C2_3 
ROOT
ATOM      1  C2  UNL d   1       0.767   1.417  -1.575  0.00  0.00    -0.077 A 
ATOM      2  C3  UNL d   1       0.958   2.519  -2.420  0.00  0.00     0.002 A 
ATOM      3  C4  UNL d   1      -0.127   3.099  -3.081  0.00  0.00     0.002 A 
ATOM      4  C5  UNL d   1      -1.410   2.587  -2.900  0.00  0.00    -0.004 A 
ATOM      5  C6  UNL d   1      -1.610   1.490  -2.063  0.00  0.00     0.002 A 
ATOM      6  C7  UNL d   1      -0.527   0.909  -1.402  0.00  0.00     0.002 A 
ENDROOT
BRANCH   1   7
ATOM      7  C1  UNL d   1       1.928   0.822  -0.823  0.00  0.00     0.055 C 
ATOM      8  C   UNL d   1       2.158   1.539   0.499  0.00  0.00     0.019 C 
ENDBRANCH   1   7
TORSDOF 1
ENDMDL
