MODEL 1
REMARK minimizedAffinity 3.13796687
REMARK minimizedRMSD -1
REMARK  1 active torsions:
REMARK  status: ('A' for Active; 'I' for Inactive)
REMARK    1  A    between atoms: C1_2  and  C2_3 
ROOT
ATOM      1  C2  UNL d   1       2.916   2.249  -5.583  0.00  0.00    -0.077 A 
ATOM      2  C3  UNL d   1       4.205   2.673  -5.935  0.00  0.00     0.002 A 
ATOM      3  C4  UNL d   1       5.320   1.907  -5.588  0.00  0.00     0.002 A 
ATOM      4  C5  UNL d   1       5.156   0.711  -4.891  0.00  0.00    -0.004 A 
ATOM      5  C6  UNL d   1       3.878   0.283  -4.534  0.00  0.00     0.002 A 
ATOM      6  C7  UNL d   1       2.763   1.048  -4.879  0.00  0.00     0.002 A 
ENDROOT
BRANCH   1   7
ATOM      7  C1  UNL d   1       1.709   3.049  -5.999  0.00  0.00     0.055 C 
ATOM      8  C   UNL d   1       2.006   4.541  -5.994  0.00  0.00     0.019 C 
ENDBRANCH   1   7
TORSDOF 1
ENDMDL
