MODEL 1
REMARK minimizedAffinity -1.58813381
REMARK minimizedRMSD -1
REMARK  0 active torsions:
REMARK  status: ('A' for Active; 'I' for Inactive)
ROOT
ATOM      1  O1  BZF d   1       5.960  -4.204  -1.531  0.00  0.00    -0.204 OA
ATOM      2  C2  BZF d   1       5.959  -2.994  -2.198  0.00  0.00     0.174 A 
ATOM      3  C3  BZF d   1       5.918  -1.966  -1.325  0.00  0.00    -0.012 A 
ATOM      4  C3A BZF d   1       5.985  -2.570  -0.029  0.00  0.00    -0.107 A 
ATOM      5  C4  BZF d   1       6.000  -2.068   1.240  0.00  0.00     0.055 A 
ATOM      6  C5  BZF d   1       5.997  -2.930   2.291  0.00  0.00    -0.016 A 
ATOM      7  C6  BZF d   1       5.973  -4.297   2.109  0.00  0.00     0.022 A 
ATOM      8  C7  BZF d   1       5.963  -4.842   0.868  0.00  0.00     0.029 A 
ATOM      9  C7A BZF d   1       6.000  -3.974  -0.196  0.00  0.00     0.058 A 
ENDROOT
TORSDOF 0
ENDMDL
