MODEL 1
REMARK minimizedAffinity 2.91877675
REMARK minimizedRMSD -1
REMARK  0 active torsions:
REMARK  status: ('A' for Active; 'I' for Inactive)
ROOT
ATOM      1  O1  BZF d   1       5.950  -1.707   3.714  0.00  0.00    -0.204 OA
ATOM      2  C2  BZF d   1       5.908  -0.976   4.886  0.00  0.00     0.174 A 
ATOM      3  C3  BZF d   1       5.845  -1.793   5.957  0.00  0.00    -0.012 A 
ATOM      4  C3A BZF d   1       5.942  -3.118   5.426  0.00  0.00    -0.107 A 
ATOM      5  C4  BZF d   1       5.954  -4.359   5.996  0.00  0.00     0.055 A 
ATOM      6  C5  BZF d   1       5.985  -5.455   5.192  0.00  0.00    -0.016 A 
ATOM      7  C6  BZF d   1       6.000  -5.346   3.817  0.00  0.00     0.022 A 
ATOM      8  C7  BZF d   1       5.994  -4.136   3.206  0.00  0.00     0.029 A 
ATOM      9  C7A BZF d   1       5.996  -3.027   4.016  0.00  0.00     0.058 A 
ENDROOT
TORSDOF 0
ENDMDL
