MODEL 1
REMARK minimizedAffinity -2.36825538
REMARK minimizedRMSD -1
REMARK  0 active torsions:
REMARK  status: ('A' for Active; 'I' for Inactive)
ROOT
ATOM      1  O1  BZF d   1       5.935  -1.736   4.262  0.00  0.00    -0.204 OA
ATOM      2  C2  BZF d   1       5.880  -1.859   5.637  0.00  0.00     0.174 A 
ATOM      3  C3  BZF d   1       5.812  -3.156   5.999  0.00  0.00    -0.012 A 
ATOM      4  C3A BZF d   1       5.918  -3.894   4.778  0.00  0.00    -0.107 A 
ATOM      5  C4  BZF d   1       5.931  -5.228   4.485  0.00  0.00     0.055 A 
ATOM      6  C5  BZF d   1       5.974  -5.618   3.184  0.00  0.00    -0.016 A 
ATOM      7  C6  BZF d   1       6.000  -4.702   2.152  0.00  0.00     0.022 A 
ATOM      8  C7  BZF d   1       5.994  -3.369   2.393  0.00  0.00     0.029 A 
ATOM      9  C7A BZF d   1       5.984  -2.971   3.708  0.00  0.00     0.058 A 
ENDROOT
TORSDOF 0
ENDMDL
