MODEL 1
REMARK minimizedAffinity 0.679919243
REMARK minimizedRMSD -1
REMARK  0 active torsions:
REMARK  status: ('A' for Active; 'I' for Inactive)
ROOT
ATOM      1  O1  BZF d   1       4.556  -4.761   2.585  0.00  0.00    -0.204 OA
ATOM      2  C2  BZF d   1       5.351  -4.160   1.628  0.00  0.00     0.174 A 
ATOM      3  C3  BZF d   1       5.999  -3.096   2.144  0.00  0.00    -0.012 A 
ATOM      4  C3A BZF d   1       5.655  -3.083   3.533  0.00  0.00    -0.107 A 
ATOM      5  C4  BZF d   1       6.000  -2.274   4.578  0.00  0.00     0.055 A 
ATOM      6  C5  BZF d   1       5.433  -2.489   5.794  0.00  0.00    -0.016 A 
ATOM      7  C6  BZF d   1       4.514  -3.498   5.999  0.00  0.00     0.022 A 
ATOM      8  C7  BZF d   1       4.145  -4.328   4.994  0.00  0.00     0.029 A 
ATOM      9  C7A BZF d   1       4.741  -4.135   3.772  0.00  0.00     0.058 A 
ENDROOT
TORSDOF 0
ENDMDL
