MODEL 1
REMARK minimizedAffinity -3.88244915
REMARK minimizedRMSD -1
REMARK  0 active torsions:
REMARK  status: ('A' for Active; 'I' for Inactive)
ROOT
ATOM      1  O1  BZF d   1       5.168  -4.893   5.052  0.00  0.00    -0.204 OA
ATOM      2  C2  BZF d   1       4.998  -3.902   6.000  0.00  0.00     0.174 A 
ATOM      3  C3  BZF d   1       5.226  -2.685   5.465  0.00  0.00    -0.012 A 
ATOM      4  C3A BZF d   1       5.469  -2.924   4.075  0.00  0.00    -0.107 A 
ATOM      5  C4  BZF d   1       5.742  -2.106   3.016  0.00  0.00     0.055 A 
ATOM      6  C5  BZF d   1       6.000  -2.662   1.803  0.00  0.00    -0.016 A 
ATOM      7  C6  BZF d   1       5.999  -4.028   1.615  0.00  0.00     0.022 A 
ATOM      8  C7  BZF d   1       5.729  -4.879   2.634  0.00  0.00     0.029 A 
ATOM      9  C7A BZF d   1       5.435  -4.320   3.854  0.00  0.00     0.058 A 
ENDROOT
TORSDOF 0
ENDMDL
