MODEL 1
REMARK minimizedAffinity -0.759498596
REMARK minimizedRMSD -1
REMARK  0 active torsions:
REMARK  status: ('A' for Active; 'I' for Inactive)
ROOT
ATOM      1  O1  BZF d   1       3.760  -4.871  -5.373  0.00  0.00    -0.204 OA
ATOM      2  C2  BZF d   1       4.938  -5.229  -5.999  0.00  0.00     0.174 A 
ATOM      3  C3  BZF d   1       6.000  -4.956  -5.213  0.00  0.00    -0.012 A 
ATOM      4  C3A BZF d   1       5.445  -4.479  -3.984  0.00  0.00    -0.107 A 
ATOM      5  C4  BZF d   1       5.994  -4.062  -2.805  0.00  0.00     0.055 A 
ATOM      6  C5  BZF d   1       5.178  -3.588  -1.827  0.00  0.00    -0.016 A 
ATOM      7  C6  BZF d   1       3.810  -3.512  -1.996  0.00  0.00     0.022 A 
ATOM      8  C7  BZF d   1       3.219  -3.919  -3.146  0.00  0.00     0.029 A 
ATOM      9  C7A BZF d   1       4.038  -4.429  -4.123  0.00  0.00     0.058 A 
ENDROOT
TORSDOF 0
ENDMDL
