MODEL 1
REMARK minimizedAffinity 6.56625843
REMARK minimizedRMSD -1
REMARK  0 active torsions:
REMARK  status: ('A' for Active; 'I' for Inactive)
ROOT
ATOM      1  O1  BZF d   1       5.125  -2.693  -3.020  0.00  0.00    -0.204 OA
ATOM      2  C2  BZF d   1       5.628  -3.146  -1.816  0.00  0.00     0.174 A 
ATOM      3  C3  BZF d   1       6.000  -4.439  -1.908  0.00  0.00    -0.012 A 
ATOM      4  C3A BZF d   1       5.797  -4.791  -3.280  0.00  0.00    -0.107 A 
ATOM      5  C4  BZF d   1       6.000  -5.937  -3.995  0.00  0.00     0.055 A 
ATOM      6  C5  BZF d   1       5.631  -5.974  -5.302  0.00  0.00    -0.016 A 
ATOM      7  C6  BZF d   1       5.053  -4.888  -5.924  0.00  0.00     0.022 A 
ATOM      8  C7  BZF d   1       4.836  -3.727  -5.258  0.00  0.00     0.029 A 
ATOM      9  C7A BZF d   1       5.238  -3.676  -3.946  0.00  0.00     0.058 A 
ENDROOT
TORSDOF 0
ENDMDL
