MODEL 1
REMARK minimizedAffinity -1.99183595
REMARK minimizedRMSD -1
REMARK  0 active torsions:
REMARK  status: ('A' for Active; 'I' for Inactive)
ROOT
ATOM      1  O1  BZF d   1       5.982  -5.254  -2.186  0.00  0.00    -0.204 OA
ATOM      2  C2  BZF d   1       5.998  -4.024  -1.556  0.00  0.00     0.174 A 
ATOM      3  C3  BZF d   1       5.842  -3.027  -2.451  0.00  0.00    -0.012 A 
ATOM      4  C3A BZF d   1       5.628  -3.677  -3.707  0.00  0.00    -0.107 A 
ATOM      5  C4  BZF d   1       5.395  -3.221  -4.973  0.00  0.00     0.055 A 
ATOM      6  C5  BZF d   1       5.304  -4.116  -5.991  0.00  0.00    -0.016 A 
ATOM      7  C6  BZF d   1       5.446  -5.472  -5.781  0.00  0.00     0.022 A 
ATOM      8  C7  BZF d   1       5.673  -5.973  -4.542  0.00  0.00     0.029 A 
ATOM      9  C7A BZF d   1       5.733  -5.073  -3.506  0.00  0.00     0.058 A 
ENDROOT
TORSDOF 0
ENDMDL
