MODEL 1
REMARK minimizedAffinity -0.775577664
REMARK minimizedRMSD -1
REMARK  0 active torsions:
REMARK  status: ('A' for Active; 'I' for Inactive)
ROOT
ATOM      1  O1  BZF d   1       5.999  -5.325  -1.647  0.00  0.00    -0.204 OA
ATOM      2  C2  BZF d   1       5.979  -4.153  -0.916  0.00  0.00     0.174 A 
ATOM      3  C3  BZF d   1       5.997  -3.079  -1.732  0.00  0.00    -0.012 A 
ATOM      4  C3A BZF d   1       5.937  -3.613  -3.058  0.00  0.00    -0.107 A 
ATOM      5  C4  BZF d   1       5.908  -3.044  -4.299  0.00  0.00     0.055 A 
ATOM      6  C5  BZF d   1       5.924  -3.848  -5.395  0.00  0.00    -0.016 A 
ATOM      7  C6  BZF d   1       5.974  -5.222  -5.286  0.00  0.00     0.022 A 
ATOM      8  C7  BZF d   1       5.999  -5.833  -4.077  0.00  0.00     0.029 A 
ATOM      9  C7A BZF d   1       5.950  -5.024  -2.967  0.00  0.00     0.058 A 
ENDROOT
TORSDOF 0
ENDMDL
