MODEL 1
REMARK minimizedAffinity -2.96373153
REMARK minimizedRMSD -1
REMARK  0 active torsions:
REMARK  status: ('A' for Active; 'I' for Inactive)
ROOT
ATOM      1  O1  BZF d   1       5.604  -4.870   2.539  0.00  0.00    -0.204 OA
ATOM      2  C2  BZF d   1       5.999  -3.888   1.651  0.00  0.00     0.174 A 
ATOM      3  C3  BZF d   1       5.999  -2.678   2.246  0.00  0.00    -0.012 A 
ATOM      4  C3A BZF d   1       5.668  -2.930   3.614  0.00  0.00    -0.107 A 
ATOM      5  C4  BZF d   1       5.528  -2.128   4.710  0.00  0.00     0.055 A 
ATOM      6  C5  BZF d   1       5.126  -2.678   5.885  0.00  0.00    -0.016 A 
ATOM      7  C6  BZF d   1       4.850  -4.025   5.999  0.00  0.00     0.022 A 
ATOM      8  C7  BZF d   1       4.979  -4.862   4.941  0.00  0.00     0.029 A 
ATOM      9  C7A BZF d   1       5.417  -4.314   3.761  0.00  0.00     0.058 A 
ENDROOT
TORSDOF 0
ENDMDL
