MODEL 1
REMARK minimizedAffinity -3.2811985
REMARK minimizedRMSD -1
REMARK  0 active torsions:
REMARK  status: ('A' for Active; 'I' for Inactive)
ROOT
ATOM      1  O1  BZF d   1       3.947  -5.068   5.717  0.00  0.00    -0.204 OA
ATOM      2  C2  BZF d   1       3.481  -6.000   4.809  0.00  0.00     0.174 A 
ATOM      3  C3  BZF d   1       3.852  -5.672   3.555  0.00  0.00    -0.012 A 
ATOM      4  C3A BZF d   1       4.674  -4.509   3.697  0.00  0.00    -0.107 A 
ATOM      5  C4  BZF d   1       5.352  -3.725   2.808  0.00  0.00     0.055 A 
ATOM      6  C5  BZF d   1       6.000  -2.620   3.263  0.00  0.00    -0.016 A 
ATOM      7  C6  BZF d   1       5.986  -2.268   4.597  0.00  0.00     0.022 A 
ATOM      8  C7  BZF d   1       5.331  -3.018   5.516  0.00  0.00     0.029 A 
ATOM      9  C7A BZF d   1       4.703  -4.153   5.065  0.00  0.00     0.058 A 
ENDROOT
TORSDOF 0
ENDMDL
