MODEL 1
REMARK minimizedAffinity -0.47288841
REMARK minimizedRMSD -1
REMARK  0 active torsions:
REMARK  status: ('A' for Active; 'I' for Inactive)
ROOT
ATOM      1  O1  BZF d   1       4.634  -5.285   2.936  0.00  0.00    -0.204 OA
ATOM      2  C2  BZF d   1       5.390  -4.874   1.855  0.00  0.00     0.174 A 
ATOM      3  C3  BZF d   1       6.000  -3.700   2.116  0.00  0.00    -0.012 A 
ATOM      4  C3A BZF d   1       5.675  -3.401   3.477  0.00  0.00    -0.107 A 
ATOM      5  C4  BZF d   1       6.000  -2.374   4.316  0.00  0.00     0.055 A 
ATOM      6  C5  BZF d   1       5.458  -2.343   5.562  0.00  0.00    -0.016 A 
ATOM      7  C6  BZF d   1       4.586  -3.318   6.000  0.00  0.00     0.022 A 
ATOM      8  C7  BZF d   1       4.237  -4.359   5.205  0.00  0.00     0.029 A 
ATOM      9  C7A BZF d   1       4.809  -4.411   3.957  0.00  0.00     0.058 A 
ENDROOT
TORSDOF 0
ENDMDL
