MODEL 1
REMARK minimizedAffinity -2.36877298
REMARK minimizedRMSD -1
REMARK  0 active torsions:
REMARK  status: ('A' for Active; 'I' for Inactive)
ROOT
ATOM      1  O1  BZF d   1       5.948  -5.130   2.546  0.00  0.00    -0.204 OA
ATOM      2  C2  BZF d   1       5.998  -4.227   1.502  0.00  0.00     0.174 A 
ATOM      3  C3  BZF d   1       5.972  -2.960   1.963  0.00  0.00    -0.012 A 
ATOM      4  C3A BZF d   1       5.994  -3.079   3.389  0.00  0.00    -0.107 A 
ATOM      5  C4  BZF d   1       6.000  -2.168   4.407  0.00  0.00     0.055 A 
ATOM      6  C5  BZF d   1       5.949  -2.612   5.690  0.00  0.00    -0.016 A 
ATOM      7  C6  BZF d   1       5.887  -3.956   5.992  0.00  0.00     0.022 A 
ATOM      8  C7  BZF d   1       5.885  -4.897   5.016  0.00  0.00     0.029 A 
ATOM      9  C7A BZF d   1       5.969  -4.453   3.719  0.00  0.00     0.058 A 
ENDROOT
TORSDOF 0
ENDMDL
