MODEL 1
REMARK minimizedAffinity 4.98321056
REMARK minimizedRMSD -1
REMARK  0 active torsions:
REMARK  status: ('A' for Active; 'I' for Inactive)
ROOT
ATOM      1  O1  BZF d   1       5.259  -4.512   5.823  0.00  0.00    -0.204 OA
ATOM      2  C2  BZF d   1       4.101  -5.245   6.000  0.00  0.00     0.174 A 
ATOM      3  C3  BZF d   1       3.193  -4.940   5.050  0.00  0.00    -0.012 A 
ATOM      4  C3A BZF d   1       3.856  -4.023   4.175  0.00  0.00    -0.107 A 
ATOM      5  C4  BZF d   1       3.479  -3.374   3.034  0.00  0.00     0.055 A 
ATOM      6  C5  BZF d   1       4.338  -2.491   2.462  0.00  0.00    -0.016 A 
ATOM      7  C6  BZF d   1       5.579  -2.229   3.006  0.00  0.00     0.022 A 
ATOM      8  C7  BZF d   1       5.999  -2.852   4.134  0.00  0.00     0.029 A 
ATOM      9  C7A BZF d   1       5.146  -3.770   4.696  0.00  0.00     0.058 A 
ENDROOT
TORSDOF 0
ENDMDL
