MODEL 1
REMARK minimizedAffinity -1.4374969
REMARK minimizedRMSD -1
REMARK  0 active torsions:
REMARK  status: ('A' for Active; 'I' for Inactive)
ROOT
ATOM      1  O1  BZF d   1       4.105  -4.399   2.657  0.00  0.00    -0.204 OA
ATOM      2  C2  BZF d   1       5.128  -4.117   1.772  0.00  0.00     0.174 A 
ATOM      3  C3  BZF d   1       6.000  -3.241   2.311  0.00  0.00    -0.012 A 
ATOM      4  C3A BZF d   1       5.540  -3.027   3.649  0.00  0.00    -0.107 A 
ATOM      5  C4  BZF d   1       5.998  -2.271   4.689  0.00  0.00     0.055 A 
ATOM      6  C5  BZF d   1       5.277  -2.226   5.840  0.00  0.00    -0.016 A 
ATOM      7  C6  BZF d   1       4.093  -2.919   5.983  0.00  0.00     0.022 A 
ATOM      8  C7  BZF d   1       3.602  -3.687   4.981  0.00  0.00     0.029 A 
ATOM      9  C7A BZF d   1       4.345  -3.761   3.828  0.00  0.00     0.058 A 
ENDROOT
TORSDOF 0
ENDMDL
