MODEL 1
REMARK minimizedAffinity -4.10912943
REMARK minimizedRMSD -1
REMARK  0 active torsions:
REMARK  status: ('A' for Active; 'I' for Inactive)
ROOT
ATOM      1  O1  BZF d   1       5.697  -5.832   2.188  0.00  0.00    -0.204 OA
ATOM      2  C2  BZF d   1       5.838  -5.322   0.912  0.00  0.00     0.174 A 
ATOM      3  C3  BZF d   1       5.922  -3.976   0.941  0.00  0.00    -0.012 A 
ATOM      4  C3A BZF d   1       5.920  -3.629   2.329  0.00  0.00    -0.107 A 
ATOM      5  C4  BZF d   1       5.998  -2.442   3.001  0.00  0.00     0.055 A 
ATOM      6  C5  BZF d   1       5.895  -2.442   4.356  0.00  0.00    -0.016 A 
ATOM      7  C6  BZF d   1       5.709  -3.607   5.070  0.00  0.00     0.022 A 
ATOM      8  C7  BZF d   1       5.631  -4.809   4.449  0.00  0.00     0.029 A 
ATOM      9  C7A BZF d   1       5.768  -4.817   3.082  0.00  0.00     0.058 A 
ENDROOT
TORSDOF 0
ENDMDL
