MODEL 1
REMARK minimizedAffinity -2.85671258
REMARK minimizedRMSD -1
REMARK  0 active torsions:
REMARK  status: ('A' for Active; 'I' for Inactive)
ROOT
ATOM      1  O1  BZF d   1       5.924  -3.733  -3.171  0.00  0.00    -0.204 OA
ATOM      2  C2  BZF d   1       5.916  -4.909  -3.895  0.00  0.00     0.174 A 
ATOM      3  C3  BZF d   1       5.984  -5.977  -3.075  0.00  0.00    -0.012 A 
ATOM      4  C3A BZF d   1       5.945  -5.437  -1.750  0.00  0.00    -0.107 A 
ATOM      5  C4  BZF d   1       5.964  -6.000  -0.506  0.00  0.00     0.055 A 
ATOM      6  C5  BZF d   1       5.987  -5.190   0.585  0.00  0.00    -0.016 A 
ATOM      7  C6  BZF d   1       5.998  -3.815   0.468  0.00  0.00     0.022 A 
ATOM      8  C7  BZF d   1       5.975  -3.211  -0.745  0.00  0.00     0.029 A 
ATOM      9  C7A BZF d   1       5.918  -4.027  -1.848  0.00  0.00     0.058 A 
ENDROOT
TORSDOF 0
ENDMDL
