MODEL 1
REMARK minimizedAffinity -2.10113096
REMARK minimizedRMSD -1
REMARK  0 active torsions:
REMARK  status: ('A' for Active; 'I' for Inactive)
ROOT
ATOM      1  O1  BZF d   1       5.979  -4.679   2.490  0.00  0.00    -0.204 OA
ATOM      2  C2  BZF d   1       5.999  -3.732   1.484  0.00  0.00     0.174 A 
ATOM      3  C3  BZF d   1       5.950  -2.486   1.998  0.00  0.00    -0.012 A 
ATOM      4  C3A BZF d   1       5.989  -2.663   3.417  0.00  0.00    -0.107 A 
ATOM      5  C4  BZF d   1       5.985  -1.796   4.472  0.00  0.00     0.055 A 
ATOM      6  C5  BZF d   1       5.957  -2.293   5.736  0.00  0.00    -0.016 A 
ATOM      7  C6  BZF d   1       5.927  -3.650   5.982  0.00  0.00     0.022 A 
ATOM      8  C7  BZF d   1       5.935  -4.550   4.968  0.00  0.00     0.029 A 
ATOM      9  C7A BZF d   1       5.997  -4.051   3.690  0.00  0.00     0.058 A 
ENDROOT
TORSDOF 0
ENDMDL
