MODEL 1
REMARK minimizedAffinity 3.03875756
REMARK minimizedRMSD -1
REMARK  1 active torsions:
REMARK  status: ('A' for Active; 'I' for Inactive)
REMARK    1  A    between atoms: C1_2  and  C2_3 
ROOT
ATOM      1  C2  UNL d   1      -0.030   5.308  -1.296  0.00  0.00    -0.081 A 
ATOM      2  C3  UNL d   1       1.253   5.555  -0.792  0.00  0.00     0.006 A 
ATOM      3  C4  UNL d   1       1.700   4.899   0.357  0.00  0.00     0.002 A 
ATOM      4  C5  UNL d   1       0.877   3.979   1.016  0.00  0.00    -0.080 A 
ATOM      5  C6  UNL d   1       1.356   3.246   2.233  0.00  0.00     0.076 C 
ATOM      6  C7  UNL d   1      -0.411   3.746   0.522  0.00  0.00     0.002 A 
ATOM      7  C8  UNL d   1      -0.859   4.402  -0.626  0.00  0.00     0.006 A 
ENDROOT
BRANCH   1   8
ATOM      8  C1  UNL d   1      -0.492   5.965  -2.571  0.00  0.00     0.054 C 
ATOM      9  C   UNL d   1      -2.009   5.941  -2.689  0.00  0.00     0.018 C 
ENDBRANCH   1   8
TORSDOF 1
ENDMDL
