MODEL 1
REMARK minimizedAffinity 11.4869061
REMARK minimizedRMSD -1
REMARK  1 active torsions:
REMARK  status: ('A' for Active; 'I' for Inactive)
REMARK    1  A    between atoms: C1_2  and  C2_3 
ROOT
ATOM      1  C2  UNL d   1       0.267   4.291   1.103  0.00  0.00    -0.081 A 
ATOM      2  C3  UNL d   1      -0.029   3.336   2.084  0.00  0.00     0.006 A 
ATOM      3  C4  UNL d   1       0.956   2.912   2.979  0.00  0.00     0.002 A 
ATOM      4  C5  UNL d   1       2.249   3.441   2.914  0.00  0.00    -0.080 A 
ATOM      5  C6  UNL d   1       3.308   3.016   3.889  0.00  0.00     0.076 C 
ATOM      6  C7  UNL d   1       2.550   4.381   1.923  0.00  0.00     0.002 A 
ATOM      7  C8  UNL d   1       1.566   4.805   1.027  0.00  0.00     0.006 A 
ENDROOT
BRANCH   1   8
ATOM      8  C1  UNL d   1      -0.810   4.798   0.178  0.00  0.00     0.054 C 
ATOM      9  C   UNL d   1      -1.621   5.908   0.829  0.00  0.00     0.018 C 
ENDBRANCH   1   8
TORSDOF 1
ENDMDL
