MODEL 1
REMARK minimizedAffinity 7.1577363
REMARK minimizedRMSD -1
REMARK  1 active torsions:
REMARK  status: ('A' for Active; 'I' for Inactive)
REMARK    1  A    between atoms: C1_2  and  C2_3 
ROOT
ATOM      1  C2  UNL d   1      -0.130   3.676   1.314  0.00  0.00    -0.081 A 
ATOM      2  C3  UNL d   1       0.216   2.899   0.202  0.00  0.00     0.006 A 
ATOM      3  C4  UNL d   1       0.521   3.506  -1.019  0.00  0.00     0.002 A 
ATOM      4  C5  UNL d   1       0.492   4.899  -1.145  0.00  0.00    -0.080 A 
ATOM      5  C6  UNL d   1       0.846   5.565  -2.442  0.00  0.00     0.076 C 
ATOM      6  C7  UNL d   1       0.129   5.674  -0.039  0.00  0.00     0.002 A 
ATOM      7  C8  UNL d   1      -0.177   5.068   1.181  0.00  0.00     0.006 A 
ENDROOT
BRANCH   1   8
ATOM      8  C1  UNL d   1      -0.397   3.027   2.649  0.00  0.00     0.054 C 
ATOM      9  C   UNL d   1       0.901   2.656   3.352  0.00  0.00     0.018 C 
ENDBRANCH   1   8
TORSDOF 1
ENDMDL
