MODEL 1
REMARK minimizedAffinity 12.6116962
REMARK minimizedRMSD -1
REMARK  1 active torsions:
REMARK  status: ('A' for Active; 'I' for Inactive)
REMARK    1  A    between atoms: C1_2  and  C2_3 
ROOT
ATOM      1  C2  UNL d   1       0.344   2.132  -0.019  0.00  0.00    -0.081 A 
ATOM      2  C3  UNL d   1      -0.067   2.308   1.308  0.00  0.00     0.006 A 
ATOM      3  C4  UNL d   1      -0.490   3.560   1.758  0.00  0.00     0.002 A 
ATOM      4  C5  UNL d   1      -0.517   4.655   0.888  0.00  0.00    -0.080 A 
ATOM      5  C6  UNL d   1      -0.998   5.999   1.351  0.00  0.00     0.076 C 
ATOM      6  C7  UNL d   1      -0.091   4.484  -0.433  0.00  0.00     0.002 A 
ATOM      7  C8  UNL d   1       0.333   3.232  -0.884  0.00  0.00     0.006 A 
ENDROOT
BRANCH   1   8
ATOM      8  C1  UNL d   1       0.739   0.768  -0.525  0.00  0.00     0.054 C 
ATOM      9  C   UNL d   1      -0.445   0.044  -1.149  0.00  0.00     0.018 C 
ENDBRANCH   1   8
TORSDOF 1
ENDMDL
