MODEL 1
REMARK minimizedAffinity 10.3589134
REMARK minimizedRMSD -1
REMARK  1 active torsions:
REMARK  status: ('A' for Active; 'I' for Inactive)
REMARK    1  A    between atoms: C1_2  and  C2_3 
ROOT
ATOM      1  C2  UNL d   1      -0.054   1.824  -0.021  0.00  0.00    -0.081 A 
ATOM      2  C3  UNL d   1       0.937   1.027  -0.607  0.00  0.00     0.006 A 
ATOM      3  C4  UNL d   1       0.589  -0.025  -1.458  0.00  0.00     0.002 A 
ATOM      4  C5  UNL d   1      -0.754  -0.292  -1.742  0.00  0.00    -0.080 A 
ATOM      5  C6  UNL d   1      -1.140  -1.400  -2.677  0.00  0.00     0.076 C 
ATOM      6  C7  UNL d   1      -1.745   0.493  -1.143  0.00  0.00     0.002 A 
ATOM      7  C8  UNL d   1      -1.398   1.544  -0.292  0.00  0.00     0.006 A 
ENDROOT
BRANCH   1   8
ATOM      8  C1  UNL d   1       0.321   3.000   0.845  0.00  0.00     0.054 C 
ATOM      9  C   UNL d   1       0.423   4.279   0.027  0.00  0.00     0.018 C 
ENDBRANCH   1   8
TORSDOF 1
ENDMDL
