MODEL 1
REMARK minimizedAffinity 7.24470329
REMARK minimizedRMSD -1
REMARK  1 active torsions:
REMARK  status: ('A' for Active; 'I' for Inactive)
REMARK    1  A    between atoms: C1_2  and  C2_3 
ROOT
ATOM      1  C2  UNL d   1      -0.921   5.350  -1.269  0.00  0.00    -0.081 A 
ATOM      2  C3  UNL d   1      -0.256   4.119  -1.322  0.00  0.00     0.006 A 
ATOM      3  C4  UNL d   1       0.165   3.489  -0.149  0.00  0.00     0.002 A 
ATOM      4  C5  UNL d   1      -0.079   4.076   1.098  0.00  0.00    -0.080 A 
ATOM      5  C6  UNL d   1       0.341   3.397   2.367  0.00  0.00     0.076 C 
ATOM      6  C7  UNL d   1      -0.727   5.315   1.151  0.00  0.00     0.002 A 
ATOM      7  C8  UNL d   1      -1.148   5.945  -0.023  0.00  0.00     0.006 A 
ENDROOT
BRANCH   1   8
ATOM      8  C1  UNL d   1      -1.433   6.000  -2.529  0.00  0.00     0.054 C 
ATOM      9  C   UNL d   1      -0.375   5.998  -3.622  0.00  0.00     0.018 C 
ENDBRANCH   1   8
TORSDOF 1
ENDMDL
