MODEL 1
REMARK minimizedAffinity -1.96222138
REMARK minimizedRMSD -1
REMARK  0 active torsions:
REMARK  status: ('A' for Active; 'I' for Inactive)
ROOT
ATOM      1  C   UNL d   1      -2.699  -3.485  -1.939  0.00  0.00     0.077 C 
ATOM      2  C1  UNL d   1      -1.515  -2.813  -1.310  0.00  0.00    -0.074 A 
ATOM      3  C2  UNL d   1      -0.219  -3.296  -1.520  0.00  0.00    -0.005 A 
ATOM      4  C3  UNL d   1       0.873  -2.654  -0.936  0.00  0.00     0.006 A 
ATOM      5  C4  UNL d   1       0.682  -1.526  -0.138  0.00  0.00    -0.005 A 
ATOM      6  C5  UNL d   1      -0.607  -1.029   0.083  0.00  0.00    -0.074 A 
ATOM      7  C6  UNL d   1      -0.830   0.188   0.930  0.00  0.00     0.077 C 
ATOM      8  C7  UNL d   1      -1.699  -1.675  -0.513  0.00  0.00    -0.001 A 
ENDROOT
TORSDOF 0
ENDMDL
