MODEL 1
REMARK minimizedAffinity -5.15594864
REMARK minimizedRMSD -1
REMARK  0 active torsions:
REMARK  status: ('A' for Active; 'I' for Inactive)
ROOT
ATOM      1  C   UNL d   1       2.610   2.247   0.765  0.00  0.00     0.077 C 
ATOM      2  C1  UNL d   1       1.261   1.671   0.453  0.00  0.00    -0.074 A 
ATOM      3  C2  UNL d   1       0.106   2.454   0.548  0.00  0.00    -0.005 A 
ATOM      4  C3  UNL d   1      -1.141   1.907   0.245  0.00  0.00     0.006 A 
ATOM      5  C4  UNL d   1      -1.246   0.575  -0.156  0.00  0.00    -0.005 A 
ATOM      6  C5  UNL d   1      -0.102  -0.223  -0.258  0.00  0.00    -0.074 A 
ATOM      7  C6  UNL d   1      -0.195  -1.654  -0.697  0.00  0.00     0.077 C 
ATOM      8  C7  UNL d   1       1.148   0.335   0.042  0.00  0.00    -0.001 A 
ENDROOT
TORSDOF 0
ENDMDL
