MODEL 1
REMARK minimizedAffinity -4.5586319
REMARK minimizedRMSD -1
REMARK  0 active torsions:
REMARK  status: ('A' for Active; 'I' for Inactive)
ROOT
ATOM      1  C   UNL d   1      -0.465  -1.157   0.203  0.00  0.00     0.077 C 
ATOM      2  C1  UNL d   1       0.014   0.263   0.266  0.00  0.00    -0.074 A 
ATOM      3  C2  UNL d   1      -0.893   1.327   0.280  0.00  0.00    -0.005 A 
ATOM      4  C3  UNL d   1      -0.434   2.642   0.348  0.00  0.00     0.006 A 
ATOM      5  C4  UNL d   1       0.935   2.906   0.403  0.00  0.00    -0.005 A 
ATOM      6  C5  UNL d   1       1.857   1.855   0.390  0.00  0.00    -0.074 A 
ATOM      7  C6  UNL d   1       3.332   2.121   0.458  0.00  0.00     0.077 C 
ATOM      8  C7  UNL d   1       1.388   0.536   0.329  0.00  0.00    -0.001 A 
ENDROOT
TORSDOF 0
ENDMDL
