MODEL 1
REMARK minimizedAffinity -5.38982153
REMARK minimizedRMSD -1
REMARK  0 active torsions:
REMARK  status: ('A' for Active; 'I' for Inactive)
ROOT
ATOM      1  C   UNL d   1       0.652   3.334  -0.363  0.00  0.00     0.077 C 
ATOM      2  C1  UNL d   1       0.000   2.029  -0.015  0.00  0.00    -0.074 A 
ATOM      3  C2  UNL d   1      -1.343   1.977   0.372  0.00  0.00    -0.005 A 
ATOM      4  C3  UNL d   1      -1.938   0.755   0.684  0.00  0.00     0.006 A 
ATOM      5  C4  UNL d   1      -1.198  -0.426   0.611  0.00  0.00    -0.005 A 
ATOM      6  C5  UNL d   1       0.145  -0.394   0.225  0.00  0.00    -0.074 A 
ATOM      7  C6  UNL d   1       0.952  -1.655   0.132  0.00  0.00     0.077 C 
ATOM      8  C7  UNL d   1       0.735   0.837  -0.094  0.00  0.00    -0.001 A 
ENDROOT
TORSDOF 0
ENDMDL
