MODEL 1
REMARK minimizedAffinity -5.35642576
REMARK minimizedRMSD -1
REMARK  0 active torsions:
REMARK  status: ('A' for Active; 'I' for Inactive)
ROOT
ATOM      1  C   UNL d   1       0.418   3.291  -0.723  0.00  0.00     0.077 C 
ATOM      2  C1  UNL d   1       0.078   1.883  -0.335  0.00  0.00    -0.074 A 
ATOM      3  C2  UNL d   1      -1.013   1.609   0.496  0.00  0.00    -0.005 A 
ATOM      4  C3  UNL d   1      -1.322   0.293   0.840  0.00  0.00     0.006 A 
ATOM      5  C4  UNL d   1      -0.545  -0.760   0.358  0.00  0.00    -0.005 A 
ATOM      6  C5  UNL d   1       0.549  -0.506  -0.475  0.00  0.00    -0.074 A 
ATOM      7  C6  UNL d   1       1.389  -1.628  -1.011  0.00  0.00     0.077 C 
ATOM      8  C7  UNL d   1       0.849   0.818  -0.822  0.00  0.00    -0.001 A 
ENDROOT
TORSDOF 0
ENDMDL
