MODEL 1
REMARK minimizedAffinity -3.49839497
REMARK minimizedRMSD -1
REMARK  0 active torsions:
REMARK  status: ('A' for Active; 'I' for Inactive)
ROOT
ATOM      1  C   UNL d   1       0.299  -1.418  -0.046  0.00  0.00     0.077 C 
ATOM      2  C1  UNL d   1       0.208   0.079  -0.051  0.00  0.00    -0.074 A 
ATOM      3  C2  UNL d   1       1.236   0.860  -0.589  0.00  0.00    -0.005 A 
ATOM      4  C3  UNL d   1       1.133   2.251  -0.595  0.00  0.00     0.006 A 
ATOM      5  C4  UNL d   1       0.004   2.874  -0.064  0.00  0.00    -0.005 A 
ATOM      6  C5  UNL d   1      -1.035   2.110   0.477  0.00  0.00    -0.074 A 
ATOM      7  C6  UNL d   1      -2.260   2.764   1.043  0.00  0.00     0.077 C 
ATOM      8  C7  UNL d   1      -0.927   0.712   0.473  0.00  0.00    -0.001 A 
ENDROOT
TORSDOF 0
ENDMDL
