MODEL 1
REMARK minimizedAffinity -1.51076102
REMARK minimizedRMSD -1
REMARK  0 active torsions:
REMARK  status: ('A' for Active; 'I' for Inactive)
ROOT
ATOM      1  C   UNL d   1       0.485   3.441  -0.360  0.00  0.00     0.077 C 
ATOM      2  C1  UNL d   1       0.000   2.064  -0.015  0.00  0.00    -0.074 A 
ATOM      3  C2  UNL d   1      -1.236   1.872   0.611  0.00  0.00    -0.005 A 
ATOM      4  C3  UNL d   1      -1.677   0.585   0.917  0.00  0.00     0.006 A 
ATOM      5  C4  UNL d   1      -0.889  -0.522   0.601  0.00  0.00    -0.005 A 
ATOM      6  C5  UNL d   1       0.350  -0.350  -0.026  0.00  0.00    -0.074 A 
ATOM      7  C6  UNL d   1       1.205  -1.530  -0.381  0.00  0.00     0.077 C 
ATOM      8  C7  UNL d   1       0.783   0.946  -0.336  0.00  0.00    -0.001 A 
ENDROOT
TORSDOF 0
ENDMDL
