MODEL 1
REMARK minimizedAffinity -5.23918009
REMARK minimizedRMSD -1
REMARK  0 active torsions:
REMARK  status: ('A' for Active; 'I' for Inactive)
ROOT
ATOM      1  C   UNL d   1       2.548   1.951  -0.422  0.00  0.00     0.077 C 
ATOM      2  C1  UNL d   1       1.157   1.490  -0.102  0.00  0.00    -0.074 A 
ATOM      3  C2  UNL d   1       0.203   2.379   0.401  0.00  0.00    -0.005 A 
ATOM      4  C3  UNL d   1      -1.090   1.938   0.685  0.00  0.00     0.006 A 
ATOM      5  C4  UNL d   1      -1.440   0.604   0.469  0.00  0.00    -0.005 A 
ATOM      6  C5  UNL d   1      -0.499  -0.299  -0.035  0.00  0.00    -0.074 A 
ATOM      7  C6  UNL d   1      -0.862  -1.734  -0.282  0.00  0.00     0.077 C 
ATOM      8  C7  UNL d   1       0.796   0.154  -0.324  0.00  0.00    -0.001 A 
ENDROOT
TORSDOF 0
ENDMDL
