MODEL 1
REMARK minimizedAffinity -5.5442462
REMARK minimizedRMSD -1
REMARK  0 active torsions:
REMARK  status: ('A' for Active; 'I' for Inactive)
ROOT
ATOM      1  C   UNL d   1       0.260   3.453  -0.622  0.00  0.00     0.077 C 
ATOM      2  C1  UNL d   1      -0.270   2.094  -0.271  0.00  0.00    -0.074 A 
ATOM      3  C2  UNL d   1      -1.638   1.887  -0.067  0.00  0.00    -0.005 A 
ATOM      4  C3  UNL d   1      -2.117   0.616   0.250  0.00  0.00     0.006 A 
ATOM      5  C4  UNL d   1      -1.235  -0.459   0.366  0.00  0.00    -0.005 A 
ATOM      6  C5  UNL d   1       0.136  -0.271   0.166  0.00  0.00    -0.074 A 
ATOM      7  C6  UNL d   1       1.097  -1.417   0.277  0.00  0.00     0.077 C 
ATOM      8  C7  UNL d   1       0.609   1.008  -0.159  0.00  0.00    -0.001 A 
ENDROOT
TORSDOF 0
ENDMDL
