MODEL 1
REMARK minimizedAffinity -1.82764423
REMARK minimizedRMSD -1
REMARK  0 active torsions:
REMARK  status: ('A' for Active; 'I' for Inactive)
ROOT
ATOM      1  C   UNL d   1       0.110  -2.083  -0.663  0.00  0.00     0.077 C 
ATOM      2  C1  UNL d   1      -0.133  -0.649  -0.298  0.00  0.00    -0.074 A 
ATOM      3  C2  UNL d   1      -1.352  -0.245   0.255  0.00  0.00    -0.005 A 
ATOM      4  C3  UNL d   1      -1.560   1.091   0.599  0.00  0.00     0.006 A 
ATOM      5  C4  UNL d   1      -0.552   2.034   0.393  0.00  0.00    -0.005 A 
ATOM      6  C5  UNL d   1       0.674   1.649  -0.158  0.00  0.00    -0.074 A 
ATOM      7  C6  UNL d   1       1.771   2.648  -0.377  0.00  0.00     0.077 C 
ATOM      8  C7  UNL d   1       0.877   0.303  -0.494  0.00  0.00    -0.001 A 
ENDROOT
TORSDOF 0
ENDMDL
