MODEL 1
REMARK minimizedAffinity -3.30430388
REMARK minimizedRMSD -1
REMARK  0 active torsions:
REMARK  status: ('A' for Active; 'I' for Inactive)
ROOT
ATOM      1  C   UNL d   1       0.495   3.613  -0.154  0.00  0.00     0.077 C 
ATOM      2  C1  UNL d   1      -0.062   2.220  -0.147  0.00  0.00    -0.074 A 
ATOM      3  C2  UNL d   1      -1.438   1.997  -0.030  0.00  0.00    -0.005 A 
ATOM      4  C3  UNL d   1      -1.942   0.696  -0.035  0.00  0.00     0.006 A 
ATOM      5  C4  UNL d   1      -1.077  -0.392  -0.157  0.00  0.00    -0.005 A 
ATOM      6  C5  UNL d   1       0.301  -0.188  -0.276  0.00  0.00    -0.074 A 
ATOM      7  C6  UNL d   1       1.244  -1.346  -0.418  0.00  0.00     0.077 C 
ATOM      8  C7  UNL d   1       0.800   1.122  -0.278  0.00  0.00    -0.001 A 
ENDROOT
TORSDOF 0
ENDMDL
