MODEL 1
REMARK minimizedAffinity -5.28696251
REMARK minimizedRMSD -1
REMARK  0 active torsions:
REMARK  status: ('A' for Active; 'I' for Inactive)
ROOT
ATOM      1  C   UNL d   1       1.197   2.819   0.321  0.00  0.00     0.077 C 
ATOM      2  C1  UNL d   1       0.075   1.829   0.221  0.00  0.00    -0.074 A 
ATOM      3  C2  UNL d   1      -1.244   2.207   0.494  0.00  0.00    -0.005 A 
ATOM      4  C3  UNL d   1      -2.278   1.278   0.388  0.00  0.00     0.006 A 
ATOM      5  C4  UNL d   1      -2.006  -0.036   0.008  0.00  0.00    -0.005 A 
ATOM      6  C5  UNL d   1      -0.694  -0.433  -0.271  0.00  0.00    -0.074 A 
ATOM      7  C6  UNL d   1      -0.384  -1.839  -0.690  0.00  0.00     0.077 C 
ATOM      8  C7  UNL d   1       0.340   0.509  -0.168  0.00  0.00    -0.001 A 
ENDROOT
TORSDOF 0
ENDMDL
