MODEL 1
REMARK minimizedAffinity -3.83546996
REMARK minimizedRMSD -1
REMARK  0 active torsions:
REMARK  status: ('A' for Active; 'I' for Inactive)
ROOT
ATOM      1  C   UNL d   1       1.118   3.109  -0.318  0.00  0.00     0.077 C 
ATOM      2  C1  UNL d   1       0.313   1.871  -0.056  0.00  0.00    -0.074 A 
ATOM      3  C2  UNL d   1      -1.022   1.954   0.351  0.00  0.00    -0.005 A 
ATOM      4  C3  UNL d   1      -1.761   0.794   0.582  0.00  0.00     0.006 A 
ATOM      5  C4  UNL d   1      -1.173  -0.459   0.408  0.00  0.00    -0.005 A 
ATOM      6  C5  UNL d   1       0.161  -0.563   0.001  0.00  0.00    -0.074 A 
ATOM      7  C6  UNL d   1       0.805  -1.902  -0.200  0.00  0.00     0.077 C 
ATOM      8  C7  UNL d   1       0.895   0.608  -0.236  0.00  0.00    -0.001 A 
ENDROOT
TORSDOF 0
ENDMDL
