MODEL 1
REMARK minimizedAffinity -2.5611279
REMARK minimizedRMSD -1
REMARK  0 active torsions:
REMARK  status: ('A' for Active; 'I' for Inactive)
ROOT
ATOM      1  C   UNL d   1       2.719  -0.401   0.226  0.00  0.00     0.077 C 
ATOM      2  C1  UNL d   1       1.316   0.128   0.197  0.00  0.00    -0.074 A 
ATOM      3  C2  UNL d   1       0.228  -0.707   0.469  0.00  0.00    -0.005 A 
ATOM      4  C3  UNL d   1      -1.071  -0.199   0.447  0.00  0.00     0.006 A 
ATOM      5  C4  UNL d   1      -1.294   1.146   0.153  0.00  0.00    -0.005 A 
ATOM      6  C5  UNL d   1      -0.219   1.997  -0.121  0.00  0.00    -0.074 A 
ATOM      7  C6  UNL d   1      -0.440   3.448  -0.429  0.00  0.00     0.077 C 
ATOM      8  C7  UNL d   1       1.084   1.480  -0.090  0.00  0.00    -0.001 A 
ENDROOT
TORSDOF 0
ENDMDL
