MODEL 1
REMARK minimizedAffinity -1.62705314
REMARK minimizedRMSD -1
REMARK  0 active torsions:
REMARK  status: ('A' for Active; 'I' for Inactive)
ROOT
ATOM      1  C   UNL d   1      -0.099   3.489   1.721  0.00  0.00     0.077 C 
ATOM      2  C1  UNL d   1       0.005   2.420   0.674  0.00  0.00    -0.074 A 
ATOM      3  C2  UNL d   1       0.579   2.689  -0.573  0.00  0.00    -0.005 A 
ATOM      4  C3  UNL d   1       0.677   1.682  -1.534  0.00  0.00     0.006 A 
ATOM      5  C4  UNL d   1       0.204   0.399  -1.258  0.00  0.00    -0.005 A 
ATOM      6  C5  UNL d   1      -0.373   0.111  -0.016  0.00  0.00    -0.074 A 
ATOM      7  C6  UNL d   1      -0.878  -1.265   0.301  0.00  0.00     0.077 C 
ATOM      8  C7  UNL d   1      -0.461   1.127   0.946  0.00  0.00    -0.001 A 
ENDROOT
TORSDOF 0
ENDMDL
