MODEL 1
REMARK minimizedAffinity 12.5051403
REMARK minimizedRMSD -1
REMARK  0 active torsions:
REMARK  status: ('A' for Active; 'I' for Inactive)
ROOT
ATOM      1  C   UNL d   1       0.048  -4.791  -3.609  0.00  0.00     0.077 C 
ATOM      2  C1  UNL d   1       1.153  -4.812  -2.595  0.00  0.00    -0.074 A 
ATOM      3  C2  UNL d   1       1.355  -5.928  -1.776  0.00  0.00    -0.005 A 
ATOM      4  C3  UNL d   1       2.393  -5.937  -0.843  0.00  0.00     0.006 A 
ATOM      5  C4  UNL d   1       3.237  -4.833  -0.721  0.00  0.00    -0.005 A 
ATOM      6  C5  UNL d   1       3.051  -3.709  -1.532  0.00  0.00    -0.074 A 
ATOM      7  C6  UNL d   1       3.955  -2.518  -1.420  0.00  0.00     0.077 C 
ATOM      8  C7  UNL d   1       2.010  -3.710  -2.471  0.00  0.00    -0.001 A 
ENDROOT
TORSDOF 0
ENDMDL
