MODEL 1
REMARK minimizedAffinity -3.53523564
REMARK minimizedRMSD -1
REMARK  0 active torsions:
REMARK  status: ('A' for Active; 'I' for Inactive)
ROOT
ATOM      1  C   UNL d   1       0.598   3.639  -0.761  0.00  0.00     0.077 C 
ATOM      2  C1  UNL d   1      -0.026   2.379  -0.240  0.00  0.00    -0.074 A 
ATOM      3  C2  UNL d   1      -1.328   2.379   0.271  0.00  0.00    -0.005 A 
ATOM      4  C3  UNL d   1      -1.898   1.197   0.743  0.00  0.00     0.006 A 
ATOM      5  C4  UNL d   1      -1.174   0.005   0.709  0.00  0.00    -0.005 A 
ATOM      6  C5  UNL d   1       0.128  -0.015   0.200  0.00  0.00    -0.074 A 
ATOM      7  C6  UNL d   1       0.917  -1.290   0.147  0.00  0.00     0.077 C 
ATOM      8  C7  UNL d   1       0.692   1.175  -0.278  0.00  0.00    -0.001 A 
ENDROOT
TORSDOF 0
ENDMDL
