MODEL 1
REMARK minimizedAffinity 15.0692682
REMARK minimizedRMSD -1
REMARK  3 active torsions:
REMARK  status: ('A' for Active; 'I' for Inactive)
REMARK    1  A    between atoms: C3'_2  and  C2'_3 
REMARK    2  A    between atoms: C2'_3  and  C1'_4 
REMARK    3  A    between atoms: C1'_4  and  C1_5 
ROOT
ATOM      1  C1  N4B d   1      -5.897   3.197  -1.147  0.00  0.00    -0.075 A 
ATOM      2  C2  N4B d   1      -5.872   3.882  -2.382  0.00  0.00     0.002 A 
ATOM      3  C3  N4B d   1      -5.912   5.255  -2.406  0.00  0.00     0.002 A 
ATOM      4  C4  N4B d   1      -5.997   5.960  -1.215  0.00  0.00    -0.004 A 
ATOM      5  C5  N4B d   1      -5.996   5.291  -0.026  0.00  0.00     0.002 A 
ATOM      6  C6  N4B d   1      -5.952   3.912   0.014  0.00  0.00     0.002 A 
ENDROOT
BRANCH   1   7
ATOM      7  C1' N4B d   1      -5.942   1.695  -1.073  0.00  0.00     0.057 C 
BRANCH   7   8
ATOM      8  C2' N4B d   1      -5.810   1.120  -2.480  0.00  0.00     0.009 C 
BRANCH   8   9
ATOM      9  C3' N4B d   1      -5.386  -0.338  -2.461  0.00  0.00     0.004 C 
ATOM     10  C4' N4B d   1      -4.016  -0.552  -3.031  0.00  0.00     0.003 C 
ENDBRANCH   8   9
ENDBRANCH   7   8
ENDBRANCH   1   7
TORSDOF 3
ENDMDL
