MODEL 1
REMARK minimizedAffinity 8.34591389
REMARK minimizedRMSD -1
REMARK  3 active torsions:
REMARK  status: ('A' for Active; 'I' for Inactive)
REMARK    1  A    between atoms: C3'_2  and  C2'_3 
REMARK    2  A    between atoms: C2'_3  and  C1'_4 
REMARK    3  A    between atoms: C1'_4  and  C1_5 
ROOT
ATOM      1  C1  N4B d   1      -0.053  -0.811  -4.704  0.00  0.00    -0.075 A 
ATOM      2  C2  N4B d   1       0.813   0.304  -4.671  0.00  0.00     0.002 A 
ATOM      3  C3  N4B d   1       2.165   0.128  -4.833  0.00  0.00     0.002 A 
ATOM      4  C4  N4B d   1       2.674  -1.150  -5.010  0.00  0.00    -0.004 A 
ATOM      5  C5  N4B d   1       1.828  -2.219  -5.066  0.00  0.00     0.002 A 
ATOM      6  C6  N4B d   1       0.466  -2.057  -4.908  0.00  0.00     0.002 A 
ENDROOT
BRANCH   1   7
ATOM      7  C1' N4B d   1      -1.529  -0.678  -4.445  0.00  0.00     0.057 C 
BRANCH   7   8
ATOM      8  C2' N4B d   1      -1.944  -1.687  -3.378  0.00  0.00     0.009 C 
BRANCH   8   9
ATOM      9  C3' N4B d   1      -1.121  -1.544  -2.110  0.00  0.00     0.004 C 
ATOM     10  C4' N4B d   1      -1.874  -1.952  -0.879  0.00  0.00     0.003 C 
ENDBRANCH   8   9
ENDBRANCH   7   8
ENDBRANCH   1   7
TORSDOF 3
ENDMDL
