MODEL 1
REMARK minimizedAffinity 16.9008522
REMARK minimizedRMSD -1
REMARK  3 active torsions:
REMARK  status: ('A' for Active; 'I' for Inactive)
REMARK    1  A    between atoms: C3'_2  and  C2'_3 
REMARK    2  A    between atoms: C2'_3  and  C1'_4 
REMARK    3  A    between atoms: C1'_4  and  C1_5 
ROOT
ATOM      1  C1  N4B d   1       3.386  -2.498  -5.084  0.00  0.00    -0.075 A 
ATOM      2  C2  N4B d   1       3.667  -2.690  -3.713  0.00  0.00     0.002 A 
ATOM      3  C3  N4B d   1       4.967  -2.687  -3.271  0.00  0.00     0.002 A 
ATOM      4  C4  N4B d   1       6.000  -2.513  -4.180  0.00  0.00    -0.004 A 
ATOM      5  C5  N4B d   1       5.719  -2.303  -5.499  0.00  0.00     0.002 A 
ATOM      6  C6  N4B d   1       4.417  -2.300  -5.956  0.00  0.00     0.002 A 
ENDROOT
BRANCH   1   7
ATOM      7  C1' N4B d   1       1.986  -2.580  -5.627  0.00  0.00     0.057 C 
BRANCH   7   8
ATOM      8  C2' N4B d   1       1.030  -1.899  -4.651  0.00  0.00     0.009 C 
BRANCH   8   9
ATOM      9  C3' N4B d   1       0.255  -0.770  -5.309  0.00  0.00     0.004 C 
ATOM     10  C4' N4B d   1      -0.753  -0.146  -4.391  0.00  0.00     0.003 C 
ENDBRANCH   8   9
ENDBRANCH   7   8
ENDBRANCH   1   7
TORSDOF 3
ENDMDL
