MODEL 1
REMARK minimizedAffinity 10.2979317
REMARK minimizedRMSD -1
REMARK  3 active torsions:
REMARK  status: ('A' for Active; 'I' for Inactive)
REMARK    1  A    between atoms: C3'_2  and  C2'_3 
REMARK    2  A    between atoms: C2'_3  and  C1'_4 
REMARK    3  A    between atoms: C1'_4  and  C1_5 
ROOT
ATOM      1  C1  N4B d   1       1.058  -1.460   4.125  0.00  0.00    -0.075 A 
ATOM      2  C2  N4B d   1       1.455  -0.170   4.538  0.00  0.00     0.002 A 
ATOM      3  C3  N4B d   1       1.104   0.928   3.791  0.00  0.00     0.002 A 
ATOM      4  C4  N4B d   1       0.374   0.759   2.624  0.00  0.00    -0.004 A 
ATOM      5  C5  N4B d   1      -0.028  -0.488   2.246  0.00  0.00     0.002 A 
ATOM      6  C6  N4B d   1       0.315  -1.601   2.988  0.00  0.00     0.002 A 
ENDROOT
BRANCH   1   7
ATOM      7  C1' N4B d   1       1.492  -2.698   4.861  0.00  0.00     0.057 C 
BRANCH   7   8
ATOM      8  C2' N4B d   1       3.016  -2.750   4.900  0.00  0.00     0.009 C 
BRANCH   8   9
ATOM      9  C3' N4B d   1       3.526  -3.665   6.000  0.00  0.00     0.004 C 
ATOM     10  C4' N4B d   1       4.993  -3.955   5.881  0.00  0.00     0.003 C 
ENDBRANCH   8   9
ENDBRANCH   7   8
ENDBRANCH   1   7
TORSDOF 3
ENDMDL
