MODEL 1
REMARK minimizedAffinity -2.63479924
REMARK minimizedRMSD -1
REMARK  1 active torsions:
REMARK  status: ('A' for Active; 'I' for Inactive)
REMARK    1  A    between atoms: N_2  and  C1_3 
ROOT
ATOM      1  C1  UNL d   1       5.666  -4.542   4.026  0.00  0.00     0.143 A 
ATOM      2  C2  UNL d   1       5.602  -4.281   2.653  0.00  0.00    -0.057 A 
ATOM      3  C3  UNL d   1       5.221  -3.023   2.169  0.00  0.00     0.033 A 
ATOM      4  C4  UNL d   1       4.869  -2.009   3.054  0.00  0.00    -0.042 A 
ATOM      5  C5  UNL d   1       4.902  -2.253   4.422  0.00  0.00     0.033 A 
ATOM      6  C6  UNL d   1       5.289  -3.509   4.899  0.00  0.00    -0.057 A 
ENDROOT
BRANCH   1   7
ATOM      7  N   UNL d   1       5.941  -5.800   4.567  0.00  0.00    -0.732 N 
ATOM      8  C   UNL d   1       5.958  -5.998   6.000  0.00  0.00     0.284 C 
ATOM      9  H3  UNL d   1       5.494  -6.552   4.048  0.00  0.00     0.395 HD
ENDBRANCH   1   7
TORSDOF 1
ENDMDL
