MODEL 1
REMARK minimizedAffinity 5.9544735
REMARK minimizedRMSD -1
REMARK  1 active torsions:
REMARK  status: ('A' for Active; 'I' for Inactive)
REMARK    1  A    between atoms: N_2  and  C1_3 
ROOT
ATOM      1  C1  UNL d   1       5.608  -5.309   3.539  0.00  0.00     0.143 A 
ATOM      2  C2  UNL d   1       5.930  -5.966   4.731  0.00  0.00    -0.057 A 
ATOM      3  C3  UNL d   1       5.976  -5.279   5.950  0.00  0.00     0.033 A 
ATOM      4  C4  UNL d   1       5.729  -3.910   5.993  0.00  0.00    -0.042 A 
ATOM      5  C5  UNL d   1       5.432  -3.232   4.816  0.00  0.00     0.033 A 
ATOM      6  C6  UNL d   1       5.381  -3.926   3.603  0.00  0.00    -0.057 A 
ENDROOT
BRANCH   1   7
ATOM      7  N   UNL d   1       5.643  -5.918   2.282  0.00  0.00    -0.732 N 
ATOM      8  C   UNL d   1       5.991  -5.154   1.102  0.00  0.00     0.284 C 
ATOM      9  H3  UNL d   1       6.055  -6.847   2.311  0.00  0.00     0.395 HD
ENDBRANCH   1   7
TORSDOF 1
ENDMDL
