MODEL 1
REMARK minimizedAffinity -3.28237176
REMARK minimizedRMSD -1
REMARK  1 active torsions:
REMARK  status: ('A' for Active; 'I' for Inactive)
REMARK    1  A    between atoms: N_2  and  C1_3 
ROOT
ATOM      1  C1  UNL d   1       4.784  -4.245   4.210  0.00  0.00     0.143 A 
ATOM      2  C2  UNL d   1       5.393  -4.390   2.959  0.00  0.00    -0.057 A 
ATOM      3  C3  UNL d   1       6.000  -3.304   2.317  0.00  0.00     0.033 A 
ATOM      4  C4  UNL d   1       5.983  -2.043   2.903  0.00  0.00    -0.042 A 
ATOM      5  C5  UNL d   1       5.361  -1.870   4.135  0.00  0.00     0.033 A 
ATOM      6  C6  UNL d   1       4.763  -2.960   4.775  0.00  0.00    -0.057 A 
ENDROOT
BRANCH   1   7
ATOM      7  N   UNL d   1       4.078  -5.264   4.855  0.00  0.00    -0.732 N 
ATOM      8  C   UNL d   1       4.646  -5.944   5.999  0.00  0.00     0.284 C 
ATOM      9  H3  UNL d   1       3.087  -5.053   4.946  0.00  0.00     0.395 HD
ENDBRANCH   1   7
TORSDOF 1
ENDMDL
