MODEL 1
REMARK minimizedAffinity -3.02805305
REMARK minimizedRMSD -1
REMARK  1 active torsions:
REMARK  status: ('A' for Active; 'I' for Inactive)
REMARK    1  A    between atoms: N_2  and  C1_3 
ROOT
ATOM      1  C1  UNL d   1       5.369  -4.847   3.902  0.00  0.00     0.143 A 
ATOM      2  C2  UNL d   1       5.828  -3.594   3.480  0.00  0.00    -0.057 A 
ATOM      3  C3  UNL d   1       5.658  -2.453   4.274  0.00  0.00     0.033 A 
ATOM      4  C4  UNL d   1       4.997  -2.541   5.495  0.00  0.00    -0.042 A 
ATOM      5  C5  UNL d   1       4.510  -3.771   5.923  0.00  0.00     0.033 A 
ATOM      6  C6  UNL d   1       4.690  -4.908   5.128  0.00  0.00    -0.057 A 
ENDROOT
BRANCH   1   7
ATOM      7  N   UNL d   1       5.421  -6.000   3.114  0.00  0.00    -0.732 N 
ATOM      8  C   UNL d   1       5.999  -5.961   1.788  0.00  0.00     0.284 C 
ATOM      9  H3  UNL d   1       5.670  -6.826   3.652  0.00  0.00     0.395 HD
ENDBRANCH   1   7
TORSDOF 1
ENDMDL
