MODEL 1
REMARK minimizedAffinity -2.24818826
REMARK minimizedRMSD -1
REMARK  1 active torsions:
REMARK  status: ('A' for Active; 'I' for Inactive)
REMARK    1  A    between atoms: N_2  and  C1_3 
ROOT
ATOM      1  C1  UNL d   1       5.549  -4.146   5.170  0.00  0.00     0.143 A 
ATOM      2  C2  UNL d   1       5.728  -3.025   5.987  0.00  0.00    -0.057 A 
ATOM      3  C3  UNL d   1       5.937  -1.753   5.440  0.00  0.00     0.033 A 
ATOM      4  C4  UNL d   1       6.000  -1.584   4.061  0.00  0.00    -0.042 A 
ATOM      5  C5  UNL d   1       5.850  -2.688   3.229  0.00  0.00     0.033 A 
ATOM      6  C6  UNL d   1       5.635  -3.955   3.782  0.00  0.00    -0.057 A 
ENDROOT
BRANCH   1   7
ATOM      7  N   UNL d   1       5.436  -5.451   5.654  0.00  0.00    -0.732 N 
ATOM      8  C   UNL d   1       4.142  -6.000   6.000  0.00  0.00     0.284 C 
ATOM      9  H3  UNL d   1       6.046  -6.102   5.163  0.00  0.00     0.395 HD
ENDBRANCH   1   7
TORSDOF 1
ENDMDL
