MODEL 1
REMARK minimizedAffinity -3.03268027
REMARK minimizedRMSD -1
REMARK  1 active torsions:
REMARK  status: ('A' for Active; 'I' for Inactive)
REMARK    1  A    between atoms: N_2  and  C1_3 
ROOT
ATOM      1  C1  UNL d   1       5.281  -4.182   4.516  0.00  0.00     0.143 A 
ATOM      2  C2  UNL d   1       5.313  -3.220   5.531  0.00  0.00    -0.057 A 
ATOM      3  C3  UNL d   1       5.654  -1.889   5.260  0.00  0.00     0.033 A 
ATOM      4  C4  UNL d   1       5.999  -1.502   3.970  0.00  0.00    -0.042 A 
ATOM      5  C5  UNL d   1       5.999  -2.447   2.949  0.00  0.00     0.033 A 
ATOM      6  C6  UNL d   1       5.651  -3.772   3.225  0.00  0.00    -0.057 A 
ENDROOT
BRANCH   1   7
ATOM      7  N   UNL d   1       5.046  -5.540   4.739  0.00  0.00    -0.732 N 
ATOM      8  C   UNL d   1       4.502  -5.997   6.000  0.00  0.00     0.284 C 
ATOM      9  H3  UNL d   1       4.654  -6.006   3.924  0.00  0.00     0.395 HD
ENDBRANCH   1   7
TORSDOF 1
ENDMDL
