MODEL 1
REMARK minimizedAffinity -3.05574536
REMARK minimizedRMSD -1
REMARK  1 active torsions:
REMARK  status: ('A' for Active; 'I' for Inactive)
REMARK    1  A    between atoms: N_2  and  C1_3 
ROOT
ATOM      1  C1  UNL d   1       5.286  -3.426   4.696  0.00  0.00     0.143 A 
ATOM      2  C2  UNL d   1       3.953  -3.276   5.092  0.00  0.00    -0.057 A 
ATOM      3  C3  UNL d   1       3.268  -4.307   5.746  0.00  0.00     0.033 A 
ATOM      4  C4  UNL d   1       3.899  -5.522   5.992  0.00  0.00    -0.042 A 
ATOM      5  C5  UNL d   1       5.216  -5.703   5.585  0.00  0.00     0.033 A 
ATOM      6  C6  UNL d   1       5.896  -4.667   4.938  0.00  0.00    -0.057 A 
ENDROOT
BRANCH   1   7
ATOM      7  N   UNL d   1       5.990  -2.474   3.954  0.00  0.00    -0.732 N 
ATOM      8  C   UNL d   1       5.985  -2.517   2.508  0.00  0.00     0.284 C 
ATOM      9  H3  UNL d   1       5.904  -1.538   4.343  0.00  0.00     0.395 HD
ENDBRANCH   1   7
TORSDOF 1
ENDMDL
