MODEL 1
REMARK minimizedAffinity -2.67882657
REMARK minimizedRMSD -1
REMARK  1 active torsions:
REMARK  status: ('A' for Active; 'I' for Inactive)
REMARK    1  A    between atoms: N_2  and  C1_3 
ROOT
ATOM      1  C1  UNL d   1       5.711  -4.746   4.268  0.00  0.00     0.143 A 
ATOM      2  C2  UNL d   1       6.000  -4.924   2.911  0.00  0.00    -0.057 A 
ATOM      3  C3  UNL d   1       5.999  -3.843   2.021  0.00  0.00     0.033 A 
ATOM      4  C4  UNL d   1       5.681  -2.565   2.469  0.00  0.00    -0.042 A 
ATOM      5  C5  UNL d   1       5.367  -2.369   3.809  0.00  0.00     0.033 A 
ATOM      6  C6  UNL d   1       5.375  -3.452   4.695  0.00  0.00    -0.057 A 
ENDROOT
BRANCH   1   7
ATOM      7  N   UNL d   1       5.599  -5.796   5.184  0.00  0.00    -0.732 N 
ATOM      8  C   UNL d   1       4.407  -5.946   5.991  0.00  0.00     0.284 C 
ATOM      9  H3  UNL d   1       5.967  -6.671   4.818  0.00  0.00     0.395 HD
ENDBRANCH   1   7
TORSDOF 1
ENDMDL
