MODEL 1
REMARK minimizedAffinity -3.10312891
REMARK minimizedRMSD -1
REMARK  1 active torsions:
REMARK  status: ('A' for Active; 'I' for Inactive)
REMARK    1  A    between atoms: N_2  and  C1_3 
ROOT
ATOM      1  C1  UNL d   1       5.603  -4.786   4.425  0.00  0.00     0.143 A 
ATOM      2  C2  UNL d   1       5.607  -4.721   3.027  0.00  0.00    -0.057 A 
ATOM      3  C3  UNL d   1       5.818  -3.509   2.357  0.00  0.00     0.033 A 
ATOM      4  C4  UNL d   1       6.000  -2.333   3.077  0.00  0.00    -0.042 A 
ATOM      5  C5  UNL d   1       5.975  -2.370   4.466  0.00  0.00     0.033 A 
ATOM      6  C6  UNL d   1       5.771  -3.584   5.129  0.00  0.00    -0.057 A 
ENDROOT
BRANCH   1   7
ATOM      7  N   UNL d   1       5.301  -5.942   5.148  0.00  0.00    -0.732 N 
ATOM      8  C   UNL d   1       4.131  -5.995   5.998  0.00  0.00     0.284 C 
ATOM      9  H3  UNL d   1       5.464  -6.790   4.611  0.00  0.00     0.395 HD
ENDBRANCH   1   7
TORSDOF 1
ENDMDL
