MODEL 1
REMARK minimizedAffinity -2.93935513
REMARK minimizedRMSD -1
REMARK  1 active torsions:
REMARK  status: ('A' for Active; 'I' for Inactive)
REMARK    1  A    between atoms: N_2  and  C1_3 
ROOT
ATOM      1  C1  UNL d   1       5.556  -4.854   3.847  0.00  0.00     0.143 A 
ATOM      2  C2  UNL d   1       5.533  -3.487   3.554  0.00  0.00    -0.057 A 
ATOM      3  C3  UNL d   1       5.038  -2.555   4.474  0.00  0.00     0.033 A 
ATOM      4  C4  UNL d   1       4.529  -2.980   5.697  0.00  0.00    -0.042 A 
ATOM      5  C5  UNL d   1       4.519  -4.337   6.000  0.00  0.00     0.033 A 
ATOM      6  C6  UNL d   1       5.021  -5.262   5.079  0.00  0.00    -0.057 A 
ENDROOT
BRANCH   1   7
ATOM      7  N   UNL d   1       5.944  -5.839   2.934  0.00  0.00    -0.732 N 
ATOM      8  C   UNL d   1       5.998  -5.550   1.517  0.00  0.00     0.284 C 
ATOM      9  H3  UNL d   1       6.722  -6.399   3.275  0.00  0.00     0.395 HD
ENDBRANCH   1   7
TORSDOF 1
ENDMDL
