MODEL 1
REMARK minimizedAffinity -1.9102602
REMARK minimizedRMSD -1
REMARK  1 active torsions:
REMARK  status: ('A' for Active; 'I' for Inactive)
REMARK    1  A    between atoms: N_2  and  C1_3 
ROOT
ATOM      1  C1  UNL d   1       4.530  -4.107   3.964  0.00  0.00     0.143 A 
ATOM      2  C2  UNL d   1       5.291  -4.828   3.038  0.00  0.00    -0.057 A 
ATOM      3  C3  UNL d   1       5.999  -4.179   2.018  0.00  0.00     0.033 A 
ATOM      4  C4  UNL d   1       5.933  -2.796   1.889  0.00  0.00    -0.042 A 
ATOM      5  C5  UNL d   1       5.162  -2.061   2.784  0.00  0.00     0.033 A 
ATOM      6  C6  UNL d   1       4.464  -2.714   3.804  0.00  0.00    -0.057 A 
ENDROOT
BRANCH   1   7
ATOM      7  N   UNL d   1       3.725  -4.701   4.940  0.00  0.00    -0.732 N 
ATOM      8  C   UNL d   1       2.803  -5.760   4.590  0.00  0.00     0.284 C 
ATOM      9  H3  UNL d   1       4.224  -4.856   5.813  0.00  0.00     0.395 HD
ENDBRANCH   1   7
TORSDOF 1
ENDMDL
