MODEL 1
REMARK minimizedAffinity -3.20750713
REMARK minimizedRMSD -1
REMARK  0 active torsions:
REMARK  status: ('A' for Active; 'I' for Inactive)
ROOT
ATOM      1  C1  BNZ d   1       0.386  -0.654  -2.225  0.00  0.00     0.000 A 
ATOM      2  C2  BNZ d   1       1.491  -0.693  -3.032  0.00  0.00     0.000 A 
ATOM      3  C3  BNZ d   1       2.663  -0.105  -2.643  0.00  0.00     0.000 A 
ATOM      4  C4  BNZ d   1       2.715   0.554  -1.468  0.00  0.00     0.000 A 
ATOM      5  C5  BNZ d   1       1.606   0.610  -0.648  0.00  0.00     0.000 A 
ATOM      6  C6  BNZ d   1       0.440  -0.016  -1.025  0.00  0.00     0.000 A 
ENDROOT
TORSDOF 0
ENDMDL
