MODEL 1
REMARK minimizedAffinity -2.82420135
REMARK minimizedRMSD -1
REMARK  0 active torsions:
REMARK  status: ('A' for Active; 'I' for Inactive)
ROOT
ATOM      1  C1  BNZ d   1       0.651   1.282  -0.786  0.00  0.00     0.000 A 
ATOM      2  C2  BNZ d   1       1.536   1.314  -1.831  0.00  0.00     0.000 A 
ATOM      3  C3  BNZ d   1       1.784   0.193  -2.573  0.00  0.00     0.000 A 
ATOM      4  C4  BNZ d   1       1.178  -0.966  -2.246  0.00  0.00     0.000 A 
ATOM      5  C5  BNZ d   1       0.290  -1.017  -1.190  0.00  0.00     0.000 A 
ATOM      6  C6  BNZ d   1       0.014   0.122  -0.469  0.00  0.00     0.000 A 
ENDROOT
TORSDOF 0
ENDMDL
