MODEL 1
REMARK minimizedAffinity -2.5422802
REMARK minimizedRMSD -1
REMARK  0 active torsions:
REMARK  status: ('A' for Active; 'I' for Inactive)
ROOT
ATOM      1  C1  BNZ d   1      -3.519   3.427  -5.994  0.00  0.00     0.000 A 
ATOM      2  C2  BNZ d   1      -3.476   4.796  -5.985  0.00  0.00     0.000 A 
ATOM      3  C3  BNZ d   1      -4.622   5.532  -5.872  0.00  0.00     0.000 A 
ATOM      4  C4  BNZ d   1      -5.812   4.900  -5.808  0.00  0.00     0.000 A 
ATOM      5  C5  BNZ d   1      -5.873   3.521  -5.825  0.00  0.00     0.000 A 
ATOM      6  C6  BNZ d   1      -4.714   2.783  -5.900  0.00  0.00     0.000 A 
ENDROOT
TORSDOF 0
ENDMDL
