MODEL 1
REMARK minimizedAffinity -3.84735632
REMARK minimizedRMSD -1
REMARK  0 active torsions:
REMARK  status: ('A' for Active; 'I' for Inactive)
ROOT
ATOM      1  C1  BNZ d   1      -3.836   1.303   1.815  0.00  0.00     0.000 A 
ATOM      2  C2  BNZ d   1      -3.799   2.524   2.435  0.00  0.00     0.000 A 
ATOM      3  C3  BNZ d   1      -2.619   3.041   2.891  0.00  0.00     0.000 A 
ATOM      4  C4  BNZ d   1      -1.486   2.322   2.763  0.00  0.00     0.000 A 
ATOM      5  C5  BNZ d   1      -1.508   1.086   2.149  0.00  0.00     0.000 A 
ATOM      6  C6  BNZ d   1      -2.691   0.585   1.656  0.00  0.00     0.000 A 
ENDROOT
TORSDOF 0
ENDMDL
