MODEL 1
REMARK minimizedAffinity -4.24201155
REMARK minimizedRMSD -1
REMARK  0 active torsions:
REMARK  status: ('A' for Active; 'I' for Inactive)
ROOT
ATOM      1  C1  BNZ d   1       1.724   1.223  -0.449  0.00  0.00     0.000 A 
ATOM      2  C2  BNZ d   1       0.590   0.461  -0.358  0.00  0.00     0.000 A 
ATOM      3  C3  BNZ d   1       0.346  -0.541  -1.256  0.00  0.00     0.000 A 
ATOM      4  C4  BNZ d   1       1.215  -0.753  -2.265  0.00  0.00     0.000 A 
ATOM      5  C5  BNZ d   1       2.358   0.012  -2.375  0.00  0.00     0.000 A 
ATOM      6  C6  BNZ d   1       2.620   0.994  -1.448  0.00  0.00     0.000 A 
ENDROOT
TORSDOF 0
ENDMDL
