MODEL 1
REMARK minimizedAffinity -4.20388556
REMARK minimizedRMSD -1
REMARK  0 active torsions:
REMARK  status: ('A' for Active; 'I' for Inactive)
ROOT
ATOM      1  C1  BNZ d   1       1.224   1.128  -0.540  0.00  0.00     0.000 A 
ATOM      2  C2  BNZ d   1       1.841   0.875  -1.736  0.00  0.00     0.000 A 
ATOM      3  C3  BNZ d   1       1.751  -0.356  -2.323  0.00  0.00     0.000 A 
ATOM      4  C4  BNZ d   1       1.079  -1.342  -1.695  0.00  0.00     0.000 A 
ATOM      5  C5  BNZ d   1       0.460  -1.105  -0.484  0.00  0.00     0.000 A 
ATOM      6  C6  BNZ d   1       0.520   0.146   0.085  0.00  0.00     0.000 A 
ENDROOT
TORSDOF 0
ENDMDL
