MODEL 1
REMARK minimizedAffinity -4.67770624
REMARK minimizedRMSD -1
REMARK  0 active torsions:
REMARK  status: ('A' for Active; 'I' for Inactive)
ROOT
ATOM      1  C1  BNZ d   1       2.212   0.417  -1.455  0.00  0.00     0.000 A 
ATOM      2  C2  BNZ d   1       1.498   0.437  -0.287  0.00  0.00     0.000 A 
ATOM      3  C3  BNZ d   1       0.179   0.078  -0.266  0.00  0.00     0.000 A 
ATOM      4  C4  BNZ d   1      -0.434  -0.260  -1.419  0.00  0.00     0.000 A 
ATOM      5  C5  BNZ d   1       0.270  -0.276  -2.606  0.00  0.00     0.000 A 
ATOM      6  C6  BNZ d   1       1.607   0.048  -2.617  0.00  0.00     0.000 A 
ENDROOT
TORSDOF 0
ENDMDL
