MODEL 1
REMARK minimizedAffinity -3.63601732
REMARK minimizedRMSD -1
REMARK  0 active torsions:
REMARK  status: ('A' for Active; 'I' for Inactive)
ROOT
ATOM      1  C1  BNZ d   1       1.997   0.538  -1.488  0.00  0.00     0.000 A 
ATOM      2  C2  BNZ d   1       1.400   0.446  -0.259  0.00  0.00     0.000 A 
ATOM      3  C3  BNZ d   1       0.140  -0.069  -0.129  0.00  0.00     0.000 A 
ATOM      4  C4  BNZ d   1      -0.536  -0.452  -1.231  0.00  0.00     0.000 A 
ATOM      5  C5  BNZ d   1       0.048  -0.357  -2.478  0.00  0.00     0.000 A 
ATOM      6  C6  BNZ d   1       1.331   0.125  -2.601  0.00  0.00     0.000 A 
ENDROOT
TORSDOF 0
ENDMDL
