MODEL 1
REMARK minimizedAffinity -4.16142225
REMARK minimizedRMSD -1
REMARK  0 active torsions:
REMARK  status: ('A' for Active; 'I' for Inactive)
ROOT
ATOM      1  C1  BNZ d   1       0.300  -0.084   0.751  0.00  0.00     0.000 A 
ATOM      2  C2  BNZ d   1       0.892   0.796  -0.116  0.00  0.00     0.000 A 
ATOM      3  C3  BNZ d   1       1.363   0.374  -1.328  0.00  0.00     0.000 A 
ATOM      4  C4  BNZ d   1       1.278  -0.932  -1.654  0.00  0.00     0.000 A 
ATOM      5  C5  BNZ d   1       0.692  -1.833  -0.787  0.00  0.00     0.000 A 
ATOM      6  C6  BNZ d   1       0.184  -1.398   0.416  0.00  0.00     0.000 A 
ENDROOT
TORSDOF 0
ENDMDL
