MODEL 1
REMARK minimizedAffinity -4.03400707
REMARK minimizedRMSD -1
REMARK  0 active torsions:
REMARK  status: ('A' for Active; 'I' for Inactive)
ROOT
ATOM      1  C1  BNZ d   1       1.848   0.778  -1.262  0.00  0.00     0.000 A 
ATOM      2  C2  BNZ d   1       1.524   0.656   0.063  0.00  0.00     0.000 A 
ATOM      3  C3  BNZ d   1       0.300   0.180   0.442  0.00  0.00     0.000 A 
ATOM      4  C4  BNZ d   1      -0.610  -0.137  -0.501  0.00  0.00     0.000 A 
ATOM      5  C5  BNZ d   1      -0.301  -0.011  -1.841  0.00  0.00     0.000 A 
ATOM      6  C6  BNZ d   1       0.945   0.433  -2.219  0.00  0.00     0.000 A 
ENDROOT
TORSDOF 0
ENDMDL
