MODEL 1
REMARK minimizedAffinity -3.81460261
REMARK minimizedRMSD -1
REMARK  0 active torsions:
REMARK  status: ('A' for Active; 'I' for Inactive)
ROOT
ATOM      1  C1  BNZ d   1       0.884  -0.015  -1.771  0.00  0.00     0.000 A 
ATOM      2  C2  BNZ d   1       0.068  -0.935  -1.168  0.00  0.00     0.000 A 
ATOM      3  C3  BNZ d   1      -0.147  -0.903   0.181  0.00  0.00     0.000 A 
ATOM      4  C4  BNZ d   1       0.486   0.022   0.931  0.00  0.00     0.000 A 
ATOM      5  C5  BNZ d   1       1.319   0.951   0.340  0.00  0.00     0.000 A 
ATOM      6  C6  BNZ d   1       1.501   0.940  -1.024  0.00  0.00     0.000 A 
ENDROOT
TORSDOF 0
ENDMDL
