MODEL 1
REMARK minimizedAffinity -4.33846712
REMARK minimizedRMSD -1
REMARK  0 active torsions:
REMARK  status: ('A' for Active; 'I' for Inactive)
ROOT
ATOM      1  C1  BNZ d   1       0.722  -0.101  -0.085  0.00  0.00     0.000 A 
ATOM      2  C2  BNZ d   1       1.547   0.713  -0.814  0.00  0.00     0.000 A 
ATOM      3  C3  BNZ d   1       2.472   0.186  -1.672  0.00  0.00     0.000 A 
ATOM      4  C4  BNZ d   1       2.597  -1.153  -1.770  0.00  0.00     0.000 A 
ATOM      5  C5  BNZ d   1       1.779  -1.988  -1.035  0.00  0.00     0.000 A 
ATOM      6  C6  BNZ d   1       0.823  -1.453  -0.201  0.00  0.00     0.000 A 
ENDROOT
TORSDOF 0
ENDMDL
