MODEL 1
REMARK minimizedAffinity -4.47432137
REMARK minimizedRMSD -1
REMARK  0 active torsions:
REMARK  status: ('A' for Active; 'I' for Inactive)
ROOT
ATOM      1  C1  BNZ d   1       1.616   1.046  -1.037  0.00  0.00     0.000 A 
ATOM      2  C2  BNZ d   1       2.364   0.458  -2.023  0.00  0.00     0.000 A 
ATOM      3  C3  BNZ d   1       1.963  -0.714  -2.599  0.00  0.00     0.000 A 
ATOM      4  C4  BNZ d   1       0.840  -1.319  -2.162  0.00  0.00     0.000 A 
ATOM      5  C5  BNZ d   1       0.081  -0.744  -1.163  0.00  0.00     0.000 A 
ATOM      6  C6  BNZ d   1       0.466   0.457  -0.611  0.00  0.00     0.000 A 
ENDROOT
TORSDOF 0
ENDMDL
