MODEL 1
REMARK minimizedAffinity -3.49245954
REMARK minimizedRMSD -1
REMARK  0 active torsions:
REMARK  status: ('A' for Active; 'I' for Inactive)
ROOT
ATOM      1  C1  BNZ d   1       1.976   0.737  -1.605  0.00  0.00     0.000 A 
ATOM      2  C2  BNZ d   1       1.498   0.686  -0.323  0.00  0.00     0.000 A 
ATOM      3  C3  BNZ d   1       0.189   0.379  -0.076  0.00  0.00     0.000 A 
ATOM      4  C4  BNZ d   1      -0.648   0.164  -1.111  0.00  0.00     0.000 A 
ATOM      5  C5  BNZ d   1      -0.183   0.221  -2.409  0.00  0.00     0.000 A 
ATOM      6  C6  BNZ d   1       1.144   0.492  -2.653  0.00  0.00     0.000 A 
ENDROOT
TORSDOF 0
ENDMDL
