MODEL 1
REMARK minimizedAffinity -3.90247011
REMARK minimizedRMSD -1
REMARK  0 active torsions:
REMARK  status: ('A' for Active; 'I' for Inactive)
ROOT
ATOM      1  C1  BNZ d   1       0.817  -1.790  -1.900  0.00  0.00     0.000 A 
ATOM      2  C2  BNZ d   1       0.276  -1.857  -0.644  0.00  0.00     0.000 A 
ATOM      3  C3  BNZ d   1       0.220  -0.749   0.154  0.00  0.00     0.000 A 
ATOM      4  C4  BNZ d   1       0.740   0.414  -0.289  0.00  0.00     0.000 A 
ATOM      5  C5  BNZ d   1       1.298   0.495  -1.549  0.00  0.00     0.000 A 
ATOM      6  C6  BNZ d   1       1.318  -0.613  -2.365  0.00  0.00     0.000 A 
ENDROOT
TORSDOF 0
ENDMDL
