MODEL 1
REMARK minimizedAffinity -3.99097323
REMARK minimizedRMSD -1
REMARK  0 active torsions:
REMARK  status: ('A' for Active; 'I' for Inactive)
ROOT
ATOM      1  C1  BNZ d   1      -0.025  -0.655  -1.178  0.00  0.00     0.000 A 
ATOM      2  C2  BNZ d   1       0.782  -1.072  -2.202  0.00  0.00     0.000 A 
ATOM      3  C3  BNZ d   1       1.923  -0.387  -2.517  0.00  0.00     0.000 A 
ATOM      4  C4  BNZ d   1       2.234   0.733  -1.834  0.00  0.00     0.000 A 
ATOM      5  C5  BNZ d   1       1.425   1.171  -0.804  0.00  0.00     0.000 A 
ATOM      6  C6  BNZ d   1       0.298   0.458  -0.465  0.00  0.00     0.000 A 
ENDROOT
TORSDOF 0
ENDMDL
