MODEL 1
REMARK minimizedAffinity -3.99031186
REMARK minimizedRMSD -1
REMARK  0 active torsions:
REMARK  status: ('A' for Active; 'I' for Inactive)
ROOT
ATOM      1  C1  BNZ d   1      -4.485   0.157   1.835  0.00  0.00     0.000 A 
ATOM      2  C2  BNZ d   1      -3.417  -0.527   2.353  0.00  0.00     0.000 A 
ATOM      3  C3  BNZ d   1      -2.291   0.134   2.755  0.00  0.00     0.000 A 
ATOM      4  C4  BNZ d   1      -2.217   1.472   2.603  0.00  0.00     0.000 A 
ATOM      5  C5  BNZ d   1      -3.282   2.175   2.074  0.00  0.00     0.000 A 
ATOM      6  C6  BNZ d   1      -4.429   1.510   1.706  0.00  0.00     0.000 A 
ENDROOT
TORSDOF 0
ENDMDL
