MODEL 1
REMARK minimizedAffinity -3.70005727
REMARK minimizedRMSD -1
REMARK  0 active torsions:
REMARK  status: ('A' for Active; 'I' for Inactive)
ROOT
ATOM      1  C1  BNZ d   1       0.450  -2.163  -0.862  0.00  0.00     0.000 A 
ATOM      2  C2  BNZ d   1       1.471  -2.368  -1.751  0.00  0.00     0.000 A 
ATOM      3  C3  BNZ d   1       2.107  -1.312  -2.342  0.00  0.00     0.000 A 
ATOM      4  C4  BNZ d   1       1.696  -0.056  -2.074  0.00  0.00     0.000 A 
ATOM      5  C5  BNZ d   1       0.662   0.166  -1.187  0.00  0.00     0.000 A 
ATOM      6  C6  BNZ d   1       0.050  -0.897  -0.564  0.00  0.00     0.000 A 
ENDROOT
TORSDOF 0
ENDMDL
