MODEL 1
REMARK minimizedAffinity -2.29515123
REMARK minimizedRMSD -1
REMARK  0 active torsions:
REMARK  status: ('A' for Active; 'I' for Inactive)
ROOT
ATOM      1  C4' PXY d   1      -3.205  -2.272  -0.728  0.00  0.00     0.077 C 
ATOM      2  C1' PXY d   1       2.413  -1.342   0.267  0.00  0.00     0.077 C 
ATOM      3  C1  PXY d   1       0.937  -1.573   0.010  0.00  0.00    -0.082 A 
ATOM      4  C2  PXY d   1       0.459  -2.807   0.009  0.00  0.00     0.003 A 
ATOM      5  C3  PXY d   1      -0.867  -3.037  -0.253  0.00  0.00     0.003 A 
ATOM      6  C4  PXY d   1      -1.723  -1.990  -0.464  0.00  0.00    -0.082 A 
ATOM      7  C5  PXY d   1      -1.245  -0.727  -0.454  0.00  0.00     0.003 A 
ATOM      8  C6  PXY d   1       0.112  -0.518  -0.227  0.00  0.00     0.003 A 
ENDROOT
TORSDOF 0
ENDMDL
