MODEL 1
REMARK minimizedAffinity -2.15791464
REMARK minimizedRMSD -1
REMARK  0 active torsions:
REMARK  status: ('A' for Active; 'I' for Inactive)
ROOT
ATOM      1  C4' PXY d   1       0.810  -3.285  -0.016  0.00  0.00     0.077 C 
ATOM      2  C1' PXY d   1       1.433   2.379  -0.985  0.00  0.00     0.077 C 
ATOM      3  C1  PXY d   1       1.277   0.891  -0.741  0.00  0.00    -0.082 A 
ATOM      4  C2  PXY d   1       0.234   0.446  -0.060  0.00  0.00     0.003 A 
ATOM      5  C3  PXY d   1       0.094  -0.894   0.197  0.00  0.00     0.003 A 
ATOM      6  C4  PXY d   1       1.004  -1.792  -0.294  0.00  0.00    -0.082 A 
ATOM      7  C5  PXY d   1       2.065  -1.346  -0.999  0.00  0.00     0.003 A 
ATOM      8  C6  PXY d   1       2.211   0.021  -1.214  0.00  0.00     0.003 A 
ENDROOT
TORSDOF 0
ENDMDL
