MODEL 1
REMARK minimizedAffinity -4.58684826
REMARK minimizedRMSD -1
REMARK  0 active torsions:
REMARK  status: ('A' for Active; 'I' for Inactive)
ROOT
ATOM      1  C4' PXY d   1      -1.337   1.372   3.130  0.00  0.00     0.077 C 
ATOM      2  C1' PXY d   1      -2.947  -2.428  -0.917  0.00  0.00     0.077 C 
ATOM      3  C1  PXY d   1      -2.538  -1.430   0.148  0.00  0.00    -0.082 A 
ATOM      4  C2  PXY d   1      -1.412  -0.749   0.008  0.00  0.00     0.003 A 
ATOM      5  C3  PXY d   1      -1.010   0.134   0.977  0.00  0.00     0.003 A 
ATOM      6  C4  PXY d   1      -1.795   0.361   2.076  0.00  0.00    -0.082 A 
ATOM      7  C5  PXY d   1      -2.950  -0.322   2.221  0.00  0.00     0.003 A 
ATOM      8  C6  PXY d   1      -3.320  -1.244   1.246  0.00  0.00     0.003 A 
ENDROOT
TORSDOF 0
ENDMDL
