MODEL 1
REMARK minimizedAffinity -1.7243886
REMARK minimizedRMSD -1
REMARK  0 active torsions:
REMARK  status: ('A' for Active; 'I' for Inactive)
ROOT
ATOM      1  C4' PXY d   1      -2.772  -4.097  -0.400  0.00  0.00     0.077 C 
ATOM      2  C1' PXY d   1       0.134   0.855   0.272  0.00  0.00     0.077 C 
ATOM      3  C1  PXY d   1      -0.639  -0.437   0.100  0.00  0.00    -0.082 A 
ATOM      4  C2  PXY d   1       0.004  -1.593   0.136  0.00  0.00     0.003 A 
ATOM      5  C3  PXY d   1      -0.675  -2.770  -0.050  0.00  0.00     0.003 A 
ATOM      6  C4  PXY d   1      -2.033  -2.767  -0.222  0.00  0.00    -0.082 A 
ATOM      7  C5  PXY d   1      -2.698  -1.592  -0.249  0.00  0.00     0.003 A 
ATOM      8  C6  PXY d   1      -1.985  -0.406  -0.100  0.00  0.00     0.003 A 
ENDROOT
TORSDOF 0
ENDMDL
