MODEL 1
REMARK minimizedAffinity -0.131997406
REMARK minimizedRMSD -1
REMARK  0 active torsions:
REMARK  status: ('A' for Active; 'I' for Inactive)
ROOT
ATOM      1  C4' PXY d   1      -1.952   1.877   3.261  0.00  0.00     0.077 C 
ATOM      2  C1' PXY d   1       0.708  -1.310  -0.761  0.00  0.00     0.077 C 
ATOM      3  C1  PXY d   1       0.012  -0.484   0.302  0.00  0.00    -0.082 A 
ATOM      4  C2  PXY d   1      -0.770   0.520  -0.058  0.00  0.00     0.003 A 
ATOM      5  C3  PXY d   1      -1.382   1.298   0.891  0.00  0.00     0.003 A 
ATOM      6  C4  PXY d   1      -1.236   1.010   2.222  0.00  0.00    -0.082 A 
ATOM      7  C5  PXY d   1      -0.448  -0.020   2.597  0.00  0.00     0.003 A 
ATOM      8  C6  PXY d   1       0.197  -0.771   1.619  0.00  0.00     0.003 A 
ENDROOT
TORSDOF 0
ENDMDL
