MODEL 1
REMARK minimizedAffinity -2.70270014
REMARK minimizedRMSD -1
REMARK  0 active torsions:
REMARK  status: ('A' for Active; 'I' for Inactive)
ROOT
ATOM      1  C4' PXY d   1       1.811  -3.432  -3.304  0.00  0.00     0.077 C 
ATOM      2  C1' PXY d   1       1.533   0.186   1.195  0.00  0.00     0.077 C 
ATOM      3  C1  PXY d   1       1.612  -0.753   0.008  0.00  0.00    -0.082 A 
ATOM      4  C2  PXY d   1       0.746  -1.748  -0.097  0.00  0.00     0.003 A 
ATOM      5  C3  PXY d   1       0.823  -2.626  -1.147  0.00  0.00     0.003 A 
ATOM      6  C4  PXY d   1       1.763  -2.453  -2.127  0.00  0.00    -0.082 A 
ATOM      7  C5  PXY d   1       2.643  -1.435  -2.032  0.00  0.00     0.003 A 
ATOM      8  C6  PXY d   1       2.575  -0.579  -0.937  0.00  0.00     0.003 A 
ENDROOT
TORSDOF 0
ENDMDL
