MODEL 1
REMARK minimizedAffinity -3.46940517
REMARK minimizedRMSD -1
REMARK  0 active torsions:
REMARK  status: ('A' for Active; 'I' for Inactive)
ROOT
ATOM      1  C4' PXY d   1       1.862   2.379  -2.320  0.00  0.00     0.077 C 
ATOM      2  C1' PXY d   1       0.557  -2.576   0.357  0.00  0.00     0.077 C 
ATOM      3  C1  PXY d   1       0.912  -1.280  -0.345  0.00  0.00    -0.082 A 
ATOM      4  C2  PXY d   1       0.113  -0.232  -0.226  0.00  0.00     0.003 A 
ATOM      5  C3  PXY d   1       0.402   0.938  -0.880  0.00  0.00     0.003 A 
ATOM      6  C4  PXY d   1       1.548   1.053  -1.621  0.00  0.00    -0.082 A 
ATOM      7  C5  PXY d   1       2.374  -0.009  -1.738  0.00  0.00     0.003 A 
ATOM      8  C6  PXY d   1       2.041  -1.200  -1.100  0.00  0.00     0.003 A 
ENDROOT
TORSDOF 0
ENDMDL
