MODEL 1
REMARK minimizedAffinity -4.50366068
REMARK minimizedRMSD -1
REMARK  0 active torsions:
REMARK  status: ('A' for Active; 'I' for Inactive)
ROOT
ATOM      1  C4' PXY d   1       3.776  -0.575  -2.170  0.00  0.00     0.077 C 
ATOM      2  C1' PXY d   1      -1.048   0.446   0.847  0.00  0.00     0.077 C 
ATOM      3  C1  PXY d   1       0.219   0.166   0.062  0.00  0.00    -0.082 A 
ATOM      4  C2  PXY d   1       0.923   1.175  -0.424  0.00  0.00     0.003 A 
ATOM      5  C3  PXY d   1       2.053   0.940  -1.164  0.00  0.00     0.003 A 
ATOM      6  C4  PXY d   1       2.496  -0.340  -1.363  0.00  0.00    -0.082 A 
ATOM      7  C5  PXY d   1       1.789  -1.375  -0.862  0.00  0.00     0.003 A 
ATOM      8  C6  PXY d   1       0.622  -1.116  -0.149  0.00  0.00     0.003 A 
ENDROOT
TORSDOF 0
ENDMDL
