MODEL 1
REMARK minimizedAffinity -3.47067332
REMARK minimizedRMSD -1
REMARK  0 active torsions:
REMARK  status: ('A' for Active; 'I' for Inactive)
ROOT
ATOM      1  C4' PXY d   1      -1.390   0.043   1.157  0.00  0.00     0.077 C 
ATOM      2  C1' PXY d   1       3.271  -0.181  -2.256  0.00  0.00     0.077 C 
ATOM      3  C1  PXY d   1       2.045  -0.134  -1.364  0.00  0.00    -0.082 A 
ATOM      4  C2  PXY d   1       1.498   1.032  -1.065  0.00  0.00     0.003 A 
ATOM      5  C3  PXY d   1       0.409   1.095  -0.234  0.00  0.00     0.003 A 
ATOM      6  C4  PXY d   1      -0.158  -0.053   0.253  0.00  0.00    -0.082 A 
ATOM      7  C5  PXY d   1       0.389  -1.248  -0.057  0.00  0.00     0.003 A 
ATOM      8  C6  PXY d   1       1.519  -1.287  -0.869  0.00  0.00     0.003 A 
ENDROOT
TORSDOF 0
ENDMDL
