MODEL 1
REMARK minimizedAffinity -2.15282464
REMARK minimizedRMSD -1
REMARK  0 active torsions:
REMARK  status: ('A' for Active; 'I' for Inactive)
ROOT
ATOM      1  C4' PXY d   1      -3.386  -1.639  -0.746  0.00  0.00     0.077 C 
ATOM      2  C1' PXY d   1       2.334  -1.025  -0.179  0.00  0.00     0.077 C 
ATOM      3  C1  PXY d   1       0.832  -1.175  -0.321  0.00  0.00    -0.082 A 
ATOM      4  C2  PXY d   1       0.312  -2.372  -0.541  0.00  0.00     0.003 A 
ATOM      5  C3  PXY d   1      -1.041  -2.521  -0.704  0.00  0.00     0.003 A 
ATOM      6  C4  PXY d   1      -1.876  -1.442  -0.587  0.00  0.00    -0.082 A 
ATOM      7  C5  PXY d   1      -1.354  -0.219  -0.352  0.00  0.00     0.003 A 
ATOM      8  C6  PXY d   1       0.026  -0.083  -0.231  0.00  0.00     0.003 A 
ENDROOT
TORSDOF 0
ENDMDL
