MODEL 1
REMARK minimizedAffinity -0.4970631
REMARK minimizedRMSD -1
REMARK  0 active torsions:
REMARK  status: ('A' for Active; 'I' for Inactive)
ROOT
ATOM      1  C4' PXY d   1      -1.446   1.751   3.224  0.00  0.00     0.077 C 
ATOM      2  C1' PXY d   1       1.402  -2.037  -0.085  0.00  0.00     0.077 C 
ATOM      3  C1  PXY d   1       0.656  -1.052   0.793  0.00  0.00    -0.082 A 
ATOM      4  C2  PXY d   1      -0.095  -0.117   0.234  0.00  0.00     0.003 A 
ATOM      5  C3  PXY d   1      -0.752   0.802   1.012  0.00  0.00     0.003 A 
ATOM      6  C4  PXY d   1      -0.682   0.730   2.378  0.00  0.00    -0.082 A 
ATOM      7  C5  PXY d   1       0.073  -0.229   2.956  0.00  0.00     0.003 A 
ATOM      8  C6  PXY d   1       0.765  -1.126   2.147  0.00  0.00     0.003 A 
ENDROOT
TORSDOF 0
ENDMDL
