MODEL 1
REMARK minimizedAffinity -4.82020283
REMARK minimizedRMSD -1
REMARK  0 active torsions:
REMARK  status: ('A' for Active; 'I' for Inactive)
ROOT
ATOM      1  C4' PXY d   1       2.935  -0.774  -1.079  0.00  0.00     0.077 C 
ATOM      2  C1' PXY d   1      -2.549  -0.256   0.677  0.00  0.00     0.077 C 
ATOM      3  C1  PXY d   1      -1.110  -0.403   0.223  0.00  0.00    -0.082 A 
ATOM      4  C2  PXY d   1      -0.423   0.671  -0.133  0.00  0.00     0.003 A 
ATOM      5  C3  PXY d   1       0.869   0.552  -0.576  0.00  0.00     0.003 A 
ATOM      6  C4  PXY d   1       1.482  -0.672  -0.605  0.00  0.00    -0.082 A 
ATOM      7  C5  PXY d   1       0.792  -1.771  -0.233  0.00  0.00     0.003 A 
ATOM      8  C6  PXY d   1      -0.532  -1.634   0.175  0.00  0.00     0.003 A 
ENDROOT
TORSDOF 0
ENDMDL
