MODEL 1
REMARK minimizedAffinity -0.458830446
REMARK minimizedRMSD -1
REMARK  0 active torsions:
REMARK  status: ('A' for Active; 'I' for Inactive)
ROOT
ATOM      1  C4' PXY d   1       5.591   5.978  -1.459  0.00  0.00     0.077 C 
ATOM      2  C1' PXY d   1       1.558   6.000  -5.600  0.00  0.00     0.077 C 
ATOM      3  C1  PXY d   1       2.607   5.999  -4.505  0.00  0.00    -0.082 A 
ATOM      4  C2  PXY d   1       3.890   5.998  -4.829  0.00  0.00     0.003 A 
ATOM      5  C3  PXY d   1       4.852   5.966  -3.852  0.00  0.00     0.003 A 
ATOM      6  C4  PXY d   1       4.497   5.988  -2.530  0.00  0.00    -0.082 A 
ATOM      7  C5  PXY d   1       3.191   6.000  -2.192  0.00  0.00     0.003 A 
ATOM      8  C6  PXY d   1       2.229   5.991  -3.198  0.00  0.00     0.003 A 
ENDROOT
TORSDOF 0
ENDMDL
