MODEL 1
REMARK minimizedAffinity 1.39270675
REMARK minimizedRMSD -1
REMARK  0 active torsions:
REMARK  status: ('A' for Active; 'I' for Inactive)
ROOT
ATOM      1  C4' PXY d   1      -1.652  -0.114   4.308  0.00  0.00     0.077 C 
ATOM      2  C1' PXY d   1      -3.210  -2.237  -0.838  0.00  0.00     0.077 C 
ATOM      3  C1  PXY d   1      -2.789  -1.680   0.507  0.00  0.00    -0.082 A 
ATOM      4  C2  PXY d   1      -3.528  -1.924   1.577  0.00  0.00     0.003 A 
ATOM      5  C3  PXY d   1      -3.180  -1.401   2.796  0.00  0.00     0.003 A 
ATOM      6  C4  PXY d   1      -2.034  -0.664   2.931  0.00  0.00    -0.082 A 
ATOM      7  C5  PXY d   1      -1.268  -0.419   1.846  0.00  0.00     0.003 A 
ATOM      8  C6  PXY d   1      -1.661  -0.925   0.611  0.00  0.00     0.003 A 
ENDROOT
TORSDOF 0
ENDMDL
