MODEL 1
REMARK minimizedAffinity -4.99088955
REMARK minimizedRMSD -1
REMARK  0 active torsions:
REMARK  status: ('A' for Active; 'I' for Inactive)
ROOT
ATOM      1  C4' PXY d   1       5.652   6.000   2.436  0.00  0.00     0.077 C 
ATOM      2  C1' PXY d   1       5.257   0.703   4.716  0.00  0.00     0.077 C 
ATOM      3  C1  PXY d   1       5.357   2.097   4.130  0.00  0.00    -0.082 A 
ATOM      4  C2  PXY d   1       5.185   2.274   2.830  0.00  0.00     0.003 A 
ATOM      5  C3  PXY d   1       5.304   3.524   2.278  0.00  0.00     0.003 A 
ATOM      6  C4  PXY d   1       5.550   4.611   3.073  0.00  0.00    -0.082 A 
ATOM      7  C5  PXY d   1       5.717   4.440   4.401  0.00  0.00     0.003 A 
ATOM      8  C6  PXY d   1       5.633   3.158   4.936  0.00  0.00     0.003 A 
ENDROOT
TORSDOF 0
ENDMDL
