MODEL 1
REMARK minimizedAffinity 0.00622079941
REMARK minimizedRMSD -1
REMARK  0 active torsions:
REMARK  status: ('A' for Active; 'I' for Inactive)
ROOT
ATOM      1  C4' PXY d   1       4.500   1.109   5.316  0.00  0.00     0.077 C 
ATOM      2  C1' PXY d   1       5.131   5.998   2.296  0.00  0.00     0.077 C 
ATOM      3  C1  PXY d   1       4.953   4.718   3.088  0.00  0.00    -0.082 A 
ATOM      4  C2  PXY d   1       5.957   4.251   3.812  0.00  0.00     0.003 A 
ATOM      5  C3  PXY d   1       5.823   3.078   4.509  0.00  0.00     0.003 A 
ATOM      6  C4  PXY d   1       4.632   2.403   4.507  0.00  0.00    -0.082 A 
ATOM      7  C5  PXY d   1       3.599   2.878   3.779  0.00  0.00     0.003 A 
ATOM      8  C6  PXY d   1       3.768   4.049   3.046  0.00  0.00     0.003 A 
ENDROOT
TORSDOF 0
ENDMDL
