MODEL 1
REMARK minimizedAffinity -0.795698941
REMARK minimizedRMSD -1
REMARK  0 active torsions:
REMARK  status: ('A' for Active; 'I' for Inactive)
ROOT
ATOM      1  C4' PXY d   1       5.589   1.891   4.407  0.00  0.00     0.077 C 
ATOM      2  C1' PXY d   1       3.998   5.559   0.232  0.00  0.00     0.077 C 
ATOM      3  C1  PXY d   1       4.419   4.607   1.334  0.00  0.00    -0.082 A 
ATOM      4  C2  PXY d   1       4.702   3.349   1.039  0.00  0.00     0.003 A 
ATOM      5  C3  PXY d   1       5.053   2.466   2.028  0.00  0.00     0.003 A 
ATOM      6  C4  PXY d   1       5.169   2.890   3.325  0.00  0.00    -0.082 A 
ATOM      7  C5  PXY d   1       4.893   4.175   3.632  0.00  0.00     0.003 A 
ATOM      8  C6  PXY d   1       4.497   5.044   2.620  0.00  0.00     0.003 A 
ENDROOT
TORSDOF 0
ENDMDL
