MODEL 1
REMARK minimizedAffinity -3.20335054
REMARK minimizedRMSD -1
REMARK  0 active torsions:
REMARK  status: ('A' for Active; 'I' for Inactive)
ROOT
ATOM      1  C4' PXY d   1       5.283   3.940   4.526  0.00  0.00     0.077 C 
ATOM      2  C1' PXY d   1       5.517  -1.784   5.300  0.00  0.00     0.077 C 
ATOM      3  C1  PXY d   1       5.466  -0.283   5.089  0.00  0.00    -0.082 A 
ATOM      4  C2  PXY d   1       4.892   0.486   6.000  0.00  0.00     0.003 A 
ATOM      5  C3  PXY d   1       4.809   1.841   5.810  0.00  0.00     0.003 A 
ATOM      6  C4  PXY d   1       5.366   2.421   4.702  0.00  0.00    -0.082 A 
ATOM      7  C5  PXY d   1       5.962   1.644   3.773  0.00  0.00     0.003 A 
ATOM      8  C6  PXY d   1       6.000   0.266   3.965  0.00  0.00     0.003 A 
ENDROOT
TORSDOF 0
ENDMDL
