MODEL 1
REMARK minimizedAffinity -2.34596682
REMARK minimizedRMSD -1
REMARK  0 active torsions:
REMARK  status: ('A' for Active; 'I' for Inactive)
ROOT
ATOM      1  C4' PXY d   1       5.914  -3.353   5.162  0.00  0.00     0.077 C 
ATOM      2  C1' PXY d   1       5.573   2.373   4.448  0.00  0.00     0.077 C 
ATOM      3  C1  PXY d   1       5.655   0.870   4.624  0.00  0.00    -0.082 A 
ATOM      4  C2  PXY d   1       5.890   0.364   5.824  0.00  0.00     0.003 A 
ATOM      5  C3  PXY d   1       5.999  -0.992   5.996  0.00  0.00     0.003 A 
ATOM      6  C4  PXY d   1       5.813  -1.841   4.939  0.00  0.00    -0.082 A 
ATOM      7  C5  PXY d   1       5.563  -1.334   3.713  0.00  0.00     0.003 A 
ATOM      8  C6  PXY d   1       5.497   0.047   3.552  0.00  0.00     0.003 A 
ENDROOT
TORSDOF 0
ENDMDL
