MODEL 1
REMARK minimizedAffinity 0.172840565
REMARK minimizedRMSD -1
REMARK  1 active torsions:
REMARK  status: ('A' for Active; 'I' for Inactive)
REMARK    1  A    between atoms: C1_2  and  C2_3 
ROOT
ATOM      1  C2  UNL d   1      -0.094   0.140   1.129  0.00  0.00    -0.081 A 
ATOM      2  C3  UNL d   1      -0.226   0.940   2.271  0.00  0.00     0.006 A 
ATOM      3  C4  UNL d   1      -0.978   2.116   2.229  0.00  0.00     0.002 A 
ATOM      4  C5  UNL d   1      -1.616   2.508   1.048  0.00  0.00    -0.080 A 
ATOM      5  C6  UNL d   1      -2.452   3.753   0.997  0.00  0.00     0.076 C 
ATOM      6  C7  UNL d   1      -1.470   1.719  -0.098  0.00  0.00     0.002 A 
ATOM      7  C8  UNL d   1      -0.717   0.543  -0.057  0.00  0.00     0.006 A 
ENDROOT
BRANCH   1   8
ATOM      8  C1  UNL d   1       0.663  -1.162   1.188  0.00  0.00     0.054 C 
ATOM      9  C   UNL d   1       0.758  -1.682   2.615  0.00  0.00     0.018 C 
ENDBRANCH   1   8
TORSDOF 1
ENDMDL
