MODEL 1
REMARK minimizedAffinity -4.58401823
REMARK minimizedRMSD -1
REMARK  1 active torsions:
REMARK  status: ('A' for Active; 'I' for Inactive)
REMARK    1  A    between atoms: C1_2  and  C2_3 
ROOT
ATOM      1  C2  UNL d   1       0.452  -0.086   0.026  0.00  0.00    -0.081 A 
ATOM      2  C3  UNL d   1      -0.134  -0.202   1.292  0.00  0.00     0.006 A 
ATOM      3  C4  UNL d   1      -1.036   0.763   1.746  0.00  0.00     0.002 A 
ATOM      4  C5  UNL d   1      -1.373   1.855   0.939  0.00  0.00    -0.080 A 
ATOM      5  C6  UNL d   1      -2.364   2.882   1.401  0.00  0.00     0.076 C 
ATOM      6  C7  UNL d   1      -0.775   1.980  -0.320  0.00  0.00     0.002 A 
ATOM      7  C8  UNL d   1       0.128   1.016  -0.773  0.00  0.00     0.006 A 
ENDROOT
BRANCH   1   8
ATOM      8  C1  UNL d   1       1.376  -1.158  -0.492  0.00  0.00     0.054 C 
ATOM      9  C   UNL d   1       0.617  -2.197  -1.305  0.00  0.00     0.018 C 
ENDBRANCH   1   8
TORSDOF 1
ENDMDL
