MODEL 1
REMARK minimizedAffinity -0.608882487
REMARK minimizedRMSD -1
REMARK  1 active torsions:
REMARK  status: ('A' for Active; 'I' for Inactive)
REMARK    1  A    between atoms: C1_2  and  C2_3 
ROOT
ATOM      1  C2  UNL d   1      -0.023  -0.263  -0.104  0.00  0.00    -0.081 A 
ATOM      2  C3  UNL d   1       1.052   0.235  -0.852  0.00  0.00     0.006 A 
ATOM      3  C4  UNL d   1       0.963   1.483  -1.474  0.00  0.00     0.002 A 
ATOM      4  C5  UNL d   1      -0.197   2.255  -1.353  0.00  0.00    -0.080 A 
ATOM      5  C6  UNL d   1      -0.294   3.609  -1.991  0.00  0.00     0.076 C 
ATOM      6  C7  UNL d   1      -1.277   1.750  -0.621  0.00  0.00     0.002 A 
ATOM      7  C8  UNL d   1      -1.189   0.503   0.001  0.00  0.00     0.006 A 
ENDROOT
BRANCH   1   8
ATOM      8  C1  UNL d   1       0.094  -1.579   0.621  0.00  0.00     0.054 C 
ATOM      9  C   UNL d   1       0.718  -1.398   1.998  0.00  0.00     0.018 C 
ENDBRANCH   1   8
TORSDOF 1
ENDMDL
