MODEL 1
REMARK minimizedAffinity -2.4789753
REMARK minimizedRMSD -1
REMARK  1 active torsions:
REMARK  status: ('A' for Active; 'I' for Inactive)
REMARK    1  A    between atoms: C1_2  and  C2_3 
ROOT
ATOM      1  C2  UNL d   1       0.537  -0.289  -0.600  0.00  0.00    -0.081 A 
ATOM      2  C3  UNL d   1       0.717   1.086  -0.408  0.00  0.00     0.006 A 
ATOM      3  C4  UNL d   1      -0.044   1.774   0.540  0.00  0.00     0.002 A 
ATOM      4  C5  UNL d   1      -0.991   1.098   1.317  0.00  0.00    -0.080 A 
ATOM      5  C6  UNL d   1      -1.793   1.819   2.359  0.00  0.00     0.076 C 
ATOM      6  C7  UNL d   1      -1.183  -0.273   1.113  0.00  0.00     0.002 A 
ATOM      7  C8  UNL d   1      -0.423  -0.961   0.165  0.00  0.00     0.006 A 
ENDROOT
BRANCH   1   8
ATOM      8  C1  UNL d   1       1.401  -1.046  -1.576  0.00  0.00     0.054 C 
ATOM      9  C   UNL d   1       0.905  -2.473  -1.763  0.00  0.00     0.018 C 
ENDBRANCH   1   8
TORSDOF 1
ENDMDL
