MODEL 1
REMARK minimizedAffinity -5.2082715
REMARK minimizedRMSD -1
REMARK  1 active torsions:
REMARK  status: ('A' for Active; 'I' for Inactive)
REMARK    1  A    between atoms: C1_2  and  C2_3 
ROOT
ATOM      1  C2  UNL d   1       0.113  -0.988  -0.654  0.00  0.00    -0.081 A 
ATOM      2  C3  UNL d   1       0.471   0.351  -0.854  0.00  0.00     0.006 A 
ATOM      3  C4  UNL d   1      -0.267   1.378  -0.260  0.00  0.00     0.002 A 
ATOM      4  C5  UNL d   1      -1.369   1.083   0.550  0.00  0.00    -0.080 A 
ATOM      5  C6  UNL d   1      -2.151   2.174   1.218  0.00  0.00     0.076 C 
ATOM      6  C7  UNL d   1      -1.737  -0.254   0.736  0.00  0.00     0.002 A 
ATOM      7  C8  UNL d   1      -1.000  -1.281   0.142  0.00  0.00     0.006 A 
ENDROOT
BRANCH   1   8
ATOM      8  C1  UNL d   1       0.945  -2.099  -1.240  0.00  0.00     0.054 C 
ATOM      9  C   UNL d   1       0.280  -2.698  -2.472  0.00  0.00     0.018 C 
ENDBRANCH   1   8
TORSDOF 1
ENDMDL
