MODEL 1
REMARK minimizedAffinity -5.91740465
REMARK minimizedRMSD -1
REMARK  1 active torsions:
REMARK  status: ('A' for Active; 'I' for Inactive)
REMARK    1  A    between atoms: C1_2  and  C2_3 
ROOT
ATOM      1  C2  UNL d   1      -0.543   0.087   0.232  0.00  0.00    -0.081 A 
ATOM      2  C3  UNL d   1      -1.468  -0.734  -0.424  0.00  0.00     0.006 A 
ATOM      3  C4  UNL d   1      -1.038  -1.681  -1.357  0.00  0.00     0.002 A 
ATOM      4  C5  UNL d   1       0.323  -1.828  -1.643  0.00  0.00    -0.080 A 
ATOM      5  C6  UNL d   1       0.801  -2.861  -2.620  0.00  0.00     0.076 C 
ATOM      6  C7  UNL d   1       1.246  -0.995  -1.000  0.00  0.00     0.002 A 
ATOM      7  C8  UNL d   1       0.817  -0.048  -0.068  0.00  0.00     0.006 A 
ENDROOT
BRANCH   1   8
ATOM      8  C1  UNL d   1      -0.998   1.065   1.286  0.00  0.00     0.054 C 
ATOM      9  C   UNL d   1      -2.517   1.134   1.358  0.00  0.00     0.018 C 
ENDBRANCH   1   8
TORSDOF 1
ENDMDL
