MODEL 1
REMARK minimizedAffinity -5.3892436
REMARK minimizedRMSD -1
REMARK  1 active torsions:
REMARK  status: ('A' for Active; 'I' for Inactive)
REMARK    1  A    between atoms: C1_2  and  C2_3 
ROOT
ATOM      1  C2  UNL d   1      -0.921   0.561   0.837  0.00  0.00    -0.081 A 
ATOM      2  C3  UNL d   1       0.306   0.616   0.165  0.00  0.00     0.006 A 
ATOM      3  C4  UNL d   1       0.661  -0.381  -0.746  0.00  0.00     0.002 A 
ATOM      4  C5  UNL d   1      -0.209  -1.446  -1.006  0.00  0.00    -0.080 A 
ATOM      5  C6  UNL d   1       0.147  -2.508  -2.004  0.00  0.00     0.076 C 
ATOM      6  C7  UNL d   1      -1.427  -1.511  -0.322  0.00  0.00     0.002 A 
ATOM      7  C8  UNL d   1      -1.782  -0.514   0.589  0.00  0.00     0.006 A 
ENDROOT
BRANCH   1   8
ATOM      8  C1  UNL d   1      -1.334   1.669   1.771  0.00  0.00     0.054 C 
ATOM      9  C   UNL d   1      -1.332   3.018   1.065  0.00  0.00     0.018 C 
ENDBRANCH   1   8
TORSDOF 1
ENDMDL
