MODEL 1
REMARK minimizedAffinity -3.73313093
REMARK minimizedRMSD -1
REMARK  1 active torsions:
REMARK  status: ('A' for Active; 'I' for Inactive)
REMARK    1  A    between atoms: C1_2  and  C2_3 
ROOT
ATOM      1  C2  UNL d   1      -0.375   0.934   0.617  0.00  0.00    -0.081 A 
ATOM      2  C3  UNL d   1      -0.200   1.897  -0.384  0.00  0.00     0.006 A 
ATOM      3  C4  UNL d   1      -0.910   3.099  -0.342  0.00  0.00     0.002 A 
ATOM      4  C5  UNL d   1      -1.800   3.362   0.705  0.00  0.00    -0.080 A 
ATOM      5  C6  UNL d   1      -2.545   4.661   0.778  0.00  0.00     0.076 C 
ATOM      6  C7  UNL d   1      -1.989   2.392   1.696  0.00  0.00     0.002 A 
ATOM      7  C8  UNL d   1      -1.280   1.190   1.654  0.00  0.00     0.006 A 
ENDROOT
BRANCH   1   8
ATOM      8  C1  UNL d   1       0.436  -0.336   0.610  0.00  0.00     0.054 C 
ATOM      9  C   UNL d   1       0.040  -1.253   1.758  0.00  0.00     0.018 C 
ENDBRANCH   1   8
TORSDOF 1
ENDMDL
