MODEL 1
REMARK minimizedAffinity -5.04980087
REMARK minimizedRMSD -1
REMARK  1 active torsions:
REMARK  status: ('A' for Active; 'I' for Inactive)
REMARK    1  A    between atoms: C1_2  and  C2_3 
ROOT
ATOM      1  C2  UNL d   1       0.200  -0.405  -0.611  0.00  0.00    -0.081 A 
ATOM      2  C3  UNL d   1      -1.014  -0.742   0.001  0.00  0.00     0.006 A 
ATOM      3  C4  UNL d   1      -1.799   0.242   0.607  0.00  0.00     0.002 A 
ATOM      4  C5  UNL d   1      -1.388   1.579   0.604  0.00  0.00    -0.080 A 
ATOM      5  C6  UNL d   1      -2.236   2.650   1.225  0.00  0.00     0.076 C 
ATOM      6  C7  UNL d   1      -0.168   1.914   0.008  0.00  0.00     0.002 A 
ATOM      7  C8  UNL d   1       0.618   0.930  -0.598  0.00  0.00     0.006 A 
ENDROOT
BRANCH   1   8
ATOM      8  C1  UNL d   1       1.017  -1.453  -1.322  0.00  0.00     0.054 C 
ATOM      9  C   UNL d   1       0.238  -2.077  -2.471  0.00  0.00     0.018 C 
ENDBRANCH   1   8
TORSDOF 1
ENDMDL
