MODEL 1
REMARK minimizedAffinity -4.10257816
REMARK minimizedRMSD -1
REMARK  1 active torsions:
REMARK  status: ('A' for Active; 'I' for Inactive)
REMARK    1  A    between atoms: C1_2  and  C2_3 
ROOT
ATOM      1  C2  UNL d   1      -0.031  -1.290  -0.696  0.00  0.00    -0.081 A 
ATOM      2  C3  UNL d   1       0.666  -0.130  -0.335  0.00  0.00     0.006 A 
ATOM      3  C4  UNL d   1       0.098   0.792   0.547  0.00  0.00     0.002 A 
ATOM      4  C5  UNL d   1      -1.172   0.567   1.088  0.00  0.00    -0.080 A 
ATOM      5  C6  UNL d   1      -1.781   1.534   2.060  0.00  0.00     0.076 C 
ATOM      6  C7  UNL d   1      -1.876  -0.583   0.714  0.00  0.00     0.002 A 
ATOM      7  C8  UNL d   1      -1.309  -1.505  -0.168  0.00  0.00     0.006 A 
ENDROOT
BRANCH   1   8
ATOM      8  C1  UNL d   1       0.606  -2.317  -1.596  0.00  0.00     0.054 C 
ATOM      9  C   UNL d   1       1.372  -3.358  -0.793  0.00  0.00     0.018 C 
ENDBRANCH   1   8
TORSDOF 1
ENDMDL
