MODEL 1
REMARK minimizedAffinity 2.16460872
REMARK minimizedRMSD -1
REMARK  1 active torsions:
REMARK  status: ('A' for Active; 'I' for Inactive)
REMARK    1  A    between atoms: C3_4  and  O_7 
ROOT
ATOM      1  C   UNL d   1       2.139   0.819   1.360  0.00  0.00    -0.033 A 
ATOM      2  C1  UNL d   1       1.532   0.798   2.617  0.00  0.00     0.039 A 
ATOM      3  C2  UNL d   1       2.292   0.526   3.756  0.00  0.00    -0.080 A 
ATOM      4  C3  UNL d   1       3.656   0.279   3.625  0.00  0.00     0.150 A 
ATOM      5  C4  UNL d   1       4.268   0.302   2.376  0.00  0.00    -0.007 A 
ATOM      6  C5  UNL d   1       3.507   0.573   1.239  0.00  0.00     0.039 A 
ENDROOT
BRANCH   4   7
ATOM      7  O   UNL d   1       4.438   0.004   4.708  0.00  0.00    -0.526 OA
ATOM      8  H5  UNL d   1       3.874  -0.007   5.499  0.00  0.00     0.418 HD
ENDBRANCH   4   7
TORSDOF 1
ENDMDL
