MODEL 1
REMARK minimizedAffinity 0.25542599
REMARK minimizedRMSD -1
REMARK  1 active torsions:
REMARK  status: ('A' for Active; 'I' for Inactive)
REMARK    1  A    between atoms: C3_4  and  O_7 
ROOT
ATOM      1  C   UNL d   1       0.641  -0.187   0.351  0.00  0.00    -0.033 A 
ATOM      2  C1  UNL d   1       0.696   1.108   0.867  0.00  0.00     0.039 A 
ATOM      3  C2  UNL d   1      -0.218   1.512   1.843  0.00  0.00    -0.080 A 
ATOM      4  C3  UNL d   1      -1.180   0.612   2.292  0.00  0.00     0.150 A 
ATOM      5  C4  UNL d   1      -1.238  -0.682   1.785  0.00  0.00    -0.007 A 
ATOM      6  C5  UNL d   1      -0.325  -1.083   0.810  0.00  0.00     0.039 A 
ENDROOT
BRANCH   4   7
ATOM      7  O   UNL d   1      -2.096   0.961   3.239  0.00  0.00    -0.526 OA
ATOM      8  H5  UNL d   1      -1.953   1.893   3.476  0.00  0.00     0.418 HD
ENDBRANCH   4   7
TORSDOF 1
ENDMDL
