MODEL 1
REMARK minimizedAffinity -1.60311306
REMARK minimizedRMSD -1
REMARK  1 active torsions:
REMARK  status: ('A' for Active; 'I' for Inactive)
REMARK    1  A    between atoms: C3_4  and  O_7 
ROOT
ATOM      1  C   UNL d   1       0.184   0.058   0.766  0.00  0.00    -0.033 A 
ATOM      2  C1  UNL d   1       1.069   0.807  -0.012  0.00  0.00     0.039 A 
ATOM      3  C2  UNL d   1       1.415   2.104   0.372  0.00  0.00    -0.080 A 
ATOM      4  C3  UNL d   1       0.871   2.639   1.536  0.00  0.00     0.150 A 
ATOM      5  C4  UNL d   1      -0.008   1.898   2.319  0.00  0.00    -0.007 A 
ATOM      6  C5  UNL d   1      -0.354   0.604   1.933  0.00  0.00     0.039 A 
ENDROOT
BRANCH   4   7
ATOM      7  O   UNL d   1       1.175   3.902   1.950  0.00  0.00    -0.526 OA
ATOM      8  H5  UNL d   1       1.771   4.305   1.296  0.00  0.00     0.418 HD
ENDBRANCH   4   7
TORSDOF 1
ENDMDL
