MODEL 1
REMARK minimizedAffinity 4.35259724
REMARK minimizedRMSD -1
REMARK  1 active torsions:
REMARK  status: ('A' for Active; 'I' for Inactive)
REMARK    1  A    between atoms: C3_4  and  O_7 
ROOT
ATOM      1  C   UNL d   1       0.375   1.806   0.145  0.00  0.00    -0.033 A 
ATOM      2  C1  UNL d   1       1.466   1.002   0.481  0.00  0.00     0.039 A 
ATOM      3  C2  UNL d   1       1.276  -0.350   0.771  0.00  0.00    -0.080 A 
ATOM      4  C3  UNL d   1      -0.008  -0.886   0.721  0.00  0.00     0.150 A 
ATOM      5  C4  UNL d   1      -1.099  -0.091   0.384  0.00  0.00    -0.007 A 
ATOM      6  C5  UNL d   1      -0.907   1.259   0.095  0.00  0.00     0.039 A 
ENDROOT
BRANCH   4   7
ATOM      7  O   UNL d   1      -0.244  -2.199   1.001  0.00  0.00    -0.526 OA
ATOM      8  H5  UNL d   1       0.599  -2.617   1.246  0.00  0.00     0.418 HD
ENDBRANCH   4   7
TORSDOF 1
ENDMDL
