MODEL 1
REMARK minimizedAffinity 1.34825635
REMARK minimizedRMSD -1
REMARK  1 active torsions:
REMARK  status: ('A' for Active; 'I' for Inactive)
REMARK    1  A    between atoms: C3_4  and  O_7 
ROOT
ATOM      1  C   UNL d   1       0.570   0.297   0.028  0.00  0.00    -0.033 A 
ATOM      2  C1  UNL d   1       0.271   0.557   1.367  0.00  0.00     0.039 A 
ATOM      3  C2  UNL d   1       0.547   1.811   1.915  0.00  0.00    -0.080 A 
ATOM      4  C3  UNL d   1       1.122   2.795   1.115  0.00  0.00     0.150 A 
ATOM      5  C4  UNL d   1       1.419   2.544  -0.221  0.00  0.00    -0.007 A 
ATOM      6  C5  UNL d   1       1.143   1.291  -0.766  0.00  0.00     0.039 A 
ENDROOT
BRANCH   4   7
ATOM      7  O   UNL d   1       1.414   4.032   1.606  0.00  0.00    -0.526 OA
ATOM      8  H5  UNL d   1       1.181   4.052   2.550  0.00  0.00     0.418 HD
ENDBRANCH   4   7
TORSDOF 1
ENDMDL
