MODEL 1
REMARK minimizedAffinity -3.44756198
REMARK minimizedRMSD -1
REMARK  1 active torsions:
REMARK  status: ('A' for Active; 'I' for Inactive)
REMARK    1  A    between atoms: C3_4  and  O_7 
ROOT
ATOM      1  C   UNL d   1       2.102   2.035   0.098  0.00  0.00    -0.033 A 
ATOM      2  C1  UNL d   1       2.617   0.750  -0.087  0.00  0.00     0.039 A 
ATOM      3  C2  UNL d   1       1.780  -0.362   0.023  0.00  0.00    -0.080 A 
ATOM      4  C3  UNL d   1       0.432  -0.176   0.316  0.00  0.00     0.150 A 
ATOM      5  C4  UNL d   1      -0.089   1.101   0.497  0.00  0.00    -0.007 A 
ATOM      6  C5  UNL d   1       0.749   2.211   0.389  0.00  0.00     0.039 A 
ENDROOT
BRANCH   4   7
ATOM      7  O   UNL d   1      -0.423  -1.231   0.437  0.00  0.00    -0.526 OA
ATOM      8  H5  UNL d   1       0.082  -2.052   0.315  0.00  0.00     0.418 HD
ENDBRANCH   4   7
TORSDOF 1
ENDMDL
