MODEL 1
REMARK minimizedAffinity 1.72347283
REMARK minimizedRMSD -1
REMARK  1 active torsions:
REMARK  status: ('A' for Active; 'I' for Inactive)
REMARK    1  A    between atoms: C3_4  and  O_7 
ROOT
ATOM      1  C   UNL d   1      -2.370   6.000  -3.216  0.00  0.00    -0.033 A 
ATOM      2  C1  UNL d   1      -1.806   5.995  -1.939  0.00  0.00     0.039 A 
ATOM      3  C2  UNL d   1      -2.629   5.994  -0.811  0.00  0.00    -0.080 A 
ATOM      4  C3  UNL d   1      -4.012   5.996  -0.974  0.00  0.00     0.150 A 
ATOM      5  C4  UNL d   1      -4.580   5.997  -2.243  0.00  0.00    -0.007 A 
ATOM      6  C5  UNL d   1      -3.757   5.999  -3.368  0.00  0.00     0.039 A 
ENDROOT
BRANCH   4   7
ATOM      7  O   UNL d   1      -4.855   6.000   0.097  0.00  0.00    -0.526 OA
ATOM      8  H5  UNL d   1      -4.322   6.028   0.909  0.00  0.00     0.418 HD
ENDBRANCH   4   7
TORSDOF 1
ENDMDL
