MODEL 1
REMARK minimizedAffinity -2.53131747
REMARK minimizedRMSD -1
REMARK  1 active torsions:
REMARK  status: ('A' for Active; 'I' for Inactive)
REMARK    1  A    between atoms: C3_4  and  O_7 
ROOT
ATOM      1  C   UNL d   1      -2.582   5.993  -3.891  0.00  0.00    -0.033 A 
ATOM      2  C1  UNL d   1      -2.062   5.998  -2.595  0.00  0.00     0.039 A 
ATOM      3  C2  UNL d   1      -2.923   6.000  -1.496  0.00  0.00    -0.080 A 
ATOM      4  C3  UNL d   1      -4.299   5.994  -1.705  0.00  0.00     0.150 A 
ATOM      5  C4  UNL d   1      -4.824   5.985  -2.993  0.00  0.00    -0.007 A 
ATOM      6  C5  UNL d   1      -3.963   5.984  -4.090  0.00  0.00     0.039 A 
ENDROOT
BRANCH   4   7
ATOM      7  O   UNL d   1      -5.179   6.000  -0.663  0.00  0.00    -0.526 OA
ATOM      8  H5  UNL d   1      -4.673   6.036   0.166  0.00  0.00     0.418 HD
ENDBRANCH   4   7
TORSDOF 1
ENDMDL
