MODEL 1
REMARK minimizedAffinity -1.73907185
REMARK minimizedRMSD -1
REMARK  1 active torsions:
REMARK  status: ('A' for Active; 'I' for Inactive)
REMARK    1  A    between atoms: C3_4  and  O_7 
ROOT
ATOM      1  C   UNL d   1       1.709   2.233  -0.090  0.00  0.00    -0.033 A 
ATOM      2  C1  UNL d   1       1.892   1.275  -1.089  0.00  0.00     0.039 A 
ATOM      3  C2  UNL d   1       1.257   0.035  -0.994  0.00  0.00    -0.080 A 
ATOM      4  C3  UNL d   1       0.443  -0.234   0.103  0.00  0.00     0.150 A 
ATOM      5  C4  UNL d   1       0.253   0.718   1.100  0.00  0.00    -0.007 A 
ATOM      6  C5  UNL d   1       0.889   1.955   1.004  0.00  0.00     0.039 A 
ENDROOT
BRANCH   4   7
ATOM      7  O   UNL d   1      -0.193  -1.431   0.242  0.00  0.00    -0.526 OA
ATOM      8  H5  UNL d   1       0.053  -2.000  -0.507  0.00  0.00     0.418 HD
ENDBRANCH   4   7
TORSDOF 1
ENDMDL
