MODEL 1
REMARK minimizedAffinity 3.49687195
REMARK minimizedRMSD -1
REMARK  1 active torsions:
REMARK  status: ('A' for Active; 'I' for Inactive)
REMARK    1  A    between atoms: C3_4  and  O_7 
ROOT
ATOM      1  C   UNL d   1       1.607   2.190  -0.570  0.00  0.00    -0.033 A 
ATOM      2  C1  UNL d   1       1.314   1.195  -1.505  0.00  0.00     0.039 A 
ATOM      3  C2  UNL d   1       0.749  -0.012  -1.089  0.00  0.00    -0.080 A 
ATOM      4  C3  UNL d   1       0.480  -0.211   0.263  0.00  0.00     0.150 A 
ATOM      5  C4  UNL d   1       0.766   0.777   1.199  0.00  0.00    -0.007 A 
ATOM      6  C5  UNL d   1       1.331   1.982   0.781  0.00  0.00     0.039 A 
ENDROOT
BRANCH   4   7
ATOM      7  O   UNL d   1      -0.066  -1.374   0.717  0.00  0.00    -0.526 OA
ATOM      8  H5  UNL d   1      -0.183  -1.975  -0.038  0.00  0.00     0.418 HD
ENDBRANCH   4   7
TORSDOF 1
ENDMDL
