MODEL 1
REMARK minimizedAffinity -0.000339470076
REMARK minimizedRMSD -1
REMARK  1 active torsions:
REMARK  status: ('A' for Active; 'I' for Inactive)
REMARK    1  A    between atoms: C3_4  and  O_7 
ROOT
ATOM      1  C   UNL d   1      -2.423   5.961  -2.337  0.00  0.00    -0.033 A 
ATOM      2  C1  UNL d   1      -3.796   5.993  -2.085  0.00  0.00     0.039 A 
ATOM      3  C2  UNL d   1      -4.266   5.999  -0.770  0.00  0.00    -0.080 A 
ATOM      4  C3  UNL d   1      -3.355   5.974   0.282  0.00  0.00     0.150 A 
ATOM      5  C4  UNL d   1      -1.985   5.946   0.038  0.00  0.00    -0.007 A 
ATOM      6  C5  UNL d   1      -1.518   5.939  -1.276  0.00  0.00     0.039 A 
ENDROOT
BRANCH   4   7
ATOM      7  O   UNL d   1      -3.766   5.974   1.581  0.00  0.00    -0.526 OA
ATOM      8  H5  UNL d   1      -4.737   5.966   1.597  0.00  0.00     0.418 HD
ENDBRANCH   4   7
TORSDOF 1
ENDMDL
