MODEL 1
REMARK minimizedAffinity -0.486985415
REMARK minimizedRMSD -1
REMARK  1 active torsions:
REMARK  status: ('A' for Active; 'I' for Inactive)
REMARK    1  A    between atoms: C3_4  and  O_7 
ROOT
ATOM      1  C   UNL d   1       1.187   1.399   0.832  0.00  0.00    -0.033 A 
ATOM      2  C1  UNL d   1       0.338   0.474   0.222  0.00  0.00     0.039 A 
ATOM      3  C2  UNL d   1      -0.849   0.093   0.850  0.00  0.00    -0.080 A 
ATOM      4  C3  UNL d   1      -1.176   0.644   2.085  0.00  0.00     0.150 A 
ATOM      5  C4  UNL d   1      -0.336   1.569   2.698  0.00  0.00    -0.007 A 
ATOM      6  C5  UNL d   1       0.849   1.947   2.070  0.00  0.00     0.039 A 
ENDROOT
BRANCH   4   7
ATOM      7  O   UNL d   1      -2.322   0.300   2.739  0.00  0.00    -0.526 OA
ATOM      8  H5  UNL d   1      -2.788  -0.369   2.211  0.00  0.00     0.418 HD
ENDBRANCH   4   7
TORSDOF 1
ENDMDL
