MODEL 1
REMARK minimizedAffinity 3.59538531
REMARK minimizedRMSD -1
REMARK  1 active torsions:
REMARK  status: ('A' for Active; 'I' for Inactive)
REMARK    1  A    between atoms: C3_4  and  O_7 
ROOT
ATOM      1  C   UNL d   1      -0.155   0.888   1.550  0.00  0.00    -0.033 A 
ATOM      2  C1  UNL d   1      -1.510   1.221   1.511  0.00  0.00     0.039 A 
ATOM      3  C2  UNL d   1      -2.339   0.669   0.533  0.00  0.00    -0.080 A 
ATOM      4  C3  UNL d   1      -1.802  -0.214  -0.399  0.00  0.00     0.150 A 
ATOM      5  C4  UNL d   1      -0.453  -0.554  -0.364  0.00  0.00    -0.007 A 
ATOM      6  C5  UNL d   1       0.373  -0.001   0.613  0.00  0.00     0.039 A 
ENDROOT
BRANCH   4   7
ATOM      7  O   UNL d   1      -2.570  -0.775  -1.376  0.00  0.00    -0.526 OA
ATOM      8  H5  UNL d   1      -3.474  -0.427  -1.294  0.00  0.00     0.418 HD
ENDBRANCH   4   7
TORSDOF 1
ENDMDL
