MODEL 1
REMARK minimizedAffinity -0.891991377
REMARK minimizedRMSD -1
REMARK  1 active torsions:
REMARK  status: ('A' for Active; 'I' for Inactive)
REMARK    1  A    between atoms: C3_4  and  O_7 
ROOT
ATOM      1  C   UNL d   1       4.853   4.971  -5.068  0.00  0.00    -0.033 A 
ATOM      2  C1  UNL d   1       4.063   4.263  -4.160  0.00  0.00     0.039 A 
ATOM      3  C2  UNL d   1       2.676   4.421  -4.168  0.00  0.00    -0.080 A 
ATOM      4  C3  UNL d   1       2.092   5.289  -5.088  0.00  0.00     0.150 A 
ATOM      5  C4  UNL d   1       2.873   5.994  -5.997  0.00  0.00    -0.007 A 
ATOM      6  C5  UNL d   1       4.259   5.835  -5.987  0.00  0.00     0.039 A 
ENDROOT
BRANCH   4   7
ATOM      7  O   UNL d   1       0.743   5.480  -5.130  0.00  0.00    -0.526 OA
ATOM      8  H5  UNL d   1       0.335   4.950  -4.425  0.00  0.00     0.418 HD
ENDBRANCH   4   7
TORSDOF 1
ENDMDL
