MODEL 1
REMARK minimizedAffinity 1.60185635
REMARK minimizedRMSD -1
REMARK  1 active torsions:
REMARK  status: ('A' for Active; 'I' for Inactive)
REMARK    1  A    between atoms: C3_4  and  O_7 
ROOT
ATOM      1  C   UNL d   1       5.962   5.060  -5.065  0.00  0.00    -0.033 A 
ATOM      2  C1  UNL d   1       5.199   4.212  -4.260  0.00  0.00     0.039 A 
ATOM      3  C2  UNL d   1       3.805   4.258  -4.319  0.00  0.00    -0.080 A 
ATOM      4  C3  UNL d   1       3.187   5.154  -5.186  0.00  0.00     0.150 A 
ATOM      5  C4  UNL d   1       3.940   5.999  -5.994  0.00  0.00    -0.007 A 
ATOM      6  C5  UNL d   1       5.332   5.953  -5.934  0.00  0.00     0.039 A 
ENDROOT
BRANCH   4   7
ATOM      7  O   UNL d   1       1.829   5.238  -5.275  0.00  0.00    -0.526 OA
ATOM      8  H5  UNL d   1       1.440   4.616  -4.638  0.00  0.00     0.418 HD
ENDBRANCH   4   7
TORSDOF 1
ENDMDL
