MODEL 1
REMARK minimizedAffinity 3.05131626
REMARK minimizedRMSD -1
REMARK  1 active torsions:
REMARK  status: ('A' for Active; 'I' for Inactive)
REMARK    1  A    between atoms: C3_4  and  O_7 
ROOT
ATOM      1  C   UNL d   1       0.788   1.068  -0.033  0.00  0.00    -0.033 A 
ATOM      2  C1  UNL d   1       1.226   0.463   1.146  0.00  0.00     0.039 A 
ATOM      3  C2  UNL d   1       2.559   0.070   1.278  0.00  0.00    -0.080 A 
ATOM      4  C3  UNL d   1       3.443   0.289   0.225  0.00  0.00     0.150 A 
ATOM      5  C4  UNL d   1       3.014   0.895  -0.951  0.00  0.00    -0.007 A 
ATOM      6  C5  UNL d   1       1.682   1.286  -1.081  0.00  0.00     0.039 A 
ENDROOT
BRANCH   4   7
ATOM      7  O   UNL d   1       4.752  -0.082   0.305  0.00  0.00    -0.526 OA
ATOM      8  H5  UNL d   1       4.898  -0.514   1.164  0.00  0.00     0.418 HD
ENDBRANCH   4   7
TORSDOF 1
ENDMDL
