MODEL 1
REMARK minimizedAffinity 24.5065002
REMARK minimizedRMSD -1
REMARK  0 active torsions:
REMARK  status: ('A' for Active; 'I' for Inactive)
ROOT
ATOM      1  C   UNL d   1      -3.648   0.280   1.536  0.00  0.00     0.124 A 
ATOM      2  C1  UNL d   1      -4.477  -0.815   1.335  0.00  0.00     0.062 A 
ATOM      3  C2  UNL d   1      -5.145  -1.395   2.410  0.00  0.00     0.162 A 
ATOM      4  C3  UNL d   1      -4.987  -0.880   3.696  0.00  0.00    -0.034 A 
ATOM      5  C4  UNL d   1      -4.151   0.221   3.891  0.00  0.00     0.162 A 
ATOM      6  C5  UNL d   1      -3.486   0.797   2.814  0.00  0.00     0.062 A 
ATOM      7  F   UNL d   1      -2.686   1.855   3.010  0.00  0.00    -0.097 F 
ATOM      8  F1  UNL d   1      -3.977   0.741   5.115  0.00  0.00    -0.096 F 
ATOM      9  I   UNL d   1      -5.983  -1.744   5.306  0.00  0.00    -0.060 I 
ATOM     10  F2  UNL d   1      -5.939  -2.452   2.186  0.00  0.00    -0.096 F 
ATOM     11  F3  UNL d   1      -4.635  -1.317   0.101  0.00  0.00    -0.097 F 
ATOM     12  F4  UNL d   1      -3.006   0.836   0.500  0.00  0.00    -0.092 F 
ENDROOT
TORSDOF 0
ENDMDL
