MODEL 1
REMARK minimizedAffinity 15.3779402
REMARK minimizedRMSD -1
REMARK  0 active torsions:
REMARK  status: ('A' for Active; 'I' for Inactive)
ROOT
ATOM      1  C   UNL d   1      -3.643  -2.715  -5.952  0.00  0.00     0.124 A 
ATOM      2  C1  UNL d   1      -3.496  -4.095  -5.938  0.00  0.00     0.062 A 
ATOM      3  C2  UNL d   1      -2.225  -4.663  -5.944  0.00  0.00     0.162 A 
ATOM      4  C3  UNL d   1      -1.091  -3.851  -5.965  0.00  0.00    -0.034 A 
ATOM      5  C4  UNL d   1      -1.248  -2.464  -5.980  0.00  0.00     0.162 A 
ATOM      6  C5  UNL d   1      -2.520  -1.901  -5.973  0.00  0.00     0.062 A 
ATOM      7  F   UNL d   1      -2.660  -0.567  -5.987  0.00  0.00    -0.097 F 
ATOM      8  F1  UNL d   1      -0.179  -1.653  -5.999  0.00  0.00    -0.096 F 
ATOM      9  I   UNL d   1       0.810  -4.696  -5.975  0.00  0.00    -0.060 I 
ATOM     10  F2  UNL d   1      -2.112  -5.999  -5.930  0.00  0.00    -0.096 F 
ATOM     11  F3  UNL d   1      -4.580  -4.883  -5.918  0.00  0.00    -0.097 F 
ATOM     12  F4  UNL d   1      -4.867  -2.171  -5.946  0.00  0.00    -0.092 F 
ENDROOT
TORSDOF 0
ENDMDL
