MODEL 1
REMARK minimizedAffinity 2.53150916
REMARK minimizedRMSD -1
REMARK  0 active torsions:
REMARK  status: ('A' for Active; 'I' for Inactive)
ROOT
ATOM      1  C   UNL d   1      -1.825  -2.371  -5.954  0.00  0.00     0.124 A 
ATOM      2  C1  UNL d   1      -1.396  -3.691  -5.950  0.00  0.00     0.062 A 
ATOM      3  C2  UNL d   1      -2.324  -4.729  -5.963  0.00  0.00     0.162 A 
ATOM      4  C3  UNL d   1      -3.691  -4.450  -5.980  0.00  0.00    -0.034 A 
ATOM      5  C4  UNL d   1      -4.114  -3.120  -5.983  0.00  0.00     0.162 A 
ATOM      6  C5  UNL d   1      -3.183  -2.087  -5.970  0.00  0.00     0.062 A 
ATOM      7  F   UNL d   1      -3.599  -0.812  -5.974  0.00  0.00    -0.097 F 
ATOM      8  F1  UNL d   1      -5.421  -2.817  -6.000  0.00  0.00    -0.096 F 
ATOM      9  I   UNL d   1      -5.081  -5.999  -5.999  0.00  0.00    -0.060 I 
ATOM     10  F2  UNL d   1      -1.881  -5.995  -5.959  0.00  0.00    -0.096 F 
ATOM     11  F3  UNL d   1      -0.084  -3.968  -5.934  0.00  0.00    -0.097 F 
ATOM     12  F4  UNL d   1      -0.930  -1.375  -5.941  0.00  0.00    -0.092 F 
ENDROOT
TORSDOF 0
ENDMDL
