MODEL 1
REMARK minimizedAffinity 11.7744188
REMARK minimizedRMSD -1
REMARK  0 active torsions:
REMARK  status: ('A' for Active; 'I' for Inactive)
ROOT
ATOM      1  C   UNL d   1      -3.962  -1.777  -5.954  0.00  0.00     0.124 A 
ATOM      2  C1  UNL d   1      -2.574  -1.777  -5.955  0.00  0.00     0.062 A 
ATOM      3  C2  UNL d   1      -1.874  -2.981  -5.968  0.00  0.00     0.162 A 
ATOM      4  C3  UNL d   1      -2.562  -4.194  -5.980  0.00  0.00    -0.034 A 
ATOM      5  C4  UNL d   1      -3.958  -4.186  -5.978  0.00  0.00     0.162 A 
ATOM      6  C5  UNL d   1      -4.652  -2.980  -5.965  0.00  0.00     0.062 A 
ATOM      7  F   UNL d   1      -5.993  -2.982  -5.964  0.00  0.00    -0.097 F 
ATOM      8  F1  UNL d   1      -4.651  -5.334  -5.990  0.00  0.00    -0.096 F 
ATOM      9  I   UNL d   1      -1.520  -5.996  -5.999  0.00  0.00    -0.060 I 
ATOM     10  F2  UNL d   1      -0.533  -2.951  -5.968  0.00  0.00    -0.096 F 
ATOM     11  F3  UNL d   1      -1.904  -0.616  -5.943  0.00  0.00    -0.097 F 
ATOM     12  F4  UNL d   1      -4.632  -0.618  -5.941  0.00  0.00    -0.092 F 
ENDROOT
TORSDOF 0
ENDMDL
