MODEL 1
REMARK minimizedAffinity 8.25012589
REMARK minimizedRMSD -1
REMARK  0 active torsions:
REMARK  status: ('A' for Active; 'I' for Inactive)
ROOT
ATOM      1  C   UNL d   1      -5.830  -2.666   4.844  0.00  0.00     0.124 A 
ATOM      2  C1  UNL d   1      -5.780  -3.365   3.646  0.00  0.00     0.062 A 
ATOM      3  C2  UNL d   1      -5.605  -2.683   2.445  0.00  0.00     0.162 A 
ATOM      4  C3  UNL d   1      -5.479  -1.293   2.436  0.00  0.00    -0.034 A 
ATOM      5  C4  UNL d   1      -5.531  -0.598   3.646  0.00  0.00     0.162 A 
ATOM      6  C5  UNL d   1      -5.706  -1.284   4.843  0.00  0.00     0.062 A 
ATOM      7  F   UNL d   1      -5.755  -0.608   6.000  0.00  0.00    -0.097 F 
ATOM      8  F1  UNL d   1      -5.413   0.738   3.674  0.00  0.00    -0.096 F 
ATOM      9  I   UNL d   1      -5.218  -0.270   0.643  0.00  0.00    -0.060 I 
ATOM     10  F2  UNL d   1      -5.560  -3.383   1.302  0.00  0.00    -0.096 F 
ATOM     11  F3  UNL d   1      -5.900  -4.700   3.644  0.00  0.00    -0.097 F 
ATOM     12  F4  UNL d   1      -5.999  -3.325   5.998  0.00  0.00    -0.092 F 
ENDROOT
TORSDOF 0
ENDMDL
