MODEL 1
REMARK minimizedAffinity 23.1431313
REMARK minimizedRMSD -1
REMARK  0 active torsions:
REMARK  status: ('A' for Active; 'I' for Inactive)
ROOT
ATOM      1  C   UNL d   1      -1.134   3.664  -2.723  0.00  0.00     0.124 A 
ATOM      2  C1  UNL d   1      -0.814   4.697  -1.852  0.00  0.00     0.062 A 
ATOM      3  C2  UNL d   1      -0.143   4.428  -0.663  0.00  0.00     0.162 A 
ATOM      4  C3  UNL d   1       0.214   3.119  -0.337  0.00  0.00    -0.034 A 
ATOM      5  C4  UNL d   1      -0.112   2.086  -1.217  0.00  0.00     0.162 A 
ATOM      6  C5  UNL d   1      -0.782   2.360  -2.405  0.00  0.00     0.062 A 
ATOM      7  F   UNL d   1      -1.090   1.361  -3.244  0.00  0.00    -0.097 F 
ATOM      8  F1  UNL d   1       0.216   0.816  -0.935  0.00  0.00    -0.096 F 
ATOM      9  I   UNL d   1       1.217   2.712   1.441  0.00  0.00    -0.060 I 
ATOM     10  F2  UNL d   1       0.153   5.445   0.159  0.00  0.00    -0.096 F 
ATOM     11  F3  UNL d   1      -1.153   5.958  -2.157  0.00  0.00    -0.097 F 
ATOM     12  F4  UNL d   1      -1.780   3.926  -3.866  0.00  0.00    -0.092 F 
ENDROOT
TORSDOF 0
ENDMDL
