MODEL 1
REMARK minimizedAffinity 18.1667709
REMARK minimizedRMSD -1
REMARK  0 active torsions:
REMARK  status: ('A' for Active; 'I' for Inactive)
ROOT
ATOM      1  C   UNL d   1       0.049   2.858  -1.762  0.00  0.00     0.124 A 
ATOM      2  C1  UNL d   1      -0.427   4.059  -2.268  0.00  0.00     0.062 A 
ATOM      3  C2  UNL d   1      -1.293   4.843  -1.512  0.00  0.00     0.162 A 
ATOM      4  C3  UNL d   1      -1.688   4.429  -0.239  0.00  0.00    -0.034 A 
ATOM      5  C4  UNL d   1      -1.205   3.219   0.263  0.00  0.00     0.162 A 
ATOM      6  C5  UNL d   1      -0.340   2.439  -0.497  0.00  0.00     0.062 A 
ATOM      7  F   UNL d   1       0.119   1.279  -0.006  0.00  0.00    -0.097 F 
ATOM      8  F1  UNL d   1      -1.564   2.791   1.482  0.00  0.00    -0.096 F 
ATOM      9  I   UNL d   1      -2.983   5.599   0.895  0.00  0.00    -0.060 I 
ATOM     10  F2  UNL d   1      -1.738   6.000  -2.026  0.00  0.00    -0.096 F 
ATOM     11  F3  UNL d   1      -0.053   4.466  -3.490  0.00  0.00    -0.097 F 
ATOM     12  F4  UNL d   1       0.882   2.105  -2.492  0.00  0.00    -0.092 F 
ENDROOT
TORSDOF 0
ENDMDL
