MODEL 1
REMARK minimizedAffinity 25.5815258
REMARK minimizedRMSD -1
REMARK  0 active torsions:
REMARK  status: ('A' for Active; 'I' for Inactive)
ROOT
ATOM      1  C   UNL d   1      -0.277   4.381  -1.876  0.00  0.00     0.124 A 
ATOM      2  C1  UNL d   1      -1.215   5.157  -1.210  0.00  0.00     0.062 A 
ATOM      3  C2  UNL d   1      -2.524   5.229  -1.678  0.00  0.00     0.162 A 
ATOM      4  C3  UNL d   1      -2.902   4.522  -2.820  0.00  0.00    -0.034 A 
ATOM      5  C4  UNL d   1      -1.953   3.745  -3.485  0.00  0.00     0.162 A 
ATOM      6  C5  UNL d   1      -0.646   3.676  -3.013  0.00  0.00     0.062 A 
ATOM      7  F   UNL d   1       0.260   2.926  -3.658  0.00  0.00    -0.097 F 
ATOM      8  F1  UNL d   1      -2.283   3.052  -4.585  0.00  0.00    -0.096 F 
ATOM      9  I   UNL d   1      -4.858   4.627  -3.524  0.00  0.00    -0.060 I 
ATOM     10  F2  UNL d   1      -3.410   5.986  -1.015  0.00  0.00    -0.096 F 
ATOM     11  F3  UNL d   1      -0.861   5.840  -0.112  0.00  0.00    -0.097 F 
ATOM     12  F4  UNL d   1       0.982   4.315  -1.423  0.00  0.00    -0.092 F 
ENDROOT
TORSDOF 0
ENDMDL
