MODEL 1
REMARK minimizedAffinity 1.36791992
REMARK minimizedRMSD -1
REMARK  0 active torsions:
REMARK  status: ('A' for Active; 'I' for Inactive)
ROOT
ATOM      1  C2' OXE d   1       2.380   1.306  -2.939  0.00  0.00     0.078 C 
ATOM      2  C1' OXE d   1       1.089   3.420  -1.617  0.00  0.00     0.078 C 
ATOM      3  C1  OXE d   1       0.745   2.012  -1.197  0.00  0.00    -0.078 A 
ATOM      4  C2  OXE d   1       1.347   0.984  -1.881  0.00  0.00    -0.078 A 
ATOM      5  C3  OXE d   1       1.106  -0.333  -1.497  0.00  0.00     0.003 A 
ATOM      6  C4  OXE d   1       0.142  -0.623  -0.525  0.00  0.00    -0.002 A 
ATOM      7  C5  OXE d   1      -0.512   0.409   0.157  0.00  0.00    -0.002 A 
ATOM      8  C6  OXE d   1      -0.191   1.730  -0.137  0.00  0.00     0.003 A 
ENDROOT
TORSDOF 0
ENDMDL
