MODEL 1
REMARK minimizedAffinity 0.0708537623
REMARK minimizedRMSD -1
REMARK  0 active torsions:
REMARK  status: ('A' for Active; 'I' for Inactive)
ROOT
ATOM      1  C2' OXE d   1       1.565   2.031  -2.246  0.00  0.00     0.078 C 
ATOM      2  C1' OXE d   1       2.153   3.823  -0.167  0.00  0.00     0.078 C 
ATOM      3  C1  OXE d   1       1.149   2.732   0.108  0.00  0.00    -0.078 A 
ATOM      4  C2  OXE d   1       0.832   1.888  -0.929  0.00  0.00    -0.078 A 
ATOM      5  C3  OXE d   1      -0.047   0.831  -0.713  0.00  0.00     0.003 A 
ATOM      6  C4  OXE d   1      -0.727   0.712   0.504  0.00  0.00    -0.002 A 
ATOM      7  C5  OXE d   1      -0.449   1.585   1.561  0.00  0.00    -0.002 A 
ATOM      8  C6  OXE d   1       0.516   2.572   1.394  0.00  0.00     0.003 A 
ENDROOT
TORSDOF 0
ENDMDL
