MODEL 1
REMARK minimizedAffinity 9.15333176
REMARK minimizedRMSD -1
REMARK  0 active torsions:
REMARK  status: ('A' for Active; 'I' for Inactive)
ROOT
ATOM      1  C2' OXE d   1       1.343   0.705  -5.830  0.00  0.00     0.078 C 
ATOM      2  C1' OXE d   1      -0.663   2.670  -5.810  0.00  0.00     0.078 C 
ATOM      3  C1  OXE d   1       0.771   3.129  -5.894  0.00  0.00    -0.078 A 
ATOM      4  C2  OXE d   1       1.748   2.163  -5.856  0.00  0.00    -0.078 A 
ATOM      5  C3  OXE d   1       3.085   2.529  -5.986  0.00  0.00     0.003 A 
ATOM      6  C4  OXE d   1       3.451   3.881  -6.000  0.00  0.00    -0.002 A 
ATOM      7  C5  OXE d   1       2.474   4.882  -5.999  0.00  0.00    -0.002 A 
ATOM      8  C6  OXE d   1       1.131   4.522  -5.990  0.00  0.00     0.003 A 
ENDROOT
TORSDOF 0
ENDMDL
