MODEL 1
REMARK minimizedAffinity -2.57661724
REMARK minimizedRMSD -1
REMARK  0 active torsions:
REMARK  status: ('A' for Active; 'I' for Inactive)
ROOT
ATOM      1  C2' OXE d   1       2.467   2.622  -5.998  0.00  0.00     0.078 C 
ATOM      2  C1' OXE d   1       1.774   5.342  -6.000  0.00  0.00     0.078 C 
ATOM      3  C1  OXE d   1       3.240   4.990  -5.983  0.00  0.00    -0.078 A 
ATOM      4  C2  OXE d   1       3.570   3.657  -5.935  0.00  0.00    -0.078 A 
ATOM      5  C3  OXE d   1       4.908   3.276  -5.973  0.00  0.00     0.003 A 
ATOM      6  C4  OXE d   1       5.922   4.239  -5.905  0.00  0.00    -0.002 A 
ATOM      7  C5  OXE d   1       5.607   5.602  -5.913  0.00  0.00    -0.002 A 
ATOM      8  C6  OXE d   1       4.276   5.994  -5.994  0.00  0.00     0.003 A 
ENDROOT
TORSDOF 0
ENDMDL
