MODEL 1
REMARK minimizedAffinity 2.69340324
REMARK minimizedRMSD -1
REMARK  0 active torsions:
REMARK  status: ('A' for Active; 'I' for Inactive)
ROOT
ATOM      1  C2' OXE d   1      -2.142   5.978  -5.917  0.00  0.00     0.078 C 
ATOM      2  C1' OXE d   1      -3.855   3.754  -5.941  0.00  0.00     0.078 C 
ATOM      3  C1  OXE d   1      -2.369   3.498  -5.935  0.00  0.00    -0.078 A 
ATOM      4  C2  OXE d   1      -1.538   4.592  -5.971  0.00  0.00    -0.078 A 
ATOM      5  C3  OXE d   1      -0.159   4.412  -5.912  0.00  0.00     0.003 A 
ATOM      6  C4  OXE d   1       0.392   3.126  -5.971  0.00  0.00    -0.002 A 
ATOM      7  C5  OXE d   1      -0.436   1.999  -5.976  0.00  0.00    -0.002 A 
ATOM      8  C6  OXE d   1      -1.815   2.166  -5.915  0.00  0.00     0.003 A 
ENDROOT
TORSDOF 0
ENDMDL
