MODEL 1
REMARK minimizedAffinity -2.0737896
REMARK minimizedRMSD -1
REMARK  0 active torsions:
REMARK  status: ('A' for Active; 'I' for Inactive)
ROOT
ATOM      1  C2' OXE d   1       0.700   5.612  -5.967  0.00  0.00     0.078 C 
ATOM      2  C1' OXE d   1       0.484   2.813  -5.936  0.00  0.00     0.078 C 
ATOM      3  C1  OXE d   1      -0.792   3.617  -5.955  0.00  0.00    -0.078 A 
ATOM      4  C2  OXE d   1      -0.677   4.986  -5.923  0.00  0.00    -0.078 A 
ATOM      5  C3  OXE d   1      -1.821   5.776  -5.994  0.00  0.00     0.003 A 
ATOM      6  C4  OXE d   1      -3.092   5.190  -5.942  0.00  0.00    -0.002 A 
ATOM      7  C5  OXE d   1      -3.231   3.798  -5.935  0.00  0.00    -0.002 A 
ATOM      8  C6  OXE d   1      -2.095   2.999  -5.984  0.00  0.00     0.003 A 
ENDROOT
TORSDOF 0
ENDMDL
