MODEL 1
REMARK minimizedAffinity -2.37524605
REMARK minimizedRMSD -1
REMARK  0 active torsions:
REMARK  status: ('A' for Active; 'I' for Inactive)
ROOT
ATOM      1  C2' OXE d   1      -0.288   2.227  -5.947  0.00  0.00     0.078 C 
ATOM      2  C1' OXE d   1       0.559   4.903  -5.999  0.00  0.00     0.078 C 
ATOM      3  C1  OXE d   1      -0.925   4.635  -5.976  0.00  0.00    -0.078 A 
ATOM      4  C2  OXE d   1      -1.331   3.322  -5.998  0.00  0.00    -0.078 A 
ATOM      5  C3  OXE d   1      -2.688   3.019  -5.923  0.00  0.00     0.003 A 
ATOM      6  C4  OXE d   1      -3.646   4.038  -5.980  0.00  0.00    -0.002 A 
ATOM      7  C5  OXE d   1      -3.255   5.381  -5.999  0.00  0.00    -0.002 A 
ATOM      8  C6  OXE d   1      -1.901   5.697  -5.954  0.00  0.00     0.003 A 
ENDROOT
TORSDOF 0
ENDMDL
