MODEL 1
REMARK minimizedAffinity -1.62359214
REMARK minimizedRMSD -1
REMARK  0 active torsions:
REMARK  status: ('A' for Active; 'I' for Inactive)
ROOT
ATOM      1  C2' OXE d   1      -3.046   5.998  -5.946  0.00  0.00     0.078 C 
ATOM      2  C1' OXE d   1      -3.794   3.293  -5.983  0.00  0.00     0.078 C 
ATOM      3  C1  OXE d   1      -2.321   3.615  -5.969  0.00  0.00    -0.078 A 
ATOM      4  C2  OXE d   1      -1.964   4.942  -5.998  0.00  0.00    -0.078 A 
ATOM      5  C3  OXE d   1      -0.619   5.296  -5.931  0.00  0.00     0.003 A 
ATOM      6  C4  OXE d   1       0.376   4.313  -5.989  0.00  0.00    -0.002 A 
ATOM      7  C5  OXE d   1       0.034   2.956  -6.000  0.00  0.00    -0.002 A 
ATOM      8  C6  OXE d   1      -1.306   2.591  -5.947  0.00  0.00     0.003 A 
ENDROOT
TORSDOF 0
ENDMDL
