MODEL 1
REMARK minimizedAffinity 2.88338947
REMARK minimizedRMSD -1
REMARK  0 active torsions:
REMARK  status: ('A' for Active; 'I' for Inactive)
ROOT
ATOM      1  C2' OXE d   1       4.988   5.986  -5.991  0.00  0.00     0.078 C 
ATOM      2  C1' OXE d   1       5.878   3.324  -5.973  0.00  0.00     0.078 C 
ATOM      3  C1  OXE d   1       4.390   3.568  -5.978  0.00  0.00    -0.078 A 
ATOM      4  C2  OXE d   1       3.963   4.873  -5.940  0.00  0.00    -0.078 A 
ATOM      5  C3  OXE d   1       2.601   5.156  -5.998  0.00  0.00     0.003 A 
ATOM      6  C4  OXE d   1       1.660   4.121  -5.940  0.00  0.00    -0.002 A 
ATOM      7  C5  OXE d   1       2.073   2.784  -5.938  0.00  0.00    -0.002 A 
ATOM      8  C6  OXE d   1       3.431   2.491  -6.000  0.00  0.00     0.003 A 
ENDROOT
TORSDOF 0
ENDMDL
