MODEL 1
REMARK minimizedAffinity -3.00580311
REMARK minimizedRMSD -1
REMARK  0 active torsions:
REMARK  status: ('A' for Active; 'I' for Inactive)
ROOT
ATOM      1  C2' OXE d   1      -0.445   2.762  -5.969  0.00  0.00     0.078 C 
ATOM      2  C1' OXE d   1       0.039   5.528  -6.000  0.00  0.00     0.078 C 
ATOM      3  C1  OXE d   1      -1.397   5.065  -5.965  0.00  0.00    -0.078 A 
ATOM      4  C2  OXE d   1      -1.625   3.710  -5.998  0.00  0.00    -0.078 A 
ATOM      5  C3  OXE d   1      -2.928   3.228  -5.913  0.00  0.00     0.003 A 
ATOM      6  C4  OXE d   1      -4.014   4.112  -5.950  0.00  0.00    -0.002 A 
ATOM      7  C5  OXE d   1      -3.804   5.495  -5.957  0.00  0.00    -0.002 A 
ATOM      8  C6  OXE d   1      -2.504   5.987  -5.922  0.00  0.00     0.003 A 
ENDROOT
TORSDOF 0
ENDMDL
