MODEL 1
REMARK minimizedAffinity 0.0558131449
REMARK minimizedRMSD -1
REMARK  0 active torsions:
REMARK  status: ('A' for Active; 'I' for Inactive)
ROOT
ATOM      1  C2' OXE d   1      -3.690   3.177  -5.998  0.00  0.00     0.078 C 
ATOM      2  C1' OXE d   1      -3.319   5.960  -5.977  0.00  0.00     0.078 C 
ATOM      3  C1  OXE d   1      -2.089   5.086  -5.980  0.00  0.00    -0.078 A 
ATOM      4  C2  OXE d   1      -2.280   3.726  -5.943  0.00  0.00    -0.078 A 
ATOM      5  C3  OXE d   1      -1.181   2.874  -5.999  0.00  0.00     0.003 A 
ATOM      6  C4  OXE d   1       0.119   3.389  -5.938  0.00  0.00    -0.002 A 
ATOM      7  C5  OXE d   1       0.336   4.771  -5.936  0.00  0.00    -0.002 A 
ATOM      8  C6  OXE d   1      -0.754   5.632  -5.999  0.00  0.00     0.003 A 
ENDROOT
TORSDOF 0
ENDMDL
