MODEL 1
REMARK minimizedAffinity 3.12987208
REMARK minimizedRMSD -1
REMARK  0 active torsions:
REMARK  status: ('A' for Active; 'I' for Inactive)
ROOT
ATOM      1  C2' OXE d   1      -1.780   3.030  -5.771  0.00  0.00     0.078 C 
ATOM      2  C1' OXE d   1      -1.468   5.820  -5.787  0.00  0.00     0.078 C 
ATOM      3  C1  OXE d   1      -0.224   4.972  -5.874  0.00  0.00    -0.078 A 
ATOM      4  C2  OXE d   1      -0.382   3.608  -5.818  0.00  0.00    -0.078 A 
ATOM      5  C3  OXE d   1       0.728   2.779  -5.948  0.00  0.00     0.003 A 
ATOM      6  C4  OXE d   1       2.018   3.322  -5.981  0.00  0.00    -0.002 A 
ATOM      7  C5  OXE d   1       2.205   4.708  -5.999  0.00  0.00    -0.002 A 
ATOM      8  C6  OXE d   1       1.095   5.546  -5.989  0.00  0.00     0.003 A 
ENDROOT
TORSDOF 0
ENDMDL
