MODEL 1
REMARK minimizedAffinity -2.23786879
REMARK minimizedRMSD -1
REMARK  0 active torsions:
REMARK  status: ('A' for Active; 'I' for Inactive)
ROOT
ATOM      1  C2' OXE d   1      -4.460   4.143  -5.783  0.00  0.00     0.078 C 
ATOM      2  C1' OXE d   1      -3.767   5.410  -3.376  0.00  0.00     0.078 C 
ATOM      3  C1  OXE d   1      -2.689   4.648  -4.106  0.00  0.00    -0.078 A 
ATOM      4  C2  OXE d   1      -3.049   3.993  -5.259  0.00  0.00    -0.078 A 
ATOM      5  C3  OXE d   1      -2.081   3.321  -6.000  0.00  0.00     0.003 A 
ATOM      6  C4  OXE d   1      -0.780   3.178  -5.502  0.00  0.00    -0.002 A 
ATOM      7  C5  OXE d   1      -0.403   3.804  -4.310  0.00  0.00    -0.002 A 
ATOM      8  C6  OXE d   1      -1.332   4.577  -3.623  0.00  0.00     0.003 A 
ENDROOT
TORSDOF 0
ENDMDL
