MODEL 1
REMARK minimizedAffinity -2.58112741
REMARK minimizedRMSD -1
REMARK  0 active torsions:
REMARK  status: ('A' for Active; 'I' for Inactive)
ROOT
ATOM      1  C2' OXE d   1       0.773   5.182  -5.996  0.00  0.00     0.078 C 
ATOM      2  C1' OXE d   1       0.206   2.432  -6.000  0.00  0.00     0.078 C 
ATOM      3  C1  OXE d   1      -0.958   3.390  -5.985  0.00  0.00    -0.078 A 
ATOM      4  C2  OXE d   1      -0.672   4.733  -5.936  0.00  0.00    -0.078 A 
ATOM      5  C3  OXE d   1      -1.708   5.661  -5.976  0.00  0.00     0.003 A 
ATOM      6  C4  OXE d   1      -3.041   5.238  -5.910  0.00  0.00    -0.002 A 
ATOM      7  C5  OXE d   1      -3.355   3.875  -5.919  0.00  0.00    -0.002 A 
ATOM      8  C6  OXE d   1      -2.328   2.940  -5.999  0.00  0.00     0.003 A 
ENDROOT
TORSDOF 0
ENDMDL
