MODEL 1
REMARK minimizedAffinity -2.26966834
REMARK minimizedRMSD -1
REMARK  0 active torsions:
REMARK  status: ('A' for Active; 'I' for Inactive)
ROOT
ATOM      1  C2' OXE d   1      -3.332   3.000  -6.000  0.00  0.00     0.078 C 
ATOM      2  C1' OXE d   1      -2.512   5.685  -5.987  0.00  0.00     0.078 C 
ATOM      3  C1  OXE d   1      -1.442   4.623  -5.983  0.00  0.00    -0.078 A 
ATOM      4  C2  OXE d   1      -1.852   3.312  -5.942  0.00  0.00    -0.078 A 
ATOM      5  C3  OXE d   1      -0.907   2.292  -5.992  0.00  0.00     0.003 A 
ATOM      6  C4  OXE d   1       0.460   2.588  -5.928  0.00  0.00    -0.002 A 
ATOM      7  C5  OXE d   1       0.899   3.916  -5.930  0.00  0.00    -0.002 A 
ATOM      8  C6  OXE d   1      -0.036   4.943  -6.000  0.00  0.00     0.003 A 
ENDROOT
TORSDOF 0
ENDMDL
