MODEL 1
REMARK minimizedAffinity 2.56519938
REMARK minimizedRMSD -1
REMARK  0 active torsions:
REMARK  status: ('A' for Active; 'I' for Inactive)
ROOT
ATOM      1  C2' OXE d   1       1.056   2.815  -5.931  0.00  0.00     0.078 C 
ATOM      2  C1' OXE d   1       0.939   5.619  -6.000  0.00  0.00     0.078 C 
ATOM      3  C1  OXE d   1      -0.365   4.861  -5.974  0.00  0.00    -0.078 A 
ATOM      4  C2  OXE d   1      -0.298   3.489  -5.988  0.00  0.00    -0.078 A 
ATOM      5  C3  OXE d   1      -1.470   2.741  -5.910  0.00  0.00     0.003 A 
ATOM      6  C4  OXE d   1      -2.718   3.372  -5.973  0.00  0.00    -0.002 A 
ATOM      7  C5  OXE d   1      -2.808   4.768  -6.000  0.00  0.00    -0.002 A 
ATOM      8  C6  OXE d   1      -1.644   5.526  -5.958  0.00  0.00     0.003 A 
ENDROOT
TORSDOF 0
ENDMDL
