MODEL 1
REMARK minimizedAffinity 7.09154987
REMARK minimizedRMSD -1
REMARK  0 active torsions:
REMARK  status: ('A' for Active; 'I' for Inactive)
ROOT
ATOM      1  C2' OXE d   1      -1.101   2.771   4.324  0.00  0.00     0.078 C 
ATOM      2  C1' OXE d   1      -2.632   1.940   2.123  0.00  0.00     0.078 C 
ATOM      3  C1  OXE d   1      -1.151   2.133   1.916  0.00  0.00    -0.078 A 
ATOM      4  C2  OXE d   1      -0.417   2.585   2.987  0.00  0.00    -0.078 A 
ATOM      5  C3  OXE d   1       0.962   2.729   2.866  0.00  0.00     0.003 A 
ATOM      6  C4  OXE d   1       1.586   2.564   1.623  0.00  0.00    -0.002 A 
ATOM      7  C5  OXE d   1       0.850   2.142   0.510  0.00  0.00    -0.002 A 
ATOM      8  C6  OXE d   1      -0.508   1.882   0.650  0.00  0.00     0.003 A 
ENDROOT
TORSDOF 0
ENDMDL
