MODEL 1
REMARK minimizedAffinity -2.02854013
REMARK minimizedRMSD -1
REMARK  0 active torsions:
REMARK  status: ('A' for Active; 'I' for Inactive)
ROOT
ATOM      1  C2' OXE d   1      -3.369   3.170  -5.987  0.00  0.00     0.078 C 
ATOM      2  C1' OXE d   1      -3.379   5.977  -5.967  0.00  0.00     0.078 C 
ATOM      3  C1  OXE d   1      -2.043   5.278  -5.975  0.00  0.00    -0.078 A 
ATOM      4  C2  OXE d   1      -2.047   3.905  -5.938  0.00  0.00    -0.078 A 
ATOM      5  C3  OXE d   1      -0.843   3.209  -6.000  0.00  0.00     0.003 A 
ATOM      6  C4  OXE d   1       0.376   3.897  -5.944  0.00  0.00    -0.002 A 
ATOM      7  C5  OXE d   1       0.403   5.295  -5.941  0.00  0.00    -0.002 A 
ATOM      8  C6  OXE d   1      -0.794   6.000  -6.000  0.00  0.00     0.003 A 
ENDROOT
TORSDOF 0
ENDMDL
