MODEL 1
REMARK minimizedAffinity 8.02471256
REMARK minimizedRMSD -1
REMARK  0 active torsions:
REMARK  status: ('A' for Active; 'I' for Inactive)
ROOT
ATOM      1  C2' OXE d   1       1.884  -0.391  -1.434  0.00  0.00     0.078 C 
ATOM      2  C1' OXE d   1       2.253   2.375  -1.738  0.00  0.00     0.078 C 
ATOM      3  C1  OXE d   1       2.245   1.526  -2.984  0.00  0.00    -0.078 A 
ATOM      4  C2  OXE d   1       2.111   0.168  -2.823  0.00  0.00    -0.078 A 
ATOM      5  C3  OXE d   1       2.042  -0.656  -3.942  0.00  0.00     0.003 A 
ATOM      6  C4  OXE d   1       2.263  -0.133  -5.222  0.00  0.00    -0.002 A 
ATOM      7  C5  OXE d   1       2.441   1.243  -5.405  0.00  0.00    -0.002 A 
ATOM      8  C6  OXE d   1       2.392   2.089  -4.303  0.00  0.00     0.003 A 
ENDROOT
TORSDOF 0
ENDMDL
