MODEL 1
REMARK minimizedAffinity -3.55093789
REMARK minimizedRMSD -1
REMARK  0 active torsions:
REMARK  status: ('A' for Active; 'I' for Inactive)
ROOT
ATOM      1  C   UNL d   1      -1.636   1.757   1.687  0.00  0.00     0.078 C 
ATOM      2  C1  UNL d   1      -0.712   0.974   0.803  0.00  0.00    -0.077 A 
ATOM      3  C2  UNL d   1      -0.323   1.465  -0.449  0.00  0.00    -0.001 A 
ATOM      4  C3  UNL d   1       0.530   0.720  -1.265  0.00  0.00     0.003 A 
ATOM      5  C4  UNL d   1       1.002  -0.519  -0.838  0.00  0.00    -0.005 A 
ATOM      6  C5  UNL d   1       0.619  -1.017   0.406  0.00  0.00     0.003 A 
ATOM      7  C6  UNL d   1      -0.235  -0.274   1.223  0.00  0.00    -0.001 A 
ENDROOT
TORSDOF 0
ENDMDL
