MODEL 1
REMARK minimizedAffinity -4.50467014
REMARK minimizedRMSD -1
REMARK  0 active torsions:
REMARK  status: ('A' for Active; 'I' for Inactive)
ROOT
ATOM      1  C   UNL d   1       1.518  -1.203  -0.707  0.00  0.00     0.078 C 
ATOM      2  C1  UNL d   1       0.968  -2.489  -1.245  0.00  0.00    -0.077 A 
ATOM      3  C2  UNL d   1       0.342  -2.538  -2.497  0.00  0.00    -0.001 A 
ATOM      4  C3  UNL d   1      -0.174  -3.741  -2.981  0.00  0.00     0.003 A 
ATOM      5  C4  UNL d   1      -0.071  -4.904  -2.220  0.00  0.00    -0.005 A 
ATOM      6  C5  UNL d   1       0.548  -4.865  -0.973  0.00  0.00     0.003 A 
ATOM      7  C6  UNL d   1       1.065  -3.663  -0.486  0.00  0.00    -0.001 A 
ENDROOT
TORSDOF 0
ENDMDL
