MODEL 1
REMARK minimizedAffinity -3.53209901
REMARK minimizedRMSD -1
REMARK  0 active torsions:
REMARK  status: ('A' for Active; 'I' for Inactive)
ROOT
ATOM      1  C   UNL d   1       0.674   1.891  -1.708  0.00  0.00     0.078 C 
ATOM      2  C1  UNL d   1       0.041   1.445  -0.424  0.00  0.00    -0.077 A 
ATOM      3  C2  UNL d   1      -0.823   2.288   0.285  0.00  0.00    -0.001 A 
ATOM      4  C3  UNL d   1      -1.398   1.863   1.483  0.00  0.00     0.003 A 
ATOM      5  C4  UNL d   1      -1.114   0.594   1.985  0.00  0.00    -0.005 A 
ATOM      6  C5  UNL d   1      -0.253  -0.251   1.287  0.00  0.00     0.003 A 
ATOM      7  C6  UNL d   1       0.323   0.172   0.088  0.00  0.00    -0.001 A 
ENDROOT
TORSDOF 0
ENDMDL
