MODEL 1
REMARK minimizedAffinity -5.57380819
REMARK minimizedRMSD -1
REMARK  0 active torsions:
REMARK  status: ('A' for Active; 'I' for Inactive)
ROOT
ATOM      1  C   UNL d   1      -2.242   2.263   1.902  0.00  0.00     0.078 C 
ATOM      2  C1  UNL d   1      -1.322   1.386   1.107  0.00  0.00    -0.077 A 
ATOM      3  C2  UNL d   1      -0.850   0.175   1.628  0.00  0.00    -0.001 A 
ATOM      4  C3  UNL d   1       0.014  -0.626   0.881  0.00  0.00     0.003 A 
ATOM      5  C4  UNL d   1       0.415  -0.226  -0.392  0.00  0.00    -0.005 A 
ATOM      6  C5  UNL d   1      -0.048   0.978  -0.919  0.00  0.00     0.003 A 
ATOM      7  C6  UNL d   1      -0.912   1.781  -0.173  0.00  0.00    -0.001 A 
ENDROOT
TORSDOF 0
ENDMDL
