MODEL 1
REMARK minimizedAffinity 0.0431700163
REMARK minimizedRMSD -1
REMARK  0 active torsions:
REMARK  status: ('A' for Active; 'I' for Inactive)
ROOT
ATOM      1  C   UNL d   1       5.999  -0.362  -5.419  0.00  0.00     0.078 C 
ATOM      2  C1  UNL d   1       5.380  -1.419  -4.555  0.00  0.00    -0.077 A 
ATOM      3  C2  UNL d   1       5.998  -1.834  -3.369  0.00  0.00    -0.001 A 
ATOM      4  C3  UNL d   1       5.415  -2.826  -2.579  0.00  0.00     0.003 A 
ATOM      5  C4  UNL d   1       4.212  -3.412  -2.966  0.00  0.00    -0.005 A 
ATOM      6  C5  UNL d   1       3.590  -3.007  -4.146  0.00  0.00     0.003 A 
ATOM      7  C6  UNL d   1       4.172  -2.015  -4.937  0.00  0.00    -0.001 A 
ENDROOT
TORSDOF 0
ENDMDL
