MODEL 1
REMARK minimizedAffinity -1.60988474
REMARK minimizedRMSD -1
REMARK  0 active torsions:
REMARK  status: ('A' for Active; 'I' for Inactive)
ROOT
ATOM      1  C   UNL d   1       0.671   1.805  -0.697  0.00  0.00     0.078 C 
ATOM      2  C1  UNL d   1       0.349   1.032   0.546  0.00  0.00    -0.077 A 
ATOM      3  C2  UNL d   1      -0.629   1.481   1.442  0.00  0.00    -0.001 A 
ATOM      4  C3  UNL d   1      -0.912   0.756   2.601  0.00  0.00     0.003 A 
ATOM      5  C4  UNL d   1      -0.221  -0.422   2.875  0.00  0.00    -0.005 A 
ATOM      6  C5  UNL d   1       0.755  -0.877   1.990  0.00  0.00     0.003 A 
ATOM      7  C6  UNL d   1       1.039  -0.153   0.831  0.00  0.00    -0.001 A 
ENDROOT
TORSDOF 0
ENDMDL
