MODEL 1
REMARK minimizedAffinity -3.63303232
REMARK minimizedRMSD -1
REMARK  0 active torsions:
REMARK  status: ('A' for Active; 'I' for Inactive)
ROOT
ATOM      1  C   UNL d   1       0.586  -0.042  -0.089  0.00  0.00     0.078 C 
ATOM      2  C1  UNL d   1       0.354  -1.109  -1.117  0.00  0.00    -0.077 A 
ATOM      3  C2  UNL d   1      -0.091  -0.785  -2.405  0.00  0.00    -0.001 A 
ATOM      4  C3  UNL d   1      -0.311  -1.789  -3.348  0.00  0.00     0.003 A 
ATOM      5  C4  UNL d   1      -0.092  -3.124  -3.014  0.00  0.00    -0.005 A 
ATOM      6  C5  UNL d   1       0.349  -3.456  -1.735  0.00  0.00     0.003 A 
ATOM      7  C6  UNL d   1       0.570  -2.453  -0.790  0.00  0.00    -0.001 A 
ENDROOT
TORSDOF 0
ENDMDL
