MODEL 1
REMARK minimizedAffinity -5.77748013
REMARK minimizedRMSD -1
REMARK  0 active torsions:
REMARK  status: ('A' for Active; 'I' for Inactive)
ROOT
ATOM      1  C   UNL d   1      -2.337   2.627   1.654  0.00  0.00     0.078 C 
ATOM      2  C1  UNL d   1      -1.355   1.643   1.091  0.00  0.00    -0.077 A 
ATOM      3  C2  UNL d   1      -1.010   1.664  -0.266  0.00  0.00    -0.001 A 
ATOM      4  C3  UNL d   1      -0.102   0.736  -0.778  0.00  0.00     0.003 A 
ATOM      5  C4  UNL d   1       0.468  -0.221   0.060  0.00  0.00    -0.005 A 
ATOM      6  C5  UNL d   1       0.129  -0.251   1.411  0.00  0.00     0.003 A 
ATOM      7  C6  UNL d   1      -0.779   0.676   1.925  0.00  0.00    -0.001 A 
ENDROOT
TORSDOF 0
ENDMDL
