MODEL 1
REMARK minimizedAffinity -5.7280798
REMARK minimizedRMSD -1
REMARK  0 active torsions:
REMARK  status: ('A' for Active; 'I' for Inactive)
ROOT
ATOM      1  C   UNL d   1      -2.193   1.649   1.142  0.00  0.00     0.078 C 
ATOM      2  C1  UNL d   1      -0.978   1.327   0.324  0.00  0.00    -0.077 A 
ATOM      3  C2  UNL d   1      -0.274   0.132   0.517  0.00  0.00    -0.001 A 
ATOM      4  C3  UNL d   1       0.861  -0.149  -0.245  0.00  0.00     0.003 A 
ATOM      5  C4  UNL d   1       1.303   0.760  -1.204  0.00  0.00    -0.005 A 
ATOM      6  C5  UNL d   1       0.611   1.953  -1.401  0.00  0.00     0.003 A 
ATOM      7  C6  UNL d   1      -0.524   2.236  -0.640  0.00  0.00    -0.001 A 
ENDROOT
TORSDOF 0
ENDMDL
