MODEL 1
REMARK minimizedAffinity -4.50267935
REMARK minimizedRMSD -1
REMARK  0 active torsions:
REMARK  status: ('A' for Active; 'I' for Inactive)
ROOT
ATOM      1  C   UNL d   1       0.633  -0.438  -1.024  0.00  0.00     0.078 C 
ATOM      2  C1  UNL d   1      -0.118   0.136   0.140  0.00  0.00    -0.077 A 
ATOM      3  C2  UNL d   1      -1.026   1.187  -0.036  0.00  0.00    -0.001 A 
ATOM      4  C3  UNL d   1      -1.711   1.719   1.057  0.00  0.00     0.003 A 
ATOM      5  C4  UNL d   1      -1.495   1.207   2.335  0.00  0.00    -0.005 A 
ATOM      6  C5  UNL d   1      -0.591   0.163   2.520  0.00  0.00     0.003 A 
ATOM      7  C6  UNL d   1       0.095  -0.370   1.428  0.00  0.00    -0.001 A 
ENDROOT
TORSDOF 0
ENDMDL
