MODEL 1
REMARK minimizedAffinity -4.74498367
REMARK minimizedRMSD -1
REMARK  0 active torsions:
REMARK  status: ('A' for Active; 'I' for Inactive)
ROOT
ATOM      1  C   UNL d   1       0.639  -1.261  -0.720  0.00  0.00     0.078 C 
ATOM      2  C1  UNL d   1      -0.005  -0.301   0.235  0.00  0.00    -0.077 A 
ATOM      3  C2  UNL d   1      -0.775  -0.760   1.310  0.00  0.00    -0.001 A 
ATOM      4  C3  UNL d   1      -1.377   0.145   2.185  0.00  0.00     0.003 A 
ATOM      5  C4  UNL d   1      -1.216   1.516   1.994  0.00  0.00    -0.005 A 
ATOM      6  C5  UNL d   1      -0.453   1.983   0.925  0.00  0.00     0.003 A 
ATOM      7  C6  UNL d   1       0.150   1.079   0.049  0.00  0.00    -0.001 A 
ENDROOT
TORSDOF 0
ENDMDL
