MODEL 1
REMARK minimizedAffinity -5.01021481
REMARK minimizedRMSD -1
REMARK  0 active torsions:
REMARK  status: ('A' for Active; 'I' for Inactive)
ROOT
ATOM      1  C   UNL d   1       0.316   3.477  -0.812  0.00  0.00     0.078 C 
ATOM      2  C1  UNL d   1      -0.020   2.265   0.005  0.00  0.00    -0.077 A 
ATOM      3  C2  UNL d   1       0.253   0.977  -0.471  0.00  0.00    -0.001 A 
ATOM      4  C3  UNL d   1      -0.073  -0.143   0.296  0.00  0.00     0.003 A 
ATOM      5  C4  UNL d   1      -0.675   0.014   1.543  0.00  0.00    -0.005 A 
ATOM      6  C5  UNL d   1      -0.952   1.292   2.024  0.00  0.00     0.003 A 
ATOM      7  C6  UNL d   1      -0.627   2.413   1.258  0.00  0.00    -0.001 A 
ENDROOT
TORSDOF 0
ENDMDL
