MODEL 1
REMARK minimizedAffinity -3.69051313
REMARK minimizedRMSD -1
REMARK  0 active torsions:
REMARK  status: ('A' for Active; 'I' for Inactive)
ROOT
ATOM      1  C   UNL d   1       0.448   0.629  -0.696  0.00  0.00     0.078 C 
ATOM      2  C1  UNL d   1       0.258  -0.757  -1.238  0.00  0.00    -0.077 A 
ATOM      3  C2  UNL d   1       0.862  -1.861  -0.624  0.00  0.00    -0.001 A 
ATOM      4  C3  UNL d   1       0.684  -3.143  -1.145  0.00  0.00     0.003 A 
ATOM      5  C4  UNL d   1      -0.096  -3.334  -2.284  0.00  0.00    -0.005 A 
ATOM      6  C5  UNL d   1      -0.699  -2.241  -2.903  0.00  0.00     0.003 A 
ATOM      7  C6  UNL d   1      -0.522  -0.958  -2.383  0.00  0.00    -0.001 A 
ENDROOT
TORSDOF 0
ENDMDL
