MODEL 1
REMARK minimizedAffinity -3.71791482
REMARK minimizedRMSD -1
REMARK  0 active torsions:
REMARK  status: ('A' for Active; 'I' for Inactive)
ROOT
ATOM      1  C   UNL d   1      -0.733   1.501  -2.039  0.00  0.00     0.078 C 
ATOM      2  C1  UNL d   1      -0.862   1.516  -0.545  0.00  0.00    -0.077 A 
ATOM      3  C2  UNL d   1      -1.495   2.577   0.114  0.00  0.00    -0.001 A 
ATOM      4  C3  UNL d   1      -1.599   2.582   1.506  0.00  0.00     0.003 A 
ATOM      5  C4  UNL d   1      -1.070   1.530   2.251  0.00  0.00    -0.005 A 
ATOM      6  C5  UNL d   1      -0.436   0.471   1.604  0.00  0.00     0.003 A 
ATOM      7  C6  UNL d   1      -0.332   0.464   0.212  0.00  0.00    -0.001 A 
ENDROOT
TORSDOF 0
ENDMDL
