MODEL 1
REMARK minimizedAffinity -0.643052757
REMARK minimizedRMSD -1
REMARK  0 active torsions:
REMARK  status: ('A' for Active; 'I' for Inactive)
ROOT
ATOM      1  C   UNL d   1      -1.850   1.068  -1.005  0.00  0.00     0.078 C 
ATOM      2  C1  UNL d   1      -2.624   1.868  -2.010  0.00  0.00    -0.077 A 
ATOM      3  C2  UNL d   1      -2.262   3.186  -2.316  0.00  0.00    -0.001 A 
ATOM      4  C3  UNL d   1      -2.997   3.922  -3.246  0.00  0.00     0.003 A 
ATOM      5  C4  UNL d   1      -4.100   3.349  -3.877  0.00  0.00    -0.005 A 
ATOM      6  C5  UNL d   1      -4.470   2.040  -3.577  0.00  0.00     0.003 A 
ATOM      7  C6  UNL d   1      -3.735   1.302  -2.647  0.00  0.00    -0.001 A 
ENDROOT
TORSDOF 0
ENDMDL
