MODEL 1
REMARK minimizedAffinity 0.977016985
REMARK minimizedRMSD -1
REMARK  3 active torsions:
REMARK  status: ('A' for Active; 'I' for Inactive)
REMARK    1  A    between atoms: C3'_2  and  C2'_3 
REMARK    2  A    between atoms: C2'_3  and  C1'_4 
REMARK    3  A    between atoms: C1'_4  and  C1_5 
ROOT
ATOM      1  C1  N4B d   1      -3.000   4.744   0.284  0.00  0.00    -0.075 A 
ATOM      2  C2  N4B d   1      -3.788   5.915   0.226  0.00  0.00     0.002 A 
ATOM      3  C3  N4B d   1      -4.947   6.000   0.958  0.00  0.00     0.002 A 
ATOM      4  C4  N4B d   1      -5.346   4.924   1.737  0.00  0.00    -0.004 A 
ATOM      5  C5  N4B d   1      -4.566   3.807   1.808  0.00  0.00     0.002 A 
ATOM      6  C6  N4B d   1      -3.397   3.709   1.080  0.00  0.00     0.002 A 
ENDROOT
BRANCH   1   7
ATOM      7  C1' N4B d   1      -1.771   4.572  -0.565  0.00  0.00     0.057 C 
BRANCH   7   8
ATOM      8  C2' N4B d   1      -1.225   3.159  -0.375  0.00  0.00     0.009 C 
BRANCH   8   9
ATOM      9  C3' N4B d   1       0.285   3.108  -0.529  0.00  0.00     0.004 C 
ATOM     10  C4' N4B d   1       0.850   4.357  -1.137  0.00  0.00     0.003 C 
ENDBRANCH   8   9
ENDBRANCH   7   8
ENDBRANCH   1   7
TORSDOF 3
ENDMDL
