MODEL 1
REMARK minimizedAffinity 7.4139266
REMARK minimizedRMSD -1
REMARK  3 active torsions:
REMARK  status: ('A' for Active; 'I' for Inactive)
REMARK    1  A    between atoms: C3'_2  and  C2'_3 
REMARK    2  A    between atoms: C2'_3  and  C1'_4 
REMARK    3  A    between atoms: C1'_4  and  C1_5 
ROOT
ATOM      1  C1  N4B d   1      -1.448   2.255  -2.409  0.00  0.00    -0.075 A 
ATOM      2  C2  N4B d   1      -2.551   2.217  -3.291  0.00  0.00     0.002 A 
ATOM      3  C3  N4B d   1      -2.520   1.401  -4.395  0.00  0.00     0.002 A 
ATOM      4  C4  N4B d   1      -1.395   0.631  -4.647  0.00  0.00    -0.004 A 
ATOM      5  C5  N4B d   1      -0.344   0.654  -3.777  0.00  0.00     0.002 A 
ATOM      6  C6  N4B d   1      -0.363   1.466  -2.661  0.00  0.00     0.002 A 
ENDROOT
BRANCH   1   7
ATOM      7  C1' N4B d   1      -1.401   3.195  -1.236  0.00  0.00     0.057 C 
BRANCH   7   8
ATOM      8  C2' N4B d   1      -0.060   3.042  -0.525  0.00  0.00     0.009 C 
BRANCH   8   9
ATOM      9  C3' N4B d   1       0.872   4.207  -0.812  0.00  0.00     0.004 C 
ATOM     10  C4' N4B d   1       0.189   5.334  -1.528  0.00  0.00     0.003 C 
ENDBRANCH   8   9
ENDBRANCH   7   8
ENDBRANCH   1   7
TORSDOF 3
ENDMDL
