MODEL 1
REMARK minimizedAffinity 10.8618593
REMARK minimizedRMSD -1
REMARK  3 active torsions:
REMARK  status: ('A' for Active; 'I' for Inactive)
REMARK    1  A    between atoms: C3'_2  and  C2'_3 
REMARK    2  A    between atoms: C2'_3  and  C1'_4 
REMARK    3  A    between atoms: C1'_4  and  C1_5 
ROOT
ATOM      1  C1  N4B d   1      -2.113   2.704  -1.351  0.00  0.00    -0.075 A 
ATOM      2  C2  N4B d   1      -2.972   2.500  -0.248  0.00  0.00     0.002 A 
ATOM      3  C3  N4B d   1      -2.445   2.246   0.994  0.00  0.00     0.002 A 
ATOM      4  C4  N4B d   1      -1.069   2.173   1.154  0.00  0.00    -0.004 A 
ATOM      5  C5  N4B d   1      -0.246   2.396   0.090  0.00  0.00     0.002 A 
ATOM      6  C6  N4B d   1      -0.762   2.656  -1.164  0.00  0.00     0.002 A 
ENDROOT
BRANCH   1   7
ATOM      7  C1' N4B d   1      -2.643   2.899  -2.745  0.00  0.00     0.057 C 
BRANCH   7   8
ATOM      8  C2' N4B d   1      -3.609   1.765  -3.077  0.00  0.00     0.009 C 
BRANCH   8   9
ATOM      9  C3' N4B d   1      -2.880   0.515  -3.537  0.00  0.00     0.004 C 
ATOM     10  C4' N4B d   1      -1.784   0.808  -4.517  0.00  0.00     0.003 C 
ENDBRANCH   8   9
ENDBRANCH   7   8
ENDBRANCH   1   7
TORSDOF 3
ENDMDL
