MODEL 1
REMARK minimizedAffinity 17.4579201
REMARK minimizedRMSD -1
REMARK  3 active torsions:
REMARK  status: ('A' for Active; 'I' for Inactive)
REMARK    1  A    between atoms: C3'_2  and  C2'_3 
REMARK    2  A    between atoms: C2'_3  and  C1'_4 
REMARK    3  A    between atoms: C1'_4  and  C1_5 
ROOT
ATOM      1  C1  N4B d   1       0.917  -0.628  -1.190  0.00  0.00    -0.075 A 
ATOM      2  C2  N4B d   1       1.253  -0.268   0.134  0.00  0.00     0.002 A 
ATOM      3  C3  N4B d   1       1.305  -1.229   1.114  0.00  0.00     0.002 A 
ATOM      4  C4  N4B d   1       1.006  -2.546   0.800  0.00  0.00    -0.004 A 
ATOM      5  C5  N4B d   1       0.707  -2.889  -0.486  0.00  0.00     0.002 A 
ATOM      6  C6  N4B d   1       0.656  -1.936  -1.482  0.00  0.00     0.002 A 
ENDROOT
BRANCH   1   7
ATOM      7  C1' N4B d   1       0.764   0.400  -2.278  0.00  0.00     0.057 C 
BRANCH   7   8
ATOM      8  C2' N4B d   1      -0.191  -0.135  -3.341  0.00  0.00     0.009 C 
BRANCH   8   9
ATOM      9  C3' N4B d   1      -1.164   0.929  -3.817  0.00  0.00     0.004 C 
ATOM     10  C4' N4B d   1      -1.684   0.664  -5.199  0.00  0.00     0.003 C 
ENDBRANCH   8   9
ENDBRANCH   7   8
ENDBRANCH   1   7
TORSDOF 3
ENDMDL
