MODEL 1
REMARK minimizedAffinity 6.14473152
REMARK minimizedRMSD -1
REMARK  3 active torsions:
REMARK  status: ('A' for Active; 'I' for Inactive)
REMARK    1  A    between atoms: C3'_2  and  C2'_3 
REMARK    2  A    between atoms: C2'_3  and  C1'_4 
REMARK    3  A    between atoms: C1'_4  and  C1_5 
ROOT
ATOM      1  C1  N4B d   1       3.338  -1.519   2.412  0.00  0.00    -0.075 A 
ATOM      2  C2  N4B d   1       3.530  -2.320   3.558  0.00  0.00     0.002 A 
ATOM      3  C3  N4B d   1       4.615  -3.159   3.636  0.00  0.00     0.002 A 
ATOM      4  C4  N4B d   1       5.507  -3.226   2.576  0.00  0.00    -0.004 A 
ATOM      5  C5  N4B d   1       5.328  -2.430   1.483  0.00  0.00     0.002 A 
ATOM      6  C6  N4B d   1       4.244  -1.580   1.393  0.00  0.00     0.002 A 
ENDROOT
BRANCH   1   7
ATOM      7  C1' N4B d   1       2.121  -0.650   2.245  0.00  0.00     0.057 C 
BRANCH   7   8
ATOM      8  C2' N4B d   1       1.000  -1.474   1.617  0.00  0.00     0.009 C 
BRANCH   8   9
ATOM      9  C3' N4B d   1       1.302  -1.837   0.173  0.00  0.00     0.004 C 
ATOM     10  C4' N4B d   1       0.553  -3.051  -0.289  0.00  0.00     0.003 C 
ENDBRANCH   8   9
ENDBRANCH   7   8
ENDBRANCH   1   7
TORSDOF 3
ENDMDL
