MODEL 1
REMARK minimizedAffinity 7.88866615
REMARK minimizedRMSD -1
REMARK  3 active torsions:
REMARK  status: ('A' for Active; 'I' for Inactive)
REMARK    1  A    between atoms: C3'_2  and  C2'_3 
REMARK    2  A    between atoms: C2'_3  and  C1'_4 
REMARK    3  A    between atoms: C1'_4  and  C1_5 
ROOT
ATOM      1  C1  N4B d   1      -3.793  -0.013   3.352  0.00  0.00    -0.075 A 
ATOM      2  C2  N4B d   1      -3.770  -0.120   4.760  0.00  0.00     0.002 A 
ATOM      3  C3  N4B d   1      -4.865  -0.610   5.429  0.00  0.00     0.002 A 
ATOM      4  C4  N4B d   1      -5.995  -0.980   4.716  0.00  0.00    -0.004 A 
ATOM      5  C5  N4B d   1      -6.000  -0.897   3.355  0.00  0.00     0.002 A 
ATOM      6  C6  N4B d   1      -4.905  -0.411   2.669  0.00  0.00     0.002 A 
ENDROOT
BRANCH   1   7
ATOM      7  C1' N4B d   1      -2.653   0.597   2.584  0.00  0.00     0.057 C 
BRANCH   7   8
ATOM      8  C2' N4B d   1      -3.152   1.835   1.845  0.00  0.00     0.009 C 
BRANCH   8   9
ATOM      9  C3' N4B d   1      -2.242   2.213   0.689  0.00  0.00     0.004 C 
ATOM     10  C4' N4B d   1      -2.977   2.885  -0.432  0.00  0.00     0.003 C 
ENDBRANCH   8   9
ENDBRANCH   7   8
ENDBRANCH   1   7
TORSDOF 3
ENDMDL
