MODEL 1
REMARK minimizedAffinity 10.4194946
REMARK minimizedRMSD -1
REMARK  3 active torsions:
REMARK  status: ('A' for Active; 'I' for Inactive)
REMARK    1  A    between atoms: C3'_2  and  C2'_3 
REMARK    2  A    between atoms: C2'_3  and  C1'_4 
REMARK    3  A    between atoms: C1'_4  and  C1_5 
ROOT
ATOM      1  C1  N4B d   1       3.668  -1.855   1.053  0.00  0.00    -0.075 A 
ATOM      2  C2  N4B d   1       2.605  -1.945   0.128  0.00  0.00     0.002 A 
ATOM      3  C3  N4B d   1       1.379  -1.410   0.437  0.00  0.00     0.002 A 
ATOM      4  C4  N4B d   1       1.186  -0.802   1.668  0.00  0.00    -0.004 A 
ATOM      5  C5  N4B d   1       2.225  -0.697   2.546  0.00  0.00     0.002 A 
ATOM      6  C6  N4B d   1       3.464  -1.226   2.247  0.00  0.00     0.002 A 
ENDROOT
BRANCH   1   7
ATOM      7  C1' N4B d   1       5.003  -2.500   0.795  0.00  0.00     0.057 C 
BRANCH   7   8
ATOM      8  C2' N4B d   1       5.636  -2.890   2.127  0.00  0.00     0.009 C 
BRANCH   8   9
ATOM      9  C3' N4B d   1       4.881  -4.019   2.807  0.00  0.00     0.004 C 
ATOM     10  C4' N4B d   1       4.217  -3.589   4.081  0.00  0.00     0.003 C 
ENDBRANCH   8   9
ENDBRANCH   7   8
ENDBRANCH   1   7
TORSDOF 3
ENDMDL
