MODEL 1
REMARK minimizedAffinity 0.00572211901
REMARK minimizedRMSD -1
REMARK  3 active torsions:
REMARK  status: ('A' for Active; 'I' for Inactive)
REMARK    1  A    between atoms: C3'_2  and  C2'_3 
REMARK    2  A    between atoms: C2'_3  and  C1'_4 
REMARK    3  A    between atoms: C1'_4  and  C1_5 
ROOT
ATOM      1  C1  N4B d   1      -2.249   3.701   1.232  0.00  0.00    -0.075 A 
ATOM      2  C2  N4B d   1      -2.133   4.377  -0.002  0.00  0.00     0.002 A 
ATOM      3  C3  N4B d   1      -1.144   4.024  -0.888  0.00  0.00     0.002 A 
ATOM      4  C4  N4B d   1      -0.252   3.015  -0.554  0.00  0.00    -0.004 A 
ATOM      5  C5  N4B d   1      -0.387   2.351   0.630  0.00  0.00     0.002 A 
ATOM      6  C6  N4B d   1      -1.379   2.692   1.528  0.00  0.00     0.002 A 
ENDROOT
BRANCH   1   7
ATOM      7  C1' N4B d   1      -3.260   4.110   2.269  0.00  0.00     0.057 C 
BRANCH   7   8
ATOM      8  C2' N4B d   1      -3.453   5.622   2.211  0.00  0.00     0.009 C 
BRANCH   8   9
ATOM      9  C3' N4B d   1      -4.900   6.000   1.942  0.00  0.00     0.004 C 
ATOM     10  C4' N4B d   1      -5.862   4.908   2.303  0.00  0.00     0.003 C 
ENDBRANCH   8   9
ENDBRANCH   7   8
ENDBRANCH   1   7
TORSDOF 3
ENDMDL
