MODEL 1
REMARK minimizedAffinity -2.99672103
REMARK minimizedRMSD -1
REMARK  1 active torsions:
REMARK  status: ('A' for Active; 'I' for Inactive)
REMARK    1  A    between atoms: C3_4  and  O_7 
ROOT
ATOM      1  C   UNL d   1       0.364  -1.042   0.604  0.00  0.00    -0.033 A 
ATOM      2  C1  UNL d   1       1.757  -0.955   0.617  0.00  0.00     0.039 A 
ATOM      3  C2  UNL d   1       2.532  -2.083   0.340  0.00  0.00    -0.080 A 
ATOM      4  C3  UNL d   1       1.902  -3.290   0.050  0.00  0.00     0.150 A 
ATOM      5  C4  UNL d   1       0.515  -3.383   0.031  0.00  0.00    -0.007 A 
ATOM      6  C5  UNL d   1      -0.258  -2.256   0.310  0.00  0.00     0.039 A 
ENDROOT
BRANCH   4   7
ATOM      7  O   UNL d   1       2.616  -4.419  -0.222  0.00  0.00    -0.526 OA
ATOM      8  H5  UNL d   1       3.562  -4.211  -0.144  0.00  0.00     0.418 HD
ENDBRANCH   4   7
TORSDOF 1
ENDMDL
