MODEL 1
REMARK minimizedAffinity 7.858706
REMARK minimizedRMSD -1
REMARK  1 active torsions:
REMARK  status: ('A' for Active; 'I' for Inactive)
REMARK    1  A    between atoms: C3_4  and  O_7 
ROOT
ATOM      1  C   UNL d   1       4.875   5.144  -1.092  0.00  0.00    -0.033 A 
ATOM      2  C1  UNL d   1       5.593   4.486  -2.092  0.00  0.00     0.039 A 
ATOM      3  C2  UNL d   1       5.077   3.328  -2.677  0.00  0.00    -0.080 A 
ATOM      4  C3  UNL d   1       3.844   2.840  -2.254  0.00  0.00     0.150 A 
ATOM      5  C4  UNL d   1       3.122   3.492  -1.260  0.00  0.00    -0.007 A 
ATOM      6  C5  UNL d   1       3.639   4.648  -0.677  0.00  0.00     0.039 A 
ENDROOT
BRANCH   4   7
ATOM      7  O   UNL d   1       3.302   1.710  -2.791  0.00  0.00    -0.526 OA
ATOM      8  H5  UNL d   1       3.925   1.351  -3.445  0.00  0.00     0.418 HD
ENDBRANCH   4   7
TORSDOF 1
ENDMDL
