MODEL 1
REMARK minimizedAffinity -0.235924408
REMARK minimizedRMSD -1
REMARK  1 active torsions:
REMARK  status: ('A' for Active; 'I' for Inactive)
REMARK    1  A    between atoms: C3_4  and  O_7 
ROOT
ATOM      1  C   UNL d   1       1.313  -0.129   0.776  0.00  0.00    -0.033 A 
ATOM      2  C1  UNL d   1       0.024  -0.545   1.114  0.00  0.00     0.039 A 
ATOM      3  C2  UNL d   1      -0.439  -1.796   0.702  0.00  0.00    -0.080 A 
ATOM      4  C3  UNL d   1       0.397  -2.621  -0.045  0.00  0.00     0.150 A 
ATOM      5  C4  UNL d   1       1.684  -2.215  -0.382  0.00  0.00    -0.007 A 
ATOM      6  C5  UNL d   1       2.144  -0.965   0.029  0.00  0.00     0.039 A 
ENDROOT
BRANCH   4   7
ATOM      7  O   UNL d   1      -0.012  -3.849  -0.474  0.00  0.00    -0.526 OA
ATOM      8  H5  UNL d   1      -0.932  -3.983  -0.192  0.00  0.00     0.418 HD
ENDBRANCH   4   7
TORSDOF 1
ENDMDL
