MODEL 1
REMARK minimizedAffinity -0.643461943
REMARK minimizedRMSD -1
REMARK  1 active torsions:
REMARK  status: ('A' for Active; 'I' for Inactive)
REMARK    1  A    between atoms: C3_4  and  O_7 
ROOT
ATOM      1  C   UNL d   1       1.783  -0.920   0.085  0.00  0.00    -0.033 A 
ATOM      2  C1  UNL d   1       1.650  -0.138   1.234  0.00  0.00     0.039 A 
ATOM      3  C2  UNL d   1       0.390   0.063   1.801  0.00  0.00    -0.080 A 
ATOM      4  C3  UNL d   1      -0.727  -0.523   1.211  0.00  0.00     0.150 A 
ATOM      5  C4  UNL d   1      -0.600  -1.306   0.068  0.00  0.00    -0.007 A 
ATOM      6  C5  UNL d   1       0.658  -1.505  -0.498  0.00  0.00     0.039 A 
ENDROOT
BRANCH   4   7
ATOM      7  O   UNL d   1      -1.977  -0.352   1.725  0.00  0.00    -0.526 OA
ATOM      8  H5  UNL d   1      -1.915   0.235   2.497  0.00  0.00     0.418 HD
ENDBRANCH   4   7
TORSDOF 1
ENDMDL
