MODEL 1
REMARK minimizedAffinity -2.29202986
REMARK minimizedRMSD -1
REMARK  1 active torsions:
REMARK  status: ('A' for Active; 'I' for Inactive)
REMARK    1  A    between atoms: C3_4  and  O_7 
ROOT
ATOM      1  C   UNL d   1       0.304  -0.911   0.453  0.00  0.00    -0.033 A 
ATOM      2  C1  UNL d   1      -0.232  -2.191   0.299  0.00  0.00     0.039 A 
ATOM      3  C2  UNL d   1       0.596  -3.259  -0.054  0.00  0.00    -0.080 A 
ATOM      4  C3  UNL d   1       1.956  -3.034  -0.247  0.00  0.00     0.150 A 
ATOM      5  C4  UNL d   1       2.497  -1.762  -0.091  0.00  0.00    -0.007 A 
ATOM      6  C5  UNL d   1       1.669  -0.697   0.260  0.00  0.00     0.039 A 
ENDROOT
BRANCH   4   7
ATOM      7  O   UNL d   1       2.803  -4.043  -0.597  0.00  0.00    -0.526 OA
ATOM      8  H5  UNL d   1       2.285  -4.859  -0.697  0.00  0.00     0.418 HD
ENDBRANCH   4   7
TORSDOF 1
ENDMDL
