MODEL 1
REMARK minimizedAffinity 2.26258397
REMARK minimizedRMSD -1
REMARK  1 active torsions:
REMARK  status: ('A' for Active; 'I' for Inactive)
REMARK    1  A    between atoms: C3_4  and  O_7 
ROOT
ATOM      1  C   UNL d   1       1.237  -1.557   0.456  0.00  0.00    -0.033 A 
ATOM      2  C1  UNL d   1       0.206  -0.969   1.191  0.00  0.00     0.039 A 
ATOM      3  C2  UNL d   1      -1.069  -1.536   1.186  0.00  0.00    -0.080 A 
ATOM      4  C3  UNL d   1      -1.301  -2.691   0.444  0.00  0.00     0.150 A 
ATOM      5  C4  UNL d   1      -0.278  -3.285  -0.288  0.00  0.00    -0.007 A 
ATOM      6  C5  UNL d   1       0.995  -2.716  -0.282  0.00  0.00     0.039 A 
ENDROOT
BRANCH   4   7
ATOM      7  O   UNL d   1      -2.530  -3.278   0.404  0.00  0.00    -0.526 OA
ATOM      8  H5  UNL d   1      -3.145  -2.742   0.933  0.00  0.00     0.418 HD
ENDBRANCH   4   7
TORSDOF 1
ENDMDL
