MODEL 1
REMARK minimizedAffinity 0.761928141
REMARK minimizedRMSD -1
REMARK  1 active torsions:
REMARK  status: ('A' for Active; 'I' for Inactive)
REMARK    1  A    between atoms: C3_4  and  O_7 
ROOT
ATOM      1  C   UNL d   1       1.002   0.002   1.354  0.00  0.00    -0.033 A 
ATOM      2  C1  UNL d   1      -0.298  -0.346   0.982  0.00  0.00     0.039 A 
ATOM      3  C2  UNL d   1      -0.547  -1.578   0.374  0.00  0.00    -0.080 A 
ATOM      4  C3  UNL d   1       0.512  -2.452   0.144  0.00  0.00     0.150 A 
ATOM      5  C4  UNL d   1       1.809  -2.114   0.515  0.00  0.00    -0.007 A 
ATOM      6  C5  UNL d   1       2.055  -0.883   1.122  0.00  0.00     0.039 A 
ENDROOT
BRANCH   4   7
ATOM      7  O   UNL d   1       0.320  -3.663  -0.451  0.00  0.00    -0.526 OA
ATOM      8  H5  UNL d   1      -0.621  -3.749  -0.679  0.00  0.00     0.418 HD
ENDBRANCH   4   7
TORSDOF 1
ENDMDL
