MODEL 1
REMARK minimizedAffinity -1.67414081
REMARK minimizedRMSD -1
REMARK  1 active torsions:
REMARK  status: ('A' for Active; 'I' for Inactive)
REMARK    1  A    between atoms: C3_4  and  O_7 
ROOT
ATOM      1  C   UNL d   1       0.426  -0.539   0.673  0.00  0.00    -0.033 A 
ATOM      2  C1  UNL d   1       1.818  -0.451   0.608  0.00  0.00     0.039 A 
ATOM      3  C2  UNL d   1       2.572  -1.559   0.218  0.00  0.00    -0.080 A 
ATOM      4  C3  UNL d   1       1.923  -2.747  -0.105  0.00  0.00     0.150 A 
ATOM      5  C4  UNL d   1       0.537  -2.841  -0.046  0.00  0.00    -0.007 A 
ATOM      6  C5  UNL d   1      -0.215  -1.734   0.345  0.00  0.00     0.039 A 
ENDROOT
BRANCH   4   7
ATOM      7  O   UNL d   1       2.617  -3.857  -0.487  0.00  0.00    -0.526 OA
ATOM      8  H5  UNL d   1       3.567  -3.653  -0.454  0.00  0.00     0.418 HD
ENDBRANCH   4   7
TORSDOF 1
ENDMDL
