MODEL 1
REMARK minimizedAffinity -2.84271622
REMARK minimizedRMSD -1
REMARK  1 active torsions:
REMARK  status: ('A' for Active; 'I' for Inactive)
REMARK    1  A    between atoms: C3_4  and  O_7 
ROOT
ATOM      1  C   UNL d   1       1.571  -2.442  -0.280  0.00  0.00    -0.033 A 
ATOM      2  C1  UNL d   1       1.840  -1.137   0.139  0.00  0.00     0.039 A 
ATOM      3  C2  UNL d   1       0.833  -0.368   0.724  0.00  0.00    -0.080 A 
ATOM      4  C3  UNL d   1      -0.438  -0.915   0.885  0.00  0.00     0.150 A 
ATOM      5  C4  UNL d   1      -0.712  -2.215   0.473  0.00  0.00    -0.007 A 
ATOM      6  C5  UNL d   1       0.296  -2.981  -0.112  0.00  0.00     0.039 A 
ENDROOT
BRANCH   4   7
ATOM      7  O   UNL d   1      -1.455  -0.201   1.447  0.00  0.00    -0.526 OA
ATOM      8  H5  UNL d   1      -1.127   0.689   1.656  0.00  0.00     0.418 HD
ENDBRANCH   4   7
TORSDOF 1
ENDMDL
