MODEL 1
REMARK minimizedAffinity 1.70860708
REMARK minimizedRMSD -1
REMARK  1 active torsions:
REMARK  status: ('A' for Active; 'I' for Inactive)
REMARK    1  A    between atoms: C3_4  and  O_7 
ROOT
ATOM      1  C   UNL d   1      -0.312   5.536  -3.641  0.00  0.00    -0.033 A 
ATOM      2  C1  UNL d   1       0.399   4.499  -3.034  0.00  0.00     0.039 A 
ATOM      3  C2  UNL d   1       1.468   3.899  -3.702  0.00  0.00    -0.080 A 
ATOM      4  C3  UNL d   1       1.816   4.345  -4.975  0.00  0.00     0.150 A 
ATOM      5  C4  UNL d   1       1.114   5.380  -5.584  0.00  0.00    -0.007 A 
ATOM      6  C5  UNL d   1       0.046   5.977  -4.916  0.00  0.00     0.039 A 
ENDROOT
BRANCH   4   7
ATOM      7  O   UNL d   1       2.849   3.787  -5.668  0.00  0.00    -0.526 OA
ATOM      8  H5  UNL d   1       3.223   3.065  -5.135  0.00  0.00     0.418 HD
ENDBRANCH   4   7
TORSDOF 1
ENDMDL
