MODEL 1
REMARK minimizedAffinity -4.38602972
REMARK minimizedRMSD -1
REMARK  1 active torsions:
REMARK  status: ('A' for Active; 'I' for Inactive)
REMARK    1  A    between atoms: C3_4  and  O_7 
ROOT
ATOM      1  C   UNL d   1       0.718  -0.234   1.291  0.00  0.00    -0.033 A 
ATOM      2  C1  UNL d   1       1.850  -0.573   0.548  0.00  0.00     0.039 A 
ATOM      3  C2  UNL d   1       1.878  -1.764  -0.181  0.00  0.00    -0.080 A 
ATOM      4  C3  UNL d   1       0.769  -2.605  -0.158  0.00  0.00     0.150 A 
ATOM      5  C4  UNL d   1      -0.364  -2.272   0.577  0.00  0.00    -0.007 A 
ATOM      6  C5  UNL d   1      -0.390  -1.083   1.304  0.00  0.00     0.039 A 
ENDROOT
BRANCH   4   7
ATOM      7  O   UNL d   1       0.752  -3.780  -0.850  0.00  0.00    -0.526 OA
ATOM      8  H5  UNL d   1       1.612  -3.892  -1.287  0.00  0.00     0.418 HD
ENDBRANCH   4   7
TORSDOF 1
ENDMDL
