MODEL 1
REMARK minimizedAffinity -1.91628647
REMARK minimizedRMSD -1
REMARK  1 active torsions:
REMARK  status: ('A' for Active; 'I' for Inactive)
REMARK    1  A    between atoms: C3_4  and  O_7 
ROOT
ATOM      1  C   UNL d   1       0.346  -0.083   0.712  0.00  0.00    -0.033 A 
ATOM      2  C1  UNL d   1       1.721  -0.229   0.518  0.00  0.00     0.039 A 
ATOM      3  C2  UNL d   1       2.252  -1.476   0.181  0.00  0.00    -0.080 A 
ATOM      4  C3  UNL d   1       1.398  -2.567   0.041  0.00  0.00     0.150 A 
ATOM      5  C4  UNL d   1       0.026  -2.427   0.229  0.00  0.00    -0.007 A 
ATOM      6  C5  UNL d   1      -0.501  -1.181   0.566  0.00  0.00     0.039 A 
ENDROOT
BRANCH   4   7
ATOM      7  O   UNL d   1       1.869  -3.804  -0.282  0.00  0.00    -0.526 OA
ATOM      8  H5  UNL d   1       2.837  -3.756  -0.353  0.00  0.00     0.418 HD
ENDBRANCH   4   7
TORSDOF 1
ENDMDL
