MODEL 1
REMARK minimizedAffinity -2.04773855
REMARK minimizedRMSD -1
REMARK  1 active torsions:
REMARK  status: ('A' for Active; 'I' for Inactive)
REMARK    1  A    between atoms: C3_4  and  O_7 
ROOT
ATOM      1  C   UNL d   1      -5.720  -4.830   5.304  0.00  0.00    -0.033 A 
ATOM      2  C1  UNL d   1      -5.857  -3.594   4.667  0.00  0.00     0.039 A 
ATOM      3  C2  UNL d   1      -5.912  -3.527   3.274  0.00  0.00    -0.080 A 
ATOM      4  C3  UNL d   1      -5.829  -4.700   2.529  0.00  0.00     0.150 A 
ATOM      5  C4  UNL d   1      -5.696  -5.934   3.156  0.00  0.00    -0.007 A 
ATOM      6  C5  UNL d   1      -5.640  -6.000   4.548  0.00  0.00     0.039 A 
ENDROOT
BRANCH   4   7
ATOM      7  O   UNL d   1      -5.873  -4.684   1.167  0.00  0.00    -0.526 OA
ATOM      8  H5  UNL d   1      -5.938  -3.760   0.872  0.00  0.00     0.418 HD
ENDBRANCH   4   7
TORSDOF 1
ENDMDL
