MODEL 1
REMARK minimizedAffinity 0.869413853
REMARK minimizedRMSD -1
REMARK  1 active torsions:
REMARK  status: ('A' for Active; 'I' for Inactive)
REMARK    1  A    between atoms: C3_4  and  O_7 
ROOT
ATOM      1  C   UNL d   1       1.430  -4.231  -0.279  0.00  0.00    -0.033 A 
ATOM      2  C1  UNL d   1       0.771  -3.113   0.237  0.00  0.00     0.039 A 
ATOM      3  C2  UNL d   1       1.492  -1.961   0.555  0.00  0.00    -0.080 A 
ATOM      4  C3  UNL d   1       2.868  -1.938   0.352  0.00  0.00     0.150 A 
ATOM      5  C4  UNL d   1       3.531  -3.046  -0.166  0.00  0.00    -0.007 A 
ATOM      6  C5  UNL d   1       2.810  -4.197  -0.482  0.00  0.00     0.039 A 
ENDROOT
BRANCH   4   7
ATOM      7  O   UNL d   1       3.615  -0.837   0.651  0.00  0.00    -0.526 OA
ATOM      8  H5  UNL d   1       3.028  -0.160   1.027  0.00  0.00     0.418 HD
ENDBRANCH   4   7
TORSDOF 1
ENDMDL
