MODEL 1
REMARK minimizedAffinity -0.754444242
REMARK minimizedRMSD -1
REMARK  2 active torsions:
REMARK  status: ('A' for Active; 'I' for Inactive)
REMARK    1  A    between atoms: C2'_3  and  C1'_4 
REMARK    2  A    between atoms: C1'_4  and  C1_5 
ROOT
ATOM      1  C1  I4B d   1       3.928   4.153   4.920  0.00  0.00    -0.075 A 
ATOM      2  C2  I4B d   1       5.004   4.342   5.751  0.00  0.00     0.003 A 
ATOM      3  C3  I4B d   1       5.997   5.297   5.426  0.00  0.00     0.002 A 
ATOM      4  C4  I4B d   1       5.902   6.000   4.242  0.00  0.00    -0.004 A 
ATOM      5  C5  I4B d   1       4.799   5.824   3.412  0.00  0.00     0.002 A 
ATOM      6  C6  I4B d   1       3.799   4.903   3.759  0.00  0.00     0.003 A 
ENDROOT
BRANCH   1   7
ATOM      7  C1' I4B d   1       2.914   3.113   5.278  0.00  0.00     0.060 C 
BRANCH   7   8
ATOM      8  C2' I4B d   1       3.449   1.767   4.835  0.00  0.00    -0.013 C 
ATOM      9  C4' I4B d   1       2.676   1.233   3.658  0.00  0.00     0.013 C 
ATOM     10  C3' I4B d   1       4.901   1.935   4.497  0.00  0.00     0.013 C 
ENDBRANCH   7   8
ENDBRANCH   1   7
TORSDOF 2
ENDMDL
