MODEL 1
REMARK minimizedAffinity 13.4863224
REMARK minimizedRMSD -1
REMARK  2 active torsions:
REMARK  status: ('A' for Active; 'I' for Inactive)
REMARK    1  A    between atoms: C2'_3  and  C1'_4 
REMARK    2  A    between atoms: C1'_4  and  C1_5 
ROOT
ATOM      1  C1  I4B d   1       4.238   3.845   4.037  0.00  0.00    -0.075 A 
ATOM      2  C2  I4B d   1       4.451   5.145   3.649  0.00  0.00     0.003 A 
ATOM      3  C3  I4B d   1       5.262   5.999   4.435  0.00  0.00     0.002 A 
ATOM      4  C4  I4B d   1       5.795   5.531   5.619  0.00  0.00    -0.004 A 
ATOM      5  C5  I4B d   1       5.597   4.207   5.998  0.00  0.00     0.002 A 
ATOM      6  C6  I4B d   1       4.824   3.354   5.197  0.00  0.00     0.003 A 
ENDROOT
BRANCH   1   7
ATOM      7  C1' I4B d   1       3.350   2.980   3.200  0.00  0.00     0.060 C 
BRANCH   7   8
ATOM      8  C2' I4B d   1       1.931   3.138   3.708  0.00  0.00    -0.013 C 
ATOM      9  C4' I4B d   1       1.156   4.115   2.864  0.00  0.00     0.013 C 
ATOM     10  C3' I4B d   1       1.284   1.786   3.703  0.00  0.00     0.013 C 
ENDBRANCH   7   8
ENDBRANCH   1   7
TORSDOF 2
ENDMDL
