MODEL 1
REMARK minimizedAffinity 10.7028503
REMARK minimizedRMSD -1
REMARK  2 active torsions:
REMARK  status: ('A' for Active; 'I' for Inactive)
REMARK    1  A    between atoms: C2'_3  and  C1'_4 
REMARK    2  A    between atoms: C1'_4  and  C1_5 
ROOT
ATOM      1  C1  I4B d   1      -4.136   4.821   3.978  0.00  0.00    -0.075 A 
ATOM      2  C2  I4B d   1      -4.340   4.950   5.329  0.00  0.00     0.003 A 
ATOM      3  C3  I4B d   1      -5.240   4.087   5.999  0.00  0.00     0.002 A 
ATOM      4  C4  I4B d   1      -5.949   3.149   5.276  0.00  0.00    -0.004 A 
ATOM      5  C5  I4B d   1      -5.724   3.005   3.910  0.00  0.00     0.002 A 
ATOM      6  C6  I4B d   1      -4.803   3.838   3.258  0.00  0.00     0.003 A 
ENDROOT
BRANCH   1   7
ATOM      7  C1' I4B d   1      -3.204   5.771   3.296  0.00  0.00     0.060 C 
BRANCH   7   8
ATOM      8  C2' I4B d   1      -2.200   4.954   2.507  0.00  0.00    -0.013 C 
ATOM      9  C4' I4B d   1      -2.302   5.242   1.032  0.00  0.00     0.013 C 
ATOM     10  C3' I4B d   1      -0.831   5.274   3.028  0.00  0.00     0.013 C 
ENDBRANCH   7   8
ENDBRANCH   1   7
TORSDOF 2
ENDMDL
