MODEL 1
REMARK minimizedAffinity 6.19476461
REMARK minimizedRMSD -1
REMARK  2 active torsions:
REMARK  status: ('A' for Active; 'I' for Inactive)
REMARK    1  A    between atoms: C2'_3  and  C1'_4 
REMARK    2  A    between atoms: C1'_4  and  C1_5 
ROOT
ATOM      1  C1  I4B d   1      -0.514   2.030   0.022  0.00  0.00    -0.075 A 
ATOM      2  C2  I4B d   1      -0.344   3.388  -0.078  0.00  0.00     0.003 A 
ATOM      3  C3  I4B d   1       0.709   4.028   0.619  0.00  0.00     0.002 A 
ATOM      4  C4  I4B d   1       1.532   3.283   1.440  0.00  0.00    -0.004 A 
ATOM      5  C5  I4B d   1       1.373   1.903   1.522  0.00  0.00     0.002 A 
ATOM      6  C6  I4B d   1       0.351   1.270   0.799  0.00  0.00     0.003 A 
ENDROOT
BRANCH   1   7
ATOM      7  C1' I4B d   1      -1.656   1.391  -0.702  0.00  0.00     0.060 C 
BRANCH   7   8
ATOM      8  C2' I4B d   1      -2.742   1.091   0.311  0.00  0.00    -0.013 C 
ATOM      9  C4' I4B d   1      -4.091   1.540  -0.186  0.00  0.00     0.013 C 
ATOM     10  C3' I4B d   1      -2.728  -0.384   0.582  0.00  0.00     0.013 C 
ENDBRANCH   7   8
ENDBRANCH   1   7
TORSDOF 2
ENDMDL
