MODEL 1
REMARK minimizedAffinity 0.476665735
REMARK minimizedRMSD -1
REMARK  2 active torsions:
REMARK  status: ('A' for Active; 'I' for Inactive)
REMARK    1  A    between atoms: C2'_3  and  C1'_4 
REMARK    2  A    between atoms: C1'_4  and  C1_5 
ROOT
ATOM      1  C1  I4B d   1      -4.303   0.771  -0.374  0.00  0.00    -0.075 A 
ATOM      2  C2  I4B d   1      -4.928   1.552   0.565  0.00  0.00     0.003 A 
ATOM      3  C3  I4B d   1      -5.772   0.960   1.537  0.00  0.00     0.002 A 
ATOM      4  C4  I4B d   1      -6.000  -0.400   1.501  0.00  0.00    -0.004 A 
ATOM      5  C5  I4B d   1      -5.346  -1.193   0.562  0.00  0.00     0.002 A 
ATOM      6  C6  I4B d   1      -4.483  -0.606  -0.374  0.00  0.00     0.003 A 
ENDROOT
BRANCH   1   7
ATOM      7  C1' I4B d   1      -3.445   1.433  -1.405  0.00  0.00     0.060 C 
BRANCH   7   8
ATOM      8  C2' I4B d   1      -2.011   1.391  -0.917  0.00  0.00    -0.013 C 
ATOM      9  C4' I4B d   1      -1.623   0.001  -0.485  0.00  0.00     0.013 C 
ATOM     10  C3' I4B d   1      -1.129   1.878  -2.027  0.00  0.00     0.013 C 
ENDBRANCH   7   8
ENDBRANCH   1   7
TORSDOF 2
ENDMDL
