MODEL 1
REMARK minimizedAffinity -0.125833035
REMARK minimizedRMSD -1
REMARK  0 active torsions:
REMARK  status: ('A' for Active; 'I' for Inactive)
ROOT
ATOM      1  C   UNL d   1       0.321   0.692   2.846  0.00  0.00    -0.002 A 
ATOM      2  C1  UNL d   1       0.197   1.769   1.980  0.00  0.00     0.010 A 
ATOM      3  C2  UNL d   1       0.185   1.572   0.598  0.00  0.00     0.041 A 
ATOM      4  C3  UNL d   1       0.300   0.261   0.095  0.00  0.00    -0.075 A 
ATOM      5  S   UNL d   1       0.308  -0.221  -1.560  0.00  0.00     0.015 SA
ATOM      6  C4  UNL d   1       0.477  -1.868  -1.157  0.00  0.00     0.022 A 
ATOM      7  C5  UNL d   1       0.527  -2.064   0.203  0.00  0.00     0.026 A 
ATOM      8  C6  UNL d   1       0.425  -0.840   0.947  0.00  0.00    -0.082 A 
ATOM      9  C7  UNL d   1       0.435  -0.607   2.344  0.00  0.00     0.045 A 
ENDROOT
TORSDOF 0
ENDMDL
