MODEL 1
REMARK minimizedAffinity -3.88740873
REMARK minimizedRMSD -1
REMARK  0 active torsions:
REMARK  status: ('A' for Active; 'I' for Inactive)
ROOT
ATOM      1  C   UNL d   1      -1.143   3.039   1.554  0.00  0.00    -0.002 A 
ATOM      2  C1  UNL d   1      -1.715   3.084   0.291  0.00  0.00     0.010 A 
ATOM      3  C2  UNL d   1      -1.523   2.038  -0.614  0.00  0.00     0.041 A 
ATOM      4  C3  UNL d   1      -0.740   0.934  -0.223  0.00  0.00    -0.075 A 
ATOM      5  S   UNL d   1      -0.370  -0.462  -1.163  0.00  0.00     0.015 SA
ATOM      6  C4  UNL d   1       0.556  -1.153   0.090  0.00  0.00     0.022 A 
ATOM      7  C5  UNL d   1       0.593  -0.350   1.206  0.00  0.00     0.026 A 
ATOM      8  C6  UNL d   1      -0.154   0.865   1.044  0.00  0.00    -0.082 A 
ATOM      9  C7  UNL d   1      -0.367   1.942   1.939  0.00  0.00     0.045 A 
ENDROOT
TORSDOF 0
ENDMDL
