MODEL 1
REMARK minimizedAffinity -4.62712431
REMARK minimizedRMSD -1
REMARK  0 active torsions:
REMARK  status: ('A' for Active; 'I' for Inactive)
ROOT
ATOM      1  C   UNL d   1      -1.013   3.679   0.594  0.00  0.00    -0.002 A 
ATOM      2  C1  UNL d   1      -0.990   3.427  -0.770  0.00  0.00     0.010 A 
ATOM      3  C2  UNL d   1      -0.623   2.170  -1.254  0.00  0.00     0.041 A 
ATOM      4  C3  UNL d   1      -0.279   1.159  -0.335  0.00  0.00    -0.075 A 
ATOM      5  S   UNL d   1       0.202  -0.456  -0.697  0.00  0.00     0.015 SA
ATOM      6  C4  UNL d   1       0.386  -0.850   0.951  0.00  0.00     0.022 A 
ATOM      7  C5  UNL d   1       0.093   0.213   1.771  0.00  0.00     0.026 A 
ATOM      8  C6  UNL d   1      -0.295   1.389   1.044  0.00  0.00    -0.082 A 
ATOM      9  C7  UNL d   1      -0.671   2.674   1.503  0.00  0.00     0.045 A 
ENDROOT
TORSDOF 0
ENDMDL
