MODEL 1
REMARK minimizedAffinity -3.76683688
REMARK minimizedRMSD -1
REMARK  0 active torsions:
REMARK  status: ('A' for Active; 'I' for Inactive)
ROOT
ATOM      1  C   UNL d   1      -2.005   3.524   0.377  0.00  0.00    -0.002 A 
ATOM      2  C1  UNL d   1      -1.797   3.110  -0.931  0.00  0.00     0.010 A 
ATOM      3  C2  UNL d   1      -1.044   1.966  -1.203  0.00  0.00     0.041 A 
ATOM      4  C3  UNL d   1      -0.499   1.237  -0.128  0.00  0.00    -0.075 A 
ATOM      5  S   UNL d   1       0.455  -0.196  -0.221  0.00  0.00     0.015 SA
ATOM      6  C4  UNL d   1       0.609  -0.293   1.473  0.00  0.00     0.022 A 
ATOM      7  C5  UNL d   1      -0.045   0.735   2.110  0.00  0.00     0.026 A 
ATOM      8  C6  UNL d   1      -0.695   1.633   1.198  0.00  0.00    -0.082 A 
ATOM      9  C7  UNL d   1      -1.463   2.798   1.441  0.00  0.00     0.045 A 
ENDROOT
TORSDOF 0
ENDMDL
