MODEL 1
REMARK minimizedAffinity 2.3437922
REMARK minimizedRMSD -1
REMARK  0 active torsions:
REMARK  status: ('A' for Active; 'I' for Inactive)
ROOT
ATOM      1  C   UNL d   1       0.642  -0.103   1.350  0.00  0.00    -0.002 A 
ATOM      2  C1  UNL d   1       0.473   0.408   0.071  0.00  0.00     0.010 A 
ATOM      3  C2  UNL d   1      -0.017  -0.399  -0.957  0.00  0.00     0.041 A 
ATOM      4  C3  UNL d   1      -0.339  -1.742  -0.675  0.00  0.00    -0.075 A 
ATOM      5  S   UNL d   1      -0.956  -2.916  -1.776  0.00  0.00     0.015 SA
ATOM      6  C4  UNL d   1      -1.010  -4.123  -0.574  0.00  0.00     0.022 A 
ATOM      7  C5  UNL d   1      -0.572  -3.659   0.643  0.00  0.00     0.026 A 
ATOM      8  C6  UNL d   1      -0.179  -2.278   0.606  0.00  0.00    -0.082 A 
ATOM      9  C7  UNL d   1       0.321  -1.434   1.626  0.00  0.00     0.045 A 
ENDROOT
TORSDOF 0
ENDMDL
