MODEL 1
REMARK minimizedAffinity -0.400741965
REMARK minimizedRMSD -1
REMARK  0 active torsions:
REMARK  status: ('A' for Active; 'I' for Inactive)
ROOT
ATOM      1  C   UNL d   1       0.103   0.881   2.661  0.00  0.00    -0.002 A 
ATOM      2  C1  UNL d   1       0.382   1.960   1.834  0.00  0.00     0.010 A 
ATOM      3  C2  UNL d   1       0.629   1.767   0.473  0.00  0.00     0.041 A 
ATOM      4  C3  UNL d   1       0.588   0.459  -0.048  0.00  0.00    -0.075 A 
ATOM      5  S   UNL d   1       0.857  -0.018  -1.683  0.00  0.00     0.015 SA
ATOM      6  C4  UNL d   1       0.608  -1.665  -1.322  0.00  0.00     0.022 A 
ATOM      7  C5  UNL d   1       0.325  -1.864   0.009  0.00  0.00     0.026 A 
ATOM      8  C6  UNL d   1       0.309  -0.644   0.765  0.00  0.00    -0.082 A 
ATOM      9  C7  UNL d   1       0.064  -0.415   2.140  0.00  0.00     0.045 A 
ENDROOT
TORSDOF 0
ENDMDL
