MODEL 1
REMARK minimizedAffinity -2.09253383
REMARK minimizedRMSD -1
REMARK  1 active torsions:
REMARK  status: ('A' for Active; 'I' for Inactive)
REMARK    1  A    between atoms: C1_2  and  C2_3 
ROOT
ATOM      1  C2  UNL d   1       0.815   0.244  -0.307  0.00  0.00    -0.073 A 
ATOM      2  C3  UNL d   1      -0.278   0.698   0.442  0.00  0.00    -0.002 A 
ATOM      3  C4  UNL d   1      -1.116  -0.212   1.087  0.00  0.00     0.004 A 
ATOM      4  C5  UNL d   1      -0.868  -1.581   0.998  0.00  0.00    -0.004 A 
ATOM      5  C6  UNL d   1       0.225  -2.054   0.264  0.00  0.00    -0.075 A 
ATOM      6  C7  UNL d   1       0.505  -3.524   0.156  0.00  0.00     0.076 C 
ATOM      7  C8  UNL d   1       1.061  -1.134  -0.383  0.00  0.00     0.001 A 
ENDROOT
BRANCH   1   8
ATOM      8  C1  UNL d   1       1.727   1.223  -1.000  0.00  0.00     0.053 C 
ATOM      9  C   UNL d   1       2.400   2.169  -0.019  0.00  0.00     0.018 C 
ENDBRANCH   1   8
TORSDOF 1
ENDMDL
