MODEL 1
REMARK minimizedAffinity -5.63174343
REMARK minimizedRMSD -1
REMARK  1 active torsions:
REMARK  status: ('A' for Active; 'I' for Inactive)
REMARK    1  A    between atoms: C1_2  and  C2_3 
ROOT
ATOM      1  C2  UNL d   1      -0.192  -0.566   0.354  0.00  0.00    -0.073 A 
ATOM      2  C3  UNL d   1      -0.445  -1.713   1.115  0.00  0.00    -0.002 A 
ATOM      3  C4  UNL d   1      -0.319  -2.980   0.544  0.00  0.00     0.004 A 
ATOM      4  C5  UNL d   1       0.068  -3.114  -0.789  0.00  0.00    -0.004 A 
ATOM      5  C6  UNL d   1       0.337  -1.980  -1.563  0.00  0.00    -0.075 A 
ATOM      6  C7  UNL d   1       0.752  -2.107  -2.999  0.00  0.00     0.076 C 
ATOM      7  C8  UNL d   1       0.205  -0.711  -0.983  0.00  0.00     0.001 A 
ENDROOT
BRANCH   1   8
ATOM      8  C1  UNL d   1      -0.321   0.804   0.969  0.00  0.00     0.053 C 
ATOM      9  C   UNL d   1       0.402   1.864   0.153  0.00  0.00     0.018 C 
ENDBRANCH   1   8
TORSDOF 1
ENDMDL
