MODEL 1
REMARK minimizedAffinity -3.37130094
REMARK minimizedRMSD -1
REMARK  1 active torsions:
REMARK  status: ('A' for Active; 'I' for Inactive)
REMARK    1  A    between atoms: C1_2  and  C2_3 
ROOT
ATOM      1  C2  UNL d   1       0.454   1.900   0.105  0.00  0.00    -0.073 A 
ATOM      2  C3  UNL d   1       0.274   1.612  -1.252  0.00  0.00    -0.002 A 
ATOM      3  C4  UNL d   1      -0.323   0.413  -1.645  0.00  0.00     0.004 A 
ATOM      4  C5  UNL d   1      -0.750  -0.505  -0.686  0.00  0.00    -0.004 A 
ATOM      5  C6  UNL d   1      -0.590  -0.230   0.676  0.00  0.00    -0.075 A 
ATOM      6  C7  UNL d   1      -1.042  -1.209   1.719  0.00  0.00     0.076 C 
ATOM      7  C8  UNL d   1       0.013   0.975   1.062  0.00  0.00     0.001 A 
ENDROOT
BRANCH   1   8
ATOM      8  C1  UNL d   1       1.092   3.196   0.535  0.00  0.00     0.053 C 
ATOM      9  C   UNL d   1       2.608   3.150   0.424  0.00  0.00     0.018 C 
ENDBRANCH   1   8
TORSDOF 1
ENDMDL
