MODEL 1
REMARK minimizedAffinity -4.19527578
REMARK minimizedRMSD -1
REMARK  1 active torsions:
REMARK  status: ('A' for Active; 'I' for Inactive)
REMARK    1  A    between atoms: C1_2  and  C2_3 
ROOT
ATOM      1  C2  UNL d   1      -0.060   0.328   0.122  0.00  0.00    -0.073 A 
ATOM      2  C3  UNL d   1      -0.380  -0.602   1.118  0.00  0.00    -0.002 A 
ATOM      3  C4  UNL d   1      -0.353  -1.969   0.842  0.00  0.00     0.004 A 
ATOM      4  C5  UNL d   1       0.001  -2.421  -0.429  0.00  0.00    -0.004 A 
ATOM      5  C6  UNL d   1       0.336  -1.509  -1.435  0.00  0.00    -0.075 A 
ATOM      6  C7  UNL d   1       0.717  -1.979  -2.808  0.00  0.00     0.076 C 
ATOM      7  C8  UNL d   1       0.304  -0.137  -1.150  0.00  0.00     0.001 A 
ENDROOT
BRANCH   1   8
ATOM      8  C1  UNL d   1      -0.081   1.805   0.418  0.00  0.00     0.053 C 
ATOM      9  C   UNL d   1       1.316   2.404   0.431  0.00  0.00     0.018 C 
ENDBRANCH   1   8
TORSDOF 1
ENDMDL
