MODEL 1
REMARK minimizedAffinity -5.54113722
REMARK minimizedRMSD -1
REMARK  1 active torsions:
REMARK  status: ('A' for Active; 'I' for Inactive)
REMARK    1  A    between atoms: C1_2  and  C2_3 
ROOT
ATOM      1  C2  UNL d   1      -0.154  -2.095  -0.844  0.00  0.00    -0.073 A 
ATOM      2  C3  UNL d   1      -0.633  -2.583   0.377  0.00  0.00    -0.002 A 
ATOM      3  C4  UNL d   1      -0.869  -1.712   1.441  0.00  0.00     0.004 A 
ATOM      4  C5  UNL d   1      -0.635  -0.345   1.294  0.00  0.00    -0.004 A 
ATOM      5  C6  UNL d   1      -0.168   0.164   0.078  0.00  0.00    -0.075 A 
ATOM      6  C7  UNL d   1       0.091   1.632  -0.096  0.00  0.00     0.076 C 
ATOM      7  C8  UNL d   1       0.069  -0.718  -0.986  0.00  0.00     0.001 A 
ENDROOT
BRANCH   1   8
ATOM      8  C1  UNL d   1       0.095  -3.031  -1.998  0.00  0.00     0.053 C 
ATOM      9  C   UNL d   1       0.392  -2.281  -3.287  0.00  0.00     0.018 C 
ENDBRANCH   1   8
TORSDOF 1
ENDMDL
