MODEL 1
REMARK minimizedAffinity -4.36352634
REMARK minimizedRMSD -1
REMARK  2 active torsions:
REMARK  status: ('A' for Active; 'I' for Inactive)
REMARK    1  A    between atoms: C1_2  and  C2_3 
REMARK    2  A    between atoms: C2_3  and  C3_4 
ROOT
ATOM      1  C3  UNL d   1       0.374  -0.363  -0.682  0.00  0.00    -0.075 A 
ATOM      2  C4  UNL d   1      -0.976  -0.034  -0.486  0.00  0.00     0.002 A 
ATOM      3  C5  UNL d   1      -1.389   0.587   0.693  0.00  0.00     0.002 A 
ATOM      4  C6  UNL d   1      -0.464   0.878   1.693  0.00  0.00    -0.004 A 
ATOM      5  C7  UNL d   1       0.876   0.541   1.516  0.00  0.00     0.002 A 
ATOM      6  C8  UNL d   1       1.294  -0.077   0.335  0.00  0.00     0.002 A 
ENDROOT
BRANCH   1   7
ATOM      7  C2  UNL d   1       0.833  -1.008  -1.968  0.00  0.00     0.056 C 
BRANCH   7   8
ATOM      8  C1  UNL d   1       1.001  -0.027  -3.133  0.00  0.00     0.007 C 
ATOM      9  C   UNL d   1       2.382   0.613  -3.183  0.00  0.00     0.009 C 
ENDBRANCH   7   8
ENDBRANCH   1   7
TORSDOF 2
ENDMDL
