MODEL 1
REMARK minimizedAffinity -3.88801003
REMARK minimizedRMSD -1
REMARK  2 active torsions:
REMARK  status: ('A' for Active; 'I' for Inactive)
REMARK    1  A    between atoms: C1_2  and  C2_3 
REMARK    2  A    between atoms: C2_3  and  C3_4 
ROOT
ATOM      1  C3  UNL d   1       0.366  -0.534  -0.570  0.00  0.00    -0.075 A 
ATOM      2  C4  UNL d   1      -1.011  -0.279  -0.507  0.00  0.00     0.002 A 
ATOM      3  C5  UNL d   1      -1.568   0.337   0.614  0.00  0.00     0.002 A 
ATOM      4  C6  UNL d   1      -0.758   0.696   1.689  0.00  0.00    -0.004 A 
ATOM      5  C7  UNL d   1       0.610   0.432   1.645  0.00  0.00     0.002 A 
ATOM      6  C8  UNL d   1       1.170  -0.180   0.523  0.00  0.00     0.002 A 
ENDROOT
BRANCH   1   7
ATOM      7  C2  UNL d   1       0.979  -1.173  -1.793  0.00  0.00     0.056 C 
BRANCH   7   8
ATOM      8  C1  UNL d   1       0.671  -0.439  -3.101  0.00  0.00     0.007 C 
ATOM      9  C   UNL d   1       1.763   0.539  -3.513  0.00  0.00     0.009 C 
ENDBRANCH   7   8
ENDBRANCH   1   7
TORSDOF 2
ENDMDL
