MODEL 1
REMARK minimizedAffinity -4.41080713
REMARK minimizedRMSD -1
REMARK  2 active torsions:
REMARK  status: ('A' for Active; 'I' for Inactive)
REMARK    1  A    between atoms: C1_2  and  C2_3 
REMARK    2  A    between atoms: C2_3  and  C3_4 
ROOT
ATOM      1  C3  UNL d   1      -0.318  -0.173  -0.446  0.00  0.00    -0.075 A 
ATOM      2  C4  UNL d   1       0.496   0.480   0.491  0.00  0.00     0.002 A 
ATOM      3  C5  UNL d   1      -0.025   0.889   1.719  0.00  0.00     0.002 A 
ATOM      4  C6  UNL d   1      -1.365   0.661   2.021  0.00  0.00    -0.004 A 
ATOM      5  C7  UNL d   1      -2.188   0.028   1.091  0.00  0.00     0.002 A 
ATOM      6  C8  UNL d   1      -1.668  -0.386  -0.136  0.00  0.00     0.002 A 
ENDROOT
BRANCH   1   7
ATOM      7  C2  UNL d   1       0.247  -0.644  -1.764  0.00  0.00     0.056 C 
BRANCH   7   8
ATOM      8  C1  UNL d   1       1.337   0.267  -2.337  0.00  0.00     0.007 C 
ATOM      9  C   UNL d   1       1.233   0.453  -3.845  0.00  0.00     0.009 C 
ENDBRANCH   7   8
ENDBRANCH   1   7
TORSDOF 2
ENDMDL
