MODEL 1
REMARK minimizedAffinity -3.83338904
REMARK minimizedRMSD -1
REMARK  2 active torsions:
REMARK  status: ('A' for Active; 'I' for Inactive)
REMARK    1  A    between atoms: C1_2  and  C2_3 
REMARK    2  A    between atoms: C2_3  and  C3_4 
ROOT
ATOM      1  C3  UNL d   1       0.906  -0.145  -0.616  0.00  0.00    -0.075 A 
ATOM      2  C4  UNL d   1       0.148   0.928  -0.126  0.00  0.00     0.002 A 
ATOM      3  C5  UNL d   1       0.384   1.437   1.151  0.00  0.00     0.002 A 
ATOM      4  C6  UNL d   1       1.371   0.876   1.957  0.00  0.00    -0.004 A 
ATOM      5  C7  UNL d   1       2.120  -0.201   1.487  0.00  0.00     0.002 A 
ATOM      6  C8  UNL d   1       1.889  -0.710   0.207  0.00  0.00     0.002 A 
ENDROOT
BRANCH   1   7
ATOM      7  C2  UNL d   1       0.676  -0.682  -2.009  0.00  0.00     0.056 C 
BRANCH   7   8
ATOM      8  C1  UNL d   1       1.498   0.023  -3.093  0.00  0.00     0.007 C 
ATOM      9  C   UNL d   1       0.835  -0.009  -4.464  0.00  0.00     0.009 C 
ENDBRANCH   7   8
ENDBRANCH   1   7
TORSDOF 2
ENDMDL
