MODEL 1
REMARK minimizedAffinity -2.61974478
REMARK minimizedRMSD -1
REMARK  2 active torsions:
REMARK  status: ('A' for Active; 'I' for Inactive)
REMARK    1  A    between atoms: C1_2  and  C2_3 
REMARK    2  A    between atoms: C2_3  and  C3_4 
ROOT
ATOM      1  C3  UNL d   1       0.008   0.057  -0.462  0.00  0.00    -0.075 A 
ATOM      2  C4  UNL d   1      -1.316   0.348  -0.102  0.00  0.00     0.002 A 
ATOM      3  C5  UNL d   1      -1.613   0.844   1.168  0.00  0.00     0.002 A 
ATOM      4  C6  UNL d   1      -0.593   1.044   2.096  0.00  0.00    -0.004 A 
ATOM      5  C7  UNL d   1       0.723   0.743   1.755  0.00  0.00     0.002 A 
ATOM      6  C8  UNL d   1       1.023   0.251   0.484  0.00  0.00     0.002 A 
ENDROOT
BRANCH   1   7
ATOM      7  C2  UNL d   1       0.338  -0.452  -1.845  0.00  0.00     0.056 C 
BRANCH   7   8
ATOM      8  C1  UNL d   1       1.232   0.490  -2.658  0.00  0.00     0.007 C 
ATOM      9  C   UNL d   1       0.608   0.918  -3.979  0.00  0.00     0.009 C 
ENDBRANCH   7   8
ENDBRANCH   1   7
TORSDOF 2
ENDMDL
