MODEL 1
REMARK minimizedAffinity -4.88310194
REMARK minimizedRMSD -1
REMARK  2 active torsions:
REMARK  status: ('A' for Active; 'I' for Inactive)
REMARK    1  A    between atoms: C1_2  and  C2_3 
REMARK    2  A    between atoms: C2_3  and  C3_4 
ROOT
ATOM      1  C3  UNL d   1      -0.198   0.290  -0.063  0.00  0.00    -0.075 A 
ATOM      2  C4  UNL d   1      -1.488  -0.064   0.359  0.00  0.00     0.002 A 
ATOM      3  C5  UNL d   1      -2.025   0.481   1.526  0.00  0.00     0.002 A 
ATOM      4  C6  UNL d   1      -1.278   1.375   2.290  0.00  0.00    -0.004 A 
ATOM      5  C7  UNL d   1       0.011   1.720   1.889  0.00  0.00     0.002 A 
ATOM      6  C8  UNL d   1       0.549   1.181   0.719  0.00  0.00     0.002 A 
ENDROOT
BRANCH   1   7
ATOM      7  C2  UNL d   1       0.378  -0.273  -1.340  0.00  0.00     0.056 C 
BRANCH   7   8
ATOM      8  C1  UNL d   1       1.286   0.702  -2.098  0.00  0.00     0.007 C 
ATOM      9  C   UNL d   1       1.023   0.726  -3.597  0.00  0.00     0.009 C 
ENDBRANCH   7   8
ENDBRANCH   1   7
TORSDOF 2
ENDMDL
