MODEL 1
REMARK minimizedAffinity -5.77358294
REMARK minimizedRMSD -1
REMARK  2 active torsions:
REMARK  status: ('A' for Active; 'I' for Inactive)
REMARK    1  A    between atoms: C1_2  and  C2_3 
REMARK    2  A    between atoms: C2_3  and  C3_4 
ROOT
ATOM      1  C3  UNL d   1      -0.939   0.296   0.203  0.00  0.00    -0.075 A 
ATOM      2  C4  UNL d   1       0.295   0.137   0.850  0.00  0.00     0.002 A 
ATOM      3  C5  UNL d   1       0.463   0.558   2.169  0.00  0.00     0.002 A 
ATOM      4  C6  UNL d   1      -0.595   1.152   2.854  0.00  0.00    -0.004 A 
ATOM      5  C7  UNL d   1      -1.821   1.330   2.216  0.00  0.00     0.002 A 
ATOM      6  C8  UNL d   1      -1.993   0.905   0.898  0.00  0.00     0.002 A 
ENDROOT
BRANCH   1   7
ATOM      7  C2  UNL d   1      -1.136  -0.185  -1.214  0.00  0.00     0.056 C 
BRANCH   7   8
ATOM      8  C1  UNL d   1       0.162  -0.590  -1.922  0.00  0.00     0.007 C 
ATOM      9  C   UNL d   1       0.508   0.309  -3.101  0.00  0.00     0.009 C 
ENDBRANCH   7   8
ENDBRANCH   1   7
TORSDOF 2
ENDMDL
