MODEL 1
REMARK minimizedAffinity -4.2438302
REMARK minimizedRMSD -1
REMARK  2 active torsions:
REMARK  status: ('A' for Active; 'I' for Inactive)
REMARK    1  A    between atoms: C1_2  and  C2_3 
REMARK    2  A    between atoms: C2_3  and  C3_4 
ROOT
ATOM      1  C3  UNL d   1       0.854  -0.098  -1.690  0.00  0.00    -0.075 A 
ATOM      2  C4  UNL d   1       0.426  -0.668  -2.898  0.00  0.00     0.002 A 
ATOM      3  C5  UNL d   1       0.758  -0.076  -4.117  0.00  0.00     0.002 A 
ATOM      4  C6  UNL d   1       1.512   1.095  -4.145  0.00  0.00    -0.004 A 
ATOM      5  C7  UNL d   1       1.929   1.679  -2.950  0.00  0.00     0.002 A 
ATOM      6  C8  UNL d   1       1.602   1.087  -1.729  0.00  0.00     0.002 A 
ENDROOT
BRANCH   1   7
ATOM      7  C2  UNL d   1       0.523  -0.749  -0.369  0.00  0.00     0.056 C 
BRANCH   7   8
ATOM      8  C1  UNL d   1       0.259   0.245   0.767  0.00  0.00     0.007 C 
ATOM      9  C   UNL d   1      -1.212   0.612   0.914  0.00  0.00     0.009 C 
ENDBRANCH   7   8
ENDBRANCH   1   7
TORSDOF 2
ENDMDL
