MODEL 1
REMARK minimizedAffinity 0.371456951
REMARK minimizedRMSD -1
REMARK  0 active torsions:
REMARK  status: ('A' for Active; 'I' for Inactive)
ROOT
ATOM      1  C   UNL d   1       0.994  -1.124  -2.046  0.00  0.00     0.020 A 
ATOM      2  C1  UNL d   1       0.847  -1.442  -0.696  0.00  0.00     0.020 A 
ATOM      3  C2  UNL d   1       0.888  -0.432   0.268  0.00  0.00     0.034 A 
ATOM      4  C3  UNL d   1       1.075   0.900  -0.117  0.00  0.00     0.017 A 
ATOM      5  C4  UNL d   1       1.223   1.219  -1.472  0.00  0.00     0.017 A 
ATOM      6  C5  UNL d   1       1.181   0.203  -2.432  0.00  0.00     0.034 A 
ATOM      7 Cl   UNL d   1       1.458   2.840  -2.023  0.00  0.00    -0.070 Cl
ATOM      8 Cl1  UNL d   1       1.115   2.098   1.128  0.00  0.00    -0.070 Cl
ENDROOT
TORSDOF 0
ENDMDL
