MODEL 1
REMARK minimizedAffinity 3.30562568
REMARK minimizedRMSD -1
REMARK  0 active torsions:
REMARK  status: ('A' for Active; 'I' for Inactive)
ROOT
ATOM      1  C   UNL d   1       0.582  -0.813  -1.109  0.00  0.00     0.020 A 
ATOM      2  C1  UNL d   1       1.086  -0.314  -2.310  0.00  0.00     0.020 A 
ATOM      3  C2  UNL d   1       1.591   0.987  -2.368  0.00  0.00     0.034 A 
ATOM      4  C3  UNL d   1       1.593   1.793  -1.224  0.00  0.00     0.017 A 
ATOM      5  C4  UNL d   1       1.087   1.291  -0.019  0.00  0.00     0.017 A 
ATOM      6  C5  UNL d   1       0.583  -0.012   0.033  0.00  0.00     0.034 A 
ATOM      7 Cl   UNL d   1       1.056   2.226   1.434  0.00  0.00    -0.070 Cl
ATOM      8 Cl1  UNL d   1       2.232   3.392  -1.368  0.00  0.00    -0.070 Cl
ENDROOT
TORSDOF 0
ENDMDL
