MODEL 1
REMARK minimizedAffinity 4.29369211
REMARK minimizedRMSD -1
REMARK  0 active torsions:
REMARK  status: ('A' for Active; 'I' for Inactive)
ROOT
ATOM      1  C   UNL d   1       1.872   1.606  -0.458  0.00  0.00     0.020 A 
ATOM      2  C1  UNL d   1       0.972   1.021   0.432  0.00  0.00     0.020 A 
ATOM      3  C2  UNL d   1       0.185  -0.057   0.022  0.00  0.00     0.034 A 
ATOM      4  C3  UNL d   1       0.296  -0.554  -1.282  0.00  0.00     0.017 A 
ATOM      5  C4  UNL d   1       1.199   0.034  -2.175  0.00  0.00     0.017 A 
ATOM      6  C5  UNL d   1       1.985   1.113  -1.759  0.00  0.00     0.034 A 
ATOM      7 Cl   UNL d   1       1.392  -0.524  -3.799  0.00  0.00    -0.070 Cl
ATOM      8 Cl1  UNL d   1      -0.709  -1.890  -1.720  0.00  0.00    -0.070 Cl
ENDROOT
TORSDOF 0
ENDMDL
