MODEL 1
REMARK minimizedAffinity 4.19543314
REMARK minimizedRMSD -1
REMARK  0 active torsions:
REMARK  status: ('A' for Active; 'I' for Inactive)
ROOT
ATOM      1  C   UNL d   1       0.870   0.054  -2.216  0.00  0.00     0.020 A 
ATOM      2  C1  UNL d   1       0.000   1.033  -1.737  0.00  0.00     0.020 A 
ATOM      3  C2  UNL d   1       0.263   1.666  -0.520  0.00  0.00     0.034 A 
ATOM      4  C3  UNL d   1       1.399   1.321   0.222  0.00  0.00     0.017 A 
ATOM      5  C4  UNL d   1       2.271   0.339  -0.260  0.00  0.00     0.017 A 
ATOM      6  C5  UNL d   1       2.003  -0.292  -1.479  0.00  0.00     0.034 A 
ATOM      7 Cl   UNL d   1       3.693  -0.140   0.599  0.00  0.00    -0.070 Cl
ATOM      8 Cl1  UNL d   1       1.662   2.146   1.717  0.00  0.00    -0.070 Cl
ENDROOT
TORSDOF 0
ENDMDL
