MODEL 1
REMARK minimizedAffinity 3.89344263
REMARK minimizedRMSD -1
REMARK  0 active torsions:
REMARK  status: ('A' for Active; 'I' for Inactive)
ROOT
ATOM      1  C   UNL d   1      -2.063   3.259   2.126  0.00  0.00     0.020 A 
ATOM      2  C1  UNL d   1      -3.068   3.078   1.176  0.00  0.00     0.020 A 
ATOM      3  C2  UNL d   1      -4.086   2.150   1.405  0.00  0.00     0.034 A 
ATOM      4  C3  UNL d   1      -4.101   1.399   2.586  0.00  0.00     0.017 A 
ATOM      5  C4  UNL d   1      -3.092   1.581   3.539  0.00  0.00     0.017 A 
ATOM      6  C5  UNL d   1      -2.075   2.512   3.304  0.00  0.00     0.034 A 
ATOM      7 Cl   UNL d   1      -3.044   0.692   5.020  0.00  0.00    -0.070 Cl
ATOM      8 Cl1  UNL d   1      -5.391   0.270   2.803  0.00  0.00    -0.070 Cl
ENDROOT
TORSDOF 0
ENDMDL
