MODEL 1
REMARK minimizedAffinity 8.67632961
REMARK minimizedRMSD -1
REMARK  0 active torsions:
REMARK  status: ('A' for Active; 'I' for Inactive)
ROOT
ATOM      1  C   UNL d   1       0.711  -0.392  -1.086  0.00  0.00     0.020 A 
ATOM      2  C1  UNL d   1       0.732   0.299  -2.297  0.00  0.00     0.020 A 
ATOM      3  C2  UNL d   1       1.082   1.650  -2.324  0.00  0.00     0.034 A 
ATOM      4  C3  UNL d   1       1.413   2.315  -1.138  0.00  0.00     0.017 A 
ATOM      5  C4  UNL d   1       1.392   1.621   0.077  0.00  0.00     0.017 A 
ATOM      6  C5  UNL d   1       1.040   0.268   0.098  0.00  0.00     0.034 A 
ATOM      7 Cl   UNL d   1       1.788   2.374   1.582  0.00  0.00    -0.070 Cl
ATOM      8 Cl1  UNL d   1       1.837   3.987  -1.245  0.00  0.00    -0.070 Cl
ENDROOT
TORSDOF 0
ENDMDL
