MODEL 1
REMARK minimizedAffinity 2.73370528
REMARK minimizedRMSD -1
REMARK  0 active torsions:
REMARK  status: ('A' for Active; 'I' for Inactive)
ROOT
ATOM      1  C   UNL d   1       0.179   0.835   0.109  0.00  0.00     0.020 A 
ATOM      2  C1  UNL d   1       0.914   0.100  -0.821  0.00  0.00     0.020 A 
ATOM      3  C2  UNL d   1       2.307   0.063  -0.738  0.00  0.00     0.034 A 
ATOM      4  C3  UNL d   1       2.971   0.763   0.277  0.00  0.00     0.017 A 
ATOM      5  C4  UNL d   1       2.233   1.500   1.209  0.00  0.00     0.017 A 
ATOM      6  C5  UNL d   1       0.838   1.533   1.122  0.00  0.00     0.034 A 
ATOM      7 Cl   UNL d   1       2.981   2.389   2.489  0.00  0.00    -0.070 Cl
ATOM      8 Cl1  UNL d   1       4.696   0.673   0.319  0.00  0.00    -0.070 Cl
ENDROOT
TORSDOF 0
ENDMDL
