MODEL 1
REMARK minimizedAffinity 1.06418705
REMARK minimizedRMSD -1
REMARK  0 active torsions:
REMARK  status: ('A' for Active; 'I' for Inactive)
ROOT
ATOM      1  C   UNL d   1       0.245   0.469  -1.812  0.00  0.00     0.020 A 
ATOM      2  C1  UNL d   1       0.282   1.699  -1.155  0.00  0.00     0.020 A 
ATOM      3  C2  UNL d   1       0.723   1.770   0.168  0.00  0.00     0.034 A 
ATOM      4  C3  UNL d   1       1.129   0.611   0.838  0.00  0.00     0.017 A 
ATOM      5  C4  UNL d   1       1.091  -0.623   0.178  0.00  0.00     0.017 A 
ATOM      6  C5  UNL d   1       0.648  -0.689  -1.147  0.00  0.00     0.034 A 
ATOM      7 Cl   UNL d   1       1.575  -2.097   0.940  0.00  0.00    -0.070 Cl
ATOM      8 Cl1  UNL d   1       1.663   0.773   2.473  0.00  0.00    -0.070 Cl
ENDROOT
TORSDOF 0
ENDMDL
