MODEL 1
REMARK minimizedAffinity 5.03455925
REMARK minimizedRMSD -1
REMARK  0 active torsions:
REMARK  status: ('A' for Active; 'I' for Inactive)
ROOT
ATOM      1  C   UNL d   1       1.169  -0.382   0.068  0.00  0.00     0.020 A 
ATOM      2  C1  UNL d   1       1.295  -0.261  -1.315  0.00  0.00     0.020 A 
ATOM      3  C2  UNL d   1       1.378   1.004  -1.900  0.00  0.00     0.034 A 
ATOM      4  C3  UNL d   1       1.335   2.153  -1.102  0.00  0.00     0.017 A 
ATOM      5  C4  UNL d   1       1.209   2.030   0.287  0.00  0.00     0.017 A 
ATOM      6  C5  UNL d   1       1.126   0.761   0.867  0.00  0.00     0.034 A 
ATOM      7 Cl   UNL d   1       1.149   3.402   1.337  0.00  0.00    -0.070 Cl
ATOM      8 Cl1  UNL d   1       1.442   3.686  -1.893  0.00  0.00    -0.070 Cl
ENDROOT
TORSDOF 0
ENDMDL
