MODEL 1
REMARK minimizedAffinity -0.888604283
REMARK minimizedRMSD -1
REMARK  0 active torsions:
REMARK  status: ('A' for Active; 'I' for Inactive)
ROOT
ATOM      1  C   UNL d   1       1.933   0.652  -1.398  0.00  0.00     0.020 A 
ATOM      2  C1  UNL d   1       0.576   0.355  -1.281  0.00  0.00     0.020 A 
ATOM      3  C2  UNL d   1       0.173  -0.901  -0.822  0.00  0.00     0.034 A 
ATOM      4  C3  UNL d   1       1.128  -1.865  -0.479  0.00  0.00     0.017 A 
ATOM      5  C4  UNL d   1       2.490  -1.566  -0.597  0.00  0.00     0.017 A 
ATOM      6  C5  UNL d   1       2.888  -0.307  -1.057  0.00  0.00     0.034 A 
ATOM      7 Cl   UNL d   1       3.728  -2.703  -0.193  0.00  0.00    -0.070 Cl
ATOM      8 Cl1  UNL d   1       0.559  -3.397   0.082  0.00  0.00    -0.070 Cl
ENDROOT
TORSDOF 0
ENDMDL
