MODEL 1
REMARK minimizedAffinity 3.91558433
REMARK minimizedRMSD -1
REMARK  0 active torsions:
REMARK  status: ('A' for Active; 'I' for Inactive)
ROOT
ATOM      1  C   UNL d   1       0.816   0.708  -2.426  0.00  0.00     0.020 A 
ATOM      2  C1  UNL d   1       0.949   1.965  -1.837  0.00  0.00     0.020 A 
ATOM      3  C2  UNL d   1       1.270   2.071  -0.482  0.00  0.00     0.034 A 
ATOM      4  C3  UNL d   1       1.459   0.918   0.288  0.00  0.00     0.017 A 
ATOM      5  C4  UNL d   1       1.325  -0.343  -0.303  0.00  0.00     0.017 A 
ATOM      6  C5  UNL d   1       1.004  -0.444  -1.661  0.00  0.00     0.034 A 
ATOM      7 Cl   UNL d   1       1.543  -1.811   0.583  0.00  0.00    -0.070 Cl
ATOM      8 Cl1  UNL d   1       1.854   1.123   1.958  0.00  0.00    -0.070 Cl
ENDROOT
TORSDOF 0
ENDMDL
