MODEL 1
REMARK minimizedAffinity 6.03118801
REMARK minimizedRMSD -1
REMARK  0 active torsions:
REMARK  status: ('A' for Active; 'I' for Inactive)
ROOT
ATOM      1  C   UNL d   1       0.627  -0.383  -1.895  0.00  0.00     0.020 A 
ATOM      2  C1  UNL d   1       0.848  -1.007  -0.668  0.00  0.00     0.020 A 
ATOM      3  C2  UNL d   1       1.278  -0.258   0.429  0.00  0.00     0.034 A 
ATOM      4  C3  UNL d   1       1.489   1.120   0.302  0.00  0.00     0.017 A 
ATOM      5  C4  UNL d   1       1.267   1.746  -0.930  0.00  0.00     0.017 A 
ATOM      6  C5  UNL d   1       0.836   0.991  -2.026  0.00  0.00     0.034 A 
ATOM      7 Cl   UNL d   1       1.506   3.441  -1.165  0.00  0.00    -0.070 Cl
ATOM      8 Cl1  UNL d   1       2.020   1.984   1.700  0.00  0.00    -0.070 Cl
ENDROOT
TORSDOF 0
ENDMDL
