MODEL 1
REMARK minimizedAffinity 2.11925697
REMARK minimizedRMSD -1
REMARK  0 active torsions:
REMARK  status: ('A' for Active; 'I' for Inactive)
ROOT
ATOM      1  C   UNL d   1       0.970  -0.425  -0.640  0.00  0.00     0.020 A 
ATOM      2  C1  UNL d   1       0.090   0.441   0.008  0.00  0.00     0.020 A 
ATOM      3  C2  UNL d   1       0.587   1.453   0.832  0.00  0.00     0.034 A 
ATOM      4  C3  UNL d   1       1.967   1.601   1.011  0.00  0.00     0.017 A 
ATOM      5  C4  UNL d   1       2.850   0.731   0.360  0.00  0.00     0.017 A 
ATOM      6  C5  UNL d   1       2.347  -0.280  -0.464  0.00  0.00     0.034 A 
ATOM      7 Cl   UNL d   1       4.565   0.851   0.532  0.00  0.00    -0.070 Cl
ATOM      8 Cl1  UNL d   1       2.512   2.874   2.044  0.00  0.00    -0.070 Cl
ENDROOT
TORSDOF 0
ENDMDL
