MODEL 1
REMARK minimizedAffinity 7.03206015
REMARK minimizedRMSD -1
REMARK  0 active torsions:
REMARK  status: ('A' for Active; 'I' for Inactive)
ROOT
ATOM      1  C   UNL d   1      -3.190   1.502   3.794  0.00  0.00     0.020 A 
ATOM      2  C1  UNL d   1      -3.853   0.835   2.764  0.00  0.00     0.020 A 
ATOM      3  C2  UNL d   1      -3.861   1.373   1.475  0.00  0.00     0.034 A 
ATOM      4  C3  UNL d   1      -3.205   2.581   1.213  0.00  0.00     0.017 A 
ATOM      5  C4  UNL d   1      -2.540   3.250   2.247  0.00  0.00     0.017 A 
ATOM      6  C5  UNL d   1      -2.535   2.707   3.535  0.00  0.00     0.034 A 
ATOM      7 Cl   UNL d   1      -1.708   4.745   2.000  0.00  0.00    -0.070 Cl
ATOM      8 Cl1  UNL d   1      -3.255   3.187  -0.405  0.00  0.00    -0.070 Cl
ENDROOT
TORSDOF 0
ENDMDL
