MODEL 1
REMARK minimizedAffinity 6.87759209
REMARK minimizedRMSD -1
REMARK  0 active torsions:
REMARK  status: ('A' for Active; 'I' for Inactive)
ROOT
ATOM      1  C   UNL d   1       0.960   0.636  -2.679  0.00  0.00     0.020 A 
ATOM      2  C1  UNL d   1       1.127   1.925  -2.175  0.00  0.00     0.020 A 
ATOM      3  C2  UNL d   1       1.230   2.129  -0.798  0.00  0.00     0.034 A 
ATOM      4  C3  UNL d   1       1.165   1.042   0.081  0.00  0.00     0.017 A 
ATOM      5  C4  UNL d   1       0.997  -0.252  -0.425  0.00  0.00     0.017 A 
ATOM      6  C5  UNL d   1       0.895  -0.451  -1.805  0.00  0.00     0.034 A 
ATOM      7 Cl   UNL d   1       0.909  -1.643   0.597  0.00  0.00    -0.070 Cl
ATOM      8 Cl1  UNL d   1       1.300   1.367   1.773  0.00  0.00    -0.070 Cl
ENDROOT
TORSDOF 0
ENDMDL
