MODEL 1
REMARK minimizedAffinity 3.1894803
REMARK minimizedRMSD -1
REMARK  0 active torsions:
REMARK  status: ('A' for Active; 'I' for Inactive)
ROOT
ATOM      1  C   UNL d   1       0.346   0.170  -1.362  0.00  0.00     0.020 A 
ATOM      2  C1  UNL d   1      -0.128   1.311  -0.716  0.00  0.00     0.020 A 
ATOM      3  C2  UNL d   1       0.551   1.818   0.394  0.00  0.00     0.034 A 
ATOM      4  C3  UNL d   1       1.708   1.184   0.861  0.00  0.00     0.017 A 
ATOM      5  C4  UNL d   1       2.184   0.039   0.212  0.00  0.00     0.017 A 
ATOM      6  C5  UNL d   1       1.500  -0.465  -0.899  0.00  0.00     0.034 A 
ATOM      7 Cl   UNL d   1       3.604  -0.798   0.730  0.00  0.00    -0.070 Cl
ATOM      8 Cl1  UNL d   1       2.498   1.866   2.238  0.00  0.00    -0.070 Cl
ENDROOT
TORSDOF 0
ENDMDL
