MODEL 1
REMARK minimizedAffinity -2.52246881
REMARK minimizedRMSD -1
REMARK  0 active torsions:
REMARK  status: ('A' for Active; 'I' for Inactive)
ROOT
ATOM      1  C   UNL d   1       0.804   0.466  -1.212  0.00  0.00     0.020 A 
ATOM      2  C1  UNL d   1       0.303   1.491  -0.411  0.00  0.00     0.020 A 
ATOM      3  C2  UNL d   1       1.048   1.956   0.675  0.00  0.00     0.034 A 
ATOM      4  C3  UNL d   1       2.298   1.396   0.963  0.00  0.00     0.017 A 
ATOM      5  C4  UNL d   1       2.800   0.367   0.158  0.00  0.00     0.017 A 
ATOM      6  C5  UNL d   1       2.050  -0.095  -0.928  0.00  0.00     0.034 A 
ATOM      7 Cl   UNL d   1       4.334  -0.374   0.451  0.00  0.00    -0.070 Cl
ATOM      8 Cl1  UNL d   1       3.165   2.019   2.322  0.00  0.00    -0.070 Cl
ENDROOT
TORSDOF 0
ENDMDL
