MODEL 1
REMARK minimizedAffinity 6.70071793
REMARK minimizedRMSD -1
REMARK  0 active torsions:
REMARK  status: ('A' for Active; 'I' for Inactive)
ROOT
ATOM      1  C   UNL d   1       1.019   1.208   1.078  0.00  0.00     0.020 A 
ATOM      2  C1  UNL d   1       1.284  -0.144   0.863  0.00  0.00     0.020 A 
ATOM      3  C2  UNL d   1       1.387  -0.636  -0.439  0.00  0.00     0.034 A 
ATOM      4  C3  UNL d   1       1.223   0.223  -1.532  0.00  0.00     0.017 A 
ATOM      5  C4  UNL d   1       0.957   1.580  -1.315  0.00  0.00     0.017 A 
ATOM      6  C5  UNL d   1       0.856   2.068  -0.009  0.00  0.00     0.034 A 
ATOM      7 Cl   UNL d   1       0.743   2.701  -2.613  0.00  0.00    -0.070 Cl
ATOM      8 Cl1  UNL d   1       1.363  -0.455  -3.115  0.00  0.00    -0.070 Cl
ENDROOT
TORSDOF 0
ENDMDL
