MODEL 1
REMARK minimizedAffinity 4.724967
REMARK minimizedRMSD -1
REMARK  0 active torsions:
REMARK  status: ('A' for Active; 'I' for Inactive)
ROOT
ATOM      1  C   UNL d   1       1.198   1.078   0.831  0.00  0.00     0.020 A 
ATOM      2  C1  UNL d   1       0.309   1.380  -0.200  0.00  0.00     0.020 A 
ATOM      3  C2  UNL d   1      -0.176   0.362  -1.024  0.00  0.00     0.034 A 
ATOM      4  C3  UNL d   1       0.227  -0.963  -0.818  0.00  0.00     0.017 A 
ATOM      5  C4  UNL d   1       1.119  -1.264   0.217  0.00  0.00     0.017 A 
ATOM      6  C5  UNL d   1       1.602  -0.241   1.039  0.00  0.00     0.034 A 
ATOM      7 Cl   UNL d   1       1.663  -2.874   0.533  0.00  0.00    -0.070 Cl
ATOM      8 Cl1  UNL d   1      -0.412  -2.171  -1.875  0.00  0.00    -0.070 Cl
ENDROOT
TORSDOF 0
ENDMDL
