MODEL 1
REMARK minimizedAffinity -3.04868913
REMARK minimizedRMSD -1
REMARK  0 active torsions:
REMARK  status: ('A' for Active; 'I' for Inactive)
ROOT
ATOM      1  C   UNL d   1      -0.164   0.288  -0.514  0.00  0.00     0.172 C 
ATOM      2  N   UNL d   1      -0.742  -0.632   0.438  0.00  0.00    -0.070 N 
ATOM      3  C1  UNL d   1      -1.794  -0.361   1.271  0.00  0.00    -0.004 A 
ATOM      4  C2  UNL d   1      -2.041  -1.492   2.020  0.00  0.00    -0.047 A 
ATOM      5  C3  UNL d   1      -1.105  -2.475   1.623  0.00  0.00    -0.047 A 
ATOM      6  C4  UNL d   1      -0.312  -1.916   0.643  0.00  0.00    -0.004 A 
ENDROOT
TORSDOF 0
ENDMDL
