MODEL 1
REMARK minimizedAffinity -2.0648694
REMARK minimizedRMSD -1
REMARK  0 active torsions:
REMARK  status: ('A' for Active; 'I' for Inactive)
ROOT
ATOM      1  C   UNL d   1       1.217   2.291  -3.092  0.00  0.00     0.172 C 
ATOM      2  N   UNL d   1       0.853   1.878  -1.757  0.00  0.00    -0.070 N 
ATOM      3  C1  UNL d   1       0.509   0.607  -1.380  0.00  0.00    -0.004 A 
ATOM      4  C2  UNL d   1       0.233   0.627  -0.030  0.00  0.00    -0.047 A 
ATOM      5  C3  UNL d   1       0.417   1.956   0.420  0.00  0.00    -0.047 A 
ATOM      6  C4  UNL d   1       0.801   2.709  -0.669  0.00  0.00    -0.004 A 
ENDROOT
TORSDOF 0
ENDMDL
