MODEL 1
REMARK minimizedAffinity -2.40391278
REMARK minimizedRMSD -1
REMARK  0 active torsions:
REMARK  status: ('A' for Active; 'I' for Inactive)
ROOT
ATOM      1  C   UNL d   1       0.709   1.596  -0.118  0.00  0.00     0.172 C 
ATOM      2  N   UNL d   1       1.071   2.041  -1.443  0.00  0.00    -0.070 N 
ATOM      3  C1  UNL d   1       0.205   2.525  -2.387  0.00  0.00    -0.004 A 
ATOM      4  C2  UNL d   1       0.938   2.840  -3.511  0.00  0.00    -0.047 A 
ATOM      5  C3  UNL d   1       2.292   2.534  -3.233  0.00  0.00    -0.047 A 
ATOM      6  C4  UNL d   1       2.346   2.041  -1.946  0.00  0.00    -0.004 A 
ENDROOT
TORSDOF 0
ENDMDL
