MODEL 1
REMARK minimizedAffinity -1.6961031
REMARK minimizedRMSD -1
REMARK  0 active torsions:
REMARK  status: ('A' for Active; 'I' for Inactive)
ROOT
ATOM      1  C   UNL d   1      -0.256  -2.443   1.242  0.00  0.00     0.172 C 
ATOM      2  N   UNL d   1       0.245  -1.357   0.433  0.00  0.00    -0.070 N 
ATOM      3  C1  UNL d   1       1.268  -0.513   0.775  0.00  0.00    -0.004 A 
ATOM      4  C2  UNL d   1       1.441   0.381  -0.260  0.00  0.00    -0.047 A 
ATOM      5  C3  UNL d   1       0.488   0.064  -1.257  0.00  0.00    -0.047 A 
ATOM      6  C4  UNL d   1      -0.239  -1.016  -0.802  0.00  0.00    -0.004 A 
ENDROOT
TORSDOF 0
ENDMDL
