MODEL 1
REMARK minimizedAffinity -3.66197562
REMARK minimizedRMSD -1
REMARK  0 active torsions:
REMARK  status: ('A' for Active; 'I' for Inactive)
ROOT
ATOM      1  C   UNL d   1       0.514   0.649   0.201  0.00  0.00     0.172 C 
ATOM      2  N   UNL d   1       0.172  -0.673   0.673  0.00  0.00    -0.070 N 
ATOM      3  C1  UNL d   1       0.838  -1.828   0.362  0.00  0.00    -0.004 A 
ATOM      4  C2  UNL d   1       0.203  -2.867   1.008  0.00  0.00    -0.047 A 
ATOM      5  C3  UNL d   1      -0.881  -2.317   1.732  0.00  0.00    -0.047 A 
ATOM      6  C4  UNL d   1      -0.877  -0.957   1.506  0.00  0.00    -0.004 A 
ENDROOT
TORSDOF 0
ENDMDL
