MODEL 1
REMARK minimizedAffinity -2.03856373
REMARK minimizedRMSD -1
REMARK  0 active torsions:
REMARK  status: ('A' for Active; 'I' for Inactive)
ROOT
ATOM      1  C   UNL d   1      -0.918  -2.677   1.179  0.00  0.00     0.172 C 
ATOM      2  N   UNL d   1      -0.529  -1.430   0.563  0.00  0.00    -0.070 N 
ATOM      3  C1  UNL d   1       0.619  -1.218  -0.153  0.00  0.00    -0.004 A 
ATOM      4  C2  UNL d   1       0.619   0.095  -0.571  0.00  0.00    -0.047 A 
ATOM      5  C3  UNL d   1      -0.570   0.693  -0.089  0.00  0.00    -0.047 A 
ATOM      6  C4  UNL d   1      -1.261  -0.274   0.610  0.00  0.00    -0.004 A 
ENDROOT
TORSDOF 0
ENDMDL
