MODEL 1
REMARK minimizedAffinity -3.15162206
REMARK minimizedRMSD -1
REMARK  0 active torsions:
REMARK  status: ('A' for Active; 'I' for Inactive)
ROOT
ATOM      1  C   UNL d   1       0.882   2.149  -3.082  0.00  0.00     0.172 C 
ATOM      2  N   UNL d   1       0.783   1.165  -2.031  0.00  0.00    -0.070 N 
ATOM      3  C1  UNL d   1       0.986   1.398  -0.697  0.00  0.00    -0.004 A 
ATOM      4  C2  UNL d   1       0.798   0.209  -0.026  0.00  0.00    -0.047 A 
ATOM      5  C3  UNL d   1       0.470  -0.774  -0.991  0.00  0.00    -0.047 A 
ATOM      6  C4  UNL d   1       0.468  -0.155  -2.223  0.00  0.00    -0.004 A 
ENDROOT
TORSDOF 0
ENDMDL
