MODEL 1
REMARK minimizedAffinity -2.86610937
REMARK minimizedRMSD -1
REMARK  0 active torsions:
REMARK  status: ('A' for Active; 'I' for Inactive)
ROOT
ATOM      1  C   UNL d   1       0.586   1.186  -0.374  0.00  0.00     0.172 C 
ATOM      2  N   UNL d   1      -0.092  -0.051  -0.067  0.00  0.00    -0.070 N 
ATOM      3  C1  UNL d   1      -0.490  -0.456   1.179  0.00  0.00    -0.004 A 
ATOM      4  C2  UNL d   1      -1.099  -1.685   1.050  0.00  0.00    -0.047 A 
ATOM      5  C3  UNL d   1      -1.065  -2.032  -0.322  0.00  0.00    -0.047 A 
ATOM      6  C4  UNL d   1      -0.436  -1.003  -0.990  0.00  0.00    -0.004 A 
ENDROOT
TORSDOF 0
ENDMDL
