MODEL 1
REMARK minimizedAffinity -2.7308197
REMARK minimizedRMSD -1
REMARK  0 active torsions:
REMARK  status: ('A' for Active; 'I' for Inactive)
ROOT
ATOM      1  C   UNL d   1      -1.896   0.795   1.113  0.00  0.00     0.172 C 
ATOM      2  N   UNL d   1      -1.086  -0.398   1.038  0.00  0.00    -0.070 N 
ATOM      3  C1  UNL d   1       0.030  -0.557   0.260  0.00  0.00    -0.004 A 
ATOM      4  C2  UNL d   1       0.513  -1.830   0.471  0.00  0.00    -0.047 A 
ATOM      5  C3  UNL d   1      -0.342  -2.458   1.408  0.00  0.00    -0.047 A 
ATOM      6  C4  UNL d   1      -1.323  -1.549   1.742  0.00  0.00    -0.004 A 
ENDROOT
TORSDOF 0
ENDMDL
