MODEL 1
REMARK minimizedAffinity -3.0883286
REMARK minimizedRMSD -1
REMARK  0 active torsions:
REMARK  status: ('A' for Active; 'I' for Inactive)
ROOT
ATOM      1  C   UNL d   1      -0.122  -1.828   0.686  0.00  0.00     0.172 C 
ATOM      2  N   UNL d   1       0.127  -0.741  -0.231  0.00  0.00    -0.070 N 
ATOM      3  C1  UNL d   1       0.258  -0.856  -1.589  0.00  0.00    -0.004 A 
ATOM      4  C2  UNL d   1       0.486   0.404  -2.099  0.00  0.00    -0.047 A 
ATOM      5  C3  UNL d   1       0.493   1.307  -1.010  0.00  0.00    -0.047 A 
ATOM      6  C4  UNL d   1       0.268   0.572   0.135  0.00  0.00    -0.004 A 
ENDROOT
TORSDOF 0
ENDMDL
