MODEL 1
REMARK minimizedAffinity -3.31373429
REMARK minimizedRMSD -1
REMARK  0 active torsions:
REMARK  status: ('A' for Active; 'I' for Inactive)
ROOT
ATOM      1  C   UNL d   1       0.222   1.861   0.234  0.00  0.00     0.172 C 
ATOM      2  N   UNL d   1       0.158   0.425   0.365  0.00  0.00    -0.070 N 
ATOM      3  C1  UNL d   1       1.215  -0.437   0.238  0.00  0.00    -0.004 A 
ATOM      4  C2  UNL d   1       0.743  -1.716   0.433  0.00  0.00    -0.047 A 
ATOM      5  C3  UNL d   1      -0.647  -1.621   0.686  0.00  0.00    -0.047 A 
ATOM      6  C4  UNL d   1      -0.982  -0.284   0.638  0.00  0.00    -0.004 A 
ENDROOT
TORSDOF 0
ENDMDL
