MODEL 1
REMARK minimizedAffinity -3.45469213
REMARK minimizedRMSD -1
REMARK  0 active torsions:
REMARK  status: ('A' for Active; 'I' for Inactive)
ROOT
ATOM      1  C   UNL d   1       0.296   0.738  -1.584  0.00  0.00     0.172 C 
ATOM      2  N   UNL d   1       0.218  -0.357  -0.646  0.00  0.00    -0.070 N 
ATOM      3  C1  UNL d   1       0.518  -1.664  -0.918  0.00  0.00    -0.004 A 
ATOM      4  C2  UNL d   1       0.318  -2.393   0.234  0.00  0.00    -0.047 A 
ATOM      5  C3  UNL d   1      -0.120  -1.492   1.234  0.00  0.00    -0.047 A 
ATOM      6  C4  UNL d   1      -0.172  -0.238   0.662  0.00  0.00    -0.004 A 
ENDROOT
TORSDOF 0
ENDMDL
