MODEL 1
REMARK minimizedAffinity -2.09092736
REMARK minimizedRMSD -1
REMARK  0 active torsions:
REMARK  status: ('A' for Active; 'I' for Inactive)
ROOT
ATOM      1  C   UNL d   1       0.706   1.532  -1.942  0.00  0.00     0.172 C 
ATOM      2  N   UNL d   1       0.232   0.588  -0.957  0.00  0.00    -0.070 N 
ATOM      3  C1  UNL d   1       0.992  -0.368  -0.337  0.00  0.00    -0.004 A 
ATOM      4  C2  UNL d   1       0.174  -1.060   0.530  0.00  0.00    -0.047 A 
ATOM      5  C3  UNL d   1      -1.122  -0.501   0.427  0.00  0.00    -0.047 A 
ATOM      6  C4  UNL d   1      -1.058   0.517  -0.500  0.00  0.00    -0.004 A 
ENDROOT
TORSDOF 0
ENDMDL
