MODEL 1
REMARK minimizedAffinity -2.91768861
REMARK minimizedRMSD -1
REMARK  0 active torsions:
REMARK  status: ('A' for Active; 'I' for Inactive)
ROOT
ATOM      1  C   UNL d   1      -1.999  -2.968   0.801  0.00  0.00     0.172 C 
ATOM      2  N   UNL d   1      -1.069  -1.932   0.416  0.00  0.00    -0.070 N 
ATOM      3  C1  UNL d   1      -1.067  -1.267  -0.781  0.00  0.00    -0.004 A 
ATOM      4  C2  UNL d   1      -0.029  -0.360  -0.757  0.00  0.00    -0.047 A 
ATOM      5  C3  UNL d   1       0.615  -0.486   0.497  0.00  0.00    -0.047 A 
ATOM      6  C4  UNL d   1      -0.050  -1.466   1.203  0.00  0.00    -0.004 A 
ENDROOT
TORSDOF 0
ENDMDL
