MODEL 1
REMARK minimizedAffinity -1.91024184
REMARK minimizedRMSD -1
REMARK  0 active torsions:
REMARK  status: ('A' for Active; 'I' for Inactive)
ROOT
ATOM      1  C   UNL d   1       0.538   0.361  -0.729  0.00  0.00     0.172 C 
ATOM      2  N   UNL d   1       0.352  -0.881  -0.016  0.00  0.00    -0.070 N 
ATOM      3  C1  UNL d   1       0.529  -2.134  -0.538  0.00  0.00    -0.004 A 
ATOM      4  C2  UNL d   1       0.255  -3.048   0.457  0.00  0.00    -0.047 A 
ATOM      5  C3  UNL d   1      -0.101  -2.318   1.616  0.00  0.00    -0.047 A 
ATOM      6  C4  UNL d   1      -0.032  -0.979   1.295  0.00  0.00    -0.004 A 
ENDROOT
TORSDOF 0
ENDMDL
