MODEL 1
REMARK minimizedAffinity -3.25544882
REMARK minimizedRMSD -1
REMARK  0 active torsions:
REMARK  status: ('A' for Active; 'I' for Inactive)
ROOT
ATOM      1  C   UNL d   1       0.211   0.008  -0.477  0.00  0.00     0.172 C 
ATOM      2  N   UNL d   1      -0.720  -0.765   0.311  0.00  0.00    -0.070 N 
ATOM      3  C1  UNL d   1      -1.753  -0.255   1.052  0.00  0.00    -0.004 A 
ATOM      4  C2  UNL d   1      -2.403  -1.312   1.653  0.00  0.00    -0.047 A 
ATOM      5  C3  UNL d   1      -1.737  -2.497   1.260  0.00  0.00    -0.047 A 
ATOM      6  C4  UNL d   1      -0.699  -2.129   0.429  0.00  0.00    -0.004 A 
ENDROOT
TORSDOF 0
ENDMDL
