MODEL 1
REMARK minimizedAffinity -3.76366234
REMARK minimizedRMSD -1
REMARK  0 active torsions:
REMARK  status: ('A' for Active; 'I' for Inactive)
ROOT
ATOM      1  C   UNL d   1       0.194   0.860  -1.438  0.00  0.00     0.172 C 
ATOM      2  N   UNL d   1      -0.480  -0.202  -0.730  0.00  0.00    -0.070 N 
ATOM      3  C1  UNL d   1      -0.496  -1.521  -1.096  0.00  0.00    -0.004 A 
ATOM      4  C2  UNL d   1      -1.243  -2.209  -0.165  0.00  0.00    -0.047 A 
ATOM      5  C3  UNL d   1      -1.693  -1.271   0.794  0.00  0.00    -0.047 A 
ATOM      6  C4  UNL d   1      -1.207  -0.036   0.420  0.00  0.00    -0.004 A 
ENDROOT
TORSDOF 0
ENDMDL
