MODEL 1
REMARK minimizedAffinity -1.46498358
REMARK minimizedRMSD -1
REMARK  1 active torsions:
REMARK  status: ('A' for Active; 'I' for Inactive)
REMARK    1  A    between atoms: C1_2  and  C2_3 
ROOT
ATOM      1  C2  UNL d   1       0.013   0.266  -0.014  0.00  0.00    -0.076 A 
ATOM      2  C3  UNL d   1      -0.718   0.878  -1.047  0.00  0.00     0.004 A 
ATOM      3  C4  UNL d   1      -0.399   0.650  -2.384  0.00  0.00    -0.003 A 
ATOM      4  C5  UNL d   1       0.657  -0.195  -2.710  0.00  0.00     0.000 A 
ATOM      5  C6  UNL d   1       1.381  -0.824  -1.699  0.00  0.00     0.000 A 
ATOM      6  C7  UNL d   1       1.062  -0.617  -0.346  0.00  0.00    -0.073 A 
ATOM      7  C8  UNL d   1       1.881  -1.317   0.704  0.00  0.00     0.078 C 
ENDROOT
BRANCH   1   8
ATOM      8  C1  UNL d   1      -0.363   0.572   1.419  0.00  0.00     0.053 C 
ATOM      9  C   UNL d   1      -1.728   0.018   1.795  0.00  0.00     0.018 C 
ENDBRANCH   1   8
TORSDOF 1
ENDMDL
