MODEL 1
REMARK minimizedAffinity -5.80293226
REMARK minimizedRMSD -1
REMARK  1 active torsions:
REMARK  status: ('A' for Active; 'I' for Inactive)
REMARK    1  A    between atoms: C1_2  and  C2_3 
ROOT
ATOM      1  C2  UNL d   1      -1.024  -0.840  -4.242  0.00  0.00    -0.076 A 
ATOM      2  C3  UNL d   1      -0.976  -2.122  -3.665  0.00  0.00     0.004 A 
ATOM      3  C4  UNL d   1      -0.107  -2.403  -2.613  0.00  0.00    -0.003 A 
ATOM      4  C5  UNL d   1       0.729  -1.407  -2.120  0.00  0.00     0.000 A 
ATOM      5  C6  UNL d   1       0.683  -0.126  -2.668  0.00  0.00     0.000 A 
ATOM      6  C7  UNL d   1      -0.200   0.179  -3.719  0.00  0.00    -0.073 A 
ATOM      7  C8  UNL d   1      -0.204   1.576  -4.276  0.00  0.00     0.078 C 
ENDROOT
BRANCH   1   8
ATOM      8  C1  UNL d   1      -1.968  -0.602  -5.399  0.00  0.00     0.053 C 
ATOM      9  C   UNL d   1      -2.540  -1.894  -5.961  0.00  0.00     0.018 C 
ENDBRANCH   1   8
TORSDOF 1
ENDMDL
