MODEL 1
REMARK minimizedAffinity -2.70261979
REMARK minimizedRMSD -1
REMARK  1 active torsions:
REMARK  status: ('A' for Active; 'I' for Inactive)
REMARK    1  A    between atoms: C1_2  and  C2_3 
ROOT
ATOM      1  C2  UNL d   1      -0.311   0.147   0.020  0.00  0.00    -0.076 A 
ATOM      2  C3  UNL d   1       0.752   0.421   0.897  0.00  0.00     0.004 A 
ATOM      3  C4  UNL d   1       0.525   1.019   2.136  0.00  0.00    -0.003 A 
ATOM      4  C5  UNL d   1      -0.770   1.353   2.517  0.00  0.00     0.000 A 
ATOM      5  C6  UNL d   1      -1.839   1.072   1.667  0.00  0.00     0.000 A 
ATOM      6  C7  UNL d   1      -1.629   0.455   0.422  0.00  0.00    -0.073 A 
ATOM      7  C8  UNL d   1      -2.818   0.181  -0.457  0.00  0.00     0.078 C 
ENDROOT
BRANCH   1   8
ATOM      8  C1  UNL d   1      -0.002  -0.478  -1.321  0.00  0.00     0.053 C 
ATOM      9  C   UNL d   1       0.819   0.439  -2.216  0.00  0.00     0.018 C 
ENDBRANCH   1   8
TORSDOF 1
ENDMDL
