MODEL 1
REMARK minimizedAffinity -1.02859795
REMARK minimizedRMSD -1
REMARK  1 active torsions:
REMARK  status: ('A' for Active; 'I' for Inactive)
REMARK    1  A    between atoms: C1_2  and  C2_3 
ROOT
ATOM      1  C2  UNL d   1       0.535   0.454  -1.349  0.00  0.00    -0.076 A 
ATOM      2  C3  UNL d   1       0.297   1.689  -0.722  0.00  0.00     0.004 A 
ATOM      3  C4  UNL d   1       0.280   1.796   0.668  0.00  0.00    -0.003 A 
ATOM      4  C5  UNL d   1       0.503   0.670   1.453  0.00  0.00     0.000 A 
ATOM      5  C6  UNL d   1       0.759  -0.560   0.847  0.00  0.00     0.000 A 
ATOM      6  C7  UNL d   1       0.795  -0.682  -0.553  0.00  0.00    -0.073 A 
ATOM      7  C8  UNL d   1       1.070  -2.033  -1.153  0.00  0.00     0.078 C 
ENDROOT
BRANCH   1   8
ATOM      8  C1  UNL d   1       0.515   0.393  -2.860  0.00  0.00     0.053 C 
ATOM      9  C   UNL d   1       1.721   1.075  -3.487  0.00  0.00     0.018 C 
ENDBRANCH   1   8
TORSDOF 1
ENDMDL
