MODEL 1
REMARK minimizedAffinity -2.52658772
REMARK minimizedRMSD -1
REMARK  1 active torsions:
REMARK  status: ('A' for Active; 'I' for Inactive)
REMARK    1  A    between atoms: C1_2  and  C2_3 
ROOT
ATOM      1  C2  UNL d   1      -0.141  -0.236  -0.646  0.00  0.00    -0.076 A 
ATOM      2  C3  UNL d   1       0.972  -0.479   0.177  0.00  0.00     0.004 A 
ATOM      3  C4  UNL d   1       0.866  -0.413   1.566  0.00  0.00    -0.003 A 
ATOM      4  C5  UNL d   1      -0.356  -0.103   2.153  0.00  0.00     0.000 A 
ATOM      5  C6  UNL d   1      -1.475   0.124   1.352  0.00  0.00     0.000 A 
ATOM      6  C7  UNL d   1      -1.388   0.045  -0.049  0.00  0.00    -0.073 A 
ATOM      7  C8  UNL d   1      -2.625   0.305  -0.864  0.00  0.00     0.078 C 
ENDROOT
BRANCH   1   8
ATOM      8  C1  UNL d   1       0.041  -0.295  -2.146  0.00  0.00     0.053 C 
ATOM      9  C   UNL d   1       1.389   0.250  -2.591  0.00  0.00     0.018 C 
ENDBRANCH   1   8
TORSDOF 1
ENDMDL
