MODEL 1
REMARK minimizedAffinity -3.96995068
REMARK minimizedRMSD -1
REMARK  1 active torsions:
REMARK  status: ('A' for Active; 'I' for Inactive)
REMARK    1  A    between atoms: C1_2  and  C2_3 
ROOT
ATOM      1  C2  UNL d   1       0.091  -0.073   0.191  0.00  0.00    -0.076 A 
ATOM      2  C3  UNL d   1      -1.299   0.127   0.136  0.00  0.00     0.004 A 
ATOM      3  C4  UNL d   1      -1.977   0.749   1.183  0.00  0.00    -0.003 A 
ATOM      4  C5  UNL d   1      -1.275   1.181   2.303  0.00  0.00     0.000 A 
ATOM      5  C6  UNL d   1       0.107   1.007   2.367  0.00  0.00     0.000 A 
ATOM      6  C7  UNL d   1       0.808   0.397   1.312  0.00  0.00    -0.073 A 
ATOM      7  C8  UNL d   1       2.298   0.229   1.437  0.00  0.00     0.078 C 
ENDROOT
BRANCH   1   8
ATOM      8  C1  UNL d   1       0.768  -0.777  -0.963  0.00  0.00     0.053 C 
ATOM      9  C   UNL d   1       0.632  -0.015  -2.272  0.00  0.00     0.018 C 
ENDBRANCH   1   8
TORSDOF 1
ENDMDL
