MODEL 1
REMARK minimizedAffinity -5.5707202
REMARK minimizedRMSD -1
REMARK  1 active torsions:
REMARK  status: ('A' for Active; 'I' for Inactive)
REMARK    1  A    between atoms: C1_2  and  C2_3 
ROOT
ATOM      1  C2  UNL d   1      -0.902   0.309   0.945  0.00  0.00    -0.076 A 
ATOM      2  C3  UNL d   1      -0.402  -0.425  -0.145  0.00  0.00     0.004 A 
ATOM      3  C4  UNL d   1       0.872  -0.988  -0.107  0.00  0.00    -0.003 A 
ATOM      4  C5  UNL d   1       1.668  -0.826   1.022  0.00  0.00     0.000 A 
ATOM      5  C6  UNL d   1       1.181  -0.116   2.119  0.00  0.00     0.000 A 
ATOM      6  C7  UNL d   1      -0.107   0.444   2.103  0.00  0.00    -0.073 A 
ATOM      7  C8  UNL d   1      -0.579   1.205   3.312  0.00  0.00     0.078 C 
ENDROOT
BRANCH   1   8
ATOM      8  C1  UNL d   1      -2.281   0.920   0.836  0.00  0.00     0.053 C 
ATOM      9  C   UNL d   1      -3.037   0.437  -0.393  0.00  0.00     0.018 C 
ENDBRANCH   1   8
TORSDOF 1
ENDMDL
