MODEL 1
REMARK minimizedAffinity -3.69885898
REMARK minimizedRMSD -1
REMARK  1 active torsions:
REMARK  status: ('A' for Active; 'I' for Inactive)
REMARK    1  A    between atoms: C1_2  and  C2_3 
ROOT
ATOM      1  C2  UNL d   1       0.167  -0.379  -0.006  0.00  0.00    -0.076 A 
ATOM      2  C3  UNL d   1      -1.087   0.140  -0.373  0.00  0.00     0.004 A 
ATOM      3  C4  UNL d   1      -2.003   0.554   0.593  0.00  0.00    -0.003 A 
ATOM      4  C5  UNL d   1      -1.679   0.457   1.942  0.00  0.00     0.000 A 
ATOM      5  C6  UNL d   1      -0.433  -0.039   2.323  0.00  0.00     0.000 A 
ATOM      6  C7  UNL d   1       0.508  -0.446   1.362  0.00  0.00    -0.073 A 
ATOM      7  C8  UNL d   1       1.834  -0.978   1.830  0.00  0.00     0.078 C 
ENDROOT
BRANCH   1   8
ATOM      8  C1  UNL d   1       1.108  -0.837  -1.097  0.00  0.00     0.053 C 
ATOM      9  C   UNL d   1       0.712  -0.312  -2.468  0.00  0.00     0.018 C 
ENDBRANCH   1   8
TORSDOF 1
ENDMDL
