MODEL 1
REMARK minimizedAffinity -3.00316834
REMARK minimizedRMSD -1
REMARK  1 active torsions:
REMARK  status: ('A' for Active; 'I' for Inactive)
REMARK    1  A    between atoms: C1_2  and  C2_3 
ROOT
ATOM      1  C2  UNL d   1      -0.213   0.364   0.384  0.00  0.00    -0.076 A 
ATOM      2  C3  UNL d   1       0.380   1.616   0.621  0.00  0.00     0.004 A 
ATOM      3  C4  UNL d   1      -0.113   2.468   1.608  0.00  0.00    -0.003 A 
ATOM      4  C5  UNL d   1      -1.207   2.081   2.374  0.00  0.00     0.000 A 
ATOM      5  C6  UNL d   1      -1.797   0.835   2.165  0.00  0.00     0.000 A 
ATOM      6  C7  UNL d   1      -1.301  -0.043   1.185  0.00  0.00    -0.073 A 
ATOM      7  C8  UNL d   1      -1.979  -1.373   0.998  0.00  0.00     0.078 C 
ENDROOT
BRANCH   1   8
ATOM      8  C1  UNL d   1       0.349  -0.507  -0.717  0.00  0.00     0.053 C 
ATOM      9  C   UNL d   1       0.581   0.265  -2.007  0.00  0.00     0.018 C 
ENDBRANCH   1   8
TORSDOF 1
ENDMDL
