MODEL 1
REMARK minimizedAffinity -4.84782839
REMARK minimizedRMSD -1
REMARK  1 active torsions:
REMARK  status: ('A' for Active; 'I' for Inactive)
REMARK    1  A    between atoms: C1_2  and  C2_3 
ROOT
ATOM      1  C2  UNL d   1      -0.003  -0.464   0.287  0.00  0.00    -0.076 A 
ATOM      2  C3  UNL d   1      -1.366  -0.211   0.054  0.00  0.00     0.004 A 
ATOM      3  C4  UNL d   1      -2.090   0.642   0.885  0.00  0.00    -0.003 A 
ATOM      4  C5  UNL d   1      -1.462   1.258   1.962  0.00  0.00     0.000 A 
ATOM      5  C6  UNL d   1      -0.106   1.032   2.198  0.00  0.00     0.000 A 
ATOM      6  C7  UNL d   1       0.642   0.187   1.360  0.00  0.00    -0.073 A 
ATOM      7  C8  UNL d   1       2.100  -0.025   1.664  0.00  0.00     0.078 C 
ENDROOT
BRANCH   1   8
ATOM      8  C1  UNL d   1       0.723  -1.420  -0.632  0.00  0.00     0.053 C 
ATOM      9  C   UNL d   1       0.706  -0.961  -2.082  0.00  0.00     0.018 C 
ENDBRANCH   1   8
TORSDOF 1
ENDMDL
