MODEL 1
REMARK minimizedAffinity 8.04626369
REMARK minimizedRMSD -1
REMARK  3 active torsions:
REMARK  status: ('A' for Active; 'I' for Inactive)
REMARK    1  A    between atoms: C3'_2  and  C2'_3 
REMARK    2  A    between atoms: C2'_3  and  C1'_4 
REMARK    3  A    between atoms: C1'_4  and  C1_5 
ROOT
ATOM      1  C1  N4B d   1      -0.419   0.257   1.005  0.00  0.00    -0.075 A 
ATOM      2  C2  N4B d   1      -1.299   0.309  -0.098  0.00  0.00     0.002 A 
ATOM      3  C3  N4B d   1      -2.652   0.431   0.108  0.00  0.00     0.002 A 
ATOM      4  C4  N4B d   1      -3.147   0.482   1.402  0.00  0.00    -0.004 A 
ATOM      5  C5  N4B d   1      -2.288   0.456   2.462  0.00  0.00     0.002 A 
ATOM      6  C6  N4B d   1      -0.926   0.339   2.270  0.00  0.00     0.002 A 
ENDROOT
BRANCH   1   7
ATOM      7  C1' N4B d   1       1.059   0.038   0.832  0.00  0.00     0.057 C 
BRANCH   7   8
ATOM      8  C2' N4B d   1       1.513   0.691  -0.470  0.00  0.00     0.009 C 
BRANCH   8   9
ATOM      9  C3' N4B d   1       3.012   0.933  -0.492  0.00  0.00     0.004 C 
ATOM     10  C4' N4B d   1       3.378   2.347  -0.153  0.00  0.00     0.003 C 
ENDBRANCH   8   9
ENDBRANCH   7   8
ENDBRANCH   1   7
TORSDOF 3
ENDMDL
