MODEL 1
REMARK minimizedAffinity 6.24221992
REMARK minimizedRMSD -1
REMARK  3 active torsions:
REMARK  status: ('A' for Active; 'I' for Inactive)
REMARK    1  A    between atoms: C3'_2  and  C2'_3 
REMARK    2  A    between atoms: C2'_3  and  C1'_4 
REMARK    3  A    between atoms: C1'_4  and  C1_5 
ROOT
ATOM      1  C1  N4B d   1      -1.185   0.137   1.198  0.00  0.00    -0.075 A 
ATOM      2  C2  N4B d   1       0.214  -0.025   1.092  0.00  0.00     0.002 A 
ATOM      3  C3  N4B d   1       0.768  -0.449  -0.090  0.00  0.00     0.002 A 
ATOM      4  C4  N4B d   1      -0.054  -0.734  -1.170  0.00  0.00    -0.004 A 
ATOM      5  C5  N4B d   1      -1.402  -0.550  -1.068  0.00  0.00     0.002 A 
ATOM      6  C6  N4B d   1      -1.973  -0.121   0.114  0.00  0.00     0.002 A 
ENDROOT
BRANCH   1   7
ATOM      7  C1' N4B d   1      -1.845   0.515   2.496  0.00  0.00     0.057 C 
BRANCH   7   8
ATOM      8  C2' N4B d   1      -1.209  -0.281   3.632  0.00  0.00     0.009 C 
BRANCH   8   9
ATOM      9  C3' N4B d   1      -2.068  -1.461   4.050  0.00  0.00     0.004 C 
ATOM     10  C4' N4B d   1      -3.508  -1.296   3.664  0.00  0.00     0.003 C 
ENDBRANCH   8   9
ENDBRANCH   7   8
ENDBRANCH   1   7
TORSDOF 3
ENDMDL
