MODEL 1
REMARK minimizedAffinity 3.96998763
REMARK minimizedRMSD -1
REMARK  3 active torsions:
REMARK  status: ('A' for Active; 'I' for Inactive)
REMARK    1  A    between atoms: C3'_2  and  C2'_3 
REMARK    2  A    between atoms: C2'_3  and  C1'_4 
REMARK    3  A    between atoms: C1'_4  and  C1_5 
ROOT
ATOM      1  C1  N4B d   1      -0.384  -0.434   0.716  0.00  0.00    -0.075 A 
ATOM      2  C2  N4B d   1       0.907  -0.857   0.332  0.00  0.00     0.002 A 
ATOM      3  C3  N4B d   1       1.099  -1.451  -0.891  0.00  0.00     0.002 A 
ATOM      4  C4  N4B d   1       0.017  -1.648  -1.736  0.00  0.00    -0.004 A 
ATOM      5  C5  N4B d   1      -1.223  -1.213  -1.368  0.00  0.00     0.002 A 
ATOM      6  C6  N4B d   1      -1.430  -0.611  -0.143  0.00  0.00     0.002 A 
ENDROOT
BRANCH   1   7
ATOM      7  C1' N4B d   1      -0.659   0.142   2.078  0.00  0.00     0.057 C 
BRANCH   7   8
ATOM      8  C2' N4B d   1      -0.678  -0.986   3.105  0.00  0.00     0.009 C 
BRANCH   8   9
ATOM      9  C3' N4B d   1      -1.726  -0.757   4.181  0.00  0.00     0.004 C 
ATOM     10  C4' N4B d   1      -3.053  -1.366   3.839  0.00  0.00     0.003 C 
ENDBRANCH   8   9
ENDBRANCH   7   8
ENDBRANCH   1   7
TORSDOF 3
ENDMDL
