MODEL 1
REMARK minimizedAffinity 4.6351428
REMARK minimizedRMSD -1
REMARK  3 active torsions:
REMARK  status: ('A' for Active; 'I' for Inactive)
REMARK    1  A    between atoms: C3'_2  and  C2'_3 
REMARK    2  A    between atoms: C2'_3  and  C1'_4 
REMARK    3  A    between atoms: C1'_4  and  C1_5 
ROOT
ATOM      1  C1  N4B d   1      -1.527  -0.056   1.602  0.00  0.00    -0.075 A 
ATOM      2  C2  N4B d   1      -0.173  -0.128   1.208  0.00  0.00     0.002 A 
ATOM      3  C3  N4B d   1       0.154  -0.577  -0.048  0.00  0.00     0.002 A 
ATOM      4  C4  N4B d   1      -0.850  -0.975  -0.917  0.00  0.00    -0.004 A 
ATOM      5  C5  N4B d   1      -2.157  -0.878  -0.538  0.00  0.00     0.002 A 
ATOM      6  C6  N4B d   1      -2.501  -0.425   0.719  0.00  0.00     0.002 A 
ENDROOT
BRANCH   1   7
ATOM      7  C1' N4B d   1      -1.929   0.347   2.994  0.00  0.00     0.057 C 
BRANCH   7   8
ATOM      8  C2' N4B d   1      -2.559  -0.850   3.700  0.00  0.00     0.009 C 
BRANCH   8   9
ATOM      9  C3' N4B d   1      -1.525  -1.900   4.070  0.00  0.00     0.004 C 
ATOM     10  C4' N4B d   1      -0.198  -1.305   4.435  0.00  0.00     0.003 C 
ENDBRANCH   8   9
ENDBRANCH   7   8
ENDBRANCH   1   7
TORSDOF 3
ENDMDL
