MODEL 1
REMARK minimizedAffinity 9.1656847
REMARK minimizedRMSD -1
REMARK  3 active torsions:
REMARK  status: ('A' for Active; 'I' for Inactive)
REMARK    1  A    between atoms: C3'_2  and  C2'_3 
REMARK    2  A    between atoms: C2'_3  and  C1'_4 
REMARK    3  A    between atoms: C1'_4  and  C1_5 
ROOT
ATOM      1  C1  N4B d   1       0.121  -0.003   0.784  0.00  0.00    -0.075 A 
ATOM      2  C2  N4B d   1      -1.098   0.567   1.210  0.00  0.00     0.002 A 
ATOM      3  C3  N4B d   1      -2.255   0.311   0.516  0.00  0.00     0.002 A 
ATOM      4  C4  N4B d   1      -2.214  -0.493  -0.613  0.00  0.00    -0.004 A 
ATOM      5  C5  N4B d   1      -1.036  -1.060  -1.003  0.00  0.00     0.002 A 
ATOM      6  C6  N4B d   1       0.134  -0.815  -0.313  0.00  0.00     0.002 A 
ENDROOT
BRANCH   1   7
ATOM      7  C1' N4B d   1       1.427   0.318   1.460  0.00  0.00     0.057 C 
BRANCH   7   8
ATOM      8  C2' N4B d   1       2.129   1.432   0.691  0.00  0.00     0.009 C 
BRANCH   8   9
ATOM      9  C3' N4B d   1       2.364   2.659   1.556  0.00  0.00     0.004 C 
ATOM     10  C4' N4B d   1       1.360   3.745   1.310  0.00  0.00     0.003 C 
ENDBRANCH   8   9
ENDBRANCH   7   8
ENDBRANCH   1   7
TORSDOF 3
ENDMDL
