MODEL 1
REMARK minimizedAffinity 4.43292189
REMARK minimizedRMSD -1
REMARK  0 active torsions:
REMARK  status: ('A' for Active; 'I' for Inactive)
ROOT
ATOM      1  C2' OXE d   1      -2.173   0.080  -0.213  0.00  0.00     0.078 C 
ATOM      2  C1' OXE d   1       0.386  -0.485   0.794  0.00  0.00     0.078 C 
ATOM      3  C1  OXE d   1      -0.539   0.347   1.648  0.00  0.00    -0.078 A 
ATOM      4  C2  OXE d   1      -1.772   0.657   1.127  0.00  0.00    -0.078 A 
ATOM      5  C3  OXE d   1      -2.684   1.375   1.896  0.00  0.00     0.003 A 
ATOM      6  C4  OXE d   1      -2.302   1.914   3.130  0.00  0.00    -0.002 A 
ATOM      7  C5  OXE d   1      -1.036   1.643   3.662  0.00  0.00    -0.002 A 
ATOM      8  C6  OXE d   1      -0.160   0.827   2.954  0.00  0.00     0.003 A 
ENDROOT
TORSDOF 0
ENDMDL
