MODEL 1
REMARK minimizedAffinity 16.5540485
REMARK minimizedRMSD -1
REMARK  0 active torsions:
REMARK  status: ('A' for Active; 'I' for Inactive)
ROOT
ATOM      1  C2' OXE d   1      -2.209   0.711   0.488  0.00  0.00     0.078 C 
ATOM      2  C1' OXE d   1      -1.705   2.622   2.482  0.00  0.00     0.078 C 
ATOM      3  C1  OXE d   1      -0.666   1.553   2.254  0.00  0.00    -0.078 A 
ATOM      4  C2  OXE d   1      -0.942   0.595   1.308  0.00  0.00    -0.078 A 
ATOM      5  C3  OXE d   1       0.006  -0.383   1.020  0.00  0.00     0.003 A 
ATOM      6  C4  OXE d   1       1.171  -0.489   1.790  0.00  0.00    -0.002 A 
ATOM      7  C5  OXE d   1       1.453   0.453   2.784  0.00  0.00    -0.002 A 
ATOM      8  C6  OXE d   1       0.567   1.503   2.999  0.00  0.00     0.003 A 
ENDROOT
TORSDOF 0
ENDMDL
