MODEL 1
REMARK minimizedAffinity 7.30619049
REMARK minimizedRMSD -1
REMARK  0 active torsions:
REMARK  status: ('A' for Active; 'I' for Inactive)
ROOT
ATOM      1  C2' OXE d   1      -2.372   2.268   4.399  0.00  0.00     0.078 C 
ATOM      2  C1' OXE d   1       0.386   2.057   3.917  0.00  0.00     0.078 C 
ATOM      3  C1  OXE d   1      -0.554   1.491   2.883  0.00  0.00    -0.078 A 
ATOM      4  C2  OXE d   1      -1.901   1.557   3.148  0.00  0.00    -0.078 A 
ATOM      5  C3  OXE d   1      -2.814   1.099   2.202  0.00  0.00     0.003 A 
ATOM      6  C4  OXE d   1      -2.370   0.434   1.053  0.00  0.00    -0.002 A 
ATOM      7  C5  OXE d   1      -1.002   0.321   0.782  0.00  0.00    -0.002 A 
ATOM      8  C6  OXE d   1      -0.084   0.881   1.664  0.00  0.00     0.003 A 
ENDROOT
TORSDOF 0
ENDMDL
