MODEL 1
REMARK minimizedAffinity 2.48175979
REMARK minimizedRMSD -1
REMARK  0 active torsions:
REMARK  status: ('A' for Active; 'I' for Inactive)
ROOT
ATOM      1  C2' OXE d   1       3.035  -2.793  -3.524  0.00  0.00     0.078 C 
ATOM      2  C1' OXE d   1       1.517  -2.274  -5.827  0.00  0.00     0.078 C 
ATOM      3  C1  OXE d   1       2.278  -1.126  -5.213  0.00  0.00    -0.078 A 
ATOM      4  C2  OXE d   1       2.981  -1.379  -4.059  0.00  0.00    -0.078 A 
ATOM      5  C3  OXE d   1       3.745  -0.368  -3.482  0.00  0.00     0.003 A 
ATOM      6  C4  OXE d   1       3.681   0.939  -3.978  0.00  0.00    -0.002 A 
ATOM      7  C5  OXE d   1       2.939   1.227  -5.129  0.00  0.00    -0.002 A 
ATOM      8  C6  OXE d   1       2.268   0.199  -5.781  0.00  0.00     0.003 A 
ENDROOT
TORSDOF 0
ENDMDL
