MODEL 1
REMARK minimizedAffinity 7.10757113
REMARK minimizedRMSD -1
REMARK  0 active torsions:
REMARK  status: ('A' for Active; 'I' for Inactive)
ROOT
ATOM      1  C2' OXE d   1       3.755   0.227  -2.768  0.00  0.00     0.078 C 
ATOM      2  C1' OXE d   1       2.258  -1.371  -4.524  0.00  0.00     0.078 C 
ATOM      3  C1  OXE d   1       2.272   0.117  -4.767  0.00  0.00    -0.078 A 
ATOM      4  C2  OXE d   1       2.970   0.896  -3.875  0.00  0.00    -0.078 A 
ATOM      5  C3  OXE d   1       3.061   2.269  -4.083  0.00  0.00     0.003 A 
ATOM      6  C4  OXE d   1       2.323   2.882  -5.104  0.00  0.00    -0.002 A 
ATOM      7  C5  OXE d   1       1.574   2.111  -5.999  0.00  0.00    -0.002 A 
ATOM      8  C6  OXE d   1       1.572   0.727  -5.871  0.00  0.00     0.003 A 
ENDROOT
TORSDOF 0
ENDMDL
