MODEL 1
REMARK minimizedAffinity 6.00546789
REMARK minimizedRMSD -1
REMARK  0 active torsions:
REMARK  status: ('A' for Active; 'I' for Inactive)
ROOT
ATOM      1  C2' OXE d   1      -1.874   0.368   0.471  0.00  0.00     0.078 C 
ATOM      2  C1' OXE d   1       0.693  -0.441   1.269  0.00  0.00     0.078 C 
ATOM      3  C1  OXE d   1       0.013   0.637   2.075  0.00  0.00    -0.078 A 
ATOM      4  C2  OXE d   1      -1.224   1.060   1.649  0.00  0.00    -0.078 A 
ATOM      5  C3  OXE d   1      -1.919   2.013   2.389  0.00  0.00     0.003 A 
ATOM      6  C4  OXE d   1      -1.306   2.655   3.472  0.00  0.00    -0.002 A 
ATOM      7  C5  OXE d   1      -0.031   2.267   3.898  0.00  0.00    -0.002 A 
ATOM      8  C6  OXE d   1       0.623   1.233   3.238  0.00  0.00     0.003 A 
ENDROOT
TORSDOF 0
ENDMDL
