MODEL 1
REMARK minimizedAffinity 4.23493671
REMARK minimizedRMSD -1
REMARK  0 active torsions:
REMARK  status: ('A' for Active; 'I' for Inactive)
ROOT
ATOM      1  C2' OXE d   1       0.467   2.913   3.621  0.00  0.00     0.078 C 
ATOM      2  C1' OXE d   1       1.206   0.695   2.068  0.00  0.00     0.078 C 
ATOM      3  C1  OXE d   1      -0.214   1.190   1.956  0.00  0.00    -0.078 A 
ATOM      4  C2  OXE d   1      -0.580   2.247   2.754  0.00  0.00    -0.078 A 
ATOM      5  C3  OXE d   1      -1.863   2.777   2.651  0.00  0.00     0.003 A 
ATOM      6  C4  OXE d   1      -2.828   2.149   1.854  0.00  0.00    -0.002 A 
ATOM      7  C5  OXE d   1      -2.487   1.046   1.063  0.00  0.00    -0.002 A 
ATOM      8  C6  OXE d   1      -1.176   0.582   1.070  0.00  0.00     0.003 A 
ENDROOT
TORSDOF 0
ENDMDL
