MODEL 1
REMARK minimizedAffinity 2.4983747
REMARK minimizedRMSD -1
REMARK  0 active torsions:
REMARK  status: ('A' for Active; 'I' for Inactive)
ROOT
ATOM      1  C2' OXE d   1       0.050   0.796   1.896  0.00  0.00     0.078 C 
ATOM      2  C1' OXE d   1       1.368  -1.222   3.334  0.00  0.00     0.078 C 
ATOM      3  C1  OXE d   1       2.207  -0.306   2.479  0.00  0.00    -0.078 A 
ATOM      4  C2  OXE d   1       1.549   0.649   1.742  0.00  0.00    -0.078 A 
ATOM      5  C3  OXE d   1       2.279   1.556   0.979  0.00  0.00     0.003 A 
ATOM      6  C4  OXE d   1       3.664   1.406   0.834  0.00  0.00    -0.002 A 
ATOM      7  C5  OXE d   1       4.349   0.415   1.544  0.00  0.00    -0.002 A 
ATOM      8  C6  OXE d   1       3.642  -0.421   2.402  0.00  0.00     0.003 A 
ENDROOT
TORSDOF 0
ENDMDL
