MODEL 1
REMARK minimizedAffinity 4.992486
REMARK minimizedRMSD -1
REMARK  0 active torsions:
REMARK  status: ('A' for Active; 'I' for Inactive)
ROOT
ATOM      1  C2' OXE d   1       1.388   0.386   1.488  0.00  0.00     0.078 C 
ATOM      2  C1' OXE d   1       0.640   2.253   3.446  0.00  0.00     0.078 C 
ATOM      3  C1  OXE d   1      -0.444   1.688   2.562  0.00  0.00    -0.078 A 
ATOM      4  C2  OXE d   1      -0.062   0.810   1.576  0.00  0.00    -0.078 A 
ATOM      5  C3  OXE d   1      -1.029   0.218   0.769  0.00  0.00     0.003 A 
ATOM      6  C4  OXE d   1      -2.367   0.623   0.851  0.00  0.00    -0.002 A 
ATOM      7  C5  OXE d   1      -2.771   1.546   1.822  0.00  0.00    -0.002 A 
ATOM      8  C6  OXE d   1      -1.831   2.055   2.711  0.00  0.00     0.003 A 
ENDROOT
TORSDOF 0
ENDMDL
