MODEL 1
REMARK minimizedAffinity 6.85727406
REMARK minimizedRMSD -1
REMARK  0 active torsions:
REMARK  status: ('A' for Active; 'I' for Inactive)
ROOT
ATOM      1  C2' OXE d   1      -1.567   2.804   3.237  0.00  0.00     0.078 C 
ATOM      2  C1' OXE d   1       1.119   2.433   3.964  0.00  0.00     0.078 C 
ATOM      3  C1  OXE d   1       0.572   1.591   2.839  0.00  0.00    -0.078 A 
ATOM      4  C2  OXE d   1      -0.756   1.746   2.521  0.00  0.00    -0.078 A 
ATOM      5  C3  OXE d   1      -1.297   1.033   1.455  0.00  0.00     0.003 A 
ATOM      6  C4  OXE d   1      -0.543   0.049   0.805  0.00  0.00    -0.002 A 
ATOM      7  C5  OXE d   1       0.800  -0.153   1.140  0.00  0.00    -0.002 A 
ATOM      8  C6  OXE d   1       1.383   0.638   2.123  0.00  0.00     0.003 A 
ENDROOT
TORSDOF 0
ENDMDL
