MODEL 1
REMARK minimizedAffinity 5.2498312
REMARK minimizedRMSD -1
REMARK  0 active torsions:
REMARK  status: ('A' for Active; 'I' for Inactive)
ROOT
ATOM      1  C2' OXE d   1      -1.705   0.864   0.782  0.00  0.00     0.078 C 
ATOM      2  C1' OXE d   1      -3.066  -1.422  -0.113  0.00  0.00     0.078 C 
ATOM      3  C1  OXE d   1      -3.777  -0.517   0.862  0.00  0.00    -0.078 A 
ATOM      4  C2  OXE d   1      -3.085   0.574   1.331  0.00  0.00    -0.078 A 
ATOM      5  C3  OXE d   1      -3.714   1.471   2.190  0.00  0.00     0.003 A 
ATOM      6  C4  OXE d   1      -4.987   1.190   2.701  0.00  0.00    -0.002 A 
ATOM      7  C5  OXE d   1      -5.693   0.063   2.267  0.00  0.00    -0.002 A 
ATOM      8  C6  OXE d   1      -5.120  -0.776   1.318  0.00  0.00     0.003 A 
ENDROOT
TORSDOF 0
ENDMDL
