MODEL 1
REMARK minimizedAffinity 4.90914011
REMARK minimizedRMSD -1
REMARK  0 active torsions:
REMARK  status: ('A' for Active; 'I' for Inactive)
ROOT
ATOM      1  C2' OXE d   1       2.007   0.238   1.925  0.00  0.00     0.078 C 
ATOM      2  C1' OXE d   1       0.269  -1.962   1.791  0.00  0.00     0.078 C 
ATOM      3  C1  OXE d   1      -0.343  -0.588   1.901  0.00  0.00    -0.078 A 
ATOM      4  C2  OXE d   1       0.516   0.479   2.014  0.00  0.00    -0.078 A 
ATOM      5  C3  OXE d   1       0.005   1.773   2.063  0.00  0.00     0.003 A 
ATOM      6  C4  OXE d   1      -1.376   1.986   2.155  0.00  0.00    -0.002 A 
ATOM      7  C5  OXE d   1      -2.267   0.911   2.082  0.00  0.00    -0.002 A 
ATOM      8  C6  OXE d   1      -1.769  -0.377   1.913  0.00  0.00     0.003 A 
ENDROOT
TORSDOF 0
ENDMDL
