MODEL 1
REMARK minimizedAffinity 11.2127428
REMARK minimizedRMSD -1
REMARK  0 active torsions:
REMARK  status: ('A' for Active; 'I' for Inactive)
ROOT
ATOM      1  C2' OXE d   1       1.516  -0.911  -4.130  0.00  0.00     0.078 C 
ATOM      2  C1' OXE d   1       3.129  -2.247  -6.000  0.00  0.00     0.078 C 
ATOM      3  C1  OXE d   1       3.797  -1.678  -4.773  0.00  0.00    -0.078 A 
ATOM      4  C2  OXE d   1       3.008  -0.986  -3.887  0.00  0.00    -0.078 A 
ATOM      5  C3  OXE d   1       3.565  -0.488  -2.712  0.00  0.00     0.003 A 
ATOM      6  C4  OXE d   1       4.947  -0.553  -2.499  0.00  0.00    -0.002 A 
ATOM      7  C5  OXE d   1       5.775  -1.219  -3.409  0.00  0.00    -0.002 A 
ATOM      8  C6  OXE d   1       5.211  -1.823  -4.527  0.00  0.00     0.003 A 
ENDROOT
TORSDOF 0
ENDMDL
