MODEL 1
REMARK minimizedAffinity 5.28856802
REMARK minimizedRMSD -1
REMARK  0 active torsions:
REMARK  status: ('A' for Active; 'I' for Inactive)
ROOT
ATOM      1  C2' OXE d   1      -3.162   2.342   3.437  0.00  0.00     0.078 C 
ATOM      2  C1' OXE d   1      -0.413   2.874   3.240  0.00  0.00     0.078 C 
ATOM      3  C1  OXE d   1      -1.006   1.869   2.284  0.00  0.00    -0.078 A 
ATOM      4  C2  OXE d   1      -2.342   1.580   2.418  0.00  0.00    -0.078 A 
ATOM      5  C3  OXE d   1      -2.951   0.701   1.527  0.00  0.00     0.003 A 
ATOM      6  C4  OXE d   1      -2.183  -0.007   0.594  0.00  0.00    -0.002 A 
ATOM      7  C5  OXE d   1      -0.812   0.243   0.467  0.00  0.00    -0.002 A 
ATOM      8  C6  OXE d   1      -0.218   1.207   1.274  0.00  0.00     0.003 A 
ENDROOT
TORSDOF 0
ENDMDL
