MODEL 1
REMARK minimizedAffinity 7.64099407
REMARK minimizedRMSD -1
REMARK  0 active torsions:
REMARK  status: ('A' for Active; 'I' for Inactive)
ROOT
ATOM      1  C2' OXE d   1      -5.488   1.681   2.219  0.00  0.00     0.078 C 
ATOM      2  C1' OXE d   1      -6.000  -1.079   2.222  0.00  0.00     0.078 C 
ATOM      3  C1  OXE d   1      -5.856  -0.389   3.555  0.00  0.00    -0.078 A 
ATOM      4  C2  OXE d   1      -5.560   0.953   3.544  0.00  0.00    -0.078 A 
ATOM      5  C3  OXE d   1      -5.471   1.649   4.746  0.00  0.00     0.003 A 
ATOM      6  C4  OXE d   1      -5.529   0.966   5.967  0.00  0.00    -0.002 A 
ATOM      7  C5  OXE d   1      -5.791  -0.408   6.000  0.00  0.00    -0.002 A 
ATOM      8  C6  OXE d   1      -5.999  -1.091   4.807  0.00  0.00     0.003 A 
ENDROOT
TORSDOF 0
ENDMDL
