MODEL 1
REMARK minimizedAffinity 7.81793976
REMARK minimizedRMSD -1
REMARK  0 active torsions:
REMARK  status: ('A' for Active; 'I' for Inactive)
ROOT
ATOM      1  C2' OXE d   1       1.535  -0.014   1.493  0.00  0.00     0.078 C 
ATOM      2  C1' OXE d   1       0.966   1.858   3.506  0.00  0.00     0.078 C 
ATOM      3  C1  OXE d   1      -0.180   1.370   2.656  0.00  0.00    -0.078 A 
ATOM      4  C2  OXE d   1       0.115   0.489   1.643  0.00  0.00    -0.078 A 
ATOM      5  C3  OXE d   1      -0.913  -0.035   0.864  0.00  0.00     0.003 A 
ATOM      6  C4  OXE d   1      -2.221   0.443   1.002  0.00  0.00    -0.002 A 
ATOM      7  C5  OXE d   1      -2.537   1.369   2.002  0.00  0.00    -0.002 A 
ATOM      8  C6  OXE d   1      -1.537   1.810   2.863  0.00  0.00     0.003 A 
ENDROOT
TORSDOF 0
ENDMDL
