MODEL 1
REMARK minimizedAffinity 2.40361142
REMARK minimizedRMSD -1
REMARK  0 active torsions:
REMARK  status: ('A' for Active; 'I' for Inactive)
ROOT
ATOM      1  C2' OXE d   1       1.107   0.395   1.171  0.00  0.00     0.078 C 
ATOM      2  C1' OXE d   1       0.335   2.158   3.215  0.00  0.00     0.078 C 
ATOM      3  C1  OXE d   1      -0.744   1.602   2.321  0.00  0.00    -0.078 A 
ATOM      4  C2  OXE d   1      -0.353   0.777   1.294  0.00  0.00    -0.078 A 
ATOM      5  C3  OXE d   1      -1.314   0.192   0.474  0.00  0.00     0.003 A 
ATOM      6  C4  OXE d   1      -2.660   0.558   0.589  0.00  0.00    -0.002 A 
ATOM      7  C5  OXE d   1      -3.076   1.428   1.602  0.00  0.00    -0.002 A 
ATOM      8  C6  OXE d   1      -2.138   1.924   2.501  0.00  0.00     0.003 A 
ENDROOT
TORSDOF 0
ENDMDL
