MODEL 1
REMARK minimizedAffinity 17.3697948
REMARK minimizedRMSD -1
REMARK  0 active torsions:
REMARK  status: ('A' for Active; 'I' for Inactive)
ROOT
ATOM      1  C2' OXE d   1      -2.366   2.639  -3.250  0.00  0.00     0.078 C 
ATOM      2  C1' OXE d   1      -3.625   5.007  -4.079  0.00  0.00     0.078 C 
ATOM      3  C1  OXE d   1      -4.265   3.697  -4.467  0.00  0.00    -0.078 A 
ATOM      4  C2  OXE d   1      -3.617   2.543  -4.097  0.00  0.00    -0.078 A 
ATOM      5  C3  OXE d   1      -4.193   1.308  -4.381  0.00  0.00     0.003 A 
ATOM      6  C4  OXE d   1      -5.345   1.228  -5.173  0.00  0.00    -0.002 A 
ATOM      7  C5  OXE d   1      -5.999   2.391  -5.594  0.00  0.00    -0.002 A 
ATOM      8  C6  OXE d   1      -5.496   3.631  -5.214  0.00  0.00     0.003 A 
ENDROOT
TORSDOF 0
ENDMDL
