MODEL 1
REMARK minimizedAffinity 5.71591091
REMARK minimizedRMSD -1
REMARK  0 active torsions:
REMARK  status: ('A' for Active; 'I' for Inactive)
ROOT
ATOM      1  C2' OXE d   1      -5.427   2.964  -5.316  0.00  0.00     0.078 C 
ATOM      2  C1' OXE d   1      -6.000   0.487  -4.126  0.00  0.00     0.078 C 
ATOM      3  C1  OXE d   1      -4.768   1.223  -3.660  0.00  0.00    -0.078 A 
ATOM      4  C2  OXE d   1      -4.470   2.412  -4.281  0.00  0.00    -0.078 A 
ATOM      5  C3  OXE d   1      -3.376   3.158  -3.853  0.00  0.00     0.003 A 
ATOM      6  C4  OXE d   1      -2.491   2.636  -2.902  0.00  0.00    -0.002 A 
ATOM      7  C5  OXE d   1      -2.754   1.408  -2.286  0.00  0.00    -0.002 A 
ATOM      8  C6  OXE d   1      -3.909   0.711  -2.622  0.00  0.00     0.003 A 
ENDROOT
TORSDOF 0
ENDMDL
