MODEL 1
REMARK minimizedAffinity 11.1991062
REMARK minimizedRMSD -1
REMARK  0 active torsions:
REMARK  status: ('A' for Active; 'I' for Inactive)
ROOT
ATOM      1  C2' OXE d   1       3.104  -4.501  -0.721  0.00  0.00     0.078 C 
ATOM      2  C1' OXE d   1       4.656  -2.387   0.281  0.00  0.00     0.078 C 
ATOM      3  C1  OXE d   1       3.196  -2.428   0.658  0.00  0.00    -0.078 A 
ATOM      4  C2  OXE d   1       2.434  -3.440   0.125  0.00  0.00    -0.078 A 
ATOM      5  C3  OXE d   1       1.094  -3.556   0.484  0.00  0.00     0.003 A 
ATOM      6  C4  OXE d   1       0.479  -2.565   1.259  0.00  0.00    -0.002 A 
ATOM      7  C5  OXE d   1       1.228  -1.505   1.779  0.00  0.00    -0.002 A 
ATOM      8  C6  OXE d   1       2.594  -1.445   1.524  0.00  0.00     0.003 A 
ENDROOT
TORSDOF 0
ENDMDL
