MODEL 1
REMARK minimizedAffinity 9.20957661
REMARK minimizedRMSD -1
REMARK  0 active torsions:
REMARK  status: ('A' for Active; 'I' for Inactive)
ROOT
ATOM      1  C2' OXE d   1       3.431  -4.469  -1.148  0.00  0.00     0.078 C 
ATOM      2  C1' OXE d   1       4.912  -2.211  -0.379  0.00  0.00     0.078 C 
ATOM      3  C1  OXE d   1       3.481  -2.307   0.090  0.00  0.00    -0.078 A 
ATOM      4  C2  OXE d   1       2.750  -3.392  -0.330  0.00  0.00    -0.078 A 
ATOM      5  C3  OXE d   1       1.443  -3.557   0.118  0.00  0.00     0.003 A 
ATOM      6  C4  OXE d   1       0.817  -2.552   0.866  0.00  0.00    -0.002 A 
ATOM      7  C5  OXE d   1       1.532  -1.420   1.271  0.00  0.00    -0.002 A 
ATOM      8  C6  OXE d   1       2.874  -1.303   0.928  0.00  0.00     0.003 A 
ENDROOT
TORSDOF 0
ENDMDL
