MODEL 1
REMARK minimizedAffinity 10.0400581
REMARK minimizedRMSD -1
REMARK  0 active torsions:
REMARK  status: ('A' for Active; 'I' for Inactive)
ROOT
ATOM      1  C2' OXE d   1       5.416   3.036   2.682  0.00  0.00     0.078 C 
ATOM      2  C1' OXE d   1       2.846   2.955   3.808  0.00  0.00     0.078 C 
ATOM      3  C1  OXE d   1       3.780   4.048   4.265  0.00  0.00    -0.078 A 
ATOM      4  C2  OXE d   1       5.051   4.052   3.743  0.00  0.00    -0.078 A 
ATOM      5  C3  OXE d   1       5.935   5.070   4.090  0.00  0.00     0.003 A 
ATOM      6  C4  OXE d   1       5.594   5.999   5.080  0.00  0.00    -0.002 A 
ATOM      7  C5  OXE d   1       4.318   5.988   5.653  0.00  0.00    -0.002 A 
ATOM      8  C6  OXE d   1       3.387   5.048   5.227  0.00  0.00     0.003 A 
ENDROOT
TORSDOF 0
ENDMDL
