MODEL 1
REMARK minimizedAffinity 12.1274309
REMARK minimizedRMSD -1
REMARK  0 active torsions:
REMARK  status: ('A' for Active; 'I' for Inactive)
ROOT
ATOM      1  C2' OXE d   1       1.837  -3.301  -0.077  0.00  0.00     0.078 C 
ATOM      2  C1' OXE d   1       4.001  -1.563   0.346  0.00  0.00     0.078 C 
ATOM      3  C1  OXE d   1       2.748  -1.336   1.154  0.00  0.00    -0.078 A 
ATOM      4  C2  OXE d   1       1.678  -2.162   0.907  0.00  0.00    -0.078 A 
ATOM      5  C3  OXE d   1       0.517  -2.031   1.664  0.00  0.00     0.003 A 
ATOM      6  C4  OXE d   1       0.374  -0.969   2.565  0.00  0.00    -0.002 A 
ATOM      7  C5  OXE d   1       1.438  -0.092   2.803  0.00  0.00    -0.002 A 
ATOM      8  C6  OXE d   1       2.644  -0.287   2.138  0.00  0.00     0.003 A 
ENDROOT
TORSDOF 0
ENDMDL
