MODEL 1
REMARK minimizedAffinity 14.113781
REMARK minimizedRMSD -1
REMARK  0 active torsions:
REMARK  status: ('A' for Active; 'I' for Inactive)
ROOT
ATOM      1  C2' OXE d   1       5.124   3.031  -5.070  0.00  0.00     0.078 C 
ATOM      2  C1' OXE d   1       5.448   5.674  -5.959  0.00  0.00     0.078 C 
ATOM      3  C1  OXE d   1       4.042   5.168  -5.754  0.00  0.00    -0.078 A 
ATOM      4  C2  OXE d   1       3.892   3.859  -5.364  0.00  0.00    -0.078 A 
ATOM      5  C3  OXE d   1       2.619   3.358  -5.107  0.00  0.00     0.003 A 
ATOM      6  C4  OXE d   1       1.484   4.127  -5.390  0.00  0.00    -0.002 A 
ATOM      7  C5  OXE d   1       1.614   5.450  -5.827  0.00  0.00    -0.002 A 
ATOM      8  C6  OXE d   1       2.883   5.998  -5.972  0.00  0.00     0.003 A 
ENDROOT
TORSDOF 0
ENDMDL
