MODEL 1
REMARK minimizedAffinity 5.42327309
REMARK minimizedRMSD -1
REMARK  0 active torsions:
REMARK  status: ('A' for Active; 'I' for Inactive)
ROOT
ATOM      1  C2' OXE d   1      -3.322   1.476  -2.215  0.00  0.00     0.078 C 
ATOM      2  C1' OXE d   1      -3.832   2.027  -4.920  0.00  0.00     0.078 C 
ATOM      3  C1  OXE d   1      -2.409   2.142  -4.435  0.00  0.00    -0.078 A 
ATOM      4  C2  OXE d   1      -2.176   1.917  -3.100  0.00  0.00    -0.078 A 
ATOM      5  C3  OXE d   1      -0.873   1.957  -2.611  0.00  0.00     0.003 A 
ATOM      6  C4  OXE d   1       0.180   2.374  -3.434  0.00  0.00    -0.002 A 
ATOM      7  C5  OXE d   1      -0.042   2.648  -4.788  0.00  0.00    -0.002 A 
ATOM      8  C6  OXE d   1      -1.320   2.495  -5.313  0.00  0.00     0.003 A 
ENDROOT
TORSDOF 0
ENDMDL
