MODEL 1
REMARK minimizedAffinity 2.34443855
REMARK minimizedRMSD -1
REMARK  0 active torsions:
REMARK  status: ('A' for Active; 'I' for Inactive)
ROOT
ATOM      1  O1  BZF d   1       4.154   1.971  -1.045  0.00  0.00    -0.204 OA
ATOM      2  C2  BZF d   1       3.431   2.192   0.112  0.00  0.00     0.174 A 
ATOM      3  C3  BZF d   1       2.887   1.043   0.563  0.00  0.00    -0.012 A 
ATOM      4  C3A BZF d   1       3.371   0.026  -0.319  0.00  0.00    -0.107 A 
ATOM      5  C4  BZF d   1       3.194  -1.327  -0.378  0.00  0.00     0.055 A 
ATOM      6  C5  BZF d   1       3.747  -2.021  -1.408  0.00  0.00    -0.016 A 
ATOM      7  C6  BZF d   1       4.477  -1.394  -2.396  0.00  0.00     0.022 A 
ATOM      8  C7  BZF d   1       4.684  -0.055  -2.377  0.00  0.00     0.029 A 
ATOM      9  C7A BZF d   1       4.154   0.644  -1.320  0.00  0.00     0.058 A 
ENDROOT
TORSDOF 0
ENDMDL
