MODEL 1
REMARK minimizedAffinity 10.8792057
REMARK minimizedRMSD -1
REMARK  0 active torsions:
REMARK  status: ('A' for Active; 'I' for Inactive)
ROOT
ATOM      1  O1  BZF d   1      -4.559   3.413  -2.235  0.00  0.00    -0.204 OA
ATOM      2  C2  BZF d   1      -5.682   3.085  -1.500  0.00  0.00     0.174 A 
ATOM      3  C3  BZF d   1      -5.724   1.759  -1.256  0.00  0.00    -0.012 A 
ATOM      4  C3A BZF d   1      -4.507   1.238  -1.798  0.00  0.00    -0.107 A 
ATOM      5  C4  BZF d   1      -3.963  -0.013  -1.853  0.00  0.00     0.055 A 
ATOM      6  C5  BZF d   1      -2.792  -0.197  -2.518  0.00  0.00    -0.016 A 
ATOM      7  C6  BZF d   1      -2.142   0.847  -3.144  0.00  0.00     0.022 A 
ATOM      8  C7  BZF d   1      -2.640   2.107  -3.113  0.00  0.00     0.029 A 
ATOM      9  C7A BZF d   1      -3.806   2.301  -2.413  0.00  0.00     0.058 A 
ENDROOT
TORSDOF 0
ENDMDL
