MODEL 1
REMARK minimizedAffinity 2.66165781
REMARK minimizedRMSD -1
REMARK  0 active torsions:
REMARK  status: ('A' for Active; 'I' for Inactive)
ROOT
ATOM      1  O1  BZF d   1      -0.024   1.075   3.406  0.00  0.00    -0.204 OA
ATOM      2  C2  BZF d   1       0.697  -0.072   3.138  0.00  0.00     0.174 A 
ATOM      3  C3  BZF d   1       0.691  -0.344   1.817  0.00  0.00    -0.012 A 
ATOM      4  C3A BZF d   1      -0.005   0.750   1.212  0.00  0.00    -0.107 A 
ATOM      5  C4  BZF d   1      -0.322   1.061  -0.080  0.00  0.00     0.055 A 
ATOM      6  C5  BZF d   1      -1.073   2.166  -0.327  0.00  0.00    -0.016 A 
ATOM      7  C6  BZF d   1      -1.527   2.979   0.691  0.00  0.00     0.022 A 
ATOM      8  C7  BZF d   1      -1.234   2.713   1.988  0.00  0.00     0.029 A 
ATOM      9  C7A BZF d   1      -0.448   1.615   2.238  0.00  0.00     0.058 A 
ENDROOT
TORSDOF 0
ENDMDL
