MODEL 1
REMARK minimizedAffinity 4.76622438
REMARK minimizedRMSD -1
REMARK  0 active torsions:
REMARK  status: ('A' for Active; 'I' for Inactive)
ROOT
ATOM      1  O1  BZF d   1       4.344   2.698  -0.091  0.00  0.00    -0.204 OA
ATOM      2  C2  BZF d   1       5.580   2.203  -0.460  0.00  0.00     0.174 A 
ATOM      3  C3  BZF d   1       5.537   0.862  -0.596  0.00  0.00    -0.012 A 
ATOM      4  C3A BZF d   1       4.168   0.505  -0.383  0.00  0.00    -0.107 A 
ATOM      5  C4  BZF d   1       3.493  -0.682  -0.402  0.00  0.00     0.055 A 
ATOM      6  C5  BZF d   1       2.173  -0.696  -0.080  0.00  0.00    -0.016 A 
ATOM      7  C6  BZF d   1       1.498   0.455   0.270  0.00  0.00     0.022 A 
ATOM      8  C7  BZF d   1       2.124   1.657   0.297  0.00  0.00     0.029 A 
ATOM      9  C7A BZF d   1       3.450   1.680  -0.059  0.00  0.00     0.058 A 
ENDROOT
TORSDOF 0
ENDMDL
