MODEL 1
REMARK minimizedAffinity 1.99098694
REMARK minimizedRMSD -1
REMARK  0 active torsions:
REMARK  status: ('A' for Active; 'I' for Inactive)
ROOT
ATOM      1  O1  BZF d   1       0.662  -1.185   2.659  0.00  0.00    -0.204 OA
ATOM      2  C2  BZF d   1       0.049   0.023   2.930  0.00  0.00     0.174 A 
ATOM      3  C3  BZF d   1       0.460   0.973   2.066  0.00  0.00    -0.012 A 
ATOM      4  C3A BZF d   1       1.318   0.297   1.143  0.00  0.00    -0.107 A 
ATOM      5  C4  BZF d   1       2.020   0.702   0.044  0.00  0.00     0.055 A 
ATOM      6  C5  BZF d   1       2.821  -0.191  -0.594  0.00  0.00    -0.016 A 
ATOM      7  C6  BZF d   1       2.946  -1.494  -0.160  0.00  0.00     0.022 A 
ATOM      8  C7  BZF d   1       2.266  -1.944   0.922  0.00  0.00     0.029 A 
ATOM      9  C7A BZF d   1       1.430  -1.052   1.551  0.00  0.00     0.058 A 
ENDROOT
TORSDOF 0
ENDMDL
