MODEL 1
REMARK minimizedAffinity 2.0950067
REMARK minimizedRMSD -1
REMARK  0 active torsions:
REMARK  status: ('A' for Active; 'I' for Inactive)
ROOT
ATOM      1  O1  BZF d   1       0.882   1.151   2.370  0.00  0.00    -0.204 OA
ATOM      2  C2  BZF d   1       0.491   0.250   3.341  0.00  0.00     0.174 A 
ATOM      3  C3  BZF d   1       1.061  -0.954   3.134  0.00  0.00    -0.012 A 
ATOM      4  C3A BZF d   1       1.932  -0.770   2.013  0.00  0.00    -0.107 A 
ATOM      5  C4  BZF d   1       2.784  -1.598   1.341  0.00  0.00     0.055 A 
ATOM      6  C5  BZF d   1       3.433  -1.128   0.243  0.00  0.00    -0.016 A 
ATOM      7  C6  BZF d   1       3.250   0.161  -0.212  0.00  0.00     0.022 A 
ATOM      8  C7  BZF d   1       2.418   1.021   0.425  0.00  0.00     0.029 A 
ATOM      9  C7A BZF d   1       1.786   0.559   1.554  0.00  0.00     0.058 A 
ENDROOT
TORSDOF 0
ENDMDL
