MODEL 1
REMARK minimizedAffinity 11.005125
REMARK minimizedRMSD -1
REMARK  0 active torsions:
REMARK  status: ('A' for Active; 'I' for Inactive)
ROOT
ATOM      1  O1  BZF d   1      -2.260   3.991   1.819  0.00  0.00    -0.204 OA
ATOM      2  C2  BZF d   1      -1.360   2.998   2.154  0.00  0.00     0.174 A 
ATOM      3  C3  BZF d   1      -1.656   1.848   1.515  0.00  0.00    -0.012 A 
ATOM      4  C3A BZF d   1      -2.759   2.166   0.660  0.00  0.00    -0.107 A 
ATOM      5  C4  BZF d   1      -3.490   1.442  -0.237  0.00  0.00     0.055 A 
ATOM      6  C5  BZF d   1      -4.548   2.030  -0.855  0.00  0.00    -0.016 A 
ATOM      7  C6  BZF d   1      -4.906   3.337  -0.595  0.00  0.00     0.022 A 
ATOM      8  C7  BZF d   1      -4.207   4.097   0.283  0.00  0.00     0.029 A 
ATOM      9  C7A BZF d   1      -3.118   3.515   0.884  0.00  0.00     0.058 A 
ENDROOT
TORSDOF 0
ENDMDL
