MODEL 1
REMARK minimizedAffinity 4.87592888
REMARK minimizedRMSD -1
REMARK  0 active torsions:
REMARK  status: ('A' for Active; 'I' for Inactive)
ROOT
ATOM      1  O1  BZF d   1       1.381  -3.699  -0.572  0.00  0.00    -0.204 OA
ATOM      2  C2  BZF d   1       1.390  -2.460  -1.184  0.00  0.00     0.174 A 
ATOM      3  C3  BZF d   1       0.309  -2.310  -1.976  0.00  0.00    -0.012 A 
ATOM      4  C3A BZF d   1      -0.469  -3.494  -1.780  0.00  0.00    -0.107 A 
ATOM      5  C4  BZF d   1      -1.663  -3.927  -2.281  0.00  0.00     0.055 A 
ATOM      6  C5  BZF d   1      -2.112  -5.165  -1.945  0.00  0.00    -0.016 A 
ATOM      7  C6  BZF d   1      -1.390  -5.997  -1.115  0.00  0.00     0.022 A 
ATOM      8  C7  BZF d   1      -0.202  -5.611  -0.589  0.00  0.00     0.029 A 
ATOM      9  C7A BZF d   1       0.238  -4.347  -0.901  0.00  0.00     0.058 A 
ENDROOT
TORSDOF 0
ENDMDL
