MODEL 1
REMARK minimizedAffinity 8.31461906
REMARK minimizedRMSD -1
REMARK  0 active torsions:
REMARK  status: ('A' for Active; 'I' for Inactive)
ROOT
ATOM      1  O1  BZF d   1       2.723  -2.727  -0.769  0.00  0.00    -0.204 OA
ATOM      2  C2  BZF d   1       3.745  -2.490  -1.668  0.00  0.00     0.174 A 
ATOM      3  C3  BZF d   1       4.184  -1.219  -1.570  0.00  0.00    -0.012 A 
ATOM      4  C3A BZF d   1       3.448  -0.650  -0.482  0.00  0.00    -0.107 A 
ATOM      5  C4  BZF d   1       3.449   0.581   0.110  0.00  0.00     0.055 A 
ATOM      6  C5  BZF d   1       2.557   0.836   1.103  0.00  0.00    -0.016 A 
ATOM      7  C6  BZF d   1       1.648  -0.112   1.524  0.00  0.00     0.022 A 
ATOM      8  C7  BZF d   1       1.612  -1.348   0.970  0.00  0.00     0.029 A 
ATOM      9  C7A BZF d   1       2.535  -1.621  -0.011  0.00  0.00     0.058 A 
ENDROOT
TORSDOF 0
ENDMDL
