MODEL 1
REMARK minimizedAffinity 9.43241787
REMARK minimizedRMSD -1
REMARK  1 active torsions:
REMARK  status: ('A' for Active; 'I' for Inactive)
REMARK    1  A    between atoms: N_2  and  C1_3 
ROOT
ATOM      1  C1  UNL d   1       0.749  -1.067   1.290  0.00  0.00     0.143 A 
ATOM      2  C2  UNL d   1       1.348  -2.330   1.228  0.00  0.00    -0.057 A 
ATOM      3  C3  UNL d   1       0.577  -3.499   1.225  0.00  0.00     0.033 A 
ATOM      4  C4  UNL d   1      -0.809  -3.426   1.313  0.00  0.00    -0.042 A 
ATOM      5  C5  UNL d   1      -1.424  -2.183   1.400  0.00  0.00     0.033 A 
ATOM      6  C6  UNL d   1      -0.650  -1.018   1.396  0.00  0.00    -0.057 A 
ENDROOT
BRANCH   1   7
ATOM      7  N   UNL d   1       1.464   0.129   1.395  0.00  0.00    -0.732 N 
ATOM      8  C   UNL d   1       2.892   0.156   1.166  0.00  0.00     0.284 C 
ATOM      9  H3  UNL d   1       0.963   0.918   0.993  0.00  0.00     0.395 HD
ENDBRANCH   1   7
TORSDOF 1
ENDMDL
