MODEL 1
REMARK minimizedAffinity 9.48792839
REMARK minimizedRMSD -1
REMARK  1 active torsions:
REMARK  status: ('A' for Active; 'I' for Inactive)
REMARK    1  A    between atoms: N_2  and  C1_3 
ROOT
ATOM      1  C1  UNL d   1       1.313  -1.533   2.897  0.00  0.00     0.143 A 
ATOM      2  C2  UNL d   1       2.472  -2.005   2.274  0.00  0.00    -0.057 A 
ATOM      3  C3  UNL d   1       3.018  -1.352   1.162  0.00  0.00     0.033 A 
ATOM      4  C4  UNL d   1       2.394  -0.226   0.635  0.00  0.00    -0.042 A 
ATOM      5  C5  UNL d   1       1.226   0.247   1.223  0.00  0.00     0.033 A 
ATOM      6  C6  UNL d   1       0.690  -0.406   2.337  0.00  0.00    -0.057 A 
ENDROOT
BRANCH   1   7
ATOM      7  N   UNL d   1       0.667  -2.195   3.944  0.00  0.00    -0.732 N 
ATOM      8  C   UNL d   1       1.251  -2.226   5.268  0.00  0.00     0.284 C 
ATOM      9  H3  UNL d   1      -0.339  -2.044   3.937  0.00  0.00     0.395 HD
ENDBRANCH   1   7
TORSDOF 1
ENDMDL
