MODEL 1
REMARK minimizedAffinity 10.825841
REMARK minimizedRMSD -1
REMARK  1 active torsions:
REMARK  status: ('A' for Active; 'I' for Inactive)
REMARK    1  A    between atoms: N_2  and  C1_3 
ROOT
ATOM      1  C1  UNL d   1       1.164  -1.437   2.122  0.00  0.00     0.143 A 
ATOM      2  C2  UNL d   1       0.984  -0.060   1.956  0.00  0.00    -0.057 A 
ATOM      3  C3  UNL d   1       1.848   0.693   1.151  0.00  0.00     0.033 A 
ATOM      4  C4  UNL d   1       2.926   0.084   0.518  0.00  0.00    -0.042 A 
ATOM      5  C5  UNL d   1       3.139  -1.279   0.689  0.00  0.00     0.033 A 
ATOM      6  C6  UNL d   1       2.269  -2.027   1.490  0.00  0.00    -0.057 A 
ENDROOT
BRANCH   1   7
ATOM      7  N   UNL d   1       0.399  -2.222   2.988  0.00  0.00    -0.732 N 
ATOM      8  C   UNL d   1       1.006  -2.857   4.139  0.00  0.00     0.284 C 
ATOM      9  H3  UNL d   1      -0.517  -1.819   3.171  0.00  0.00     0.395 HD
ENDBRANCH   1   7
TORSDOF 1
ENDMDL
