MODEL 1
REMARK minimizedAffinity 14.5534773
REMARK minimizedRMSD -1
REMARK  1 active torsions:
REMARK  status: ('A' for Active; 'I' for Inactive)
REMARK    1  A    between atoms: N_2  and  C1_3 
ROOT
ATOM      1  C1  UNL d   1       3.532  -2.663   2.621  0.00  0.00     0.143 A 
ATOM      2  C2  UNL d   1       3.178  -1.588   1.799  0.00  0.00    -0.057 A 
ATOM      3  C3  UNL d   1       1.872  -1.082   1.787  0.00  0.00     0.033 A 
ATOM      4  C4  UNL d   1       0.887  -1.664   2.579  0.00  0.00    -0.042 A 
ATOM      5  C5  UNL d   1       1.211  -2.750   3.385  0.00  0.00     0.033 A 
ATOM      6  C6  UNL d   1       2.518  -3.246   3.397  0.00  0.00    -0.057 A 
ENDROOT
BRANCH   1   7
ATOM      7  N   UNL d   1       4.789  -3.274   2.604  0.00  0.00    -0.732 N 
ATOM      8  C   UNL d   1       5.995  -2.477   2.536  0.00  0.00     0.284 C 
ATOM      9  H3  UNL d   1       4.846  -4.061   3.245  0.00  0.00     0.395 HD
ENDBRANCH   1   7
TORSDOF 1
ENDMDL
