MODEL 1
REMARK minimizedAffinity 10.6603394
REMARK minimizedRMSD -1
REMARK  1 active torsions:
REMARK  status: ('A' for Active; 'I' for Inactive)
REMARK    1  A    between atoms: N_2  and  C1_3 
ROOT
ATOM      1  C1  UNL d   1      -3.771   2.470   1.248  0.00  0.00     0.143 A 
ATOM      2  C2  UNL d   1      -3.091   1.303   1.611  0.00  0.00    -0.057 A 
ATOM      3  C3  UNL d   1      -2.346   0.575   0.675  0.00  0.00     0.033 A 
ATOM      4  C4  UNL d   1      -2.293   0.988  -0.653  0.00  0.00    -0.042 A 
ATOM      5  C5  UNL d   1      -2.982   2.131  -1.041  0.00  0.00     0.033 A 
ATOM      6  C6  UNL d   1      -3.718   2.857  -0.100  0.00  0.00    -0.057 A 
ENDROOT
BRANCH   1   7
ATOM      7  N   UNL d   1      -4.608   3.182   2.110  0.00  0.00    -0.732 N 
ATOM      8  C   UNL d   1      -5.996   3.411   1.769  0.00  0.00     0.284 C 
ATOM      9  H3  UNL d   1      -4.454   2.943   3.087  0.00  0.00     0.395 HD
ENDBRANCH   1   7
TORSDOF 1
ENDMDL
