MODEL 1
REMARK minimizedAffinity 7.44903564
REMARK minimizedRMSD -1
REMARK  0 active torsions:
REMARK  status: ('A' for Active; 'I' for Inactive)
ROOT
ATOM      1  C   UNL d   1       4.360   3.712   1.851  0.00  0.00     0.172 C 
ATOM      2  N   UNL d   1       4.747   4.635   2.893  0.00  0.00    -0.070 N 
ATOM      3  C1  UNL d   1       3.929   5.110   3.883  0.00  0.00    -0.004 A 
ATOM      4  C2  UNL d   1       4.671   5.961   4.672  0.00  0.00    -0.047 A 
ATOM      5  C3  UNL d   1       5.981   6.000   4.138  0.00  0.00    -0.047 A 
ATOM      6  C4  UNL d   1       6.000   5.170   3.037  0.00  0.00    -0.004 A 
ENDROOT
TORSDOF 0
ENDMDL
