MODEL 1
REMARK minimizedAffinity 2.3810544
REMARK minimizedRMSD -1
REMARK  0 active torsions:
REMARK  status: ('A' for Active; 'I' for Inactive)
ROOT
ATOM      1  C   UNL d   1       2.095  -1.864   3.708  0.00  0.00     0.172 C 
ATOM      2  N   UNL d   1       2.092  -0.545   3.120  0.00  0.00    -0.070 N 
ATOM      3  C1  UNL d   1       3.196   0.239   2.912  0.00  0.00    -0.004 A 
ATOM      4  C2  UNL d   1       2.774   1.416   2.333  0.00  0.00    -0.047 A 
ATOM      5  C3  UNL d   1       1.369   1.338   2.189  0.00  0.00    -0.047 A 
ATOM      6  C4  UNL d   1       0.973   0.113   2.684  0.00  0.00    -0.004 A 
ENDROOT
TORSDOF 0
ENDMDL
