MODEL 1
REMARK minimizedAffinity 1.8355217
REMARK minimizedRMSD -1
REMARK  0 active torsions:
REMARK  status: ('A' for Active; 'I' for Inactive)
ROOT
ATOM      1  C   UNL d   1       1.440  -2.331   4.796  0.00  0.00     0.172 C 
ATOM      2  N   UNL d   1       0.874  -1.325   3.928  0.00  0.00    -0.070 N 
ATOM      3  C1  UNL d   1       0.170  -1.566   2.779  0.00  0.00    -0.004 A 
ATOM      4  C2  UNL d   1      -0.196  -0.349   2.246  0.00  0.00    -0.047 A 
ATOM      5  C3  UNL d   1       0.306   0.658   3.103  0.00  0.00    -0.047 A 
ATOM      6  C4  UNL d   1       0.965   0.026   4.137  0.00  0.00    -0.004 A 
ENDROOT
TORSDOF 0
ENDMDL
