MODEL 1
REMARK minimizedAffinity 11.6253691
REMARK minimizedRMSD -1
REMARK  0 active torsions:
REMARK  status: ('A' for Active; 'I' for Inactive)
ROOT
ATOM      1  C   UNL d   1      -1.140  -2.232  -2.293  0.00  0.00     0.172 C 
ATOM      2  N   UNL d   1      -0.486  -1.576  -3.401  0.00  0.00    -0.070 N 
ATOM      3  C1  UNL d   1       0.690  -0.877  -3.335  0.00  0.00    -0.004 A 
ATOM      4  C2  UNL d   1       0.975  -0.409  -4.599  0.00  0.00    -0.047 A 
ATOM      5  C3  UNL d   1      -0.066  -0.841  -5.455  0.00  0.00    -0.047 A 
ATOM      6  C4  UNL d   1      -0.957  -1.561  -4.688  0.00  0.00    -0.004 A 
ENDROOT
TORSDOF 0
ENDMDL
