MODEL 1
REMARK minimizedAffinity 0.610879302
REMARK minimizedRMSD -1
REMARK  0 active torsions:
REMARK  status: ('A' for Active; 'I' for Inactive)
ROOT
ATOM      1  C   UNL d   1      -0.033   0.311   2.691  0.00  0.00     0.172 C 
ATOM      2  N   UNL d   1       0.677  -0.406   3.724  0.00  0.00    -0.070 N 
ATOM      3  C1  UNL d   1       1.106   0.122   4.912  0.00  0.00    -0.004 A 
ATOM      4  C2  UNL d   1       1.737  -0.880   5.616  0.00  0.00    -0.047 A 
ATOM      5  C3  UNL d   1       1.687  -2.051   4.824  0.00  0.00    -0.047 A 
ATOM      6  C4  UNL d   1       1.025  -1.729   3.657  0.00  0.00    -0.004 A 
ENDROOT
TORSDOF 0
ENDMDL
