MODEL 1
REMARK minimizedAffinity 6.94868612
REMARK minimizedRMSD -1
REMARK  0 active torsions:
REMARK  status: ('A' for Active; 'I' for Inactive)
ROOT
ATOM      1  C   UNL d   1      -0.457   2.070   2.869  0.00  0.00     0.172 C 
ATOM      2  N   UNL d   1       0.123   0.750   2.953  0.00  0.00    -0.070 N 
ATOM      3  C1  UNL d   1       1.443   0.472   3.191  0.00  0.00    -0.004 A 
ATOM      4  C2  UNL d   1       1.592  -0.898   3.195  0.00  0.00    -0.047 A 
ATOM      5  C3  UNL d   1       0.318  -1.463   2.951  0.00  0.00    -0.047 A 
ATOM      6  C4  UNL d   1      -0.573  -0.420   2.805  0.00  0.00    -0.004 A 
ENDROOT
TORSDOF 0
ENDMDL
