MODEL 1
REMARK minimizedAffinity 6.73162079
REMARK minimizedRMSD -1
REMARK  0 active torsions:
REMARK  status: ('A' for Active; 'I' for Inactive)
ROOT
ATOM      1  C   UNL d   1      -0.999   0.612   2.820  0.00  0.00     0.172 C 
ATOM      2  N   UNL d   1       0.069  -0.213   3.332  0.00  0.00    -0.070 N 
ATOM      3  C1  UNL d   1       1.407  -0.008   3.124  0.00  0.00    -0.004 A 
ATOM      4  C2  UNL d   1       2.094  -1.009   3.776  0.00  0.00    -0.047 A 
ATOM      5  C3  UNL d   1       1.136  -1.844   4.398  0.00  0.00    -0.047 A 
ATOM      6  C4  UNL d   1      -0.109  -1.329   4.107  0.00  0.00    -0.004 A 
ENDROOT
TORSDOF 0
ENDMDL
