MODEL 1
REMARK minimizedAffinity 9.86207104
REMARK minimizedRMSD -1
REMARK  0 active torsions:
REMARK  status: ('A' for Active; 'I' for Inactive)
ROOT
ATOM      1  C   UNL d   1       2.590  -0.211  -3.886  0.00  0.00     0.172 C 
ATOM      2  N   UNL d   1       1.207  -0.625  -3.844  0.00  0.00    -0.070 N 
ATOM      3  C1  UNL d   1       0.431  -0.928  -4.932  0.00  0.00    -0.004 A 
ATOM      4  C2  UNL d   1      -0.821  -1.276  -4.473  0.00  0.00    -0.047 A 
ATOM      5  C3  UNL d   1      -0.797  -1.179  -3.061  0.00  0.00    -0.047 A 
ATOM      6  C4  UNL d   1       0.471  -0.774  -2.699  0.00  0.00    -0.004 A 
ENDROOT
TORSDOF 0
ENDMDL
