MODEL 1
REMARK minimizedAffinity 7.58901787
REMARK minimizedRMSD -1
REMARK  0 active torsions:
REMARK  status: ('A' for Active; 'I' for Inactive)
ROOT
ATOM      1  C   UNL d   1      -2.693  -5.227  -5.706  0.00  0.00     0.172 C 
ATOM      2  N   UNL d   1      -1.266  -5.017  -5.775  0.00  0.00    -0.070 N 
ATOM      3  C1  UNL d   1      -0.646  -3.816  -5.998  0.00  0.00    -0.004 A 
ATOM      4  C2  UNL d   1       0.715  -4.036  -5.990  0.00  0.00    -0.047 A 
ATOM      5  C3  UNL d   1       0.919  -5.417  -5.755  0.00  0.00    -0.047 A 
ATOM      6  C4  UNL d   1      -0.324  -6.000  -5.626  0.00  0.00    -0.004 A 
ENDROOT
TORSDOF 0
ENDMDL
