MODEL 1
REMARK minimizedAffinity 8.94669914
REMARK minimizedRMSD -1
REMARK  0 active torsions:
REMARK  status: ('A' for Active; 'I' for Inactive)
ROOT
ATOM      1  C   UNL d   1       3.372  -2.034  -4.157  0.00  0.00     0.172 C 
ATOM      2  N   UNL d   1       1.987  -1.648  -4.296  0.00  0.00    -0.070 N 
ATOM      3  C1  UNL d   1       1.383  -0.597  -3.659  0.00  0.00    -0.004 A 
ATOM      4  C2  UNL d   1       0.064  -0.565  -4.056  0.00  0.00    -0.047 A 
ATOM      5  C3  UNL d   1      -0.132  -1.633  -4.963  0.00  0.00    -0.047 A 
ATOM      6  C4  UNL d   1       1.075  -2.288  -5.093  0.00  0.00    -0.004 A 
ENDROOT
TORSDOF 0
ENDMDL
