MODEL 1
REMARK minimizedAffinity 6.67204285
REMARK minimizedRMSD -1
REMARK  0 active torsions:
REMARK  status: ('A' for Active; 'I' for Inactive)
ROOT
ATOM      1  C   UNL d   1      -1.485  -6.000  -2.769  0.00  0.00     0.172 C 
ATOM      2  N   UNL d   1      -1.082  -5.523  -4.071  0.00  0.00    -0.070 N 
ATOM      3  C1  UNL d   1      -1.762  -4.611  -4.833  0.00  0.00    -0.004 A 
ATOM      4  C2  UNL d   1      -1.053  -4.423  -6.000  0.00  0.00    -0.047 A 
ATOM      5  C3  UNL d   1       0.093  -5.252  -5.937  0.00  0.00    -0.047 A 
ATOM      6  C4  UNL d   1       0.050  -5.922  -4.733  0.00  0.00    -0.004 A 
ENDROOT
TORSDOF 0
ENDMDL
