MODEL 1
REMARK minimizedAffinity -4.04225111
REMARK minimizedRMSD -1
REMARK  0 active torsions:
REMARK  status: ('A' for Active; 'I' for Inactive)
ROOT
ATOM      1  C   UNL d   1       2.016   0.174   1.434  0.00  0.00     0.078 C 
ATOM      2  C1  UNL d   1       0.520   0.086   1.463  0.00  0.00    -0.077 A 
ATOM      3  C2  UNL d   1      -0.171  -0.063   2.672  0.00  0.00    -0.001 A 
ATOM      4  C3  UNL d   1      -1.564  -0.153   2.683  0.00  0.00     0.003 A 
ATOM      5  C4  UNL d   1      -2.278  -0.097   1.488  0.00  0.00    -0.005 A 
ATOM      6  C5  UNL d   1      -1.600   0.048   0.280  0.00  0.00     0.003 A 
ATOM      7  C6  UNL d   1      -0.207   0.139   0.267  0.00  0.00    -0.001 A 
ENDROOT
TORSDOF 0
ENDMDL
