MODEL 1
REMARK minimizedAffinity -4.18951559
REMARK minimizedRMSD -1
REMARK  0 active torsions:
REMARK  status: ('A' for Active; 'I' for Inactive)
ROOT
ATOM      1  C   UNL d   1      -1.210  -0.565   3.605  0.00  0.00     0.078 C 
ATOM      2  C1  UNL d   1      -0.771  -0.201   2.218  0.00  0.00    -0.077 A 
ATOM      3  C2  UNL d   1      -1.495  -0.626   1.098  0.00  0.00    -0.001 A 
ATOM      4  C3  UNL d   1      -1.068  -0.288  -0.188  0.00  0.00     0.003 A 
ATOM      5  C4  UNL d   1       0.084   0.474  -0.365  0.00  0.00    -0.005 A 
ATOM      6  C5  UNL d   1       0.813   0.899   0.744  0.00  0.00     0.003 A 
ATOM      7  C6  UNL d   1       0.388   0.563   2.030  0.00  0.00    -0.001 A 
ENDROOT
TORSDOF 0
ENDMDL
