MODEL 1
REMARK minimizedAffinity -3.82699347
REMARK minimizedRMSD -1
REMARK  0 active torsions:
REMARK  status: ('A' for Active; 'I' for Inactive)
ROOT
ATOM      1  C   UNL d   1      -1.035  -0.310   3.322  0.00  0.00     0.078 C 
ATOM      2  C1  UNL d   1      -0.698   0.019   1.898  0.00  0.00    -0.077 A 
ATOM      3  C2  UNL d   1      -1.703   0.150   0.932  0.00  0.00    -0.001 A 
ATOM      4  C3  UNL d   1      -1.375   0.447  -0.392  0.00  0.00     0.003 A 
ATOM      5  C4  UNL d   1      -0.042   0.613  -0.762  0.00  0.00    -0.005 A 
ATOM      6  C5  UNL d   1       0.965   0.481   0.192  0.00  0.00     0.003 A 
ATOM      7  C6  UNL d   1       0.639   0.185   1.517  0.00  0.00    -0.001 A 
ENDROOT
TORSDOF 0
ENDMDL
