MODEL 1
REMARK minimizedAffinity -5.72180653
REMARK minimizedRMSD -1
REMARK  0 active torsions:
REMARK  status: ('A' for Active; 'I' for Inactive)
ROOT
ATOM      1  C   UNL d   1      -1.578  -0.376   3.141  0.00  0.00     0.078 C 
ATOM      2  C1  UNL d   1      -1.108   0.009   1.770  0.00  0.00    -0.077 A 
ATOM      3  C2  UNL d   1      -2.019   0.371   0.770  0.00  0.00    -0.001 A 
ATOM      4  C3  UNL d   1      -1.567   0.717  -0.504  0.00  0.00     0.003 A 
ATOM      5  C4  UNL d   1      -0.204   0.703  -0.792  0.00  0.00    -0.005 A 
ATOM      6  C5  UNL d   1       0.710   0.342   0.196  0.00  0.00     0.003 A 
ATOM      7  C6  UNL d   1       0.261  -0.005   1.471  0.00  0.00    -0.001 A 
ENDROOT
TORSDOF 0
ENDMDL
