MODEL 1
REMARK minimizedAffinity -5.1040926
REMARK minimizedRMSD -1
REMARK  0 active torsions:
REMARK  status: ('A' for Active; 'I' for Inactive)
ROOT
ATOM      1  C   UNL d   1      -0.701  -0.307   3.258  0.00  0.00     0.078 C 
ATOM      2  C1  UNL d   1      -0.666   0.078   1.809  0.00  0.00    -0.077 A 
ATOM      3  C2  UNL d   1       0.524   0.498   1.203  0.00  0.00    -0.001 A 
ATOM      4  C3  UNL d   1       0.539   0.863  -0.144  0.00  0.00     0.003 A 
ATOM      5  C4  UNL d   1      -0.633   0.813  -0.896  0.00  0.00    -0.005 A 
ATOM      6  C5  UNL d   1      -1.822   0.398  -0.301  0.00  0.00     0.003 A 
ATOM      7  C6  UNL d   1      -1.840   0.033   1.046  0.00  0.00    -0.001 A 
ENDROOT
TORSDOF 0
ENDMDL
