MODEL 1
REMARK minimizedAffinity -4.03757
REMARK minimizedRMSD -1
REMARK  0 active torsions:
REMARK  status: ('A' for Active; 'I' for Inactive)
ROOT
ATOM      1  C   UNL d   1      -0.004   0.383  -1.435  0.00  0.00     0.078 C 
ATOM      2  C1  UNL d   1       0.071   0.235   0.055  0.00  0.00    -0.077 A 
ATOM      3  C2  UNL d   1       1.283   0.399   0.737  0.00  0.00    -0.001 A 
ATOM      4  C3  UNL d   1       1.340   0.249   2.123  0.00  0.00     0.003 A 
ATOM      5  C4  UNL d   1       0.187  -0.066   2.840  0.00  0.00    -0.005 A 
ATOM      6  C5  UNL d   1      -1.023  -0.233   2.171  0.00  0.00     0.003 A 
ATOM      7  C6  UNL d   1      -1.082  -0.084   0.784  0.00  0.00    -0.001 A 
ENDROOT
TORSDOF 0
ENDMDL
