MODEL 1
REMARK minimizedAffinity -4.47815847
REMARK minimizedRMSD -1
REMARK  0 active torsions:
REMARK  status: ('A' for Active; 'I' for Inactive)
ROOT
ATOM      1  C   UNL d   1       0.265   0.336  -1.111  0.00  0.00     0.078 C 
ATOM      2  C1  UNL d   1       0.052   0.064   0.348  0.00  0.00    -0.077 A 
ATOM      3  C2  UNL d   1       0.977   0.499   1.305  0.00  0.00    -0.001 A 
ATOM      4  C3  UNL d   1       0.771   0.230   2.659  0.00  0.00     0.003 A 
ATOM      5  C4  UNL d   1      -0.359  -0.475   3.069  0.00  0.00    -0.005 A 
ATOM      6  C5  UNL d   1      -1.284  -0.913   2.124  0.00  0.00     0.003 A 
ATOM      7  C6  UNL d   1      -1.080  -0.645   0.769  0.00  0.00    -0.001 A 
ENDROOT
TORSDOF 0
ENDMDL
