MODEL 1
REMARK minimizedAffinity -5.15866041
REMARK minimizedRMSD -1
REMARK  0 active torsions:
REMARK  status: ('A' for Active; 'I' for Inactive)
ROOT
ATOM      1  C   UNL d   1      -1.540  -0.680   3.095  0.00  0.00     0.078 C 
ATOM      2  C1  UNL d   1      -1.107  -0.222   1.734  0.00  0.00    -0.077 A 
ATOM      3  C2  UNL d   1      -2.027  -0.111   0.684  0.00  0.00    -0.001 A 
ATOM      4  C3  UNL d   1      -1.609   0.307  -0.580  0.00  0.00     0.003 A 
ATOM      5  C4  UNL d   1      -0.269   0.616  -0.807  0.00  0.00    -0.005 A 
ATOM      6  C5  UNL d   1       0.654   0.507   0.231  0.00  0.00     0.003 A 
ATOM      7  C6  UNL d   1       0.237   0.089   1.496  0.00  0.00    -0.001 A 
ENDROOT
TORSDOF 0
ENDMDL
