MODEL 1
REMARK minimizedAffinity -2.16777945
REMARK minimizedRMSD -1
REMARK  0 active torsions:
REMARK  status: ('A' for Active; 'I' for Inactive)
ROOT
ATOM      1  C   UNL d   1       0.265   0.302  -1.312  0.00  0.00     0.078 C 
ATOM      2  C1  UNL d   1       0.257   0.066   0.169  0.00  0.00    -0.077 A 
ATOM      3  C2  UNL d   1      -0.893  -0.397   0.819  0.00  0.00    -0.001 A 
ATOM      4  C3  UNL d   1      -0.889  -0.603   2.200  0.00  0.00     0.003 A 
ATOM      5  C4  UNL d   1       0.262  -0.347   2.942  0.00  0.00    -0.005 A 
ATOM      6  C5  UNL d   1       1.411   0.115   2.304  0.00  0.00     0.003 A 
ATOM      7  C6  UNL d   1       1.409   0.322   0.923  0.00  0.00    -0.001 A 
ENDROOT
TORSDOF 0
ENDMDL
