MODEL 1
REMARK minimizedAffinity -4.30529213
REMARK minimizedRMSD -1
REMARK  0 active torsions:
REMARK  status: ('A' for Active; 'I' for Inactive)
ROOT
ATOM      1  C   UNL d   1       2.224   0.815   0.768  0.00  0.00     0.078 C 
ATOM      2  C1  UNL d   1       0.835   0.357   1.100  0.00  0.00    -0.077 A 
ATOM      3  C2  UNL d   1      -0.116   0.148   0.094  0.00  0.00    -0.001 A 
ATOM      4  C3  UNL d   1      -1.408  -0.269   0.418  0.00  0.00     0.003 A 
ATOM      5  C4  UNL d   1      -1.761  -0.479   1.750  0.00  0.00    -0.005 A 
ATOM      6  C5  UNL d   1      -0.823  -0.271   2.759  0.00  0.00     0.003 A 
ATOM      7  C6  UNL d   1       0.469   0.146   2.436  0.00  0.00    -0.001 A 
ENDROOT
TORSDOF 0
ENDMDL
