MODEL 1
REMARK minimizedAffinity -5.66855764
REMARK minimizedRMSD -1
REMARK  0 active torsions:
REMARK  status: ('A' for Active; 'I' for Inactive)
ROOT
ATOM      1  C   UNL d   1      -0.064   0.487  -1.000  0.00  0.00     0.078 C 
ATOM      2  C1  UNL d   1      -0.261   0.049   0.420  0.00  0.00    -0.077 A 
ATOM      3  C2  UNL d   1       0.723   0.280   1.389  0.00  0.00    -0.001 A 
ATOM      4  C3  UNL d   1       0.530  -0.142   2.706  0.00  0.00     0.003 A 
ATOM      5  C4  UNL d   1      -0.646  -0.798   3.065  0.00  0.00    -0.005 A 
ATOM      6  C5  UNL d   1      -1.630  -1.034   2.107  0.00  0.00     0.003 A 
ATOM      7  C6  UNL d   1      -1.439  -0.613   0.790  0.00  0.00    -0.001 A 
ENDROOT
TORSDOF 0
ENDMDL
