MODEL 1
REMARK minimizedAffinity -4.73295546
REMARK minimizedRMSD -1
REMARK  0 active torsions:
REMARK  status: ('A' for Active; 'I' for Inactive)
ROOT
ATOM      1  C   UNL d   1      -0.430  -0.724   3.429  0.00  0.00     0.078 C 
ATOM      2  C1  UNL d   1      -0.223  -0.491   1.962  0.00  0.00    -0.077 A 
ATOM      3  C2  UNL d   1       1.059  -0.528   1.400  0.00  0.00    -0.001 A 
ATOM      4  C3  UNL d   1       1.237  -0.300   0.035  0.00  0.00     0.003 A 
ATOM      5  C4  UNL d   1       0.139  -0.032  -0.780  0.00  0.00    -0.005 A 
ATOM      6  C5  UNL d   1      -1.140   0.010  -0.228  0.00  0.00     0.003 A 
ATOM      7  C6  UNL d   1      -1.321  -0.218   1.137  0.00  0.00    -0.001 A 
ENDROOT
TORSDOF 0
ENDMDL
