MODEL 1
REMARK minimizedAffinity -2.06324172
REMARK minimizedRMSD -1
REMARK  0 active torsions:
REMARK  status: ('A' for Active; 'I' for Inactive)
ROOT
ATOM      1  C   UNL d   1      -0.950  -2.610   2.195  0.00  0.00     0.078 C 
ATOM      2  C1  UNL d   1      -0.568  -1.515   1.244  0.00  0.00    -0.077 A 
ATOM      3  C2  UNL d   1      -1.490  -1.006   0.322  0.00  0.00    -0.001 A 
ATOM      4  C3  UNL d   1      -1.118   0.007  -0.563  0.00  0.00     0.003 A 
ATOM      5  C4  UNL d   1       0.178   0.519  -0.536  0.00  0.00    -0.005 A 
ATOM      6  C5  UNL d   1       1.103   0.017   0.376  0.00  0.00     0.003 A 
ATOM      7  C6  UNL d   1       0.733  -0.996   1.262  0.00  0.00    -0.001 A 
ENDROOT
TORSDOF 0
ENDMDL
