MODEL 1
REMARK minimizedAffinity -5.97314882
REMARK minimizedRMSD -1
REMARK  0 active torsions:
REMARK  status: ('A' for Active; 'I' for Inactive)
ROOT
ATOM      1  N1  IND d   1      -2.126  -1.373   0.097  0.00  0.00    -0.196 N 
ATOM      2  C2  IND d   1      -0.765  -1.254   0.138  0.00  0.00     0.054 A 
ATOM      3  C3  IND d   1      -0.410  -0.153   0.838  0.00  0.00    -0.031 A 
ATOM      4  C4  IND d   1      -1.893   1.538   2.089  0.00  0.00     0.051 A 
ATOM      5  C5  IND d   1      -3.201   1.867   2.310  0.00  0.00    -0.031 A 
ATOM      6  C6  IND d   1      -4.239   1.116   1.797  0.00  0.00     0.015 A 
ATOM      7  C7  IND d   1      -4.005  -0.004   1.049  0.00  0.00    -0.016 A 
ATOM      8  C8  IND d   1      -2.679  -0.337   0.817  0.00  0.00    -0.047 A 
ATOM      9  C9  IND d   1      -1.622   0.446   1.300  0.00  0.00    -0.096 A 
ATOM     10  HN1 IND d   1      -2.563  -1.992  -0.309  0.00  0.00     0.298 HD
ENDROOT
TORSDOF 0
ENDMDL
