MODEL 1
REMARK minimizedAffinity -3.82963204
REMARK minimizedRMSD -1
REMARK  0 active torsions:
REMARK  status: ('A' for Active; 'I' for Inactive)
ROOT
ATOM      1  N1  IND d   1      -1.159  -1.365   0.850  0.00  0.00    -0.196 N 
ATOM      2  C2  IND d   1      -0.170  -0.978   1.711  0.00  0.00     0.054 A 
ATOM      3  C3  IND d   1      -0.615   0.002   2.530  0.00  0.00    -0.031 A 
ATOM      4  C4  IND d   1      -2.961   1.050   2.700  0.00  0.00     0.051 A 
ATOM      5  C5  IND d   1      -4.188   1.048   2.098  0.00  0.00    -0.031 A 
ATOM      6  C6  IND d   1      -4.474   0.223   1.030  0.00  0.00     0.015 A 
ATOM      7  C7  IND d   1      -3.544  -0.643   0.529  0.00  0.00    -0.016 A 
ATOM      8  C8  IND d   1      -2.295  -0.638   1.133  0.00  0.00    -0.047 A 
ATOM      9  C9  IND d   1      -1.985   0.227   2.190  0.00  0.00    -0.096 A 
ATOM     10  HN1 IND d   1      -1.084  -1.961   0.236  0.00  0.00     0.298 HD
ENDROOT
TORSDOF 0
ENDMDL
