MODEL 1
REMARK minimizedAffinity -0.342985123
REMARK minimizedRMSD -1
REMARK  0 active torsions:
REMARK  status: ('A' for Active; 'I' for Inactive)
ROOT
ATOM      1  N1  IND d   1      -1.571  -0.763   2.277  0.00  0.00    -0.196 N 
ATOM      2  C2  IND d   1      -0.940  -1.255   1.169  0.00  0.00     0.054 A 
ATOM      3  C3  IND d   1      -1.593  -0.876   0.048  0.00  0.00    -0.031 A 
ATOM      4  C4  IND d   1      -3.659   0.638  -0.208  0.00  0.00     0.051 A 
ATOM      5  C5  IND d   1      -4.608   1.298   0.521  0.00  0.00    -0.031 A 
ATOM      6  C6  IND d   1      -4.592   1.307   1.901  0.00  0.00     0.015 A 
ATOM      7  C7  IND d   1      -3.614   0.663   2.606  0.00  0.00    -0.016 A 
ATOM      8  C8  IND d   1      -2.653  -0.014   1.868  0.00  0.00    -0.047 A 
ATOM      9  C9  IND d   1      -2.689  -0.062   0.469  0.00  0.00    -0.096 A 
ATOM     10  HN1 IND d   1      -1.333  -0.899   3.092  0.00  0.00     0.298 HD
ENDROOT
TORSDOF 0
ENDMDL
