MODEL 1
REMARK minimizedAffinity -3.7828021
REMARK minimizedRMSD -1
REMARK  0 active torsions:
REMARK  status: ('A' for Active; 'I' for Inactive)
ROOT
ATOM      1  N1  IND d   1      -2.073  -1.242   0.303  0.00  0.00    -0.196 N 
ATOM      2  C2  IND d   1      -3.171  -0.663  -0.269  0.00  0.00     0.054 A 
ATOM      3  C3  IND d   1      -3.631   0.343   0.509  0.00  0.00    -0.031 A 
ATOM      4  C4  IND d   1      -2.676   1.276   2.710  0.00  0.00     0.051 A 
ATOM      5  C5  IND d   1      -1.704   1.050   3.644  0.00  0.00    -0.031 A 
ATOM      6  C6  IND d   1      -0.785   0.030   3.508  0.00  0.00     0.015 A 
ATOM      7  C7  IND d   1      -0.797  -0.800   2.422  0.00  0.00    -0.016 A 
ATOM      8  C8  IND d   1      -1.787  -0.578   1.475  0.00  0.00    -0.047 A 
ATOM      9  C9  IND d   1      -2.748   0.430   1.629  0.00  0.00    -0.096 A 
ATOM     10  HN1 IND d   1      -1.635  -1.910  -0.016  0.00  0.00     0.298 HD
ENDROOT
TORSDOF 0
ENDMDL
