MODEL 1
REMARK minimizedAffinity -4.41760159
REMARK minimizedRMSD -1
REMARK  0 active torsions:
REMARK  status: ('A' for Active; 'I' for Inactive)
ROOT
ATOM      1  N1  IND d   1       1.650  -2.349  -2.137  0.00  0.00    -0.196 N 
ATOM      2  C2  IND d   1       2.829  -1.712  -1.870  0.00  0.00     0.054 A 
ATOM      3  C3  IND d   1       2.647  -0.760  -0.928  0.00  0.00    -0.031 A 
ATOM      4  C4  IND d   1       0.520  -0.145   0.385  0.00  0.00     0.051 A 
ATOM      5  C5  IND d   1      -0.816  -0.425   0.465  0.00  0.00    -0.031 A 
ATOM      6  C6  IND d   1      -1.409  -1.382  -0.333  0.00  0.00     0.015 A 
ATOM      7  C7  IND d   1      -0.683  -2.106  -1.236  0.00  0.00    -0.016 A 
ATOM      8  C8  IND d   1       0.672  -1.819  -1.325  0.00  0.00    -0.047 A 
ATOM      9  C9  IND d   1       1.271  -0.819  -0.548  0.00  0.00    -0.096 A 
ATOM     10  HN1 IND d   1       1.538  -2.975  -2.716  0.00  0.00     0.298 HD
ENDROOT
TORSDOF 0
ENDMDL
