MODEL 1
REMARK minimizedAffinity -4.40070343
REMARK minimizedRMSD -1
REMARK  0 active torsions:
REMARK  status: ('A' for Active; 'I' for Inactive)
ROOT
ATOM      1  N1  IND d   1      -0.654   0.424   3.371  0.00  0.00    -0.196 N 
ATOM      2  C2  IND d   1      -1.855   0.948   3.763  0.00  0.00     0.054 A 
ATOM      3  C3  IND d   1      -2.739   0.913   2.741  0.00  0.00    -0.031 A 
ATOM      4  C4  IND d   1      -2.463  -0.054   0.371  0.00  0.00     0.051 A 
ATOM      5  C5  IND d   1      -1.534  -0.608  -0.465  0.00  0.00    -0.031 A 
ATOM      6  C6  IND d   1      -0.239  -0.853  -0.056  0.00  0.00     0.015 A 
ATOM      7  C7  IND d   1       0.174  -0.563   1.214  0.00  0.00    -0.016 A 
ATOM      8  C8  IND d   1      -0.764   0.005   2.063  0.00  0.00    -0.047 A 
ATOM      9  C9  IND d   1      -2.068   0.296   1.641  0.00  0.00    -0.096 A 
ATOM     10  HN1 IND d   1       0.051   0.365   3.860  0.00  0.00     0.298 HD
ENDROOT
TORSDOF 0
ENDMDL
