MODEL 1
REMARK minimizedAffinity 1.56237757
REMARK minimizedRMSD -1
REMARK  0 active torsions:
REMARK  status: ('A' for Active; 'I' for Inactive)
ROOT
ATOM      1  N1  IND d   1      -2.426  -1.913   0.406  0.00  0.00    -0.196 N 
ATOM      2  C2  IND d   1      -1.518  -1.507  -0.531  0.00  0.00     0.054 A 
ATOM      3  C3  IND d   1      -0.785  -0.474  -0.059  0.00  0.00    -0.031 A 
ATOM      4  C4  IND d   1      -0.837   0.645   2.259  0.00  0.00     0.051 A 
ATOM      5  C5  IND d   1      -1.524   0.644   3.440  0.00  0.00    -0.031 A 
ATOM      6  C6  IND d   1      -2.567  -0.229   3.676  0.00  0.00     0.015 A 
ATOM      7  C7  IND d   1      -2.955  -1.145   2.740  0.00  0.00    -0.016 A 
ATOM      8  C8  IND d   1      -2.264  -1.142   1.536  0.00  0.00    -0.047 A 
ATOM      9  C9  IND d   1      -1.233  -0.230   1.275  0.00  0.00    -0.096 A 
ATOM     10  HN1 IND d   1      -3.002  -2.543   0.307  0.00  0.00     0.298 HD
ENDROOT
TORSDOF 0
ENDMDL
