MODEL 1
REMARK minimizedAffinity -0.56291151
REMARK minimizedRMSD -1
REMARK  0 active torsions:
REMARK  status: ('A' for Active; 'I' for Inactive)
ROOT
ATOM      1  N1  IND d   1       0.044  -1.859   0.227  0.00  0.00    -0.196 N 
ATOM      2  C2  IND d   1       0.742  -1.911   1.401  0.00  0.00     0.054 A 
ATOM      3  C3  IND d   1       0.123  -1.173   2.350  0.00  0.00    -0.031 A 
ATOM      4  C4  IND d   1      -2.100   0.120   2.225  0.00  0.00     0.051 A 
ATOM      5  C5  IND d   1      -3.082   0.491   1.350  0.00  0.00    -0.031 A 
ATOM      6  C6  IND d   1      -3.074   0.088   0.031  0.00  0.00     0.015 A 
ATOM      7  C7  IND d   1      -2.085  -0.715  -0.463  0.00  0.00    -0.016 A 
ATOM      8  C8  IND d   1      -1.082  -1.088   0.421  0.00  0.00    -0.047 A 
ATOM      9  C9  IND d   1      -1.062  -0.647   1.750  0.00  0.00    -0.096 A 
ATOM     10  HN1 IND d   1       0.269  -2.242  -0.508  0.00  0.00     0.298 HD
ENDROOT
TORSDOF 0
ENDMDL
