MODEL 1
REMARK minimizedAffinity -5.28604841
REMARK minimizedRMSD -1
REMARK  0 active torsions:
REMARK  status: ('A' for Active; 'I' for Inactive)
ROOT
ATOM      1  N1  IND d   1      -2.205  -0.019   2.511  0.00  0.00    -0.196 N 
ATOM      2  C2  IND d   1      -3.015   0.110   1.417  0.00  0.00     0.054 A 
ATOM      3  C3  IND d   1      -2.366  -0.292   0.302  0.00  0.00    -0.031 A 
ATOM      4  C4  IND d   1      -0.008  -1.293   0.052  0.00  0.00     0.051 A 
ATOM      5  C5  IND d   1       1.124  -1.573   0.765  0.00  0.00    -0.031 A 
ATOM      6  C6  IND d   1       1.205  -1.347   2.124  0.00  0.00     0.015 A 
ATOM      7  C7  IND d   1       0.148  -0.841   2.826  0.00  0.00    -0.016 A 
ATOM      8  C8  IND d   1      -1.001  -0.549   2.105  0.00  0.00    -0.047 A 
ATOM      9  C9  IND d   1      -1.074  -0.737   0.718  0.00  0.00    -0.096 A 
ATOM     10  HN1 IND d   1      -2.413   0.195   3.318  0.00  0.00     0.298 HD
ENDROOT
TORSDOF 0
ENDMDL
