MODEL 1
REMARK minimizedAffinity 8.66343689
REMARK minimizedRMSD -1
REMARK  0 active torsions:
REMARK  status: ('A' for Active; 'I' for Inactive)
ROOT
ATOM      1  C4' PXY d   1       2.159  -0.088   2.222  0.00  0.00     0.077 C 
ATOM      2  C1' PXY d   1      -1.713  -1.914  -1.663  0.00  0.00     0.077 C 
ATOM      3  C1  PXY d   1      -0.705  -1.425  -0.642  0.00  0.00    -0.082 A 
ATOM      4  C2  PXY d   1       0.557  -1.814  -0.729  0.00  0.00     0.003 A 
ATOM      5  C3  PXY d   1       1.475  -1.407   0.204  0.00  0.00     0.003 A 
ATOM      6  C4  PXY d   1       1.109  -0.550   1.207  0.00  0.00    -0.082 A 
ATOM      7  C5  PXY d   1      -0.174  -0.140   1.297  0.00  0.00     0.003 A 
ATOM      8  C6  PXY d   1      -1.100  -0.597   0.364  0.00  0.00     0.003 A 
ENDROOT
TORSDOF 0
ENDMDL
