MODEL 1
REMARK minimizedAffinity 2.35910034
REMARK minimizedRMSD -1
REMARK  0 active torsions:
REMARK  status: ('A' for Active; 'I' for Inactive)
ROOT
ATOM      1  C4' PXY d   1       1.491  -1.195   2.251  0.00  0.00     0.077 C 
ATOM      2  C1' PXY d   1       5.767  -2.519   5.908  0.00  0.00     0.077 C 
ATOM      3  C1  PXY d   1       4.639  -2.182   4.953  0.00  0.00    -0.082 A 
ATOM      4  C2  PXY d   1       4.900  -1.513   3.842  0.00  0.00     0.003 A 
ATOM      5  C3  PXY d   1       3.887  -1.172   2.983  0.00  0.00     0.003 A 
ATOM      6  C4  PXY d   1       2.600  -1.565   3.239  0.00  0.00    -0.082 A 
ATOM      7  C5  PXY d   1       2.327  -2.257   4.365  0.00  0.00     0.003 A 
ATOM      8  C6  PXY d   1       3.364  -2.558   5.244  0.00  0.00     0.003 A 
ENDROOT
TORSDOF 0
ENDMDL
