MODEL 1
REMARK minimizedAffinity 14.1684818
REMARK minimizedRMSD -1
REMARK  0 active torsions:
REMARK  status: ('A' for Active; 'I' for Inactive)
ROOT
ATOM      1  C4' PXY d   1       5.996  -2.248   3.843  0.00  0.00     0.077 C 
ATOM      2  C1' PXY d   1       0.894  -0.264   1.986  0.00  0.00     0.077 C 
ATOM      3  C1  PXY d   1       2.227  -0.787   2.484  0.00  0.00    -0.082 A 
ATOM      4  C2  PXY d   1       3.346  -0.390   1.900  0.00  0.00     0.003 A 
ATOM      5  C3  PXY d   1       4.557  -0.878   2.317  0.00  0.00     0.003 A 
ATOM      6  C4  PXY d   1       4.629  -1.739   3.379  0.00  0.00    -0.082 A 
ATOM      7  C5  PXY d   1       3.493  -2.141   3.987  0.00  0.00     0.003 A 
ATOM      8  C6  PXY d   1       2.270  -1.666   3.522  0.00  0.00     0.003 A 
ENDROOT
TORSDOF 0
ENDMDL
