MODEL 1
REMARK minimizedAffinity 8.82838917
REMARK minimizedRMSD -1
REMARK  0 active torsions:
REMARK  status: ('A' for Active; 'I' for Inactive)
ROOT
ATOM      1  C4' PXY d   1       5.412  -2.563   5.999  0.00  0.00     0.077 C 
ATOM      2  C1' PXY d   1       1.587  -1.075   1.928  0.00  0.00     0.077 C 
ATOM      3  C1  PXY d   1       2.581  -1.464   3.005  0.00  0.00    -0.082 A 
ATOM      4  C2  PXY d   1       3.874  -1.275   2.800  0.00  0.00     0.003 A 
ATOM      5  C3  PXY d   1       4.789  -1.651   3.750  0.00  0.00     0.003 A 
ATOM      6  C4  PXY d   1       4.372  -2.177   4.944  0.00  0.00    -0.082 A 
ATOM      7  C5  PXY d   1       3.053  -2.363   5.164  0.00  0.00     0.003 A 
ATOM      8  C6  PXY d   1       2.144  -2.013   4.170  0.00  0.00     0.003 A 
ENDROOT
TORSDOF 0
ENDMDL
