MODEL 1
REMARK minimizedAffinity 7.19742298
REMARK minimizedRMSD -1
REMARK  0 active torsions:
REMARK  status: ('A' for Active; 'I' for Inactive)
ROOT
ATOM      1  C4' PXY d   1      -5.791  -2.244  -5.980  0.00  0.00     0.077 C 
ATOM      2  C1' PXY d   1      -5.909   2.905  -3.355  0.00  0.00     0.077 C 
ATOM      3  C1  PXY d   1      -5.874   1.549  -4.032  0.00  0.00    -0.082 A 
ATOM      4  C2  PXY d   1      -5.731   1.477  -5.346  0.00  0.00     0.003 A 
ATOM      5  C3  PXY d   1      -5.729   0.261  -5.978  0.00  0.00     0.003 A 
ATOM      6  C4  PXY d   1      -5.822  -0.897  -5.253  0.00  0.00    -0.082 A 
ATOM      7  C5  PXY d   1      -5.958  -0.833  -3.911  0.00  0.00     0.003 A 
ATOM      8  C6  PXY d   1      -5.999   0.414  -3.293  0.00  0.00     0.003 A 
ENDROOT
TORSDOF 0
ENDMDL
