MODEL 1
REMARK minimizedAffinity 10.5805235
REMARK minimizedRMSD -1
REMARK  0 active torsions:
REMARK  status: ('A' for Active; 'I' for Inactive)
ROOT
ATOM      1  C4' PXY d   1      -1.152   5.999   1.493  0.00  0.00     0.077 C 
ATOM      2  C1' PXY d   1       2.163   1.593  -0.240  0.00  0.00     0.077 C 
ATOM      3  C1  PXY d   1       1.285   2.740   0.218  0.00  0.00    -0.082 A 
ATOM      4  C2  PXY d   1       1.438   3.938  -0.322  0.00  0.00     0.003 A 
ATOM      5  C3  PXY d   1       0.674   4.994   0.104  0.00  0.00     0.003 A 
ATOM      6  C4  PXY d   1      -0.294   4.810   1.055  0.00  0.00    -0.082 A 
ATOM      7  C5  PXY d   1      -0.464   3.588   1.603  0.00  0.00     0.003 A 
ATOM      8  C6  PXY d   1       0.350   2.539   1.186  0.00  0.00     0.003 A 
ENDROOT
TORSDOF 0
ENDMDL
