MODEL 1
REMARK minimizedAffinity 2.15778446
REMARK minimizedRMSD -1
REMARK  1 active torsions:
REMARK  status: ('A' for Active; 'I' for Inactive)
REMARK    1  A    between atoms: C1_2  and  C2_3 
ROOT
ATOM      1  C2  UNL d   1      -5.624  -4.531  -3.297  0.00  0.00    -0.077 A 
ATOM      2  C3  UNL d   1      -4.965  -3.565  -4.071  0.00  0.00     0.002 A 
ATOM      3  C4  UNL d   1      -4.680  -3.810  -5.415  0.00  0.00     0.002 A 
ATOM      4  C5  UNL d   1      -5.053  -5.019  -5.999  0.00  0.00    -0.004 A 
ATOM      5  C6  UNL d   1      -5.706  -5.988  -5.237  0.00  0.00     0.002 A 
ATOM      6  C7  UNL d   1      -5.991  -5.744  -3.893  0.00  0.00     0.002 A 
ENDROOT
BRANCH   1   7
ATOM      7  C1  UNL d   1      -5.976  -4.248  -1.860  0.00  0.00     0.055 C 
ATOM      8  C   UNL d   1      -5.996  -2.753  -1.579  0.00  0.00     0.019 C 
ENDBRANCH   1   7
TORSDOF 1
ENDMDL
