MODEL 1
REMARK minimizedAffinity -6.29059172
REMARK minimizedRMSD -1
REMARK  0 active torsions:
REMARK  status: ('A' for Active; 'I' for Inactive)
ROOT
ATOM      1  C   UNL d   1       2.284  -1.499   2.616  0.00  0.00    -0.002 A 
ATOM      2  C1  UNL d   1       3.078  -1.893   1.548  0.00  0.00     0.010 A 
ATOM      3  C2  UNL d   1       2.647  -1.702   0.234  0.00  0.00     0.041 A 
ATOM      4  C3  UNL d   1       1.394  -1.100   0.008  0.00  0.00    -0.075 A 
ATOM      5  S   UNL d   1       0.661  -0.764  -1.516  0.00  0.00     0.015 SA
ATOM      6  C4  UNL d   1      -0.723  -0.088  -0.785  0.00  0.00     0.022 A 
ATOM      7  C5  UNL d   1      -0.645  -0.110   0.587  0.00  0.00     0.026 A 
ATOM      8  C6  UNL d   1       0.577  -0.693   1.067  0.00  0.00    -0.082 A 
ATOM      9  C7  UNL d   1       1.041  -0.902   2.388  0.00  0.00     0.045 A 
ENDROOT
TORSDOF 0
ENDMDL
