MODEL 1
REMARK minimizedAffinity -0.572131097
REMARK minimizedRMSD -1
REMARK  0 active torsions:
REMARK  status: ('A' for Active; 'I' for Inactive)
ROOT
ATOM      1  C   UNL d   1      -1.452  -0.464   2.132  0.00  0.00    -0.002 A 
ATOM      2  C1  UNL d   1      -0.124  -0.832   2.295  0.00  0.00     0.010 A 
ATOM      3  C2  UNL d   1       0.778  -0.728   1.234  0.00  0.00     0.041 A 
ATOM      4  C3  UNL d   1       0.318  -0.242  -0.006  0.00  0.00    -0.075 A 
ATOM      5  S   UNL d   1       1.242  -0.027  -1.445  0.00  0.00     0.015 SA
ATOM      6  C4  UNL d   1      -0.104   0.558  -2.311  0.00  0.00     0.022 A 
ATOM      7  C5  UNL d   1      -1.239   0.595  -1.536  0.00  0.00     0.026 A 
ATOM      8  C6  UNL d   1      -1.015   0.136  -0.195  0.00  0.00    -0.082 A 
ATOM      9  C7  UNL d   1      -1.904   0.018   0.900  0.00  0.00     0.045 A 
ENDROOT
TORSDOF 0
ENDMDL
