MODEL 1
REMARK minimizedAffinity -2.57622957
REMARK minimizedRMSD -1
REMARK  0 active torsions:
REMARK  status: ('A' for Active; 'I' for Inactive)
ROOT
ATOM      1  C   UNL d   1       0.166  -0.585   1.621  0.00  0.00    -0.002 A 
ATOM      2  C1  UNL d   1      -0.033   0.759   1.904  0.00  0.00     0.010 A 
ATOM      3  C2  UNL d   1      -0.266   1.674   0.875  0.00  0.00     0.041 A 
ATOM      4  C3  UNL d   1      -0.298   1.211  -0.455  0.00  0.00    -0.075 A 
ATOM      5  S   UNL d   1      -0.567   2.149  -1.876  0.00  0.00     0.015 SA
ATOM      6  C4  UNL d   1      -0.426   0.787  -2.892  0.00  0.00     0.022 A 
ATOM      7  C5  UNL d   1      -0.178  -0.363  -2.181  0.00  0.00     0.026 A 
ATOM      8  C6  UNL d   1      -0.101  -0.138  -0.764  0.00  0.00    -0.082 A 
ATOM      9  C7  UNL d   1       0.134  -1.041   0.301  0.00  0.00     0.045 A 
ENDROOT
TORSDOF 0
ENDMDL
