MODEL 1
REMARK minimizedAffinity -0.800660789
REMARK minimizedRMSD -1
REMARK  0 active torsions:
REMARK  status: ('A' for Active; 'I' for Inactive)
ROOT
ATOM      1  C   UNL d   1      -1.439   0.372  -0.182  0.00  0.00    -0.002 A 
ATOM      2  C1  UNL d   1      -0.370   0.075  -1.017  0.00  0.00     0.010 A 
ATOM      3  C2  UNL d   1       0.688  -0.713  -0.562  0.00  0.00     0.041 A 
ATOM      4  C3  UNL d   1       0.654  -1.205   0.758  0.00  0.00    -0.075 A 
ATOM      5  S   UNL d   1       1.839  -2.191   1.530  0.00  0.00     0.015 SA
ATOM      6  C4  UNL d   1       0.954  -2.242   2.986  0.00  0.00     0.022 A 
ATOM      7  C5  UNL d   1      -0.218  -1.530   2.903  0.00  0.00     0.026 A 
ATOM      8  C6  UNL d   1      -0.411  -0.921   1.617  0.00  0.00    -0.082 A 
ATOM      9  C7  UNL d   1      -1.469  -0.118   1.127  0.00  0.00     0.045 A 
ENDROOT
TORSDOF 0
ENDMDL
