MODEL 1
REMARK minimizedAffinity -4.14909983
REMARK minimizedRMSD -1
REMARK  0 active torsions:
REMARK  status: ('A' for Active; 'I' for Inactive)
ROOT
ATOM      1  C   UNL d   1      -0.678  -0.139   3.165  0.00  0.00    -0.002 A 
ATOM      2  C1  UNL d   1       0.617  -0.620   3.034  0.00  0.00     0.010 A 
ATOM      3  C2  UNL d   1       1.157  -0.873   1.772  0.00  0.00     0.041 A 
ATOM      4  C3  UNL d   1       0.367  -0.629   0.631  0.00  0.00    -0.075 A 
ATOM      5  S   UNL d   1       0.818  -0.865  -1.016  0.00  0.00     0.015 SA
ATOM      6  C4  UNL d   1      -0.697  -0.331  -1.585  0.00  0.00     0.022 A 
ATOM      7  C5  UNL d   1      -1.539   0.021  -0.558  0.00  0.00     0.026 A 
ATOM      8  C6  UNL d   1      -0.940  -0.144   0.737  0.00  0.00    -0.082 A 
ATOM      9  C7  UNL d   1      -1.459   0.101   2.031  0.00  0.00     0.045 A 
ENDROOT
TORSDOF 0
ENDMDL
