MODEL 1
REMARK minimizedAffinity -3.72558665
REMARK minimizedRMSD -1
REMARK  0 active torsions:
REMARK  status: ('A' for Active; 'I' for Inactive)
ROOT
ATOM      1  C   UNL d   1       0.332   0.009   0.333  0.00  0.00     0.172 C 
ATOM      2  N   UNL d   1      -0.810   0.010   1.217  0.00  0.00    -0.070 N 
ATOM      3  C1  UNL d   1      -2.106   0.251   0.846  0.00  0.00    -0.004 A 
ATOM      4  C2  UNL d   1      -2.892   0.160   1.974  0.00  0.00    -0.047 A 
ATOM      5  C3  UNL d   1      -2.039  -0.146   3.061  0.00  0.00    -0.047 A 
ATOM      6  C4  UNL d   1      -0.755  -0.233   2.564  0.00  0.00    -0.004 A 
ENDROOT
TORSDOF 0
ENDMDL
