MODEL 1
REMARK minimizedAffinity -3.02397656
REMARK minimizedRMSD -1
REMARK  0 active torsions:
REMARK  status: ('A' for Active; 'I' for Inactive)
ROOT
ATOM      1  C   UNL d   1       0.524   0.097   2.623  0.00  0.00     0.172 C 
ATOM      2  N   UNL d   1       0.402   0.014   1.187  0.00  0.00    -0.070 N 
ATOM      3  C1  UNL d   1      -0.114  -1.045   0.489  0.00  0.00    -0.004 A 
ATOM      4  C2  UNL d   1      -0.056  -0.735  -0.853  0.00  0.00    -0.047 A 
ATOM      5  C3  UNL d   1       0.515   0.555  -0.965  0.00  0.00    -0.047 A 
ATOM      6  C4  UNL d   1       0.788   0.996   0.312  0.00  0.00    -0.004 A 
ENDROOT
TORSDOF 0
ENDMDL
