MODEL 1
REMARK minimizedAffinity -3.01875854
REMARK minimizedRMSD -1
REMARK  0 active torsions:
REMARK  status: ('A' for Active; 'I' for Inactive)
ROOT
ATOM      1  C   UNL d   1       0.824  -0.560  -2.975  0.00  0.00     0.172 C 
ATOM      2  N   UNL d   1       0.496  -0.346  -1.585  0.00  0.00    -0.070 N 
ATOM      3  C1  UNL d   1      -0.357   0.611  -1.104  0.00  0.00    -0.004 A 
ATOM      4  C2  UNL d   1      -0.400   0.487   0.268  0.00  0.00    -0.047 A 
ATOM      5  C3  UNL d   1       0.459  -0.580   0.624  0.00  0.00    -0.047 A 
ATOM      6  C4  UNL d   1       1.000  -1.077  -0.542  0.00  0.00    -0.004 A 
ENDROOT
TORSDOF 0
ENDMDL
