MODEL 1
REMARK minimizedAffinity -3.95341921
REMARK minimizedRMSD -1
REMARK  0 active torsions:
REMARK  status: ('A' for Active; 'I' for Inactive)
ROOT
ATOM      1  C   UNL d   1      -1.394  -0.411   2.915  0.00  0.00     0.172 C 
ATOM      2  N   UNL d   1      -0.532  -0.186   1.778  0.00  0.00    -0.070 N 
ATOM      3  C1  UNL d   1      -0.944  -0.038   0.481  0.00  0.00    -0.004 A 
ATOM      4  C2  UNL d   1       0.175   0.157  -0.298  0.00  0.00    -0.047 A 
ATOM      5  C3  UNL d   1       1.300   0.124   0.560  0.00  0.00    -0.047 A 
ATOM      6  C4  UNL d   1       0.833  -0.090   1.840  0.00  0.00    -0.004 A 
ENDROOT
TORSDOF 0
ENDMDL
