MODEL 1
REMARK minimizedAffinity -2.99577928
REMARK minimizedRMSD -1
REMARK  0 active torsions:
REMARK  status: ('A' for Active; 'I' for Inactive)
ROOT
ATOM      1  C   UNL d   1       1.035   0.007   0.488  0.00  0.00     0.172 C 
ATOM      2  N   UNL d   1      -0.122   0.086   1.348  0.00  0.00    -0.070 N 
ATOM      3  C1  UNL d   1      -0.100   0.096   2.717  0.00  0.00    -0.004 A 
ATOM      4  C2  UNL d   1      -1.403   0.181   3.159  0.00  0.00    -0.047 A 
ATOM      5  C3  UNL d   1      -2.236   0.221   2.017  0.00  0.00    -0.047 A 
ATOM      6  C4  UNL d   1      -1.418   0.161   0.909  0.00  0.00    -0.004 A 
ENDROOT
TORSDOF 0
ENDMDL
