MODEL 1
REMARK minimizedAffinity -3.0192349
REMARK minimizedRMSD -1
REMARK  0 active torsions:
REMARK  status: ('A' for Active; 'I' for Inactive)
ROOT
ATOM      1  C   UNL d   1       0.325   0.054  -1.571  0.00  0.00     0.172 C 
ATOM      2  N   UNL d   1       0.296   0.012  -0.128  0.00  0.00    -0.070 N 
ATOM      3  C1  UNL d   1       1.294   0.445   0.704  0.00  0.00    -0.004 A 
ATOM      4  C2  UNL d   1       0.883   0.235   2.002  0.00  0.00    -0.047 A 
ATOM      5  C3  UNL d   1      -0.407  -0.346   1.949  0.00  0.00    -0.047 A 
ATOM      6  C4  UNL d   1      -0.746  -0.472   0.618  0.00  0.00    -0.004 A 
ENDROOT
TORSDOF 0
ENDMDL
