MODEL 1
REMARK minimizedAffinity -0.38452521
REMARK minimizedRMSD -1
REMARK  0 active torsions:
REMARK  status: ('A' for Active; 'I' for Inactive)
ROOT
ATOM      1  C   UNL d   1      -1.038  -1.652  -4.592  0.00  0.00     0.172 C 
ATOM      2  N   UNL d   1       0.250  -1.604  -3.941  0.00  0.00    -0.070 N 
ATOM      3  C1  UNL d   1       0.808  -2.609  -3.197  0.00  0.00    -0.004 A 
ATOM      4  C2  UNL d   1       2.037  -2.174  -2.753  0.00  0.00    -0.047 A 
ATOM      5  C3  UNL d   1       2.225  -0.860  -3.246  0.00  0.00    -0.047 A 
ATOM      6  C4  UNL d   1       1.103  -0.533  -3.978  0.00  0.00    -0.004 A 
ENDROOT
TORSDOF 0
ENDMDL
