MODEL 1
REMARK minimizedAffinity -4.03029442
REMARK minimizedRMSD -1
REMARK  0 active torsions:
REMARK  status: ('A' for Active; 'I' for Inactive)
ROOT
ATOM      1  C   UNL d   1       0.870   0.360   0.958  0.00  0.00     0.172 C 
ATOM      2  N   UNL d   1      -0.317   0.156   1.756  0.00  0.00    -0.070 N 
ATOM      3  C1  UNL d   1      -0.340  -0.118   3.097  0.00  0.00    -0.004 A 
ATOM      4  C2  UNL d   1      -1.658  -0.242   3.480  0.00  0.00    -0.047 A 
ATOM      5  C3  UNL d   1      -2.455  -0.035   2.329  0.00  0.00    -0.047 A 
ATOM      6  C4  UNL d   1      -1.599   0.209   1.275  0.00  0.00    -0.004 A 
ENDROOT
TORSDOF 0
ENDMDL
