MODEL 1
REMARK minimizedAffinity -2.24755716
REMARK minimizedRMSD -1
REMARK  0 active torsions:
REMARK  status: ('A' for Active; 'I' for Inactive)
ROOT
ATOM      1  C   UNL d   1      -0.071   0.527  -1.116  0.00  0.00     0.172 C 
ATOM      2  N   UNL d   1      -0.167   0.368   0.316  0.00  0.00    -0.070 N 
ATOM      3  C1  UNL d   1      -1.315   0.470   1.055  0.00  0.00    -0.004 A 
ATOM      4  C2  UNL d   1      -0.988   0.254   2.376  0.00  0.00    -0.047 A 
ATOM      5  C3  UNL d   1       0.406   0.014   2.433  0.00  0.00    -0.047 A 
ATOM      6  C4  UNL d   1       0.889   0.091   1.144  0.00  0.00    -0.004 A 
ENDROOT
TORSDOF 0
ENDMDL
