MODEL 1
REMARK minimizedAffinity -3.32352376
REMARK minimizedRMSD -1
REMARK  0 active torsions:
REMARK  status: ('A' for Active; 'I' for Inactive)
ROOT
ATOM      1  C   UNL d   1      -0.217   0.074  -0.448  0.00  0.00     0.172 C 
ATOM      2  N   UNL d   1      -0.775  -0.134   0.867  0.00  0.00    -0.070 N 
ATOM      3  C1  UNL d   1      -0.061  -0.402   2.005  0.00  0.00    -0.004 A 
ATOM      4  C2  UNL d   1      -0.957  -0.531   3.044  0.00  0.00    -0.047 A 
ATOM      5  C3  UNL d   1      -2.254  -0.335   2.513  0.00  0.00    -0.047 A 
ATOM      6  C4  UNL d   1      -2.112  -0.090   1.164  0.00  0.00    -0.004 A 
ENDROOT
TORSDOF 0
ENDMDL
