MODEL 1
REMARK minimizedAffinity -3.55566859
REMARK minimizedRMSD -1
REMARK  0 active torsions:
REMARK  status: ('A' for Active; 'I' for Inactive)
ROOT
ATOM      1  C   UNL d   1      -2.299   0.820   2.882  0.00  0.00     0.172 C 
ATOM      2  N   UNL d   1      -1.160   0.399   2.100  0.00  0.00    -0.070 N 
ATOM      3  C1  UNL d   1       0.048  -0.004   2.603  0.00  0.00    -0.004 A 
ATOM      4  C2  UNL d   1       0.863  -0.323   1.538  0.00  0.00    -0.047 A 
ATOM      5  C3  UNL d   1       0.119  -0.103   0.355  0.00  0.00    -0.047 A 
ATOM      6  C4  UNL d   1      -1.130   0.344   0.732  0.00  0.00    -0.004 A 
ENDROOT
TORSDOF 0
ENDMDL
