MODEL 1
REMARK minimizedAffinity -2.2680347
REMARK minimizedRMSD -1
REMARK  0 active torsions:
REMARK  status: ('A' for Active; 'I' for Inactive)
ROOT
ATOM      1  C   UNL d   1      -2.189   0.583   1.150  0.00  0.00     0.172 C 
ATOM      2  N   UNL d   1      -0.879   0.442   0.560  0.00  0.00    -0.070 N 
ATOM      3  C1  UNL d   1       0.303   0.369   1.248  0.00  0.00    -0.004 A 
ATOM      4  C2  UNL d   1       1.320   0.239   0.328  0.00  0.00    -0.047 A 
ATOM      5  C3  UNL d   1       0.730   0.235  -0.958  0.00  0.00    -0.047 A 
ATOM      6  C4  UNL d   1      -0.632   0.363  -0.785  0.00  0.00    -0.004 A 
ENDROOT
TORSDOF 0
ENDMDL
