MODEL 1
REMARK minimizedAffinity -2.71854067
REMARK minimizedRMSD -1
REMARK  0 active torsions:
REMARK  status: ('A' for Active; 'I' for Inactive)
ROOT
ATOM      1  C   UNL d   1       0.511   0.122   0.522  0.00  0.00     0.172 C 
ATOM      2  N   UNL d   1      -0.662   0.288   1.348  0.00  0.00    -0.070 N 
ATOM      3  C1  UNL d   1      -1.955   0.336   0.899  0.00  0.00    -0.004 A 
ATOM      4  C2  UNL d   1      -2.776   0.503   1.993  0.00  0.00    -0.047 A 
ATOM      5  C3  UNL d   1      -1.948   0.556   3.139  0.00  0.00    -0.047 A 
ATOM      6  C4  UNL d   1      -0.645   0.421   2.711  0.00  0.00    -0.004 A 
ENDROOT
TORSDOF 0
ENDMDL
