MODEL 1
REMARK minimizedAffinity -4.30491829
REMARK minimizedRMSD -1
REMARK  0 active torsions:
REMARK  status: ('A' for Active; 'I' for Inactive)
ROOT
ATOM      1  C   UNL d   1       0.071   0.295   0.909  0.00  0.00     0.172 C 
ATOM      2  N   UNL d   1      -1.144   0.105   1.664  0.00  0.00    -0.070 N 
ATOM      3  C1  UNL d   1      -2.413   0.350   1.211  0.00  0.00    -0.004 A 
ATOM      4  C2  UNL d   1      -3.291   0.044   2.227  0.00  0.00    -0.047 A 
ATOM      5  C3  UNL d   1      -2.524  -0.400   3.330  0.00  0.00    -0.047 A 
ATOM      6  C4  UNL d   1      -1.198  -0.353   2.954  0.00  0.00    -0.004 A 
ENDROOT
TORSDOF 0
ENDMDL
