MODEL 1
REMARK minimizedAffinity -4.37100267
REMARK minimizedRMSD -1
REMARK  0 active torsions:
REMARK  status: ('A' for Active; 'I' for Inactive)
ROOT
ATOM      1  C   UNL d   1      -0.269  -0.347   0.596  0.00  0.00     0.172 C 
ATOM      2  N   UNL d   1      -1.292  -0.252   1.610  0.00  0.00    -0.070 N 
ATOM      3  C1  UNL d   1      -1.183  -0.699   2.900  0.00  0.00    -0.004 A 
ATOM      4  C2  UNL d   1      -2.369  -0.422   3.544  0.00  0.00    -0.047 A 
ATOM      5  C3  UNL d   1      -3.221   0.213   2.610  0.00  0.00    -0.047 A 
ATOM      6  C4  UNL d   1      -2.529   0.306   1.421  0.00  0.00    -0.004 A 
ENDROOT
TORSDOF 0
ENDMDL
