MODEL 1
REMARK minimizedAffinity -3.94674683
REMARK minimizedRMSD -1
REMARK  0 active torsions:
REMARK  status: ('A' for Active; 'I' for Inactive)
ROOT
ATOM      1  C   UNL d   1       0.324  -0.054   0.838  0.00  0.00     0.172 C 
ATOM      2  N   UNL d   1      -0.824  -0.130   1.711  0.00  0.00    -0.070 N 
ATOM      3  C1  UNL d   1      -0.812  -0.564   3.009  0.00  0.00    -0.004 A 
ATOM      4  C2  UNL d   1      -2.100  -0.484   3.493  0.00  0.00    -0.047 A 
ATOM      5  C3  UNL d   1      -2.915   0.015   2.449  0.00  0.00    -0.047 A 
ATOM      6  C4  UNL d   1      -2.099   0.225   1.357  0.00  0.00    -0.004 A 
ENDROOT
TORSDOF 0
ENDMDL
