MODEL 1
REMARK minimizedAffinity 12.2168455
REMARK minimizedRMSD -1
REMARK  0 active torsions:
REMARK  status: ('A' for Active; 'I' for Inactive)
ROOT
ATOM      1  N1  IND d   1      -0.951   5.918  -3.993  0.00  0.00    -0.196 N 
ATOM      2  C2  IND d   1       0.411   5.853  -4.096  0.00  0.00     0.054 A 
ATOM      3  C3  IND d   1       0.868   4.695  -3.570  0.00  0.00    -0.031 A 
ATOM      4  C4  IND d   1      -0.448   2.717  -2.579  0.00  0.00     0.051 A 
ATOM      5  C5  IND d   1      -1.713   2.328  -2.236  0.00  0.00    -0.031 A 
ATOM      6  C6  IND d   1      -2.811   3.131  -2.469  0.00  0.00     0.015 A 
ATOM      7  C7  IND d   1      -2.685   4.354  -3.066  0.00  0.00    -0.016 A 
ATOM      8  C8  IND d   1      -1.402   4.755  -3.409  0.00  0.00    -0.047 A 
ATOM      9  C9  IND d   1      -0.279   3.962  -3.136  0.00  0.00    -0.096 A 
ATOM     10  HN1 IND d   1      -1.442   6.575  -4.249  0.00  0.00     0.298 HD
ENDROOT
TORSDOF 0
ENDMDL
