MODEL 1
REMARK minimizedAffinity 4.66910982
REMARK minimizedRMSD -1
REMARK  0 active torsions:
REMARK  status: ('A' for Active; 'I' for Inactive)
ROOT
ATOM      1  N1  IND d   1       0.062  -2.814   2.973  0.00  0.00    -0.196 N 
ATOM      2  C2  IND d   1       0.032  -1.448   2.973  0.00  0.00     0.054 A 
ATOM      3  C3  IND d   1       0.962  -0.957   2.123  0.00  0.00    -0.031 A 
ATOM      4  C4  IND d   1       2.573  -2.215   0.558  0.00  0.00     0.051 A 
ATOM      5  C5  IND d   1       2.996  -3.473   0.232  0.00  0.00    -0.031 A 
ATOM      6  C6  IND d   1       2.449  -4.599   0.813  0.00  0.00     0.015 A 
ATOM      7  C7  IND d   1       1.447  -4.508   1.737  0.00  0.00    -0.016 A 
ATOM      8  C8  IND d   1       1.020  -3.232   2.076  0.00  0.00    -0.047 A 
ATOM      9  C9  IND d   1       1.601  -2.084   1.521  0.00  0.00    -0.096 A 
ATOM     10  HN1 IND d   1      -0.434  -3.327   3.453  0.00  0.00     0.298 HD
ENDROOT
TORSDOF 0
ENDMDL
