MODEL 1
REMARK minimizedAffinity 6.58848095
REMARK minimizedRMSD -1
REMARK  0 active torsions:
REMARK  status: ('A' for Active; 'I' for Inactive)
ROOT
ATOM      1  N1  IND d   1       5.765  -0.567  -3.927  0.00  0.00    -0.196 N 
ATOM      2  C2  IND d   1       5.857  -0.491  -2.565  0.00  0.00     0.054 A 
ATOM      3  C3  IND d   1       5.997   0.796  -2.174  0.00  0.00    -0.031 A 
ATOM      4  C4  IND d   1       5.997   2.945  -3.591  0.00  0.00     0.051 A 
ATOM      5  C5  IND d   1       5.977   3.382  -4.886  0.00  0.00    -0.031 A 
ATOM      6  C6  IND d   1       5.880   2.507  -5.949  0.00  0.00     0.015 A 
ATOM      7  C7  IND d   1       5.788   1.158  -5.755  0.00  0.00    -0.016 A 
ATOM      8  C8  IND d   1       5.816   0.710  -4.442  0.00  0.00    -0.047 A 
ATOM      9  C9  IND d   1       5.956   1.590  -3.361  0.00  0.00    -0.096 A 
ATOM     10  HN1 IND d   1       5.688  -1.290  -4.385  0.00  0.00     0.298 HD
ENDROOT
TORSDOF 0
ENDMDL
