MODEL 1
REMARK minimizedAffinity 8.96414471
REMARK minimizedRMSD -1
REMARK  0 active torsions:
REMARK  status: ('A' for Active; 'I' for Inactive)
ROOT
ATOM      1  N1  IND d   1       1.663   1.908  -2.029  0.00  0.00    -0.196 N 
ATOM      2  C2  IND d   1       1.707   0.750  -1.304  0.00  0.00     0.054 A 
ATOM      3  C3  IND d   1       0.455   0.307  -1.049  0.00  0.00    -0.031 A 
ATOM      4  C4  IND d   1      -1.808   1.270  -1.811  0.00  0.00     0.051 A 
ATOM      5  C5  IND d   1      -2.360   2.337  -2.461  0.00  0.00    -0.031 A 
ATOM      6  C6  IND d   1      -1.584   3.335  -3.014  0.00  0.00     0.015 A 
ATOM      7  C7  IND d   1      -0.220   3.297  -2.947  0.00  0.00    -0.016 A 
ATOM      8  C8  IND d   1       0.344   2.218  -2.281  0.00  0.00    -0.047 A 
ATOM      9  C9  IND d   1      -0.440   1.224  -1.681  0.00  0.00    -0.096 A 
ATOM     10  HN1 IND d   1       2.344   2.366  -2.284  0.00  0.00     0.298 HD
ENDROOT
TORSDOF 0
ENDMDL
