MODEL 1
REMARK minimizedAffinity 9.38836479
REMARK minimizedRMSD -1
REMARK  0 active torsions:
REMARK  status: ('A' for Active; 'I' for Inactive)
ROOT
ATOM      1  N1  IND d   1       4.825  -0.461  -3.835  0.00  0.00    -0.196 N 
ATOM      2  C2  IND d   1       5.807  -0.753  -2.930  0.00  0.00     0.054 A 
ATOM      3  C3  IND d   1       5.387  -0.475  -1.675  0.00  0.00    -0.031 A 
ATOM      4  C4  IND d   1       3.094   0.370  -0.866  0.00  0.00     0.051 A 
ATOM      5  C5  IND d   1       1.886   0.813  -1.327  0.00  0.00    -0.031 A 
ATOM      6  C6  IND d   1       1.589   0.853  -2.674  0.00  0.00     0.015 A 
ATOM      7  C7  IND d   1       2.489   0.438  -3.614  0.00  0.00    -0.016 A 
ATOM      8  C8  IND d   1       3.719  -0.006  -3.151  0.00  0.00    -0.047 A 
ATOM      9  C9  IND d   1       4.041  -0.009  -1.788  0.00  0.00    -0.096 A 
ATOM     10  HN1 IND d   1       4.887  -0.547  -4.688  0.00  0.00     0.298 HD
ENDROOT
TORSDOF 0
ENDMDL
