MODEL 1
REMARK minimizedAffinity 0.369449168
REMARK minimizedRMSD -1
REMARK  0 active torsions:
REMARK  status: ('A' for Active; 'I' for Inactive)
ROOT
ATOM      1  N1  IND d   1       1.833   2.040  -1.936  0.00  0.00    -0.196 N 
ATOM      2  C2  IND d   1       1.192   1.964  -3.141  0.00  0.00     0.054 A 
ATOM      3  C3  IND d   1       0.570   0.770  -3.267  0.00  0.00    -0.031 A 
ATOM      4  C4  IND d   1       0.387  -1.166  -1.580  0.00  0.00     0.051 A 
ATOM      5  C5  IND d   1       0.837  -1.574  -0.357  0.00  0.00    -0.031 A 
ATOM      6  C6  IND d   1       1.657  -0.782   0.420  0.00  0.00     0.015 A 
ATOM      7  C7  IND d   1       2.050   0.459   0.005  0.00  0.00    -0.016 A 
ATOM      8  C8  IND d   1       1.600   0.874  -1.240  0.00  0.00    -0.047 A 
ATOM      9  C9  IND d   1       0.802   0.057  -2.051  0.00  0.00    -0.096 A 
ATOM     10  HN1 IND d   1       2.304   2.705  -1.659  0.00  0.00     0.298 HD
ENDROOT
TORSDOF 0
ENDMDL
