MODEL 1
REMARK minimizedAffinity -4.06514168
REMARK minimizedRMSD -1
REMARK  1 active torsions:
REMARK  status: ('A' for Active; 'I' for Inactive)
REMARK    1  A    between atoms: C1_2  and  C2_3 
ROOT
ATOM      1  C2  UNL d   1      -0.814   0.658   0.050  0.00  0.00    -0.081 A 
ATOM      2  C3  UNL d   1      -0.039   1.592  -0.649  0.00  0.00     0.006 A 
ATOM      3  C4  UNL d   1       1.250   1.265  -1.076  0.00  0.00     0.002 A 
ATOM      4  C5  UNL d   1       1.783  -0.003  -0.818  0.00  0.00    -0.080 A 
ATOM      5  C6  UNL d   1       3.154  -0.378  -1.297  0.00  0.00     0.076 C 
ATOM      6  C7  UNL d   1       1.015  -0.930  -0.105  0.00  0.00     0.002 A 
ATOM      7  C8  UNL d   1      -0.274  -0.603   0.323  0.00  0.00     0.006 A 
ENDROOT
BRANCH   1   8
ATOM      8  C1  UNL d   1      -2.228   0.986   0.455  0.00  0.00     0.054 C 
ATOM      9  C   UNL d   1      -2.624   0.250   1.727  0.00  0.00     0.018 C 
ENDBRANCH   1   8
TORSDOF 1
ENDMDL
