MODEL 1
REMARK minimizedAffinity -1.90340412
REMARK minimizedRMSD -1
REMARK  1 active torsions:
REMARK  status: ('A' for Active; 'I' for Inactive)
REMARK    1  A    between atoms: C1_2  and  C2_3 
ROOT
ATOM      1  C2  UNL d   1       0.518   0.855  -0.841  0.00  0.00    -0.081 A 
ATOM      2  C3  UNL d   1       1.444  -0.163  -1.099  0.00  0.00     0.006 A 
ATOM      3  C4  UNL d   1       1.236  -1.452  -0.601  0.00  0.00     0.002 A 
ATOM      4  C5  UNL d   1       0.097  -1.745   0.156  0.00  0.00    -0.080 A 
ATOM      5  C6  UNL d   1      -0.153  -3.131   0.671  0.00  0.00     0.076 C 
ATOM      6  C7  UNL d   1      -0.819  -0.724   0.429  0.00  0.00     0.002 A 
ATOM      7  C8  UNL d   1      -0.612   0.565  -0.068  0.00  0.00     0.006 A 
ENDROOT
BRANCH   1   8
ATOM      8  C1  UNL d   1       0.706   2.230  -1.431  0.00  0.00     0.054 C 
ATOM      9  C   UNL d   1      -0.622   2.960  -1.567  0.00  0.00     0.018 C 
ENDBRANCH   1   8
TORSDOF 1
ENDMDL
