MODEL 1
REMARK minimizedAffinity -2.2579298
REMARK minimizedRMSD -1
REMARK  1 active torsions:
REMARK  status: ('A' for Active; 'I' for Inactive)
REMARK    1  A    between atoms: C1_2  and  C2_3 
ROOT
ATOM      1  C2  UNL d   1       1.406  -1.864  -1.527  0.00  0.00    -0.081 A 
ATOM      2  C3  UNL d   1       0.442  -1.801  -0.513  0.00  0.00     0.006 A 
ATOM      3  C4  UNL d   1       0.267  -0.628   0.226  0.00  0.00     0.002 A 
ATOM      4  C5  UNL d   1       1.046   0.502  -0.042  0.00  0.00    -0.080 A 
ATOM      5  C6  UNL d   1       0.848   1.777   0.723  0.00  0.00     0.076 C 
ATOM      6  C7  UNL d   1       2.021   0.434  -1.043  0.00  0.00     0.002 A 
ATOM      7  C8  UNL d   1       2.197  -0.738  -1.782  0.00  0.00     0.006 A 
ENDROOT
BRANCH   1   8
ATOM      8  C1  UNL d   1       1.553  -3.106  -2.368  0.00  0.00     0.054 C 
ATOM      9  C   UNL d   1       1.150  -2.846  -3.813  0.00  0.00     0.018 C 
ENDBRANCH   1   8
TORSDOF 1
ENDMDL
