MODEL 1
REMARK minimizedAffinity -4.74874687
REMARK minimizedRMSD -1
REMARK  1 active torsions:
REMARK  status: ('A' for Active; 'I' for Inactive)
REMARK    1  A    between atoms: C1_2  and  C2_3 
ROOT
ATOM      1  C2  UNL d   1      -0.631   0.042   0.468  0.00  0.00    -0.081 A 
ATOM      2  C3  UNL d   1       0.076  -1.136   0.739  0.00  0.00     0.006 A 
ATOM      3  C4  UNL d   1       1.228  -1.454   0.015  0.00  0.00     0.002 A 
ATOM      4  C5  UNL d   1       1.696  -0.596  -0.985  0.00  0.00    -0.080 A 
ATOM      5  C6  UNL d   1       2.949  -0.909  -1.749  0.00  0.00     0.076 C 
ATOM      6  C7  UNL d   1       0.981   0.573  -1.268  0.00  0.00     0.002 A 
ATOM      7  C8  UNL d   1      -0.171   0.890  -0.545  0.00  0.00     0.006 A 
ENDROOT
BRANCH   1   8
ATOM      8  C1  UNL d   1      -1.837   0.419   1.290  0.00  0.00     0.054 C 
ATOM      9  C   UNL d   1      -1.433   1.151   2.561  0.00  0.00     0.018 C 
ENDBRANCH   1   8
TORSDOF 1
ENDMDL
