MODEL 1
REMARK minimizedAffinity -4.98553228
REMARK minimizedRMSD -1
REMARK  1 active torsions:
REMARK  status: ('A' for Active; 'I' for Inactive)
REMARK    1  A    between atoms: C1_2  and  C2_3 
ROOT
ATOM      1  C2  UNL d   1       1.199   0.073  -0.782  0.00  0.00    -0.081 A 
ATOM      2  C3  UNL d   1       0.296   1.107  -1.055  0.00  0.00     0.006 A 
ATOM      3  C4  UNL d   1      -0.834   1.291  -0.253  0.00  0.00     0.002 A 
ATOM      4  C5  UNL d   1      -1.074   0.449   0.838  0.00  0.00    -0.080 A 
ATOM      5  C6  UNL d   1      -2.266   0.654   1.724  0.00  0.00     0.076 C 
ATOM      6  C7  UNL d   1      -0.180  -0.595   1.100  0.00  0.00     0.002 A 
ATOM      7  C8  UNL d   1       0.949  -0.779   0.299  0.00  0.00     0.006 A 
ENDROOT
BRANCH   1   8
ATOM      8  C1  UNL d   1       2.452  -0.087  -1.605  0.00  0.00     0.054 C 
ATOM      9  C   UNL d   1       2.371   0.713  -2.898  0.00  0.00     0.018 C 
ENDBRANCH   1   8
TORSDOF 1
ENDMDL
