MODEL 1
REMARK minimizedAffinity -2.40833783
REMARK minimizedRMSD -1
REMARK  1 active torsions:
REMARK  status: ('A' for Active; 'I' for Inactive)
REMARK    1  A    between atoms: C1_2  and  C2_3 
ROOT
ATOM      1  C2  UNL d   1      -1.554   0.222   1.452  0.00  0.00    -0.081 A 
ATOM      2  C3  UNL d   1      -1.176  -0.966   0.815  0.00  0.00     0.006 A 
ATOM      3  C4  UNL d   1      -0.031  -1.008   0.016  0.00  0.00     0.002 A 
ATOM      4  C5  UNL d   1       0.759   0.134  -0.153  0.00  0.00    -0.080 A 
ATOM      5  C6  UNL d   1       2.008   0.095  -0.983  0.00  0.00     0.076 C 
ATOM      6  C7  UNL d   1       0.372   1.326   0.469  0.00  0.00     0.002 A 
ATOM      7  C8  UNL d   1      -0.773   1.369   1.267  0.00  0.00     0.006 A 
ENDROOT
BRANCH   1   8
ATOM      8  C1  UNL d   1      -2.752   0.254   2.366  0.00  0.00     0.054 C 
ATOM      9  C   UNL d   1      -2.451   1.020   3.646  0.00  0.00     0.018 C 
ENDBRANCH   1   8
TORSDOF 1
ENDMDL
