MODEL 1
REMARK minimizedAffinity -4.44929647
REMARK minimizedRMSD -1
REMARK  1 active torsions:
REMARK  status: ('A' for Active; 'I' for Inactive)
REMARK    1  A    between atoms: C1_2  and  C2_3 
ROOT
ATOM      1  C2  UNL d   1       1.240   0.144  -0.753  0.00  0.00    -0.081 A 
ATOM      2  C3  UNL d   1       1.651  -1.185  -0.918  0.00  0.00     0.006 A 
ATOM      3  C4  UNL d   1       0.747  -2.234  -0.733  0.00  0.00     0.002 A 
ATOM      4  C5  UNL d   1      -0.583  -1.972  -0.389  0.00  0.00    -0.080 A 
ATOM      5  C6  UNL d   1      -1.571  -3.087  -0.217  0.00  0.00     0.076 C 
ATOM      6  C7  UNL d   1      -0.990  -0.645  -0.207  0.00  0.00     0.002 A 
ATOM      7  C8  UNL d   1      -0.086   0.404  -0.391  0.00  0.00     0.006 A 
ENDROOT
BRANCH   1   8
ATOM      8  C1  UNL d   1       2.196   1.279  -1.015  0.00  0.00     0.054 C 
ATOM      9  C   UNL d   1       1.464   2.510  -1.531  0.00  0.00     0.018 C 
ENDBRANCH   1   8
TORSDOF 1
ENDMDL
