MODEL 1
REMARK minimizedAffinity -2.65046954
REMARK minimizedRMSD -1
REMARK  1 active torsions:
REMARK  status: ('A' for Active; 'I' for Inactive)
REMARK    1  A    between atoms: C1_2  and  C2_3 
ROOT
ATOM      1  C2  UNL d   1       1.190   0.263  -0.811  0.00  0.00    -0.081 A 
ATOM      2  C3  UNL d   1       1.758  -0.913  -1.316  0.00  0.00     0.006 A 
ATOM      3  C4  UNL d   1       1.125  -2.143  -1.128  0.00  0.00     0.002 A 
ATOM      4  C5  UNL d   1      -0.090  -2.218  -0.438  0.00  0.00    -0.080 A 
ATOM      5  C6  UNL d   1      -0.795  -3.529  -0.255  0.00  0.00     0.076 C 
ATOM      6  C7  UNL d   1      -0.649  -1.046   0.082  0.00  0.00     0.002 A 
ATOM      7  C8  UNL d   1      -0.016   0.185  -0.105  0.00  0.00     0.006 A 
ENDROOT
BRANCH   1   8
ATOM      8  C1  UNL d   1       1.838   1.600  -1.069  0.00  0.00     0.054 C 
ATOM      9  C   UNL d   1       0.882   2.551  -1.774  0.00  0.00     0.018 C 
ENDBRANCH   1   8
TORSDOF 1
ENDMDL
