MODEL 1
REMARK minimizedAffinity -3.75587964
REMARK minimizedRMSD -1
REMARK  1 active torsions:
REMARK  status: ('A' for Active; 'I' for Inactive)
REMARK    1  A    between atoms: C1_2  and  C2_3 
ROOT
ATOM      1  C2  UNL d   1       1.493  -0.092  -0.297  0.00  0.00    -0.081 A 
ATOM      2  C3  UNL d   1       1.404  -0.552   1.023  0.00  0.00     0.006 A 
ATOM      3  C4  UNL d   1       0.341  -0.158   1.840  0.00  0.00     0.002 A 
ATOM      4  C5  UNL d   1      -0.653   0.695   1.349  0.00  0.00    -0.080 A 
ATOM      5  C6  UNL d   1      -1.815   1.101   2.206  0.00  0.00     0.076 C 
ATOM      6  C7  UNL d   1      -0.555   1.169   0.037  0.00  0.00     0.002 A 
ATOM      7  C8  UNL d   1       0.508   0.776  -0.781  0.00  0.00     0.006 A 
ENDROOT
BRANCH   1   8
ATOM      8  C1  UNL d   1       2.602  -0.566  -1.201  0.00  0.00     0.054 C 
ATOM      9  C   UNL d   1       2.188  -1.804  -1.983  0.00  0.00     0.018 C 
ENDBRANCH   1   8
TORSDOF 1
ENDMDL
