MODEL 1
REMARK minimizedAffinity -4.9554019
REMARK minimizedRMSD -1
REMARK  1 active torsions:
REMARK  status: ('A' for Active; 'I' for Inactive)
REMARK    1  A    between atoms: C1_2  and  C2_3 
ROOT
ATOM      1  C2  UNL d   1      -0.940   0.190   0.596  0.00  0.00    -0.081 A 
ATOM      2  C3  UNL d   1      -0.553  -1.105   0.229  0.00  0.00     0.006 A 
ATOM      3  C4  UNL d   1       0.698  -1.333  -0.347  0.00  0.00     0.002 A 
ATOM      4  C5  UNL d   1       1.586  -0.273  -0.560  0.00  0.00    -0.080 A 
ATOM      5  C6  UNL d   1       2.944  -0.509  -1.150  0.00  0.00     0.076 C 
ATOM      6  C7  UNL d   1       1.192   1.023  -0.210  0.00  0.00     0.002 A 
ATOM      7  C8  UNL d   1      -0.059   1.252   0.366  0.00  0.00     0.006 A 
ENDROOT
BRANCH   1   8
ATOM      8  C1  UNL d   1      -2.263   0.431   1.277  0.00  0.00     0.054 C 
ATOM      9  C   UNL d   1      -2.092   1.260   2.542  0.00  0.00     0.018 C 
ENDBRANCH   1   8
TORSDOF 1
ENDMDL
