MODEL 1
REMARK minimizedAffinity -0.431674659
REMARK minimizedRMSD -1
REMARK  0 active torsions:
REMARK  status: ('A' for Active; 'I' for Inactive)
ROOT
ATOM      1  C   UNL d   1       3.901  -4.571   0.026  0.00  0.00     0.020 A 
ATOM      2  C1  UNL d   1       4.579  -5.279  -0.965  0.00  0.00     0.020 A 
ATOM      3  C2  UNL d   1       4.513  -4.857  -2.295  0.00  0.00     0.034 A 
ATOM      4  C3  UNL d   1       3.767  -3.723  -2.637  0.00  0.00     0.017 A 
ATOM      5  C4  UNL d   1       3.087  -3.012  -1.641  0.00  0.00     0.017 A 
ATOM      6  C5  UNL d   1       3.156  -3.440  -0.312  0.00  0.00     0.034 A 
ATOM      7 Cl   UNL d   1       2.146  -1.604  -1.986  0.00  0.00    -0.070 Cl
ATOM      8 Cl1  UNL d   1       3.729  -3.258  -4.300  0.00  0.00    -0.070 Cl
ENDROOT
TORSDOF 0
ENDMDL
