MODEL 1
REMARK minimizedAffinity 2.73962116
REMARK minimizedRMSD -1
REMARK  0 active torsions:
REMARK  status: ('A' for Active; 'I' for Inactive)
ROOT
ATOM      1  C   UNL d   1       2.299  -4.381  -1.960  0.00  0.00     0.020 A 
ATOM      2  C1  UNL d   1       3.328  -4.798  -1.118  0.00  0.00     0.020 A 
ATOM      3  C2  UNL d   1       4.164  -3.855  -0.517  0.00  0.00     0.034 A 
ATOM      4  C3  UNL d   1       3.973  -2.490  -0.758  0.00  0.00     0.017 A 
ATOM      5  C4  UNL d   1       2.939  -2.072  -1.604  0.00  0.00     0.017 A 
ATOM      6  C5  UNL d   1       2.105  -3.020  -2.203  0.00  0.00     0.034 A 
ATOM      7 Cl   UNL d   1       2.641  -0.404  -1.949  0.00  0.00    -0.070 Cl
ATOM      8 Cl1  UNL d   1       5.044  -1.379   0.019  0.00  0.00    -0.070 Cl
ENDROOT
TORSDOF 0
ENDMDL
