MODEL 1
REMARK minimizedAffinity -1.25090194
REMARK minimizedRMSD -1
REMARK  0 active torsions:
REMARK  status: ('A' for Active; 'I' for Inactive)
ROOT
ATOM      1  C   UNL d   1       1.829  -1.987  -2.234  0.00  0.00     0.020 A 
ATOM      2  C1  UNL d   1       2.168  -2.002  -0.882  0.00  0.00     0.020 A 
ATOM      3  C2  UNL d   1       3.125  -2.903  -0.411  0.00  0.00     0.034 A 
ATOM      4  C3  UNL d   1       3.747  -3.794  -1.294  0.00  0.00     0.017 A 
ATOM      5  C4  UNL d   1       3.406  -3.779  -2.651  0.00  0.00     0.017 A 
ATOM      6  C5  UNL d   1       2.447  -2.874  -3.117  0.00  0.00     0.034 A 
ATOM      7 Cl   UNL d   1       4.129  -4.848  -3.800  0.00  0.00    -0.070 Cl
ATOM      8 Cl1  UNL d   1       4.922  -4.881  -0.643  0.00  0.00    -0.070 Cl
ENDROOT
TORSDOF 0
ENDMDL
