MODEL 1
REMARK minimizedAffinity 1.02511418
REMARK minimizedRMSD -1
REMARK  0 active torsions:
REMARK  status: ('A' for Active; 'I' for Inactive)
ROOT
ATOM      1  C   UNL d   1       3.633  -4.600  -3.712  0.00  0.00     0.020 A 
ATOM      2  C1  UNL d   1       2.658  -3.604  -3.738  0.00  0.00     0.020 A 
ATOM      3  C2  UNL d   1       2.282  -2.964  -2.555  0.00  0.00     0.034 A 
ATOM      4  C3  UNL d   1       2.881  -3.319  -1.341  0.00  0.00     0.017 A 
ATOM      5  C4  UNL d   1       3.860  -4.319  -1.316  0.00  0.00     0.017 A 
ATOM      6  C5  UNL d   1       4.232  -4.957  -2.504  0.00  0.00     0.034 A 
ATOM      7 Cl   UNL d   1       4.644  -4.812   0.143  0.00  0.00    -0.070 Cl
ATOM      8 Cl1  UNL d   1       2.368  -2.486   0.083  0.00  0.00    -0.070 Cl
ENDROOT
TORSDOF 0
ENDMDL
