MODEL 1
REMARK minimizedAffinity 2.43530011
REMARK minimizedRMSD -1
REMARK  0 active torsions:
REMARK  status: ('A' for Active; 'I' for Inactive)
ROOT
ATOM      1  C   UNL d   1       4.664  -5.575  -1.178  0.00  0.00     0.020 A 
ATOM      2  C1  UNL d   1       4.293  -4.690  -0.166  0.00  0.00     0.020 A 
ATOM      3  C2  UNL d   1       3.481  -3.593  -0.461  0.00  0.00     0.034 A 
ATOM      4  C3  UNL d   1       3.036  -3.379  -1.770  0.00  0.00     0.017 A 
ATOM      5  C4  UNL d   1       3.409  -4.268  -2.785  0.00  0.00     0.017 A 
ATOM      6  C5  UNL d   1       4.222  -5.364  -2.484  0.00  0.00     0.034 A 
ATOM      7 Cl   UNL d   1       2.899  -4.069  -4.425  0.00  0.00    -0.070 Cl
ATOM      8 Cl1  UNL d   1       2.034  -2.002  -2.063  0.00  0.00    -0.070 Cl
ENDROOT
TORSDOF 0
ENDMDL
