MODEL 1
REMARK minimizedAffinity 10.0554943
REMARK minimizedRMSD -1
REMARK  0 active torsions:
REMARK  status: ('A' for Active; 'I' for Inactive)
ROOT
ATOM      1  C   UNL d   1       1.919  -4.169  -3.523  0.00  0.00     0.020 A 
ATOM      2  C1  UNL d   1       2.964  -5.078  -3.682  0.00  0.00     0.020 A 
ATOM      3  C2  UNL d   1       3.845  -5.322  -2.626  0.00  0.00     0.034 A 
ATOM      4  C3  UNL d   1       3.682  -4.655  -1.406  0.00  0.00     0.017 A 
ATOM      5  C4  UNL d   1       2.632  -3.743  -1.247  0.00  0.00     0.017 A 
ATOM      6  C5  UNL d   1       1.753  -3.503  -2.309  0.00  0.00     0.034 A 
ATOM      7 Cl   UNL d   1       2.367  -2.882   0.228  0.00  0.00    -0.070 Cl
ATOM      8 Cl1  UNL d   1       4.807  -5.005  -0.142  0.00  0.00    -0.070 Cl
ENDROOT
TORSDOF 0
ENDMDL
