MODEL 1
REMARK minimizedAffinity -3.29677939
REMARK minimizedRMSD -1
REMARK  0 active torsions:
REMARK  status: ('A' for Active; 'I' for Inactive)
ROOT
ATOM      1  C   UNL d   1       3.362  -4.738  -3.750  0.00  0.00     0.020 A 
ATOM      2  C1  UNL d   1       3.865  -5.342  -2.599  0.00  0.00     0.020 A 
ATOM      3  C2  UNL d   1       3.875  -4.642  -1.390  0.00  0.00     0.034 A 
ATOM      4  C3  UNL d   1       3.381  -3.334  -1.331  0.00  0.00     0.017 A 
ATOM      5  C4  UNL d   1       2.875  -2.729  -2.487  0.00  0.00     0.017 A 
ATOM      6  C5  UNL d   1       2.868  -3.434  -3.694  0.00  0.00     0.034 A 
ATOM      7 Cl   UNL d   1       2.248  -1.118  -2.491  0.00  0.00    -0.070 Cl
ATOM      8 Cl1  UNL d   1       3.423  -2.528   0.197  0.00  0.00    -0.070 Cl
ENDROOT
TORSDOF 0
ENDMDL
