MODEL 1
REMARK minimizedAffinity -1.78575599
REMARK minimizedRMSD -1
REMARK  0 active torsions:
REMARK  status: ('A' for Active; 'I' for Inactive)
ROOT
ATOM      1  C   UNL d   1       4.225  -4.509  -0.320  0.00  0.00     0.020 A 
ATOM      2  C1  UNL d   1       3.319  -3.450  -0.287  0.00  0.00     0.020 A 
ATOM      3  C2  UNL d   1       2.850  -2.896  -1.480  0.00  0.00     0.034 A 
ATOM      4  C3  UNL d   1       3.286  -3.401  -2.711  0.00  0.00     0.017 A 
ATOM      5  C4  UNL d   1       4.195  -4.465  -2.742  0.00  0.00     0.017 A 
ATOM      6  C5  UNL d   1       4.662  -5.016  -1.545  0.00  0.00     0.034 A 
ATOM      7 Cl   UNL d   1       4.778  -5.142  -4.221  0.00  0.00    -0.070 Cl
ATOM      8 Cl1  UNL d   1       2.663  -2.668  -4.146  0.00  0.00    -0.070 Cl
ENDROOT
TORSDOF 0
ENDMDL
