MODEL 1
REMARK minimizedAffinity 3.25000262
REMARK minimizedRMSD -1
REMARK  0 active torsions:
REMARK  status: ('A' for Active; 'I' for Inactive)
ROOT
ATOM      1  C   UNL d   1       2.981  -4.406  -0.073  0.00  0.00     0.020 A 
ATOM      2  C1  UNL d   1       4.372  -4.490  -0.042  0.00  0.00     0.020 A 
ATOM      3  C2  UNL d   1       5.100  -4.466  -1.234  0.00  0.00     0.034 A 
ATOM      4  C3  UNL d   1       4.436  -4.359  -2.461  0.00  0.00     0.017 A 
ATOM      5  C4  UNL d   1       3.040  -4.274  -2.491  0.00  0.00     0.017 A 
ATOM      6  C5  UNL d   1       2.316  -4.298  -1.295  0.00  0.00     0.034 A 
ATOM      7 Cl   UNL d   1       2.150  -4.139  -3.967  0.00  0.00    -0.070 Cl
ATOM      8 Cl1  UNL d   1       5.399  -4.335  -3.896  0.00  0.00    -0.070 Cl
ENDROOT
TORSDOF 0
ENDMDL
