MODEL 1
REMARK minimizedAffinity 6.41745806
REMARK minimizedRMSD -1
REMARK  0 active torsions:
REMARK  status: ('A' for Active; 'I' for Inactive)
ROOT
ATOM      1  C   UNL d   1       2.525  -3.413  -3.952  0.00  0.00     0.020 A 
ATOM      2  C1  UNL d   1       3.755  -3.805  -4.478  0.00  0.00     0.020 A 
ATOM      3  C2  UNL d   1       4.814  -4.114  -3.622  0.00  0.00     0.034 A 
ATOM      4  C3  UNL d   1       4.645  -4.032  -2.235  0.00  0.00     0.017 A 
ATOM      5  C4  UNL d   1       3.409  -3.639  -1.708  0.00  0.00     0.017 A 
ATOM      6  C5  UNL d   1       2.352  -3.331  -2.570  0.00  0.00     0.034 A 
ATOM      7 Cl   UNL d   1       3.124  -3.515  -0.007  0.00  0.00    -0.070 Cl
ATOM      8 Cl1  UNL d   1       5.997  -4.429  -1.235  0.00  0.00    -0.070 Cl
ENDROOT
TORSDOF 0
ENDMDL
