MODEL 1
REMARK minimizedAffinity 1.05707991
REMARK minimizedRMSD -1
REMARK  0 active torsions:
REMARK  status: ('A' for Active; 'I' for Inactive)
ROOT
ATOM      1  C   UNL d   1      -2.147  -3.525   1.973  0.00  0.00     0.020 A 
ATOM      2  C1  UNL d   1      -1.163  -2.938   2.768  0.00  0.00     0.020 A 
ATOM      3  C2  UNL d   1       0.018  -2.473   2.186  0.00  0.00     0.034 A 
ATOM      4  C3  UNL d   1       0.219  -2.595   0.806  0.00  0.00     0.017 A 
ATOM      5  C4  UNL d   1      -0.769  -3.184   0.010  0.00  0.00     0.017 A 
ATOM      6  C5  UNL d   1      -1.951  -3.648   0.597  0.00  0.00     0.034 A 
ATOM      7 Cl   UNL d   1      -0.594  -3.370  -1.700  0.00  0.00    -0.070 Cl
ATOM      8 Cl1  UNL d   1       1.704  -1.998   0.155  0.00  0.00    -0.070 Cl
ENDROOT
TORSDOF 0
ENDMDL
